#------------------------------------------------------------------------------
#$Date: 2023-04-20 14:53:48 +0300 (Thu, 20 Apr 2023) $
#$Revision: 282777 $
#$URL: file:///home/coder/svn-repositories/cod/cif/1/56/52/1565263.cif $
#------------------------------------------------------------------------------
#
# This file is available in the Crystallography Open Database (COD),
# http://www.crystallography.net/
#
# All data on this site have been placed in the public domain by the
# contributors.
#
data_1565263
loop_
_publ_author_name
'Balijapelly, Srikanth'
'Ghosh, Kartik'
'Chernatynskiy, Aleksandr V.'
'Choudhury, Amitava'
_publ_section_title
;
 Discovery of an olivine-type lithium manganese thiophosphate, LiMnPS
 <sub>4</sub> , <i>via</i> a building block approach
;
_journal_issue                   97
_journal_name_full               'Chemical Communications'
_journal_page_first              13182
_journal_page_last               13185
_journal_paper_doi               10.1039/D1CC05168G
_journal_volume                  57
_journal_year                    2021
_chemical_formula_sum            'Li Mn P S4'
_chemical_formula_weight         221.09
_space_group_crystal_system      orthorhombic
_space_group_IT_number           62
_space_group_name_Hall           '-P 2ac 2n'
_space_group_name_H-M_alt        'P n m a'
_audit_creation_method           SHELXL-2018/3
_audit_update_record
;
2021-09-13 deposited with the CCDC.	2021-11-16 downloaded from the CCDC.
;
_cell_angle_alpha                90
_cell_angle_beta                 90
_cell_angle_gamma                90
_cell_formula_units_Z            4
_cell_length_a                   12.540(3)
_cell_length_b                   7.6545(16)
_cell_length_c                   5.8345(12)
_cell_measurement_reflns_used    1423
_cell_measurement_temperature    300(2)
_cell_measurement_theta_max      27.36
_cell_measurement_theta_min      3.25
_cell_volume                     560.0(2)
_computing_cell_refinement       'Bruker SAINT'
_computing_data_collection       'Bruker APEX2'
_computing_data_reduction        'Bruker SAINT'
_computing_molecular_graphics    'Bruker SHELXTL'
_computing_publication_material  'Bruker SHELXTL'
_computing_structure_refinement  'SHELXL-2018/3 (Sheldrick, 2018)'
_computing_structure_solution    'SHELXS-97 (Sheldrick, 2008)'
_diffrn_ambient_temperature      300(2)
_diffrn_measured_fraction_theta_full 1.000
_diffrn_measured_fraction_theta_max 0.985
_diffrn_measurement_device_type  'Bruker APEX-II CCD'
_diffrn_measurement_method       '\w scans'
_diffrn_radiation_monochromator  graphite
_diffrn_radiation_source         'sealed tube'
_diffrn_radiation_type           MoK\a
_diffrn_radiation_wavelength     0.71073
_diffrn_reflns_av_R_equivalents  0.0505
_diffrn_reflns_av_unetI/netI     0.0276
_diffrn_reflns_Laue_measured_fraction_full 1.000
_diffrn_reflns_Laue_measured_fraction_max 0.985
_diffrn_reflns_limit_h_max       16
_diffrn_reflns_limit_h_min       -16
_diffrn_reflns_limit_k_max       9
_diffrn_reflns_limit_k_min       -10
_diffrn_reflns_limit_l_max       7
_diffrn_reflns_limit_l_min       -7
_diffrn_reflns_number            6207
_diffrn_reflns_point_group_measured_fraction_full 1.000
_diffrn_reflns_point_group_measured_fraction_max 0.985
_diffrn_reflns_theta_full        25.242
_diffrn_reflns_theta_max         28.275
_diffrn_reflns_theta_min         3.249
_exptl_absorpt_coefficient_mu    3.971
_exptl_absorpt_correction_T_max  0.7457
_exptl_absorpt_correction_T_min  0.5701
_exptl_absorpt_correction_type   multi-scan
_exptl_absorpt_process_details   '(SADABS; Bruker, 2008)'
_exptl_crystal_colour            yellow
_exptl_crystal_density_diffrn    2.622
_exptl_crystal_density_meas      ?
_exptl_crystal_density_method    none
_exptl_crystal_description       irregular
_exptl_crystal_F_000             428
_exptl_crystal_size_max          0.080
_exptl_crystal_size_mid          0.050
_exptl_crystal_size_min          0.040
_refine_diff_density_max         0.895
_refine_diff_density_min         -0.699
_refine_diff_density_rms         0.181
_refine_ls_extinction_method     none
_refine_ls_goodness_of_fit_ref   1.112
_refine_ls_hydrogen_treatment    undef
_refine_ls_matrix_type           full
_refine_ls_number_parameters     40
_refine_ls_number_reflns         735
_refine_ls_number_restraints     0
_refine_ls_restrained_S_all      1.112
_refine_ls_R_factor_all          0.0395
_refine_ls_R_factor_gt           0.0330
_refine_ls_shift/su_max          0.000
_refine_ls_shift/su_mean         0.000
_refine_ls_structure_factor_coef Fsqd
_refine_ls_weighting_details
'w=1/[\s^2^(Fo^2^)+(0.0468P)^2^+0.2744P] where P=(Fo^2^+2Fc^2^)/3'
_refine_ls_weighting_scheme      calc
_refine_ls_wR_factor_gt          0.0806
_refine_ls_wR_factor_ref         0.0852
_reflns_Friedel_coverage         0.000
_reflns_number_gt                643
_reflns_number_total             735
_reflns_threshold_expression     'I > 2\s(I)'
_cod_data_source_file            d1cc05168g2.cif
_cod_data_source_block           sad
_cod_depositor_comments
;
The following automatic conversions were performed:

data item '_exptl_crystal_density_meas' value 'none' was changed to
'?' -- the value is perceived as not measured.

Automatic conversion script
Id: cif_fix_values 7556 2019-12-06 15:28:31Z antanas 
;
_cod_database_code               1565263
_shelx_shelxl_version_number     2018/3
_shelx_space_group_comment
;
The symmetry employed for this shelxl refinement is uniquely defined
by the following loop, which should always be used as a source of
symmetry information in preference to the above space-group names.
They are only intended as comments.
;
_shelx_estimated_absorpt_t_min   0.742
_shelx_estimated_absorpt_t_max   0.857
_shelx_res_file
;
TITL sad1 in Pnma
    sad.res
    created by SHELXL-2018/3 at 15:49:50 on 01-Mar-2021
CELL 0.71073  12.5401   7.6545   5.8345  90.000  90.000  90.000
ZERR    4.00   0.0026   0.0016   0.0012   0.000   0.000   0.000
LATT  1
SYMM 0.5-X, -Y, 0.5+Z
SYMM -X, 0.5+Y, -Z
SYMM 0.5+X, 0.5-Y, 0.5-Z
SFAC LI P S MN
UNIT 4 4 16 4
ACTA
LIST 6 ! automatically inserted. Change 6 to 4 for CHECKCIF!!
TEMP 27
SIZE 0.04 0.05 0.08
L.S. 10
BOND
FMAP 2
PLAN 5
WGHT    0.046800    0.274400
FVAR       0.14420
MN1   4    0.000000    0.000000    0.500000    10.50000    0.02982    0.02446 =
         0.02104    0.00826    0.00677    0.00074
P1    2    0.091062    0.250000    0.106395    10.50000    0.01682    0.01635 =
         0.00696    0.00000    0.00000    0.00000
S1    3    0.164917    0.035695    0.242841    11.00000    0.02135    0.02061 =
         0.01268    0.00145    0.00079    0.00447
S2    3   -0.062464    0.250000    0.240925    10.50000    0.01507    0.02017 =
         0.01260    0.00000    0.00068    0.00000
S3    3    0.094667    0.250000   -0.242011    10.50000    0.02245    0.02068 =
         0.00731    0.00000    0.00073    0.00000
LI1   1   -0.228132    0.250000   -0.010927    10.50000    0.02951    0.03625 =
         0.02469    0.00000   -0.00642    0.00000
HKLF 4




REM  sad1 in Pnma
REM wR2 = 0.0852, GooF = S = 1.112, Restrained GooF = 1.112 for all data
REM R1 = 0.0330 for 643 Fo > 4sig(Fo) and 0.0395 for all 735 data
REM 40 parameters refined using 0 restraints

END

WGHT      0.0468      0.2744

REM Highest difference peak  0.895,  deepest hole -0.699,  1-sigma level  0.181
Q1    1  -0.1164  0.2500  0.2385  10.50000  0.05    0.89
Q2    1   0.0490  0.2500 -0.2510  10.50000  0.05    0.78
Q3    1   0.1828  0.2500 -0.2405  10.50000  0.05    0.62
Q4    1   0.0172  0.2500  0.2371  10.50000  0.05    0.52
Q5    1   0.0155  0.2500  0.1159  10.50000  0.05    0.51
;
_shelx_res_checksum              60552
_shelx_hkl_file
;
   0   0   1   -0.16    0.08
   0   0  -1   -0.34    0.08
   0   0   1   -0.09    0.12
   0   0  -1   -0.20    0.09
   0   0  -2  236.78    9.35
   0   0   2  250.13    9.38
   0   0   2  222.59    9.04
   0   0  -2  245.07    9.14
   0   0   3    0.12    0.18
   0   0  -3    0.40    0.27
   0   0   3    0.01    0.22
   0   0  -3   -0.09    0.17
   0   0  -4  528.02   20.77
   0   0  -4  554.88   20.33
   0   0   4  535.81   20.80
   0   0   4  518.23   20.16
   0   0   5   -0.30    0.23
   0   0  -5    0.07    0.30
   0   0   5   -0.17    0.29
   0   0  -5   -0.02    0.29
   0   0   6  109.20    5.76
   0   0  -6  116.73    5.93
   0   0   7   -0.37    0.39
   0   0  -7    0.52    0.48
   0  -1   0    0.02    0.04
   0  -1   0   -0.05    0.07
   0   1   0   -0.02    0.05
   0   1   0   -0.05    0.04
   0   1   1   76.86    2.85
   0  -1  -1   69.05    3.00
   0   1  -1   72.60    3.02
   0  -1  -1   72.61    2.91
   0   1   1   72.15    2.96
   0  -1   1   71.14    2.74
   0  -1   1   68.85    3.01
   0   1  -2    0.00    0.11
   0  -1  -2    0.04    0.17
   0   1  -2   -0.07    0.11
   0  -1   2   -0.14    0.08
   0   1   2   -0.11    0.10
   0  -1   2   -0.26    0.14
   0   1   2   -0.16    0.11
   0  -1  -2   -0.08    0.14
   0   1   3    4.55    0.68
   0  -1  -3    5.57    0.75
   0  -1   3    3.99    0.47
   0   1  -3    4.80    0.62
   0   1   3    5.11    0.71
   0  -1  -3    4.80    0.76
   0   1  -3    4.14    0.71
   0  -1   3    4.61    0.78
   0   1  -4   -0.10    0.23
   0  -1   4    0.31    0.22
   0   1   4    0.42    0.28
   0  -1  -4   -0.09    0.25
   0  -1  -4   -0.40    0.21
   0  -1   4   -0.04    0.28
   0   1   4   -0.28    0.18
   0   1  -4    0.13    0.19
   0   1  -5    0.04    0.29
   0   1   5   -0.13    0.26
   0   1   5   -0.11    0.27
   0   1  -5   -0.27    0.26
   0  -1  -5   -0.03    0.27
   0  -1  -5    0.35    0.33
   0  -1   5    0.18    0.37
   0  -1   6   -0.37    0.33
   0   1  -6    0.07    0.38
   0   1   6   -0.03    0.34
   0  -1  -6   -0.50    0.34
   0  -1  -7   16.27    2.10
   0   1  -7   16.28    2.06
   0  -1   7   11.53    1.76
   0  -2   0    5.21    0.56
   0  -2   0    4.94    0.42
   0   2   0    6.55    0.52
   0   2   0    4.58    0.51
   0  -2   1    0.06    0.16
   0  -2  -1   -0.16    0.14
   0   2  -1   -0.05    0.11
   0   2  -1   -0.14    0.07
   0   2  -1   -0.01    0.14
   0   2   1   -0.10    0.10
   0   2   1   -0.07    0.11
   0  -2   2   76.44    3.87
   0   2   2   88.73    3.89
   0  -2  -2   90.11    4.00
   0  -2  -2   92.46    3.85
   0   2  -2   84.88    3.93
   0   2   2   91.09    3.62
   0   2  -2   93.97    3.78
   0   2   3   -0.10    0.18
   0   2   3    0.02    0.15
   0  -2   3   -0.16    0.10
   0  -2   3    0.09    0.26
   0   2  -3    0.02    0.17
   0  -2  -3    0.06    0.22
   0  -2  -3    0.06    0.24
   0   2  -3    0.04    0.17
   0   2  -4   90.32    4.45
   0   2  -4   87.94    4.03
   0  -2  -4   82.73    4.34
   0  -2   4   81.10    4.39
   0  -2  -4   90.50    4.21
   0   2   4   92.33    4.31
   0   2   4   86.45    4.11
   0   2  -5    0.19    0.33
   0  -2  -5    0.18    0.33
   0   2   5   -0.20    0.23
   0   2   5    0.20    0.30
   0   2  -5    0.19    0.29
   0  -2   5   -0.20    0.32
   0  -2  -5   -0.11    0.27
   0   2   6   52.43    3.11
   0   2  -6   48.69    3.29
   0  -2   6   43.11    3.21
   0  -2  -6   44.23    3.08
   0  -2  -7    0.03    0.48
   0   2  -7    0.69    0.51
   0  -2   7    0.08    0.39
   0   3   0    0.00    0.13
   0  -3   0    0.05    0.10
   0  -3   0   -0.01    0.18
   0   3   0   -0.03    0.10
   0   3  -1   14.24    0.80
   0   3   1   13.51    0.99
   0   3   1   15.29    1.07
   0   3  -1   15.99    1.01
   0  -3   1   12.43    0.94
   0   3  -1   13.81    1.01
   0  -3  -1   13.91    1.02
   0  -3   2   -0.05    0.09
   0   3  -2    0.09    0.16
   0  -3  -2   -0.04    0.21
   0  -3   2    0.02    0.22
   0   3   2   -0.08    0.15
   0   3   2    0.12    0.10
   0   3  -2    0.19    0.15
   0  -3  -2   -0.49    0.16
   0   3   3  112.01    4.50
   0   3   3  102.68    4.92
   0  -3   3  101.02    5.04
   0  -3  -3  116.73    4.91
   0   3  -3  106.85    4.74
   0  -3  -3  103.15    5.03
   0   3  -3  110.58    5.08
   0  -3  -4    0.44    0.36
   0   3  -4   -0.10    0.24
   0  -3  -4   -0.15    0.26
   0  -3   4    0.06    0.42
   0   3  -4   -0.14    0.23
   0   3   4   -0.04    0.22
   0  -3  -5   22.84    1.90
   0  -3   5   17.72    2.06
   0  -3  -5   18.60    1.69
   0   3  -5   24.01    2.00
   0   3   5   21.96    1.82
   0   3   6    0.13    0.37
   0   3  -6   -0.05    0.34
   0  -3   6    0.37    0.38
   0  -3  -6   -0.01    0.41
   0   3   7    1.04    0.56
   0  -3   7    0.73    0.45
   0   3  -7    1.66    0.56
   0  -4   0  914.25   35.96
   0  -4   0  959.13   35.84
   0   4   0  988.39   35.79
   0   4   0 1000.00   35.64
   0   4  -1    0.08    0.16
   0   4  -1    0.19    0.14
   0  -4   1    0.01    0.18
   0  -4  -1   -0.14    0.22
   0   4   1   -0.16    0.16
   0   4  -1    0.33    0.23
   0   4   1   -0.01    0.21
   0   4   2   25.04    1.74
   0   4  -2   24.85    1.72
   0   4  -2   26.16    1.64
   0  -4   2   25.31    1.20
   0  -4   2   26.89    1.74
   0   4   2   24.62    1.71
   0  -4  -2   24.45    1.69
   0  -4  -3    0.00    0.29
   0   4  -3    0.39    0.28
   0  -4  -3   -0.19    0.31
   0   4  -3    0.18    0.26
   0   4   3   -0.18    0.23
   0  -4   3   -0.14    0.35
   0  -4  -4  203.69    9.11
   0  -4   4  226.16    9.64
   0  -4  -4  223.91    9.48
   0   4   4  219.49    9.37
   0   4  -4  209.56    8.99
   0   4  -4  216.91    9.56
   0  -4  -5   -0.46    0.36
   0   4   5    0.16    0.38
   0  -4   5    0.14    0.40
   0  -4  -5    0.34    0.39
   0   4  -5   -0.35    0.38
   0   4  -6   52.85    3.63
   0  -4   6   44.46    3.50
   0  -4  -6   53.05    3.42
   0   4   6   50.91    3.46
   0   4   7    0.12    0.52
   0  -5   0    0.14    0.28
   0  -5   0    0.01    0.17
   0   5   0    0.21    0.23
   0   5   0   -0.19    0.19
   0   5  -1   95.03    4.45
   0  -5   1   95.08    4.26
   0   5   1  100.39    4.58
   0   5   1   94.61    4.42
   0  -5   1   90.82    4.49
   0   5  -1   97.10    4.10
   0  -5  -1   92.79    4.42
   0  -5   2    0.06    0.29
   0   5   2    0.33    0.28
   0   5  -2   -0.18    0.21
   0   5   2   -0.05    0.30
   0  -5  -2   -0.27    0.35
   0   5  -2    0.11    0.19
   0   5  -3   12.01    1.37
   0   5   3   11.81    1.49
   0  -5   3   13.30    1.51
   0  -5  -3   15.86    1.65
   0   5  -3   13.46    1.57
   0  -5  -3   13.46    1.48
   0  -5  -4   -0.16    0.34
   0  -5  -4   -0.43    0.30
   0   5  -4   -0.43    0.33
   0  -5   4   -0.59    0.38
   0   5  -4    0.00    0.29
   0   5   4    0.11    0.36
   0   5  -5    9.73    1.58
   0  -5  -5   10.97    1.60
   0   5   5    9.37    1.55
   0  -5  -5    9.75    1.47
   0  -5   5   12.30    1.85
   0  -5   6    0.03    0.43
   0   5  -6   -0.51    0.46
   0   5   6    1.39    0.52
   0   6   0   15.66    1.27
   0  -6   0   15.56    1.51
   0   6   0   13.16    1.48
   0   6   1    0.09    0.24
   0   6  -1    0.06    0.24
   0   6  -1    0.19    0.23
   0  -6  -1    0.53    0.49
   0   6   1    0.33    0.31
   0  -6   1    0.58    0.43
   0  -6   2   92.76    4.37
   0   6  -2   80.95    4.46
   0  -6  -2   95.10    4.57
   0   6  -2   83.46    4.41
   0   6   2   85.76    4.49
   0   6   2   91.16    4.60
   0  -6   3   -0.56    0.35
   0  -6  -3    0.42    0.38
   0   6   3   -0.05    0.31
   0  -6  -3   -0.26    0.40
   0   6  -3   -0.28    0.33
   0   6  -3    0.40    0.28
   0  -6  -4    4.15    0.99
   0   6  -4    3.62    0.95
   0   6  -4    3.40    0.81
   0   6   4    3.26    0.89
   0  -6  -4    2.87    0.78
   0  -6   4    3.41    0.93
   0  -6  -5   -0.29    0.42
   0  -6   5    0.21    0.47
   0   6   5   -0.22    0.40
   0   6  -5    0.18    0.41
   0  -7   0   -0.04    0.39
   0   7   0    0.27    0.30
   0   7   0   -0.10    0.28
   0   7  -1   14.72    1.73
   0   7   1   18.59    1.87
   0  -7   1   15.27    1.76
   0  -7  -1   17.13    1.76
   0   7   1   14.83    1.65
   0   7   2    0.24    0.39
   0   7   2   -0.05    0.37
   0  -7   2    0.27    0.57
   0   7  -2   -0.25    0.32
   0  -7  -2   -0.15    0.43
   0  -7   3   81.36    4.30
   0   7  -3   76.52    4.28
   0  -7  -3   77.44    4.29
   0   7   3   74.99    4.43
   0  -7  -3   76.44    4.33
   0   7  -3   71.48    4.36
   0  -7  -4   -0.36    0.39
   0  -7   4   -0.01    0.45
   0   7   4   -0.12    0.40
   0   7  -4   -0.07    0.47
   0  -7  -4    0.77    0.58
   0   7  -4   -0.20    0.34
   0  -7  -5   19.35    2.28
   0   7  -5   17.78    2.32
   0  -7   5   17.21    2.26
   0   7   5   17.71    2.31
   0  -8   0  123.70    5.91
   0   8   0  112.49    5.91
   0  -8  -1    0.06    0.52
   0   8   1    0.65    0.43
   0   8  -1   -0.20    0.34
   0   8   1   -0.10    0.41
   0  -8   1    0.08    0.51
   0  -8  -2   -0.16    0.52
   0   8  -2    0.85    0.51
   0   8   2    0.01    0.38
   0  -8   2   -0.08    0.56
   0   8   2   -0.27    0.40
   0  -8   3   -0.59    0.76
   0  -8  -3   -0.35    0.37
   0   8  -3   -1.04    0.42
   0   8   3   -0.14    0.41
   0  -8  -3   -0.51    0.53
   0   8  -4   12.63    1.87
   0  -8  -4   18.62    2.17
   0   8  -4   17.74    2.03
   0   8   4   12.84    1.92
   0  -9   0    0.40    0.61
   0   9   0    0.54    0.42
   0  -9  -1   26.49    2.31
   0   9   1   25.88    2.30
   0  -9   1   26.97    2.36
   0   9  -1   24.42    2.16
   0   9  -2    0.15    0.49
   0   9   2   -0.19    0.43
   0  -9  -2   -0.53    0.57
   0  -9   2    0.23    0.60
   0   9   2   -1.11    0.46
   0   9  -3    3.77    0.88
   0  -9  -3    3.76    0.82
   0   9   3    4.81    1.05
   0  -9   3    5.01    1.29
   0 -10   0   27.77    2.45
   0 -10  -1   -1.00    0.66
   1   0   0   -0.17    0.05
  -1   0   0   -0.06    0.07
  -1   0   0   -0.19    0.06
  -1   0   1   50.01    2.17
   1   0  -1   52.80    2.28
  -1   0  -1   53.85    2.26
   1   0   1   54.26    2.27
   1   0   1   53.23    2.12
   1   0  -1   52.39    2.32
  -1   0  -1   53.43    2.18
  -1   0  -2   19.45    1.11
   1   0   2   17.32    1.09
  -1   0  -2   16.64    1.04
  -1   0   2   17.31    1.07
   1   0   2   17.22    0.94
   1   0  -2   15.37    1.12
   1   0  -2   17.18    0.92
  -1   0   2   13.95    0.93
  -1   0  -3  199.73    8.14
   1   0   3  195.23    7.82
  -1   0  -3  199.71    8.05
   1   0  -3  188.61    8.24
  -1   0   3  205.69    8.16
  -1   0   3  196.44    7.88
   1   0   3  207.95    8.25
   1   0  -3  203.41    7.83
   1   0   4    0.62    0.28
  -1   0  -4    0.56    0.31
   1   0  -4    0.63    0.38
  -1   0   4    0.98    0.34
  -1   0   4    1.16    0.45
  -1   0  -4    0.66    0.37
   1   0   4    1.13    0.47
   1   0  -4    0.79    0.30
  -1   0  -5   36.13    2.35
   1   0   5   35.06    2.47
  -1   0   5   35.49    2.48
   1   0  -5   41.13    2.72
  -1   0   5   37.86    2.23
  -1   0  -5   40.88    2.58
   1   0   5   35.19    2.15
   1   0   6   -0.37    0.33
  -1   0  -6    1.13    0.41
  -1   0   6    0.17    0.37
   1   0  -6    0.72    0.41
   1   0   7   31.49    2.55
  -1   0   7   26.97    2.38
  -1   0  -7   35.97    2.70
   1   0  -7   31.12    2.64
   1   1   0    0.14    0.08
   1   1   0    0.02    0.05
  -1   1   0   -0.05    0.05
   1  -1   0    0.00    0.03
   1  -1   0    0.09    0.08
  -1   1   0   -0.01    0.06
   1   1   0    0.03    0.05
   1   1   0    0.06    0.07
  -1  -1   1    3.01    0.31
   1  -1  -1    3.42    0.30
   1  -1  -1    3.25    0.50
   1   1   1    3.31    0.42
  -1   1  -1    3.10    0.41
   1   1   1    3.58    0.35
  -1   1  -1    3.34    0.41
  -1  -1  -1    3.32    0.39
   1  -1   1    2.91    0.45
   1   1  -1    3.69    0.30
  -1  -1  -1    3.41    0.44
  -1   1   1    3.24    0.33
   1   1  -1    3.45    0.46
  -1   1   1    3.24    0.42
   1   1  -1    3.65    0.50
  -1   1  -2   30.31    1.58
   1   1   2   30.68    1.58
  -1   1  -2   31.65    1.65
   1  -1  -2   30.91    1.78
  -1  -1   2   28.90    1.44
  -1  -1   2   28.27    1.64
   1   1   2   30.71    1.58
   1  -1  -2   32.47    1.52
  -1   1   2   33.21    1.57
  -1  -1  -2   31.57    1.66
   1   1  -2   31.90    1.76
  -1  -1  -2   31.83    1.68
   1  -1   2   31.11    1.72
   1  -1   2   28.79    1.32
   1   1  -2   32.93    1.44
  -1   1   2   28.37    1.58
  -1  -1   3    4.40    0.55
  -1   1  -3    4.87    0.75
   1  -1  -3    5.90    0.91
   1   1   3    5.47    0.72
  -1  -1   3    5.64    0.86
   1  -1  -3    6.38    0.72
   1   1   3    5.54    0.76
  -1   1  -3    5.28    0.72
  -1  -1  -3    5.88    0.83
  -1   1   3    4.53    0.70
   1   1  -3    5.18    0.85
   1  -1   3    6.92    0.94
   1   1  -3    5.71    0.61
  -1   1   3    5.00    0.71
   1  -1   3    5.21    0.47
  -1  -1  -3    5.53    0.76
   1  -1  -4    2.69    0.56
  -1   1  -4    2.59    0.63
  -1   1  -4    1.77    0.47
   1   1   4    1.43    0.44
   1   1   4    2.10    0.55
  -1  -1   4    1.61    0.54
  -1  -1   4    2.25    0.46
   1  -1  -4    2.12    0.62
  -1   1   4    2.07    0.53
   1  -1   4    1.46    0.35
   1  -1   4    1.48    0.54
   1   1  -4    1.77    0.40
  -1  -1  -4    2.10    0.55
  -1   1   4    2.06    0.55
   1   1  -4    3.18    0.72
  -1  -1  -4    1.85    0.54
   1   1   5    4.74    0.84
   1   1   5    5.12    0.96
  -1   1  -5    4.58    0.87
  -1  -1   5    4.22    0.92
  -1   1  -5    3.84    0.72
   1  -1  -5    5.65    1.04
  -1   1   5    3.13    0.75
  -1   1   5    3.36    0.71
   1   1  -5    3.31    0.77
  -1  -1  -5    5.03    0.90
  -1  -1  -5    2.96    0.73
   1  -1   5    3.03    0.78
  -1  -1   6    2.18    0.77
   1   1   6    2.95    0.70
  -1   1  -6    3.74    0.89
   1  -1  -6    2.86    0.83
  -1   1   6    2.95    0.72
   1   1  -6    3.42    0.87
  -1  -1  -6    3.62    0.85
  -1   1   6    3.81    0.90
   1  -1   6    2.84    0.77
   1  -1  -7    1.08    0.50
  -1  -1   7    0.67    0.44
  -1   1  -7    0.16    0.46
   1   1  -7    0.12    0.51
   1  -1   7    0.23    0.41
   1   2   0   -0.20    0.09
  -1   2   0   -0.23    0.09
   1   2   0   -0.11    0.10
   1  -2   0   -0.22    0.19
   1   2   0   -0.17    0.10
  -1   2   0   -0.13    0.10
   1  -2   0   -0.15    0.11
   1   2   0   -0.09    0.11
  -1   2  -1  270.63   10.41
   1   2   1  282.45   10.22
  -1   2  -1  277.04    9.99
   1  -2  -1  250.40   10.41
   1   2   1  261.77   10.37
  -1  -2   1  253.40   10.42
  -1   2  -1  271.34   10.30
   1   2   1  279.64   10.35
   1  -2   1  270.75   10.45
  -1  -2  -1  275.24   10.32
   1   2  -1  271.45   10.16
  -1   2   1  277.31   10.31
  -1  -2  -1  277.24   10.32
  -1   2   1  268.60   10.28
   1   2  -1  272.61   10.19
   1  -2  -2    2.21    0.42
   1   2   2    2.00    0.33
   1  -2  -2    2.26    0.54
   1   2   2    2.00    0.43
  -1  -2   2    1.31    0.39
  -1   2  -2    2.35    0.43
  -1  -2   2    2.12    0.30
  -1   2  -2    1.45    0.36
   1  -2   2    2.00    0.50
  -1   2   2    1.37    0.36
  -1   2   2    2.02    0.30
   1   2  -2    1.86    0.34
  -1  -2  -2    2.58    0.47
  -1  -2  -2    2.30    0.46
   1   2  -2    2.00    0.47
   1   2   3   34.07    2.01
   1  -2  -3   37.40    1.96
  -1  -2   3   35.65    2.20
  -1   2  -3   35.12    1.94
   1   2   3   36.92    1.94
   1  -2  -3   33.32    2.19
  -1   2  -3   34.82    2.11
  -1  -2   3   33.00    1.67
  -1  -2  -3   36.32    2.06
   1   2  -3   36.42    1.84
   1  -2   3   35.08    2.19
  -1   2   3   36.13    2.07
  -1   2   3   38.06    1.88
   1   2  -3   33.09    2.12
  -1  -2  -3   32.41    2.01
  -1   2  -4    9.64    1.26
   1  -2  -4   10.08    1.12
   1   2   4    9.51    1.06
   1  -2  -4   10.14    1.36
   1   2   4   11.43    1.24
  -1   2  -4    9.50    1.08
  -1  -2   4    8.74    1.30
  -1   2   4   10.71    1.08
  -1  -2  -4   11.22    1.30
   1  -2   4    9.72    1.35
   1   2  -4   11.02    0.92
  -1  -2  -4    8.20    1.11
   1   2  -4    9.75    1.30
  -1   2   4   11.54    1.28
   1  -2  -5   10.19    1.25
  -1  -2   5    8.66    1.38
  -1   2  -5    8.95    1.17
   1   2   5   10.58    1.34
  -1   2  -5    8.70    1.34
   1  -2  -5    7.64    1.25
   1   2   5    8.69    1.18
   1   2  -5    8.09    1.33
   1  -2   5    8.85    1.40
  -1   2   5    8.72    1.15
  -1  -2  -5    9.61    1.33
  -1  -2  -5    9.49    1.32
  -1   2   5    9.48    1.28
  -1  -2   6   11.36    1.73
   1  -2  -6   13.18    1.80
   1   2   6   13.24    1.67
  -1   2  -6   11.76    1.72
   1  -2   6   10.19    1.60
  -1  -2  -6   14.30    1.71
  -1   2   6   15.21    1.76
   1   2  -6   12.65    1.85
  -1  -2   7    1.97    0.70
  -1   2  -7    2.87    0.93
   1  -2  -7    2.65    0.73
   1  -2   7    5.42    1.13
   1   2  -7    3.14    0.85
   1  -3   0    0.03    0.17
  -1   3   0    0.09    0.17
   1   3   0   -0.12    0.09
  -1   3   0   -0.04    0.12
  -1  -3   0   -0.08    0.18
   1  -3   0    0.06    0.09
   1   3   0   -0.05    0.12
   1   3   0    0.03    0.15
   1   3   1    1.48    0.39
   1  -3  -1    1.36    0.42
   1   3   1    1.77    0.25
  -1   3  -1    1.55    0.24
  -1   3  -1    0.85    0.30
  -1   3  -1    0.98    0.32
  -1  -3   1    1.59    0.37
   1   3   1    1.36    0.38
   1   3  -1    0.89    0.29
   1   3  -1    1.32    0.35
  -1  -3  -1    1.32    0.37
  -1   3   1    1.36    0.37
  -1   3   1    1.42    0.40
   1   3  -1    1.78    0.34
   1  -3   1    1.80    0.39
  -1  -3   2    9.70    1.05
  -1   3  -2   11.51    0.95
   1   3   2   10.84    0.98
   1   3   2   13.36    0.76
  -1  -3   2   12.22    0.72
   1  -3  -2   12.45    1.09
  -1   3  -2   10.78    0.98
   1   3  -2   11.08    0.86
   1  -3   2   10.87    1.01
  -1  -3  -2   11.01    0.95
  -1  -3  -2   13.29    1.07
   1   3  -2   12.28    1.07
  -1   3   2   12.25    1.01
  -1   3   2   11.97    1.01
   1  -3  -3    2.49    0.64
  -1  -3   3    1.18    0.26
   1   3   3    1.44    0.44
   1   3   3    1.11    0.29
  -1   3  -3    1.43    0.42
  -1  -3   3    0.95    0.49
  -1   3  -3    1.17    0.42
   1  -3  -3    2.00    0.50
   1  -3   3    1.46    0.56
  -1  -3  -3    1.66    0.50
  -1   3   3    2.27    0.38
   1   3  -3    1.35    0.37
  -1   3   3    1.98    0.53
  -1  -3  -3    0.76    0.42
   1   3  -3    0.94    0.42
   1  -3  -4    2.12    0.58
  -1   3  -4    2.02    0.57
   1   3   4    1.43    0.35
  -1  -3   4    1.78    0.68
   1  -3  -4    0.90    0.47
  -1   3  -4    1.38    0.47
   1   3   4    0.43    0.33
  -1  -3  -4    1.53    0.54
   1   3  -4    1.21    0.49
  -1   3   4    0.94    0.41
   1  -3   4    0.89    0.57
   1   3  -4    1.31    0.41
  -1  -3  -4    1.27    0.44
   1  -3  -5    7.52    1.30
  -1   3  -5    6.66    1.21
   1   3   5   10.24    1.42
  -1   3  -5    8.35    1.17
   1  -3  -5    9.42    1.25
  -1  -3   5    6.44    1.25
   1   3  -5    8.29    1.42
  -1  -3  -5    8.23    1.32
  -1  -3  -5    9.01    1.30
  -1   3   5    9.38    1.38
   1  -3   5    9.09    1.52
   1   3   6    9.57    1.47
  -1  -3   6    6.58    1.31
   1  -3  -6    6.74    1.21
  -1   3  -6    8.17    1.40
   1  -3   6    7.44    1.39
   1   3  -6    6.60    1.37
  -1   3   6    9.64    1.50
   1  -3  -7    1.08    0.54
  -1  -3   7    0.33    0.59
  -1   3  -7    0.68    0.47
  -1   3   7    0.40    0.52
   1   3  -7   -0.21    0.46
   1  -3   7    0.34    0.47
   1   4   0    0.14    0.23
  -1  -4   0    0.06    0.25
   1  -4   0   -0.01    0.22
   1  -4   0   -0.27    0.13
   1   4   0   -0.18    0.17
  -1   4   0   -0.06    0.18
  -1  -4   0   -0.11    0.13
  -1   4   0    0.02    0.20
  -1   4  -1   18.68    1.30
  -1   4  -1   20.32    1.07
   1  -4  -1   17.26    1.34
   1   4   1   19.14    1.33
   1   4   1   17.66    1.33
   1   4   1   18.96    0.96
  -1  -4   1   16.82    1.19
   1   4  -1   18.73    1.14
   1   4  -1   18.68    1.29
  -1   4   1   17.71    1.33
  -1  -4  -1   18.03    1.26
  -1   4   1   17.70    1.27
   1   4  -1   18.77    1.31
   1  -4   1   16.75    1.36
   1  -4   1   17.66    1.21
   1  -4  -2    5.83    0.94
  -1  -4   2    4.68    0.80
   1   4   2    5.92    0.89
  -1  -4   2    5.63    0.49
  -1   4  -2    5.86    0.87
  -1   4  -2    4.62    0.80
   1   4   2    6.30    0.42
  -1  -4  -2    5.40    0.83
   1  -4   2    4.78    0.83
   1   4  -2    5.80    0.79
   1   4  -2    7.05    0.98
  -1  -4  -2    4.37    0.80
  -1   4   2    5.36    0.83
  -1   4   2    5.56    0.86
   1  -4  -3   98.93    4.75
  -1  -4   3  102.93    4.72
  -1   4  -3   89.69    4.39
   1   4   3   97.27    4.66
   1  -4  -3   88.40    4.35
  -1   4  -3   98.76    4.71
  -1   4   3   92.96    4.60
   1   4  -3   92.55    4.28
  -1  -4  -3   92.32    4.54
   1  -4   3   92.87    4.66
  -1  -4  -3   87.77    4.51
   1   4  -3   91.11    4.66
   1  -4  -4    1.20    0.53
   1  -4  -4    2.04    0.61
   1   4   4    0.85    0.53
  -1   4  -4    1.10    0.43
  -1  -4   4   -0.04    0.52
  -1   4  -4    0.69    0.43
  -1  -4  -4    1.57    0.57
  -1  -4  -4    1.72    0.58
   1   4  -4    1.91    0.63
   1  -4   4    1.29    0.69
  -1   4   4    1.04    0.48
   1   4  -4    1.10    0.42
   1  -4  -5   23.18    2.09
  -1   4  -5   24.09    1.90
   1  -4  -5   23.82    1.90
  -1   4  -5   22.41    2.06
  -1  -4   5   23.12    2.15
   1   4   5   28.66    2.25
   1   4  -5   26.54    2.28
   1  -4   5   27.46    2.35
  -1  -4  -5   23.04    1.98
  -1   4   5   25.14    2.12
  -1  -4  -5   25.26    2.06
  -1  -4   6    0.91    0.60
  -1   4  -6    1.49    0.63
   1  -4  -6    2.11    0.63
   1   4   6    1.36    0.53
   1   4  -6    1.58    0.58
   1  -4   6    1.43    0.69
  -1   4   6    1.16    0.49
  -1  -4  -6    0.84    0.54
   1   4   7   19.43    2.40
  -1   4  -7   21.86    2.54
  -1   4   7   24.16    2.54
   1  -5   0   -0.11    0.14
  -1  -5   0   -0.17    0.15
   1   5   0    0.29    0.25
  -1  -5   0    0.30    0.32
   1  -5   0    0.14    0.32
   1   5   0   -0.11    0.22
  -1   5   0   -0.14    0.21
  -1   5   0   -0.32    0.18
  -1   5  -1    1.93    0.38
  -1  -5   1    1.38    0.40
   1   5   1    1.78    0.49
   1   5   1    1.52    0.49
   1  -5  -1    1.72    0.60
  -1   5  -1    1.60    0.45
  -1   5   1    2.85    0.58
   1   5  -1    1.83    0.41
   1  -5   1    1.62    0.46
   1   5  -1    2.23    0.53
  -1  -5  -1    1.61    0.52
   1   5  -1    2.39    0.54
   1  -5   1    1.46    0.54
  -1   5   1    2.16    0.57
   1   5   2   17.10    1.51
   1   5   2   14.23    1.49
  -1   5  -2   17.13    1.44
  -1   5  -2   14.70    1.29
  -1  -5   2   14.85    1.47
   1  -5  -2   15.70    1.60
  -1  -5  -2   15.14    1.36
  -1   5   2   14.93    1.49
  -1   5   2   16.66    1.40
   1   5  -2   17.76    1.38
   1   5  -2   13.69    1.46
   1  -5   2   14.20    1.30
   1  -5  -3    3.47    0.78
   1  -5  -3    3.64    0.89
  -1  -5   3    3.54    0.87
   1   5   3    4.38    0.89
  -1   5  -3    3.39    0.82
  -1   5  -3    3.39    0.72
   1  -5   3    3.22    0.85
  -1   5   3    3.44    0.82
   1   5  -3    4.04    0.74
  -1  -5  -3    4.32    0.89
   1   5  -3    3.66    0.78
  -1  -5  -3    4.95    0.99
  -1  -5   4    2.48    0.79
   1  -5  -4    1.18    0.48
   1  -5  -4    1.95    0.66
  -1   5  -4    0.78    0.39
  -1   5  -4    1.61    0.59
   1   5   4    1.56    0.56
   1  -5   4    1.72    0.69
  -1  -5  -4    1.29    0.51
   1   5  -4    1.07    0.57
   1   5  -4    2.47    0.59
  -1   5   4    2.31    0.73
  -1  -5  -4    2.55    0.70
   1  -5  -5    0.79    0.58
   1  -5  -5    0.18    0.43
  -1   5  -5   -0.25    0.42
   1   5   5    0.65    0.46
  -1  -5   5    1.06    0.62
  -1   5   5    0.25    0.50
   1   5  -5   -0.22    0.43
   1  -5   5    0.32    0.51
  -1  -5  -5    1.19    0.54
  -1  -5   6   -0.17    0.43
   1   5   6    0.09    0.51
  -1   5  -6    0.27    0.53
   1  -5  -6   -0.64    0.49
   1   5  -6    0.42    0.51
  -1   5   6   -0.51    0.41
   1  -5   6    0.30    0.48
  -1  -5  -6   -0.13    0.53
   1   6   0    0.02    0.24
   1  -6   0   -0.11    0.36
   1   6   0   -0.19    0.27
  -1   6   0   -0.13    0.25
  -1  -6   0    0.04    0.31
  -1   6   0    0.03    0.25
   1   6   1   70.83    3.77
  -1  -6   1   70.12    3.45
   1  -6  -1   78.62    3.90
  -1   6  -1   68.86    3.75
  -1  -6   1   75.45    3.83
   1   6   1   70.98    3.81
   1   6  -1   66.49    3.71
  -1   6   1   68.58    3.65
   1   6  -1   74.31    3.51
  -1   6   1   70.11    3.77
   1  -6   1   76.03    3.91
  -1  -6  -1   72.75    3.69
   1  -6  -2    1.62    0.68
  -1  -6   2    1.55    0.52
   1   6   2    1.97    0.60
  -1   6  -2    1.02    0.39
   1   6   2    1.90    0.66
  -1   6   2    1.67    0.54
   1   6  -2    1.58    0.49
  -1  -6  -2    2.79    0.73
   1   6  -2    2.37    0.61
   1  -6   2    1.52    0.71
   1  -6   2    1.58    0.58
  -1   6   2    1.13    0.50
  -1  -6   3    7.39    1.23
   1   6   3    8.87    1.39
   1  -6  -3    6.43    1.13
   1  -6  -3    9.56    1.43
  -1   6  -3    6.22    1.07
  -1   6  -3    7.07    1.22
   1   6  -3    6.42    1.05
  -1  -6  -3    7.07    1.18
   1   6  -3    7.32    1.20
   1  -6   3    8.57    1.31
  -1  -6  -3    7.07    1.19
  -1   6   3    6.51    1.18
  -1   6  -4    1.14    0.53
   1   6   4    1.57    0.64
   1  -6  -4    2.51    0.69
  -1   6  -4    2.27    0.65
  -1  -6   4    2.73    0.86
   1  -6  -4    3.43    0.96
  -1  -6  -4    2.85    0.77
   1  -6   4    1.34    0.61
  -1   6   4    0.75    0.58
   1   6  -4    2.36    0.65
  -1  -6  -4    2.30    0.64
   1   6  -4    3.71    0.77
  -1   6  -5    4.17    1.09
   1  -6  -5    2.68    0.72
   1  -6  -5    2.84    0.87
  -1  -6   5    3.32    0.92
   1   6   5    4.36    1.09
  -1  -6  -5    3.73    0.93
  -1   6   5    2.48    0.74
   1   6  -5    4.09    1.00
   1  -6   5    3.57    1.02
   1   7   0   -0.21    0.29
  -1   7   0    0.32    0.28
   1   7   0   -0.13    0.34
  -1   7   0    0.31    0.32
   1  -7   0    0.17    0.40
  -1  -7   0    0.30    0.36
   1   7   1    0.60    0.35
  -1  -7   1    1.21    0.57
   1   7   1    0.68    0.41
  -1   7  -1    0.56    0.36
   1  -7  -1    0.97    0.62
  -1   7   1    0.23    0.37
  -1   7   1    0.02    0.30
   1  -7   1    0.10    0.47
  -1  -7  -1    1.96    0.65
   1   7  -1    0.45    0.43
   1  -7  -2    3.39    0.92
   1   7   2    3.32    0.84
   1   7   2    2.61    0.79
  -1  -7   2    2.83    0.95
  -1   7  -2    3.03    0.75
   1   7  -2    2.39    0.69
  -1   7   2    2.87    0.79
  -1  -7  -2    3.85    0.89
  -1   7   2    2.93    0.77
   1  -7   2    4.87    1.15
   1  -7  -3    0.06    0.36
   1   7   3    0.05    0.41
   1  -7  -3    0.16    0.49
  -1   7  -3   -0.20    0.40
  -1   7  -3   -0.02    0.29
  -1  -7   3    0.54    0.46
   1   7  -3    0.36    0.40
  -1  -7  -3    0.23    0.41
   1   7  -3   -0.52    0.28
   1  -7   3   -0.03    0.38
  -1   7   3   -0.37    0.33
  -1  -7  -3    0.55    0.47
  -1   7  -4    0.20    0.43
   1   7   4    0.40    0.49
  -1   7  -4    0.17    0.46
   1  -7  -4    0.56    0.58
   1  -7  -4    0.99    0.48
  -1  -7   4    0.50    0.50
  -1  -7  -4    0.73    0.46
   1  -7   4    0.33    0.50
   1   7  -4    0.67    0.51
  -1   7   4   -0.03    0.42
  -1  -7   5    3.58    0.95
  -1   7  -5    3.35    0.81
   1   7   5    5.18    1.10
   1  -7  -5    3.39    0.90
  -1  -7  -5    3.68    0.91
   1  -7   5    3.62    0.88
   1   7  -5    3.51    0.81
  -1   7   5    3.49    1.08
   1  -8   0   -0.51    0.47
   1   8   0    0.23    0.36
  -1   8   0   -0.22    0.35
  -1  -8   0   -0.44    0.39
   1  -8  -1    3.80    1.00
   1   8   1    2.31    0.70
  -1  -8   1    2.85    0.87
  -1   8  -1    3.54    0.80
   1   8   1    3.00    0.76
  -1   8   1    2.52    0.78
   1  -8   1    3.33    0.91
   1   8  -1    2.54    0.60
  -1   8   1    2.58    0.74
  -1  -8  -1    1.40    0.63
   1   8   2    1.82    0.73
  -1   8  -2    1.00    0.47
   1   8   2    0.93    0.58
   1  -8  -2    1.49    0.77
  -1  -8   2    1.81    0.78
   1  -8   2    1.32    0.73
  -1   8   2    0.84    0.58
  -1  -8  -2    1.21    0.64
  -1   8   2    1.06    0.48
   1   8  -2    1.61    0.53
   1  -8  -3   17.45    2.08
  -1   8  -3   17.81    2.09
   1   8   3   21.41    2.40
   1  -8  -3   19.27    2.26
  -1  -8  -3   21.64    2.29
   1  -8   3   18.40    2.38
   1   8  -3   20.74    2.19
  -1   8   3   21.65    2.36
   1  -8  -4    0.20    0.58
   1   8   4    1.38    0.64
  -1   8  -4    1.16    0.62
   1  -8  -4    1.28    0.57
  -1   8  -4    1.79    0.64
   1   8  -4    1.33    0.59
  -1   8   4    0.99    0.54
  -1  -8  -4    3.84    0.91
   1  -8   4    1.41    1.03
   1  -9   0    0.48    0.53
  -1   9   0   -0.01    0.40
  -1  -9   0   -0.34    0.54
   1   9   0   -0.44    0.41
  -1  -9   1    1.08    0.66
   1  -9  -1    0.92    0.69
  -1   9  -1    1.42    0.56
   1   9   1    0.73    0.50
  -1   9   1    0.67    0.47
   1   9  -1    1.14    0.55
  -1  -9  -1    0.99    0.66
   1  -9   1    0.03    0.59
  -1  -9   2    3.69    1.13
   1   9   2    6.25    1.19
   1   9   2    4.61    1.01
  -1   9  -2    6.74    1.25
   1  -9  -2    5.97    1.35
   1   9  -2    5.46    1.16
  -1   9   2    5.53    1.20
   1  -9   2    4.89    1.22
  -1   9   2    5.13    1.03
   1  -9  -3    0.51    0.46
   1  -9  -3    2.67    0.71
  -1  -9   3   -0.05    0.73
   1   9   3    0.76    0.55
  -1   9  -3    1.65    0.70
   1   9  -3    1.70    0.73
  -1  -9  -3    0.09    0.52
  -1   9   3    1.81    0.63
  -1 -10   0    1.55    0.71
   1 -10   0   -0.13    0.61
  -1 -10   1   10.64    1.67
   1 -10  -1   13.14    1.90
  -2   0   0  262.17    9.84
  -2   0   0  268.28    9.85
   2   0   0  262.07   10.05
   2   0   0  271.28    9.94
   2   0  -1   25.09    1.34
   2   0   1   24.71    1.20
   2   0  -1   26.96    1.43
   2   0   1   26.59    1.35
  -2   0  -1   26.99    1.16
  -2   0  -1   24.72    1.34
  -2   0   1   24.29    1.27
  -2   0  -2  101.85    4.10
   2   0   2   98.45    4.26
  -2   0   2   99.60    4.12
   2   0  -2   98.75    4.30
   2   0  -2  100.67    3.84
   2   0  -2   97.23    4.36
  -2   0  -2  101.89    4.27
  -2   0   2  101.40    4.20
   2   0   2   92.92    3.96
   2   0  -3   12.48    1.32
   2   0   3   14.28    1.18
  -2   0  -3   13.58    1.12
  -2   0   3   11.89    0.96
  -2   0   3   14.16    1.11
   2   0   3   11.58    0.88
  -2   0  -3   12.67    1.01
   2   0  -3   15.23    0.88
  -2   0   4   28.60    1.76
  -2   0  -4   27.18    1.83
   2   0  -4   28.67    1.60
   2   0   4   25.21    1.62
   2   0   4   30.24    2.05
   2   0  -4   30.65    2.11
  -2   0  -4   28.51    1.91
  -2   0   4   27.55    1.87
   2   0  -5    0.23    0.35
  -2   0  -5    0.34    0.41
  -2   0  -5    0.59    0.32
  -2   0   5    0.52    0.31
  -2   0   5    1.22    0.53
   2   0   5    0.75    0.45
   2   0  -6    5.64    1.15
  -2   0  -6    5.13    0.95
  -2   0   6    6.31    1.15
  -2   0  -6    5.30    1.01
   2   0   6    3.71    0.94
   2   0   7    5.75    1.19
   2   0  -7    7.09    1.36
  -2   0   7    5.05    1.11
   2   1   0  137.66    5.07
  -2   1   0  128.74    5.11
  -2  -1   0  131.04    5.12
   2   1   0  139.00    5.23
  -2   1   0  137.14    5.11
   2  -1   0  129.36    5.19
   2  -1   0  135.16    5.20
   2   1   0  130.43    5.26
  -2   1  -1    6.20    0.54
   2   1   1    5.73    0.51
   2  -1  -1    7.75    0.74
  -2   1  -1    6.97    0.50
  -2  -1   1    6.34    0.50
   2  -1  -1    6.49    0.48
  -2   1  -1    6.58    0.36
   2   1   1    7.41    0.57
   2   1  -1    6.31    0.57
  -2   1   1    6.42    0.57
   2  -1   1    7.09    0.61
   2   1  -1    7.13    0.63
  -2   1   1    7.56    0.46
   2   1  -1    6.63    0.39
  -2  -1  -1    6.48    0.64
  -2  -1  -1    6.10    0.42
   2  -1  -2    9.88    0.62
  -2   1  -2    9.72    0.73
   2  -1  -2    7.80    0.94
  -2   1  -2    8.00    0.72
   2   1   2    9.17    0.74
  -2  -1   2    8.24    0.64
   2   1   2    9.13    0.72
  -2  -1   2    8.54    0.77
  -2   1   2    8.76    0.76
   2  -1   2    9.40    0.52
  -2  -1  -2    9.39    0.82
  -2  -1  -2    8.42    0.65
   2   1  -2    9.65    0.54
  -2   1   2    9.65    0.69
   2   1  -2    8.36    0.90
   2  -1   2   10.91    0.89
   2   1  -2    8.37    0.92
   2   1   3    2.10    0.44
   2   1   3    0.93    0.36
  -2   1  -3    2.36    0.49
   2  -1  -3    1.68    0.35
  -2  -1   3    1.73    0.37
  -2   1  -3    1.38    0.38
   2  -1  -3    1.21    0.45
  -2  -1   3    1.28    0.40
   2  -1   3    1.92    0.30
  -2   1   3    1.64    0.39
  -2  -1  -3    1.48    0.37
  -2  -1  -3    2.07    0.52
   2   1  -3    1.96    0.31
   2   1  -3    1.45    0.46
   2  -1   3    2.30    0.55
  -2   1   3    2.05    0.47
   2  -1  -4    1.05    0.44
  -2   1  -4    0.77    0.36
   2   1   4    0.89    0.38
  -2   1  -4    1.09    0.38
   2  -1  -4    1.46    0.42
  -2  -1   4    0.41    0.37
   2   1   4    0.97    0.37
  -2  -1   4    0.49    0.29
  -2  -1  -4    1.23    0.45
   2  -1   4    1.26    0.55
  -2  -1  -4    1.11    0.38
   2  -1   4    0.78    0.28
   2   1  -4    1.56    0.32
   2   1  -4    0.74    0.42
  -2   1   4    0.98    0.38
  -2   1   4    0.73    0.39
  -2   1  -5   -0.51    0.25
  -2  -1   5    0.04    0.32
  -2   1  -5   -0.29    0.23
   2   1   5   -0.08    0.25
   2   1   5    0.17    0.26
   2  -1  -5    0.25    0.32
  -2  -1  -5   -0.23    0.31
   2  -1   5   -0.25    0.28
  -2  -1  -5   -0.33    0.25
  -2   1   5   -0.23    0.21
   2   1  -5    0.24    0.38
  -2   1   5    0.15    0.33
  -2  -1   6   19.01    2.06
  -2   1  -6   18.94    1.94
   2  -1  -6   20.07    2.18
   2   1   6   15.96    1.88
  -2   1  -6   14.87    1.74
  -2  -1  -6   17.84    1.93
  -2   1   6   19.07    1.63
  -2  -1  -6   19.19    1.94
  -2   1   6   15.03    1.76
   2   1  -6   17.03    2.12
   2  -1   6   13.57    1.88
  -2  -1   7    0.45    0.44
   2  -1  -7    1.06    0.49
  -2   1  -7    0.93    0.52
   2   1   7    2.59    0.74
   2  -1   7    1.46    0.56
   2   1  -7    1.24    0.69
   2   2   0   15.74    0.83
  -2   2   0   14.85    0.84
   2   2   0   14.89    0.91
  -2   2   0   13.23    0.89
   2   2   0   15.51    0.94
   2   2   0   15.46    0.93
   2  -2   0   14.82    0.95
   2  -2   0   14.62    0.80
   2  -2  -1  331.65   12.36
   2   2   1  334.68   12.52
  -2   2  -1  336.15   12.13
  -2   2  -1  339.40   12.51
  -2   2  -1  326.44   12.56
   2  -2  -1  309.66   12.67
   2   2   1  325.23   12.54
   2   2  -1  333.36   12.33
  -2  -2  -1  333.76   12.41
  -2   2   1  325.33   12.39
   2   2  -1  327.38   12.78
   2   2  -1  334.55   12.46
  -2   2   1  333.43   12.50
   2  -2   1  321.75   12.65
   2   2  -1  347.29   12.61
  -2  -2  -1  311.00   12.50
   2   2   2  468.63   17.76
  -2   2  -2  467.66   17.87
   2  -2  -2  450.72   18.10
   2   2   2  490.69   17.83
  -2  -2   2  466.46   17.44
  -2   2  -2  468.80   17.70
  -2  -2   2  442.56   18.00
  -2   2   2  460.11   17.75
   2   2  -2  487.97   18.03
   2  -2   2  457.43   18.06
  -2  -2  -2  481.94   17.80
  -2  -2  -2  459.56   17.74
   2   2  -2  486.53   17.42
  -2   2   2  483.58   17.61
  -2   2   2  472.22   17.57
   2  -2  -3  422.67   15.44
  -2  -2   3  416.05   16.05
   2  -2  -3  411.28   16.19
   2   2   3  386.82   15.66
  -2  -2   3  402.46   15.33
  -2   2  -3  403.96   15.84
  -2   2  -3  416.05   15.70
   2   2   3  415.42   15.75
  -2   2   3  405.30   15.74
  -2   2   3  431.16   15.61
   2  -2   3  385.33   16.02
   2   2  -3  380.58   15.98
  -2  -2  -3  392.48   15.73
   2  -2   3  390.92   14.95
   2   2  -3  427.79   15.30
  -2  -2  -3  428.58   15.86
  -2   2  -4    0.51    0.30
  -2   2  -4    2.45    0.58
  -2  -2   4    0.46    0.25
   2   2   4    0.54    0.28
   2  -2  -4    0.40    0.32
  -2  -2   4    0.70    0.45
   2   2   4    0.73    0.33
   2  -2  -4    1.58    0.62
  -2  -2  -4    0.58    0.33
  -2   2   4    0.96    0.36
   2   2  -4    0.57    0.26
  -2  -2  -4    1.10    0.43
   2   2  -4    0.44    0.34
  -2   2   4    0.21    0.30
   2  -2   4    0.81    0.41
  -2   2  -5  158.42    7.03
   2  -2  -5  153.61    7.20
   2   2   5  160.86    6.90
  -2   2  -5  136.24    6.69
   2   2   5  143.74    6.81
  -2  -2   5  140.04    7.08
  -2   2   5  150.63    6.71
  -2   2   5  155.67    6.84
  -2  -2  -5  152.44    6.80
  -2  -2  -5  138.35    6.85
   2   2  -5  162.08    7.34
   2  -2   5  150.35    7.22
  -2  -2   6  113.74    6.08
   2  -2  -6  125.32    6.27
   2   2   6  119.65    5.78
  -2   2  -6  116.54    5.91
  -2   2   6  122.93    5.81
   2   2  -6  119.87    6.26
  -2  -2  -6  108.47    5.72
   2  -2   6  100.44    6.00
   2  -2  -7   30.64    2.59
  -2   2  -7   31.13    2.50
  -2  -2   7   29.36    2.58
   2  -2   7   24.70    2.81
   2   2  -7   28.34    2.95
   2  -3   0   -0.02    0.09
   2   3   0    0.14    0.17
   2   3   0   -0.08    0.14
  -2   3   0   -0.02    0.15
   2  -3   0    0.14    0.22
  -2   3   0    0.19    0.17
   2   3   0    0.01    0.14
  -2  -3   0   -0.11    0.20
   2   3   1   48.52    2.49
   2   3   1   51.36    2.59
  -2   3  -1   50.33    2.07
  -2   3  -1   49.50    2.44
   2   3   1   51.95    2.25
  -2   3  -1   48.71    2.47
   2  -3  -1   49.86    2.58
   2  -3   1   50.04    2.51
  -2  -3  -1   47.16    2.45
   2   3  -1   49.01    2.36
   2  -3   1   47.78    2.39
  -2  -3  -1   50.09    2.30
  -2   3   1   50.15    2.42
  -2   3   1   50.24    2.43
   2   3  -1   51.51    2.57
   2   3  -1   49.69    2.36
   2   3  -1   50.06    2.46
   2  -3  -2   24.68    1.72
  -2  -3   2   23.73    1.63
  -2  -3   2   24.59    1.32
   2   3   2   25.67    1.66
  -2   3  -2   26.88    1.67
  -2   3  -2   27.30    1.66
   2   3   2   27.46    1.42
  -2   3   2   27.50    1.15
  -2  -3  -2   23.54    1.47
   2  -3   2   22.56    1.61
  -2   3   2   26.38    1.65
   2   3  -2   27.12    1.47
  -2   3   2   25.69    1.55
   2   3  -2   25.79    1.69
  -2  -3  -2   25.11    1.65
   2  -3  -3    3.49    0.64
   2   3   3    2.95    0.51
  -2  -3   3    2.60    0.43
   2   3   3    3.41    0.69
  -2   3  -3    3.00    0.65
   2  -3  -3    2.91    0.76
  -2  -3   3    3.16    0.79
  -2   3  -3    3.14    0.61
   2   3  -3    3.12    0.51
  -2  -3  -3    3.57    0.66
  -2   3   3    3.45    0.44
   2  -3   3    2.20    0.65
  -2  -3  -3    2.66    0.65
   2   3  -3    3.81    0.80
  -2   3   3    2.27    0.59
   2  -3  -4   45.15    2.94
  -2  -3   4   47.84    2.94
  -2   3  -4   45.27    2.77
  -2   3  -4   42.20    2.59
   2  -3  -4   43.52    2.47
   2   3   4   43.36    2.42
   2   3   4   44.88    2.70
  -2   3   4   43.65    2.69
   2  -3   4   46.45    2.93
   2   3  -4   46.24    2.95
  -2  -3  -4   39.84    2.64
  -2  -3  -4   41.84    2.59
   2   3   5   12.43    1.56
  -2   3  -5    9.95    1.33
  -2  -3   5   11.77    1.72
  -2   3  -5   12.07    1.57
   2  -3  -5   10.67    1.64
   2   3  -5   11.82    1.75
  -2   3   5   11.27    1.50
  -2  -3  -5   11.64    1.59
   2  -3   5   10.13    1.59
  -2  -3  -5   13.29    1.47
   2   3   6   -0.62    0.40
   2  -3  -6    0.41    0.45
  -2  -3   6    0.47    0.39
  -2   3  -6   -0.17    0.40
  -2  -3  -6   -0.10    0.43
  -2   3   6    0.52    0.40
   2  -3   6   -0.10    0.38
   2   3  -6    0.64    0.50
   2  -3  -7    5.20    1.18
  -2   3  -7    7.59    1.32
  -2  -3   7    3.35    0.89
   2  -3   7    5.04    1.11
   2   3  -7    8.73    1.61
  -2   3   7    7.46    1.32
   2   4   0  155.96    6.17
   2   4   0  153.93    6.22
   2  -4   0  152.68    5.92
  -2  -4   0  146.78    6.14
  -2   4   0  153.55    6.05
   2   4   0  144.59    6.27
   2  -4   0  141.73    6.28
  -2   4   0  142.34    6.24
  -2   4  -1    0.09    0.18
   2   4   1    0.13    0.20
   2   4   1    0.11    0.15
   2   4   1    0.10    0.19
  -2   4  -1    0.31    0.15
   2  -4  -1    0.03    0.28
   2   4  -1   -0.05    0.21
   2  -4   1    0.02    0.18
  -2  -4  -1    0.01    0.21
   2  -4   1   -0.24    0.26
  -2   4   1    0.08    0.22
  -2   4   1   -0.23    0.17
   2   4  -1   -0.17    0.17
   2   4  -1    0.04    0.16
   2   4  -1    0.05    0.18
  -2   4  -2   22.19    1.62
   2   4   2   25.04    1.71
   2  -4  -2   24.00    1.78
   2   4   2   24.06    1.28
  -2  -4   2   22.13    1.62
  -2   4  -2   24.84    1.65
  -2  -4   2   23.07    1.29
  -2  -4  -2   25.38    1.75
  -2   4   2   24.10    1.60
  -2   4   2   23.70    1.67
   2  -4   2   22.88    1.64
  -2  -4  -2   24.43    1.57
   2   4  -2   23.19    1.68
   2   4  -2   22.87    1.50
  -2  -4   3   28.71    2.05
  -2   4  -3   27.70    1.91
   2  -4  -3   30.12    1.89
  -2   4  -3   29.10    2.00
   2   4   3   30.40    2.06
   2  -4  -3   29.88    2.17
  -2  -4  -3   25.06    1.89
  -2   4   3   26.57    1.95
   2   4  -3   26.50    1.67
   2   4  -3   26.28    1.99
  -2  -4  -3   27.18    1.87
   2  -4   3   28.64    2.05
   2  -4  -4   28.39    2.24
   2  -4  -4   24.54    1.82
  -2   4  -4   28.82    2.14
  -2  -4   4   27.15    2.18
  -2   4  -4   23.10    1.88
   2   4   4   28.51    2.14
  -2   4   4   27.32    2.07
   2   4  -4   26.15    2.12
   2  -4   4   30.62    2.30
  -2  -4  -4   26.08    2.04
  -2  -4  -4   27.88    1.98
   2  -4  -5    6.78    1.25
  -2   4  -5    5.90    1.06
  -2  -4   5    4.92    1.15
   2   4   5    7.29    1.27
  -2   4  -5    7.95    1.34
  -2  -4  -5    5.01    1.03
   2  -4   5    6.66    1.30
   2   4  -5    6.93    1.30
  -2   4   5    5.12    1.08
   2  -4  -6    1.47    0.63
  -2   4  -6    1.04    0.49
  -2  -4   6    1.26    0.61
   2   4   6    0.58    0.59
  -2  -4  -6    0.67    0.55
   2  -4   6    0.46    0.50
  -2   4   6    1.43    0.56
   2   4  -6    1.06    0.56
   2  -4  -7    0.10    0.56
   2   4   7    1.22    0.54
  -2   4  -7    0.74    0.60
  -2   5   0  134.53    5.65
   2  -5   0  122.11    5.59
  -2   5   0  129.60    5.35
   2   5   0  120.36    5.58
   2   5   0  122.37    5.46
  -2  -5   0  115.43    5.42
   2   5   0  130.41    5.36
   2   5   1    1.17    0.40
   2   5   1    1.76    0.52
  -2  -5   1    1.61    0.45
  -2   5  -1    1.19    0.39
   2  -5  -1    2.39    0.67
  -2   5  -1    2.12    0.40
   2   5  -1    1.48    0.44
  -2   5   1    2.39    0.61
   2  -5   1    2.03    0.49
   2   5  -1    1.91    0.50
   2   5  -1    1.76    0.45
   2  -5   1    2.23    0.62
  -2  -5  -1    1.50    0.49
  -2   5   1    0.90    0.42
  -2   5  -2   38.03    2.37
  -2  -5   2   34.07    2.22
  -2   5  -2   34.52    2.24
   2   5   2   34.67    2.32
   2  -5  -2   41.35    2.52
  -2   5   2   35.62    2.22
   2  -5   2   35.98    2.22
   2   5  -2   35.49    2.17
  -2  -5  -2   35.77    2.32
  -2  -5  -2   32.83    2.14
   2   5  -2   38.01    2.36
  -2   5   2   34.55    2.29
   2   5  -2   36.03    1.99
  -2   5  -3    6.97    1.13
  -2   5  -3    6.12    1.04
   2  -5  -3    9.74    1.46
   2   5   3    5.89    1.09
  -2  -5   3    9.90    1.36
  -2  -5  -3    5.15    1.02
  -2  -5  -3    7.14    1.11
   2  -5   3    7.78    1.20
   2   5  -3    6.69    1.11
   2   5  -3    6.43    0.98
  -2   5   3    8.48    1.20
  -2   5   3    7.19    1.18
   2  -5  -4   10.91    1.64
   2   5   4    8.40    1.34
  -2   5  -4    8.50    1.24
  -2  -5   4    8.77    1.43
  -2   5  -4    8.76    1.40
   2  -5  -4    6.65    1.07
  -2   5   4    7.32    1.25
   2  -5   4    7.77    1.34
  -2  -5  -4    6.08    1.14
   2   5  -4    7.74    1.31
   2  -5  -5    7.40    1.35
   2   5   5    4.10    1.00
  -2  -5   5    4.72    1.10
  -2   5  -5    5.92    0.96
  -2   5  -5    5.63    1.21
   2  -5   5    5.61    1.21
   2   5  -5    7.21    1.37
  -2   5   5    4.82    1.04
  -2  -5  -5    5.91    1.12
   2   5   6   37.66    2.91
   2  -5  -6   37.70    2.99
  -2  -5   6   35.86    3.00
  -2   5  -6   33.05    2.75
   2  -5   6   30.24    2.75
   2   5  -6   37.56    3.05
  -2  -5  -6   28.90    2.56
  -2   5   6   37.11    2.84
   2   6   0   -0.10    0.24
  -2   6   0   -0.11    0.30
   2  -6   0    0.50    0.41
  -2  -6   0    0.31    0.33
  -2   6   0   -0.32    0.24
   2   6   0   -0.15    0.25
   2   6   1   22.45    1.85
  -2  -6   1   27.87    1.98
   2   6   1   26.27    1.93
  -2  -6   1   23.72    1.67
   2  -6  -1   27.34    2.05
  -2   6  -1   26.70    1.97
   2   6  -1   24.36    1.71
   2   6  -1   23.48    1.84
  -2   6   1   25.76    1.86
  -2  -6  -1   28.83    1.89
  -2   6   1   29.87    2.05
   2  -6   1   30.92    2.17
  -2  -6   2   88.09    4.43
  -2   6  -2   80.05    4.43
   2   6   2   86.05    4.62
   2  -6  -2   95.47    4.76
  -2  -6  -2   95.93    4.46
   2  -6   2   93.66    4.75
  -2  -6  -2   86.26    4.56
   2  -6   2   96.09    4.44
  -2   6   2   93.56    4.54
   2   6  -2   87.23    4.42
  -2   6   2   84.35    4.49
   2   6  -2   81.93    4.47
   2   6   3   80.16    4.63
  -2   6  -3   82.15    4.53
  -2  -6   3   88.37    4.59
  -2   6  -3   82.98    4.65
   2  -6  -3   95.01    4.86
  -2   6   3   89.54    4.61
   2   6  -3   86.04    4.75
   2   6  -3   81.18    4.34
  -2  -6  -3   86.88    4.67
  -2   6   3   83.61    4.62
  -2  -6  -3   92.64    4.52
   2  -6   3   94.53    4.66
  -2  -6   4    4.70    1.06
   2  -6  -4    1.97    0.73
   2   6   4    0.57    0.55
  -2   6  -4    2.98    0.81
  -2   6  -4    2.53    0.68
   2  -6  -4    2.67    0.69
   2  -6   4    2.94    0.87
  -2  -6  -4    3.42    0.82
   2   6  -4    1.38    0.50
  -2   6   4    1.22    0.65
  -2   6  -5   25.43    2.16
  -2   6  -5   28.60    2.45
  -2  -6   5   27.98    2.48
   2  -6  -5   30.94    2.61
   2   6   5   24.30    2.61
  -2   6   5   31.77    2.62
   2  -6   5   31.65    2.63
   2   6  -5   23.62    2.69
  -2  -6  -5   27.31    2.32
   2  -6  -6   34.75    2.86
  -2  -6  -6   33.84    2.73
  -2  -7   0    2.57    0.70
   2   7   0    2.79    0.67
  -2   7   0    3.43    0.83
   2  -7   0    4.52    1.00
   2   7   0    4.11    0.81
   2   7   1   22.42    1.94
   2  -7  -1   26.85    2.08
   2   7   1   22.78    1.92
  -2   7  -1   22.99    1.91
  -2  -7   1   23.79    1.93
   2  -7   1   23.31    1.96
   2   7  -1   24.75    1.96
  -2   7   1   22.97    1.94
  -2  -7  -1   26.54    1.94
  -2   7   1   24.15    1.87
  -2   7  -2   24.04    2.03
   2   7   2   27.10    2.13
   2  -7  -2   25.61    2.16
   2   7  -2   25.24    2.02
   2  -7   2   25.67    2.19
  -2   7   2   24.06    1.99
  -2  -7  -2   26.12    1.99
  -2  -7  -2   17.62    2.02
   2   7  -2   24.64    1.95
  -2   7   2   22.43    1.97
   2   7   3    3.04    0.87
  -2  -7   3    3.35    0.86
   2  -7  -3    3.13    0.94
  -2   7  -3    2.88    0.74
  -2   7   3    1.64    0.65
  -2  -7  -3    3.91    0.89
  -2   7   3    3.22    0.80
   2   7  -3    1.89    0.62
   2  -7   3    2.98    0.79
   2  -7   3    2.50    0.95
   2   7  -3    2.67    0.66
   2  -7  -4   38.08    2.91
  -2  -7   4   26.29    2.36
  -2   7  -4   31.24    2.62
   2   7   4   26.65    2.77
   2  -7  -4   34.38    2.48
  -2   7  -4   26.91    2.29
   2  -7   4   32.11    2.53
  -2   7   4   28.86    2.56
  -2  -7  -4   30.31    2.47
   2   7  -4   30.91    2.55
  -2   7  -5    9.12    1.55
   2  -7  -5   13.40    1.99
  -2   7  -5    9.60    1.48
  -2  -7   5   11.37    1.81
   2   7   5   12.09    1.83
  -2   7   5    8.96    1.64
   2  -7   5   11.39    1.76
   2   7  -5    8.75    1.51
  -2  -7  -5   10.81    1.69
  -2   8   0   66.69    3.97
   2  -8   0   66.75    3.95
   2   8   0   59.99    3.63
   2   8   0   63.32    3.85
  -2  -8   0   70.57    3.81
   2   8   1   11.30    1.66
   2   8   1   11.67    1.60
   2  -8  -1   16.76    1.97
  -2  -8   1   13.90    1.74
  -2   8  -1   12.23    1.66
  -2  -8  -1   14.37    1.69
   2  -8   1   11.19    1.66
  -2   8   1   12.10    1.52
  -2   8   1   10.93    1.56
   2   8  -1   11.90    1.62
   2  -8  -2   -1.64    0.46
  -2   8  -2    0.02    0.39
  -2  -8   2    0.26    0.57
   2   8   2    0.43    0.60
  -2   8   2   -0.17    0.42
   2   8  -2    0.22    0.46
  -2   8   2    0.14    0.43
  -2  -8  -2   -0.38    0.39
   2  -8   2    0.43    0.56
  -2   8  -3   41.11    3.06
   2   8   3   41.58    3.15
   2  -8  -3   43.89    3.18
   2  -8   3   42.19    3.32
   2   8  -3   43.92    2.97
  -2   8   3   49.69    3.31
  -2  -8  -3   44.30    3.21
   2   8  -3   39.64    3.04
  -2   8   3   40.00    3.07
   2   8   4   17.44    2.36
  -2   8  -4   20.73    2.38
   2  -8  -4   18.48    2.41
   2  -8  -4   18.55    2.18
   2  -8   4   17.81    2.45
  -2  -8  -4   19.56    2.32
   2   8  -4   19.30    2.40
  -2   8   4   17.01    2.22
   2   9   0   26.67    2.41
  -2  -9   0   36.72    2.66
   2  -9   0   37.40    2.83
  -2   9   0   35.96    2.77
   2  -9  -1    0.47    0.64
  -2   9  -1    0.51    0.45
  -2  -9   1   -0.78    0.50
   2   9   1    0.09    0.46
   2   9   1    0.40    0.46
   2   9  -1   -0.59    0.44
   2  -9   1   -0.29    0.54
  -2   9   1    0.76    0.54
  -2   9  -2    9.84    1.57
   2   9   2    8.67    1.44
  -2  -9   2    9.60    1.68
   2  -9  -2   10.97    1.78
  -2   9   2   11.93    1.71
  -2  -9  -2    9.04    1.52
   2   9  -2   10.51    1.59
   2  -9   2   10.41    1.70
  -2   9   2   11.62    1.67
   2   9   3    1.32    0.62
  -2  -9   3    1.62    1.04
   2  -9  -3    1.54    0.64
  -2   9  -3    1.00    0.57
  -2   9   3    2.45    0.77
  -2   9   3    1.09    0.64
  -2 -10   1   -0.12    0.68
  -3   0   0   -0.03    0.12
   3   0   0   -0.17    0.12
  -3   0   0    0.02    0.12
   3   0   0   -0.19    0.09
  -3   0   1  195.53    7.46
   3   0   1  191.96    7.62
  -3   0  -1  185.55    7.51
   3   0  -1  193.99    7.64
   3   0   1  186.18    7.39
  -3   0  -1  196.76    7.24
   3   0  -1  200.72    7.66
   3   0   2   19.67    1.28
   3   0  -2   18.85    1.37
  -3   0  -2   19.18    1.05
   3   0  -2   19.72    1.30
   3   0   2   18.59    1.08
  -3   0   2   18.54    1.19
  -3   0  -2   19.66    1.31
   3   0  -3   51.99    2.95
   3   0   3   50.41    2.46
  -3   0   3   50.72    2.60
   3   0   3   54.64    2.86
  -3   0  -3   52.48    2.54
  -3   0   3   54.37    2.71
  -3   0  -3   50.57    2.78
   3   0  -3   54.09    2.21
  -3   0   4   15.04    1.27
  -3   0  -4   12.49    1.08
  -3   0  -4   11.83    1.36
   3   0  -4   11.60    1.48
  -3   0   4   12.40    1.20
   3   0   4   11.47    1.38
   3   0   4   12.91    0.98
   3   0  -5   44.56    2.93
   3   0   5   37.91    2.68
  -3   0  -5   39.99    2.68
  -3   0   5   43.96    2.50
  -3   0   5   37.58    2.54
  -3   0  -5   41.97    2.52
  -3   0   6   14.03    1.72
  -3   0  -6   15.80    1.84
   3   0  -6   23.39    2.44
   3   0   6   14.83    1.93
  -3   0   7    3.64    0.89
   3   0   7    2.52    0.75
   3   0  -7    1.53    0.68
   3  -1   0   -1.26    0.10
  -3   1   0   -0.98    0.18
   3  -1   0   -0.96    0.22
  -3  -1   0   -1.12    0.18
   3   1   0   -1.20    0.15
   3   1   0   -0.84    0.19
  -3   1   0   -0.67    0.18
  -3   1  -1   36.45    1.49
   3  -1  -1   34.39    1.87
  -3  -1   1   33.67    1.65
   3  -1  -1   35.52    1.68
   3   1   1   36.82    1.78
   3   1   1   33.55    1.71
  -3  -1   1   31.60    1.42
  -3   1  -1   34.54    1.74
  -3   1  -1   37.46    1.63
  -3   1   1   37.89    1.78
   3  -1   1   34.37    1.77
   3   1  -1   32.43    1.83
   3   1  -1   32.05    1.72
  -3  -1  -1   31.43    1.76
  -3   1   1   36.88    1.51
  -3   1  -2    0.02    0.15
  -3   1  -2    0.12    0.20
   3  -1  -2   -0.08    0.15
   3  -1  -2   -0.14    0.25
   3  -1  -2    0.00    0.17
   3   1   2   -0.07    0.14
  -3  -1   2    0.00    0.21
   3   1   2   -0.14    0.16
   3   1  -2    0.13    0.28
  -3   1   2    0.03    0.21
  -3  -1  -2    0.01    0.12
   3  -1   2   -0.13    0.10
  -3  -1  -2   -0.08    0.22
   3   1  -2   -0.27    0.15
   3  -1   2   -0.23    0.19
   3   1  -2   -0.14    0.08
  -3  -1   3    1.08    0.39
   3   1   3    1.11    0.34
  -3  -1   3    1.68    0.43
  -3   1  -3    1.69    0.45
   3   1   3    1.82    0.49
   3  -1  -3    1.78    0.33
   3  -1  -3    1.51    0.52
  -3   1  -3    1.50    0.40
  -3  -1  -3    1.50    0.33
  -3   1   3    1.75    0.47
  -3  -1  -3    1.16    0.45
  -3   1   3    1.51    0.39
   3  -1   3    1.84    0.49
   3  -1   3    1.65    0.28
   3   1  -3    2.07    0.60
   3   1  -3    1.73    0.26
  -3   1  -4    0.13    0.22
   3   1   4   -0.13    0.19
   3   1   4   -0.30    0.21
  -3   1  -4   -0.15    0.27
   3  -1  -4    0.00    0.25
  -3  -1   4   -0.04    0.26
  -3  -1   4    0.17    0.24
  -3   1   4   -0.10    0.20
  -3   1   4    0.42    0.30
  -3  -1  -4    0.14    0.29
   3   1  -4    0.29    0.26
   3  -1   4   -0.12    0.24
  -3  -1  -4    0.02    0.21
   3   1   5   10.28    1.20
  -3  -1   5    9.00    1.36
   3  -1  -5   11.68    1.66
  -3   1  -5   10.46    1.36
   3   1   5   10.18    1.43
  -3   1  -5   11.79    1.37
  -3  -1   5   12.40    1.06
   3   1  -5    9.41    1.52
  -3  -1  -5    8.59    1.33
  -3   1   5   10.34    1.30
  -3   1   5   11.68    1.35
   3  -1   5    9.23    1.44
  -3  -1  -5   11.50    1.29
  -3  -1   6    0.47    0.39
  -3   1  -6    0.77    0.47
  -3   1  -6    0.71    0.47
   3  -1  -6   -0.46    0.42
   3   1   6    0.66    0.37
   3   1  -6    0.21    0.50
  -3   1   6    1.09    0.48
  -3   1   6    0.95    0.50
   3  -1   6    1.18    0.48
  -3  -1  -6    0.63    0.46
  -3  -1   7    0.27    0.38
   3   1   7   -0.13    0.40
   3  -1  -7    0.73    0.52
   3  -1   7    0.56    0.44
   3   1  -7   -0.28    0.42
   3   2   0   -0.15    0.12
   3   2   0    0.89    0.25
   3   2   0    0.03    0.08
  -3  -2   0   -0.05    0.14
  -3   2   0   -0.05    0.12
  -3   2   0   -0.02    0.12
   3  -2   0   -0.04    0.18
   3  -2   0   -0.01    0.09
   3   2   1   89.37    4.13
  -3  -2   1   92.08    3.95
  -3   2  -1   95.76    4.13
  -3   2  -1  100.62    3.76
   3  -2  -1   97.70    3.91
   3  -2  -1  100.72    4.29
   3   2   1  102.16    4.11
  -3  -2  -1   91.30    4.10
  -3  -2  -1   94.29    3.81
   3   2  -1  100.14    4.34
   3  -2   1   99.33    4.17
   3   2  -1   97.98    3.90
   3  -2   1   98.52    4.11
  -3   2   1   96.96    3.97
   3   2  -1   93.40    4.11
  -3   2   1   98.46    4.10
  -3   2  -2   12.60    0.94
  -3  -2   2   10.52    0.83
   3   2   2   12.89    1.01
  -3   2  -2   11.11    0.94
   3  -2  -2   11.90    1.28
   3   2   2   13.11    0.95
   3  -2  -2   11.98    0.82
   3   2  -2   12.63    1.13
   3   2  -2   12.91    0.75
  -3   2   2   13.00    1.03
  -3   2   2   11.64    0.82
  -3  -2  -2   11.54    1.02
   3   2  -2   13.07    1.08
   3  -2   2   10.58    0.99
  -3  -2  -2   13.19    0.83
   3   2   3   38.61    2.25
  -3  -2   3   40.18    2.08
  -3  -2   3   37.69    2.38
   3  -2  -3   41.10    2.05
   3   2   3   43.25    2.30
  -3   2  -3   42.20    2.31
   3  -2  -3   37.51    2.53
  -3   2  -3   41.42    2.37
  -3  -2  -3   41.74    2.44
   3   2  -3   41.81    1.88
  -3   2   3   37.98    2.30
   3   2  -3   45.40    2.59
  -3   2   3   44.18    2.09
   3  -2   3   39.78    2.47
  -3  -2  -3   39.55    2.10
   3  -2  -4   10.14    1.00
  -3  -2   4    7.50    1.20
   3   2   4    9.91    1.17
  -3   2  -4    9.69    1.23
   3   2   4   10.81    1.21
  -3  -2   4    7.79    0.89
   3  -2  -4   10.21    1.47
  -3   2  -4    9.71    1.17
  -3   2   4    9.78    1.21
  -3   2   4   10.71    1.03
   3   2  -4    9.75    1.39
  -3  -2  -4    8.51    0.98
   3  -2   4    9.72    1.38
  -3  -2  -4    9.01    1.27
  -3   2  -5   48.07    2.87
   3   2   5   41.21    2.70
  -3   2  -5   44.02    2.85
   3   2   5   49.79    2.85
  -3  -2   5   43.69    2.93
   3  -2  -5   46.72    3.14
  -3  -2  -5   45.35    2.94
  -3   2   5   44.97    2.78
   3   2  -5   45.20    3.13
   3  -2   5   42.58    3.03
   3  -2  -6   18.80    2.30
  -3  -2   6   18.42    2.13
  -3   2  -6   20.88    1.84
  -3   2  -6   19.93    1.80
   3  -2   6   20.42    2.33
   3   2  -6   20.64    2.41
  -3   2   6   19.54    1.77
  -3  -2  -6   21.12    1.88
  -3  -2   7    0.28    0.43
   3  -2  -7    0.08    0.48
  -3   2   7    2.64    0.65
   3  -2   7    0.94    0.49
   3   2  -7    2.01    0.64
   3  -3   0   -0.36    0.09
   3   3   0   -0.45    0.14
   3  -3   0   -0.33    0.20
  -3   3   0   -0.38    0.15
   3   3   0   -0.32    0.10
   3   3   0   -0.40    0.18
  -3   3   0   -0.11    0.17
   3   3   0    0.01    0.21
  -3   3  -1   22.24    1.42
   3   3   1   23.08    1.47
   3  -3  -1   19.93    1.02
   3  -3  -1   19.40    1.43
  -3   3  -1   21.28    1.05
   3   3   1   21.87    1.28
  -3  -3  -1   21.13    1.17
   3   3  -1   21.00    1.34
   3   3  -1   23.62    1.32
  -3   3   1   21.84    1.38
   3  -3   1   23.19    1.39
  -3  -3  -1   20.35    1.41
   3   3  -1   22.00    1.47
  -3   3   1   21.72    1.33
   3  -3   1   21.42    1.42
   3   3  -1   22.16    1.37
   3   3   2    0.06    0.19
  -3  -3   2    0.04    0.16
   3   3   2    0.19    0.18
  -3   3  -2    0.07    0.19
  -3   3  -2   -0.04    0.16
   3  -3  -2    0.02    0.29
   3  -3   2   -0.08    0.24
   3   3  -2    0.21    0.23
  -3  -3  -2   -0.41    0.15
  -3   3   2    0.27    0.26
  -3   3   2   -0.19    0.16
   3   3  -2   -0.02    0.23
  -3  -3  -2   -0.13    0.15
   3   3  -2   -0.20    0.14
  -3  -3   3    1.23    0.35
  -3   3  -3    1.39    0.43
   3   3   3    1.48    0.47
  -3   3  -3    0.67    0.36
   3   3   3    1.35    0.38
  -3  -3   3    0.44    0.41
   3  -3  -3    1.68    0.44
   3  -3  -3    1.94    0.63
  -3  -3  -3    1.52    0.40
  -3  -3  -3    1.36    0.49
  -3   3   3    0.90    0.41
   3   3  -3    0.69    0.31
   3  -3   3    1.41    0.58
  -3   3   3    1.77    0.33
   3   3  -3    0.94    0.29
  -3  -3   4    3.07    0.85
  -3   3  -4    3.50    0.77
  -3   3  -4    3.44    0.75
   3  -3  -4    4.60    0.77
   3   3   4    3.65    0.78
   3  -3  -4    2.50    0.77
   3   3   4    2.95    0.62
   3  -3   4    4.21    0.98
  -3  -3  -4    4.48    0.75
  -3   3   4    4.09    0.85
   3   3  -4    2.77    0.70
  -3  -3  -4    3.77    0.87
   3   3   5    8.53    1.32
  -3  -3   5    7.22    1.33
  -3   3  -5    9.98    1.42
   3  -3  -5   11.19    1.71
  -3   3  -5    7.23    1.17
  -3  -3  -5    9.55    1.47
   3   3  -5    8.94    1.49
   3  -3   5   10.75    1.66
  -3   3   5    9.04    1.37
  -3   3  -6    2.19    0.69
   3   3   6    0.89    0.57
  -3   3  -6    1.18    0.54
  -3  -3   6    1.62    0.60
   3  -3  -6    1.70    0.76
   3  -3   6    2.00    0.68
  -3  -3  -6    1.18    0.54
   3   3  -6    1.41    0.65
  -3   3   6    1.64    0.56
  -3   3  -7    0.47    0.47
   3  -3  -7   -0.36    0.51
  -3  -3   7   -0.23    0.41
  -3   3   7    0.71    0.50
   3  -4   0   -0.33    0.11
  -3   4   0    0.37    0.23
  -3  -4   0    0.15    0.24
   3  -4   0    0.11    0.26
  -3   4   0   -0.02    0.17
   3   4   0    0.21    0.22
   3   4   0    0.31    0.22
   3   4   0   -0.04    0.18
  -3   4  -1   79.47    3.22
   3  -4  -1   74.61    3.81
   3   4   1   79.17    3.78
  -3   4  -1   73.97    3.71
   3   4   1   84.90    3.53
   3   4  -1   74.75    3.61
   3   4  -1   78.21    3.60
  -3   4   1   75.12    3.59
  -3  -4  -1   75.11    3.71
  -3  -4  -1   77.13    3.43
   3   4  -1   75.93    3.61
  -3   4   1   72.67    3.59
   3   4  -1   77.86    3.79
   3  -4   1   75.89    3.56
   3  -4   1   81.18    3.78
  -3  -4   2    8.84    1.11
   3  -4  -2    9.35    1.31
   3   4   2    9.75    1.17
  -3   4  -2    9.34    1.12
  -3  -4   2    8.46    0.76
  -3   4  -2    8.41    1.08
   3   4   2    9.97    0.79
   3  -4   2    9.54    1.14
   3   4  -2   10.07    0.86
  -3   4   2   11.05    1.20
  -3  -4  -2    9.35    1.17
  -3  -4  -2    9.65    0.96
  -3   4   2    8.51    1.01
   3   4  -2    9.71    1.18
  -3   4  -3   33.88    2.16
   3   4   3   31.90    2.17
   3  -4  -3   31.11    2.31
  -3   4  -3   27.22    2.01
  -3  -4   3   31.36    2.17
  -3   4   3   28.72    1.92
  -3   4   3   24.86    1.95
  -3  -4  -3   27.10    1.86
   3   4  -3   32.56    1.82
  -3  -4  -3   29.41    2.12
   3  -4   3   32.92    2.24
   3   4  -3   31.81    2.19
  -3  -4   4   10.17    1.51
  -3   4  -4    6.20    1.06
   3  -4  -4   11.90    1.68
   3  -4  -4    9.53    1.16
  -3   4  -4    8.45    1.25
   3   4   4    9.60    1.35
   3   4  -4    7.65    1.27
  -3   4   4    9.34    1.36
   3  -4   4   10.03    1.53
  -3  -4  -4    8.41    1.33
  -3   4  -5   19.40    2.01
  -3   4  -5   19.53    2.08
   3  -4  -5   18.75    2.25
   3   4   5   23.10    1.98
  -3  -4   5   24.49    2.14
  -3   4   5   21.43    1.90
   3  -4   5   20.81    2.33
  -3  -4  -5   23.10    2.00
   3   4  -5   14.92    2.02
   3  -4  -6   13.07    1.95
  -3   4  -6    9.91    1.43
  -3  -4   6   10.49    1.73
  -3   4  -6   11.83    1.72
   3   4   6   13.07    1.86
  -3   4   6   12.75    1.80
   3   4  -6   12.78    1.91
  -3  -4  -6   12.26    1.76
   3  -4   6   13.11    2.03
  -3   4  -7    2.02    0.70
   3   4   7    0.27    0.55
  -3  -5   0    0.08    0.29
   3   5   0    0.14    0.23
   3   5   0    0.10    0.22
  -3   5   0   -0.05    0.20
   3  -5   0    0.06    0.30
  -3   5   0    0.08    0.27
   3   5   0   -0.32    0.21
   3   5   1    9.98    1.31
  -3   5  -1   11.34    0.84
   3  -5  -1   12.47    1.43
  -3   5  -1   10.72    1.27
   3   5   1   13.35    1.41
   3   5   1   12.71    0.97
   3  -5   1   12.83    1.05
   3   5  -1   10.46    1.16
  -3  -5  -1   11.49    1.05
   3   5  -1   11.98    1.08
   3   5  -1   12.74    1.33
   3   5  -1   11.05    1.22
  -3   5   1   13.70    1.17
  -3   5   1   11.57    1.26
   3  -5   1   12.29    1.38
  -3  -5   2    0.03    0.30
  -3  -5   2   -0.09    0.22
   3   5   2    0.47    0.32
  -3   5  -2   -0.04    0.23
   3  -5  -2   -0.30    0.37
   3   5  -2   -0.11    0.22
  -3  -5  -2    0.21    0.34
  -3  -5  -2    0.05    0.38
   3  -5   2    0.06    0.42
   3   5  -2    0.36    0.25
  -3   5   2    0.16    0.31
  -3   5   2    0.11    0.28
   3  -5   2    0.13    0.31
   3   5   3    0.74    0.42
  -3   5  -3    1.37    0.46
  -3  -5   3    0.39    0.50
   3  -5  -3    1.52    0.71
  -3   5  -3    0.32    0.35
   3   5  -3    0.69    0.38
  -3   5   3    1.02    0.47
   3   5  -3    1.45    0.44
  -3  -5  -3    1.86    0.63
   3  -5   3    1.56    0.63
  -3   5   3    0.86    0.43
   3  -5  -4    0.64    0.57
  -3   5  -4    0.61    0.42
  -3  -5   4    0.53    0.47
   3  -5  -4    0.65    0.36
   3   5   4    0.53    0.39
  -3   5  -4    0.61    0.44
   3   5  -4    0.06    0.32
  -3   5   4    0.72    0.42
  -3  -5  -4    1.08    0.62
   3  -5   4    0.27    0.41
   3  -5  -5    6.35    1.31
  -3   5  -5    8.01    1.39
  -3  -5   5    6.18    1.27
  -3   5  -5    5.70    1.03
   3   5   5    6.96    1.28
   3  -5   5    6.94    1.32
  -3   5   5    7.65    1.32
   3   5  -5    6.06    1.24
  -3  -5  -5    6.90    1.27
   3  -5  -6    0.49    0.58
  -3  -5   6   -0.26    0.41
  -3   5  -6    0.45    0.43
   3   5   6   -0.62    0.46
   3   5  -6   -0.03    0.48
  -3  -5  -6    0.59    0.58
  -3   5   6    0.40    0.44
   3  -5   6   -0.27    0.44
  -3   6   0    0.34    0.28
  -3   6   0    0.10    0.35
  -3  -6   0    0.16    0.34
   3  -6   0    0.45    0.50
   3   6   0   -0.29    0.25
   3   6   0    0.10    0.30
   3  -6  -1   23.42    1.92
   3   6   1   24.75    1.91
   3   6   1   22.41    1.86
  -3   6  -1   20.99    1.74
  -3  -6   1   25.74    1.89
  -3  -6   1   22.19    1.63
   3   6  -1   23.34    1.78
  -3  -6  -1   23.88    1.70
  -3   6   1   23.90    1.74
   3   6  -1   22.58    1.70
   3  -6   1   25.11    1.91
  -3   6   1   23.70    1.84
  -3  -6   2    5.72    0.96
   3  -6  -2    5.63    1.17
  -3   6  -2    4.30    0.87
   3   6   2    5.53    1.06
   3  -6   2    5.43    0.91
  -3   6   2    5.23    0.99
   3   6  -2    5.13    0.90
  -3  -6  -2    5.08    1.04
   3  -6   2    5.76    1.10
   3   6  -2    3.69    0.74
  -3  -6  -2    4.70    0.88
  -3   6   2    5.06    0.97
  -3  -6   3   17.02    1.81
  -3   6  -3   13.04    1.65
   3  -6  -3   14.96    1.92
  -3   6  -3   17.60    1.91
   3   6   3   12.12    1.66
  -3   6   3   15.34    1.71
  -3  -6  -3   16.56    1.91
   3  -6   3   17.28    1.80
   3  -6   3   14.52    1.88
   3   6  -3   15.58    1.39
  -3   6   3   14.48    1.76
   3   6  -3   12.19    1.62
   3  -6  -4    4.80    1.13
   3   6   4    6.51    1.23
  -3  -6   4    6.99    1.29
   3  -6  -4    5.78    1.01
  -3   6  -4    5.05    1.06
  -3   6  -4    5.28    1.04
   3   6  -4    3.66    0.84
  -3  -6  -4    3.78    0.94
   3  -6   4    4.85    1.06
  -3   6   4    3.11    0.88
   3  -6  -5   14.24    2.06
  -3  -6   5   16.23    2.20
   3   6   5   15.82    2.13
  -3   6  -5   14.21    1.93
  -3   6  -5   15.62    2.00
  -3  -6  -5   16.19    2.09
  -3   6   5   16.41    2.11
   3   6  -5   12.53    1.87
   3  -6   5   15.57    2.11
   3  -6  -6   12.36    1.83
  -3  -6  -6    9.72    1.53
  -3   7   0    0.27    0.40
   3   7   0   -0.09    0.32
   3  -7   0    0.92    0.54
  -3  -7   0    0.09    0.42
   3   7   0    0.51    0.35
  -3  -7   1    8.59    1.30
  -3   7  -1    7.19    1.20
   3   7   1    6.98    1.21
   3   7   1    5.69    1.02
   3  -7  -1    5.50    1.19
  -3   7   1    4.93    1.03
   3   7  -1    4.85    0.96
  -3   7   1    6.99    1.12
   3   7  -1    5.96    1.02
  -3  -7  -1    7.98    1.16
   3  -7   1    4.66    1.04
   3   7   2    0.52    0.43
   3  -7  -2   -0.22    0.45
  -3   7  -2    0.10    0.35
  -3   7   2    0.31    0.42
   3   7  -2   -0.01    0.33
  -3   7   2    0.27    0.37
  -3  -7  -2   -0.23    0.37
   3   7  -2    0.05    0.31
   3  -7   2   -0.82    0.40
  -3   7  -3    0.22    0.43
   3   7   3    0.32    0.45
   3  -7  -3    1.17    0.65
  -3  -7   3    1.33    0.64
  -3  -7  -3    0.95    0.50
  -3   7   3    0.69    0.51
  -3   7   3   -0.05    0.49
   3  -7   3    0.40    0.67
   3   7  -3    0.50    0.40
   3  -7  -4    3.58    1.00
   3   7   4    2.66    0.82
  -3   7  -4    3.89    0.83
  -3  -7   4    2.46    0.81
   3  -7  -4    2.14    0.69
  -3   7  -4    4.25    0.97
  -3  -7  -4    4.52    1.02
   3  -7   4    4.12    1.21
   3   7  -4    4.71    1.02
  -3   7   4    3.24    0.92
   3  -7   4    3.78    0.94
   3   7   5    3.16    0.89
   3  -7  -5    3.40    0.89
  -3  -7   5    4.67    1.01
  -3   7  -5    5.21    1.04
  -3   7  -5    3.64    0.93
  -3   7   5    4.19    1.09
   3  -7   5    2.85    0.79
   3   7  -5    4.82    0.94
  -3  -7  -5    4.30    0.94
   3   8   0    0.29    0.40
  -3  -8   0    0.03    0.42
  -3   8   0    0.13    0.44
   3  -8   0    0.18    0.52
   3   8   0   -0.22    0.35
   3   8   1   15.45    1.81
   3   8   1   12.19    1.76
  -3   8  -1   11.05    1.63
   3  -8  -1   12.20    1.79
  -3  -8   1   15.12    1.79
   3  -8   1   13.42    1.91
  -3   8   1   16.12    1.92
   3   8  -1   11.18    1.55
  -3  -8   2    2.33    0.98
   3  -8  -2    4.15    1.13
   3   8   2    4.27    1.02
  -3   8  -2    3.06    0.77
  -3   8   2    4.43    0.98
  -3  -8  -2    2.48    0.86
   3  -8   2    3.17    1.04
   3   8  -2    4.32    0.86
  -3   8   2    3.15    0.83
   3   8   3    9.98    1.58
  -3   8  -3    7.44    1.35
   3  -8  -3    7.69    1.42
  -3   8   3    9.22    1.47
   3   8  -3    6.75    1.18
   3  -8   3    7.27    1.43
  -3   8   3    7.11    1.32
  -3  -8  -3    7.92    1.40
   3  -8  -4    2.28    0.78
   3  -8  -4    3.13    0.87
  -3   8  -4    2.38    0.78
   3   8   4    4.87    1.13
  -3   8   4    4.14    1.10
   3  -8   4    1.49    0.92
  -3  -8  -4    0.60    0.55
   3   8  -4    3.29    0.83
   3  -9   0    0.64    0.61
  -3   9   0    0.07    0.47
   3   9   0    0.47    0.45
  -3  -9   1    3.35    0.90
   3   9   1    2.47    0.70
  -3   9  -1    2.34    0.68
   3  -9  -1    3.84    1.10
   3   9   1    3.27    0.89
   3   9  -1    4.21    0.89
   3  -9   1    3.41    1.06
  -3   9   1    4.81    1.03
   3   9   2    0.09    0.49
  -3   9  -2    0.07    0.47
   3  -9  -2    0.28    0.48
  -3  -9   2    0.45    0.68
  -3  -9  -2   -0.01    0.49
  -3   9   2   -0.83    0.42
  -3   9   2   -0.67    0.49
   3   9  -2   -0.33    0.53
   3  -9   2   -0.49    0.53
   3  -9  -3    1.15    0.68
  -3  -9   3   -0.36    0.81
  -3   9   3    0.92    0.54
  -3   9   3   -0.62    0.50
   4   0   0   19.75    1.21
   4   0   0   20.25    1.09
  -4   0   0   19.23    1.08
  -4   0   0   20.94    1.12
   4   0   1  402.27   14.88
  -4   0  -1  378.48   14.58
   4   0   1  393.48   14.28
  -4   0   1  382.45   14.12
   4   0  -1  380.94   14.76
  -4   0   1  385.79   14.53
   4   0  -1  371.57   14.81
   4   0   1  384.89   14.53
   4   0   2  398.85   15.25
  -4   0   2  384.41   15.36
  -4   0  -2  423.05   15.61
  -4   0  -2  403.39   15.17
   4   0   2  410.46   15.74
   4   0  -2  423.92   15.87
   4   0  -2  396.24   15.77
   4   0   3  370.83   14.91
   4   0  -3  368.92   14.95
  -4   0  -3  384.26   14.80
   4   0   3  374.19   14.34
  -4   0  -3  372.78   14.39
   4   0  -3  394.24   15.12
  -4   0   3  374.13   14.54
   4   0  -4    4.52    0.95
  -4   0  -4    3.47    0.81
  -4   0  -4    4.39    0.68
   4   0   4    3.99    0.84
   4   0   4    3.14    0.54
  -4   0   4    4.16    0.79
  -4   0   4    5.17    0.80
  -4   0   5  165.25    7.05
   4   0  -5  157.63    7.69
  -4   0  -5  159.70    7.44
   4   0   5  163.64    7.62
  -4   0   5  158.48    7.33
   4   0   6  110.40    6.03
  -4   0   6  123.15    5.59
  -4   0   6  115.25    5.90
   4   0  -6  115.00    6.32
  -4   0  -6  112.22    5.88
  -4   0   7   27.96    2.38
   4   0   7   30.38    2.59
   4   0  -7   34.17    2.88
  -4   1   0    0.02    0.11
   4   1   0    0.06    0.17
  -4   1   0    0.11    0.16
   4   1   0    0.19    0.16
  -4  -1   0   -0.05    0.14
   4  -1   0    0.38    0.21
   4   1   0    0.26    0.11
   4  -1   0    0.27    0.18
   4   1   1    0.25    0.17
   4  -1  -1    0.63    0.21
  -4  -1   1    0.29    0.21
  -4   1  -1    0.30    0.20
   4  -1  -1    0.47    0.28
  -4  -1   1    0.56    0.15
  -4   1  -1    0.50    0.17
   4   1   1    0.24    0.17
  -4   1   1    0.28    0.14
   4  -1   1    0.43    0.22
   4  -1   1    0.36    0.21
  -4   1   1    0.38    0.24
   4   1  -1    0.54    0.24
   4   1  -1    0.20    0.19
  -4  -1  -1    0.40    0.24
   4   1   2   24.98    1.51
  -4   1  -2   27.08    1.40
  -4  -1   2   26.17    1.53
   4   1   2   28.30    1.66
   4  -1  -2   28.53    1.61
  -4   1  -2   26.62    1.64
   4   1  -2   26.63    1.69
   4  -1   2   26.84    1.68
   4   1  -2   25.34    1.71
  -4  -1  -2   24.93    1.67
  -4   1   2   25.52    1.20
  -4   1   2   25.61    1.59
  -4  -1  -2   25.30    1.20
   4  -1   2   26.90    1.37
  -4   1  -3   29.69    1.68
   4   1   3   30.22    1.87
   4  -1  -3   26.83    2.04
  -4   1  -3   30.45    1.93
   4  -1  -3   28.63    1.81
   4   1   3   27.21    1.68
  -4  -1   3   27.56    1.68
   4   1  -3   25.22    1.89
   4  -1   3   28.88    1.47
  -4  -1  -3   29.62    1.99
   4   1  -3   31.00    2.04
   4  -1   3   27.57    1.93
  -4  -1  -3   28.38    1.52
  -4   1   3   26.37    1.74
  -4   1  -4   23.16    1.82
   4   1   4   23.52    1.63
   4   1   4   24.07    1.80
  -4  -1   4   24.49    1.66
   4  -1  -4   28.93    2.14
  -4   1  -4   25.36    1.65
  -4  -1   4   25.19    1.86
   4  -1   4   20.02    1.80
   4   1  -4   26.57    2.07
  -4  -1  -4   23.40    1.86
  -4   1   4   24.12    1.72
  -4   1   4   26.88    1.73
  -4  -1  -4   24.44    1.54
  -4   1  -5    2.78    0.71
   4   1   5    3.27    0.76
   4  -1  -5    3.45    0.97
  -4   1  -5    4.19    0.77
  -4  -1   5    4.64    0.77
  -4  -1   5    5.28    1.08
   4   1   5    5.91    0.89
  -4   1   5    4.47    0.85
  -4  -1  -5    4.48    0.95
  -4   1   5    4.86    0.92
   4  -1   5    5.09    1.06
   4   1  -5    3.97    0.95
   4   1   6    0.20    0.35
  -4  -1   6    0.23    0.33
  -4   1  -6    0.10    0.40
   4  -1  -6    0.53    0.46
  -4  -1  -6    0.32    0.40
   4   1  -6    0.30    0.45
  -4   1   6    0.22    0.37
   4  -1   6    0.03    0.39
  -4   1   6   -0.11    0.28
   4   1   7   -0.26    0.40
  -4  -1   7   -0.01    0.40
   4  -1  -7    1.13    0.54
   4  -1   7   -0.26    0.42
   4   1  -7    0.26    0.49
   4  -2   0  126.87    5.22
   4  -2   0  124.10    5.14
  -4   2   0  129.17    5.07
   4   2   0  128.04    5.33
  -4  -2   0  122.14    5.08
  -4   2   0  123.92    5.10
   4   2   0  128.55    4.91
   4   2   0  117.87    5.27
  -4   2  -1    2.12    0.31
  -4   2  -1    2.21    0.47
   4   2   1    1.41    0.36
  -4  -2   1    1.42    0.30
   4  -2  -1    1.85    0.33
   4  -2  -1    1.37    0.44
   4   2   1    2.01    0.45
  -4  -2   1    1.86    0.39
   4   2  -1    1.90    0.49
  -4   2   1    1.48    0.39
   4  -2   1    1.16    0.36
   4   2  -1    2.20    0.42
  -4   2   1    1.50    0.33
  -4  -2  -1    1.83    0.22
   4  -2   1    1.68    0.41
  -4  -2  -1    2.41    0.50
   4   2   2   97.33    4.51
   4  -2  -2  100.41    4.83
   4  -2  -2   97.85    4.32
  -4   2  -2  104.75    4.57
  -4   2  -2  107.41    3.93
   4   2   2  107.60    4.56
  -4  -2   2  101.00    4.31
  -4   2  -2  100.21    4.37
  -4   2   2  104.19    4.52
   4   2  -2  103.38    4.63
  -4  -2  -2   99.98    4.07
  -4  -2  -2   96.23    4.58
   4  -2   2   99.88    4.63
   4   2  -2  101.41    4.00
  -4   2   2  100.13    4.15
   4   2  -2  100.13    4.76
   4   2   3   17.81    1.35
   4  -2  -3   17.49    1.09
  -4  -2   3   16.56    1.22
   4  -2  -3   14.91    1.67
  -4   2  -3   16.47    1.25
   4   2   3   15.56    1.28
  -4   2  -3   15.51    1.35
   4   2  -3   19.34    1.57
  -4   2   3   19.55    1.20
   4  -2   3   16.74    1.47
  -4  -2  -3   17.12    1.08
  -4   2   3   16.70    1.35
  -4  -2  -3   17.11    1.48
   4   2  -3   14.29    1.60
  -4   2  -4    4.06    0.84
   4   2   4    4.27    0.79
   4  -2  -4    5.29    1.08
  -4  -2   4    4.59    0.73
  -4  -2   4    4.39    0.92
  -4   2  -4    5.43    0.87
   4   2   4    4.42    0.86
  -4   2   4    4.59    0.87
   4  -2   4    4.34    0.99
  -4  -2  -4    2.10    0.68
  -4   2   4    5.08    0.77
   4   2  -4    2.76    0.73
   4   2   5    0.62    0.37
  -4   2  -5    1.05    0.51
   4   2   5    1.26    0.47
   4  -2  -5    0.69    0.48
  -4  -2   5    0.41    0.36
  -4   2  -5    1.79    0.55
  -4   2   5    1.13    0.48
  -4  -2  -5    1.10    0.49
   4   2  -5    0.02    0.42
   4  -2   5   -0.12    0.32
  -4  -2   6    3.93    0.96
  -4   2  -6    6.26    1.14
   4   2   6    6.85    1.15
   4  -2  -6    6.35    1.34
  -4   2  -6    6.57    1.07
  -4   2   6    6.75    1.14
   4   2  -6    7.81    1.40
   4  -2   6    5.82    1.28
  -4  -2  -6    5.39    1.07
   4  -2  -7    1.16    0.58
  -4  -2   7    0.91    0.53
   4  -2   7    2.35    0.63
  -4   2   7    0.90    0.48
   4   2  -7    0.24    0.50
   4  -3   0   64.65    2.96
   4   3   0   64.66    2.85
   4  -3   0   67.39    3.19
   4   3   0   69.63    3.25
  -4   3   0   65.64    3.11
  -4   3   0   67.54    2.98
  -4  -3   0   63.58    3.03
   4   3   0   65.91    3.21
   4  -3  -1   22.35    1.23
  -4   3  -1   25.63    1.60
   4   3   1   25.30    1.61
  -4   3  -1   23.25    1.22
   4   3   1   25.42    1.52
   4  -3  -1   23.94    1.66
   4  -3   1   23.80    1.56
  -4  -3  -1   22.14    1.21
   4   3  -1   23.66    1.65
   4  -3   1   22.72    1.48
   4   3  -1   25.95    1.42
   4   3  -1   23.78    1.56
  -4   3   1   24.13    1.45
  -4  -3  -1   24.32    1.60
   4   3  -1   24.99    1.49
  -4   3   1   26.32    1.55
   4   3   2    4.61    0.78
   4  -3  -2    3.82    0.84
  -4  -3   2    4.58    0.64
  -4   3  -2    4.35    0.73
  -4   3  -2    4.42    0.73
   4  -3  -2    4.70    0.54
   4   3   2    5.17    0.73
   4   3  -2    5.70    0.87
   4  -3   2    4.09    0.75
  -4  -3  -2    4.85    0.57
  -4  -3  -2    4.20    0.81
   4   3  -2    5.30    0.60
   4   3  -2    4.22    0.84
  -4   3   2    3.95    0.73
  -4   3   2    5.75    0.72
   4   3   3   63.99    3.33
  -4   3  -3   57.01    3.23
   4  -3  -3   70.35    3.77
  -4   3  -3   59.32    3.21
   4   3   3   60.05    3.14
  -4  -3   3   59.57    2.95
  -4  -3   3   65.75    3.48
   4  -3   3   67.28    3.49
  -4   3   3   63.32    3.33
  -4   3   3   59.22    2.98
   4   3  -3   58.47    3.37
  -4  -3  -3   60.10    3.36
  -4   3   3   62.72    2.80
   4   3   4    0.59    0.34
  -4  -3   4    0.16    0.41
  -4   3  -4    0.60    0.30
   4   3   4    0.57    0.32
   4  -3  -4    1.20    0.61
  -4   3  -4    0.20    0.29
   4  -3   4    0.10    0.44
  -4   3   4    0.44    0.35
  -4  -3  -4   -0.32    0.36
   4   3  -4    0.84    0.42
   4  -3  -5   27.93    2.43
  -4  -3   5   26.61    2.26
  -4   3  -5   25.81    2.00
   4   3   5   25.32    2.07
  -4   3  -5   22.99    1.97
   4   3  -5   22.34    2.39
   4  -3   5   26.44    2.27
  -4   3   5   26.27    2.05
  -4  -3  -5   23.59    2.06
   4  -3  -6   14.61    2.00
   4   3   6    9.44    1.45
  -4   3  -6    9.58    1.49
  -4  -3   6   10.28    1.63
  -4   3  -6   10.18    1.48
  -4   3   6   11.15    1.60
  -4  -3  -6   10.00    1.52
   4   3  -6   12.30    1.88
   4  -3   6    7.81    1.44
   4  -3  -7   -0.65    0.52
  -4   3   7    2.51    0.64
  -4   4   0    1.43    0.42
   4   4   0    0.76    0.36
   4  -4   0    1.05    0.43
  -4  -4   0    0.42    0.33
  -4   4   0    1.14    0.36
   4   4   0    1.50    0.45
   4   4   0    0.83    0.39
   4  -4   0    1.07    0.25
   4   4   1  102.42    4.62
   4  -4  -1   94.65    4.66
  -4   4  -1   97.34    4.00
  -4   4  -1   92.63    4.49
   4   4   1  102.19    4.43
  -4   4   1   93.33    4.38
   4  -4   1   94.30    4.36
   4   4  -1  100.62    4.42
   4   4  -1  104.53    4.42
   4   4  -1   94.60    4.49
  -4   4   1  102.05    4.48
  -4  -4  -1   93.76    4.54
   4   4  -1  102.02    4.69
  -4  -4  -1   95.90    4.14
   4  -4   1  100.05    4.60
   4   4   2  164.73    6.97
   4   4   2  156.02    6.60
  -4  -4   2  149.62    6.39
   4  -4  -2  173.41    7.22
  -4   4  -2  158.05    6.87
  -4   4   2  152.63    6.62
   4   4  -2  149.04    7.08
   4   4  -2  158.63    6.51
  -4  -4  -2  155.21    6.45
  -4   4   2  161.51    6.88
   4   4  -2  162.30    6.93
   4  -4   2  153.33    6.87
   4  -4   2  148.58    6.84
  -4  -4  -2  166.77    6.96
   4   4   3  169.25    6.98
   4  -4  -3  178.23    7.78
   4   4   3  170.87    7.38
  -4   4  -3  156.33    7.25
  -4   4  -3  173.59    7.29
  -4  -4   3  153.71    6.71
  -4  -4   3  169.61    7.44
   4  -4   3  164.01    7.37
  -4   4   3  155.47    7.26
   4   4  -3  157.77    7.35
  -4  -4  -3  163.47    7.33
  -4   4   3  159.44    6.96
   4   4   4    4.90    0.97
  -4   4  -4    5.55    1.02
  -4  -4   4    6.90    1.28
   4  -4  -4    4.70    1.08
  -4   4  -4    5.34    0.99
  -4   4   4    6.16    1.09
   4  -4   4    5.39    1.09
  -4  -4  -4    5.05    1.06
   4   4  -4    5.47    1.05
   4   4   5   84.65    4.57
  -4   4  -5   73.01    4.29
  -4   4  -5   79.31    4.29
   4  -4  -5   83.14    4.82
  -4  -4   5   75.46    4.57
  -4  -4  -5   67.76    4.32
   4   4  -5   65.83    4.40
  -4   4   5   82.02    4.45
   4  -4   5   77.46    4.58
  -4  -4   6   55.97    4.06
  -4   4  -6   60.09    3.88
   4   4   6   70.43    4.19
  -4   4  -6   67.98    3.99
   4  -4  -6   69.70    4.43
  -4   4   6   62.05    3.93
   4  -4   6   64.71    4.26
   4   4  -6   60.34    4.21
  -4  -4  -6   57.70    3.92
  -4  -5   0   13.31    1.15
   4  -5   0   16.86    1.63
  -4   5   0   15.12    1.31
   4   5   0   13.56    1.44
   4   5   0   16.05    1.30
  -4   5   0   16.28    1.20
   4   5   0   15.93    1.37
   4  -5  -1    6.18    1.11
  -4   5  -1    6.69    1.02
   4   5   1    8.39    0.97
   4   5   1    5.38    0.95
   4  -5   1    4.59    0.77
   4   5  -1    6.18    0.89
   4   5  -1    5.06    0.85
  -4   5   1    5.85    0.95
   4   5  -1    6.70    1.06
   4   5  -1    6.27    0.92
  -4  -5  -1    6.24    0.81
  -4  -5  -1    6.22    1.03
   4  -5   1    5.93    0.98
  -4   5   1    5.64    0.90
   4  -5  -2   58.42    3.48
   4   5   2   58.74    3.39
  -4  -5   2   55.74    2.87
  -4   5  -2   54.32    3.26
  -4  -5   2   62.46    3.35
   4  -5   2   56.97    3.21
   4   5  -2   64.63    3.14
   4   5  -2   54.12    3.19
  -4   5   2   58.09    3.26
  -4   5   2   61.16    3.19
   4  -5   2   58.30    3.38
  -4  -5  -2   66.71    3.52
  -4  -5   3    3.70    0.85
  -4   5  -3    1.88    0.58
  -4   5  -3    3.90    0.86
   4   5   3    2.58    0.68
   4  -5  -3    4.54    1.04
   4  -5   3    3.05    0.78
  -4   5   3    3.80    0.75
  -4  -5  -3    2.84    0.78
  -4   5   3    3.39    0.81
   4   5  -3    3.64    0.81
   4  -5  -4   56.90    3.73
  -4   5  -4   47.49    3.19
  -4  -5   4   53.48    3.45
   4   5   4   53.75    3.43
  -4   5  -4   57.21    3.37
   4  -5   4   55.72    3.46
   4   5  -4   47.67    3.37
  -4  -5  -4   53.26    3.40
  -4   5   4   50.22    3.33
   4  -5  -5    0.59    0.51
   4   5   5    1.01    0.54
  -4   5  -5    0.70    0.44
  -4   5  -5    0.53    0.46
  -4  -5   5    0.65    0.57
  -4   5   5    0.71    0.48
   4  -5   5   -1.11    0.37
  -4  -5  -5    0.71    0.51
   4   5  -5    0.54    0.44
  -4   5  -6    7.18    1.33
  -4  -5   6    6.85    1.39
   4   5   6    6.91    1.36
  -4   5  -6    7.22    1.23
   4  -5  -6   11.12    1.87
   4  -5   6    6.90    1.39
  -4   5   6    5.09    1.12
   4   5  -6    6.57    1.32
  -4  -5  -6    7.12    1.36
  -4  -6   0   74.73    3.64
   4   6   0   66.22    3.83
  -4   6   0   71.32    3.85
  -4   6   0   72.79    3.52
   4  -6   0   74.54    3.96
   4   6   0   69.29    3.82
   4   6   1    5.71    1.02
   4  -6  -1    9.71    1.47
  -4   6  -1    8.40    1.26
   4   6  -1    7.62    1.14
   4   6  -1    7.36    1.10
   4   6  -1    8.73    1.20
  -4   6   1    8.98    1.19
  -4  -6  -1    8.11    1.27
  -4   6   1    7.93    1.18
   4  -6   1    7.95    1.26
  -4  -6  -1    7.44    1.00
   4   6  -1    8.48    1.08
   4  -6  -2   15.83    1.87
   4   6   2   11.62    1.60
  -4  -6   2   12.61    1.46
  -4   6  -2   12.41    1.58
   4   6  -2   11.04    1.41
   4  -6   2   14.86    1.50
   4  -6   2   12.78    1.65
  -4  -6  -2   15.95    1.81
  -4   6   2   13.16    1.49
  -4   6   2   11.85    1.52
   4   6  -2   13.30    1.46
   4   6   3   36.42    2.69
  -4   6  -3   38.32    2.70
   4  -6  -3   33.50    2.71
  -4  -6   3   39.51    2.69
  -4   6   3   40.09    2.53
  -4   6   3   38.71    2.74
   4  -6   3   39.42    2.62
   4   6  -3   32.73    2.51
  -4  -6  -3   39.68    2.75
   4  -6   3   33.20    2.66
   4  -6  -4    8.92    1.23
   4   6   4    6.46    1.21
  -4   6  -4    6.88    1.26
  -4   6  -4    8.63    1.41
   4  -6  -4    7.45    1.48
  -4  -6   4    7.31    1.38
  -4   6   4    6.35    1.25
  -4  -6  -4    7.82    1.36
   4  -6   4    8.00    1.30
   4   6  -4    7.93    1.36
   4   6   5    9.62    1.61
  -4   6  -5    9.30    1.48
  -4  -6   5   13.24    1.94
  -4   6  -5   11.02    1.65
   4  -6  -5   15.59    2.09
   4  -6   5   10.98    1.72
  -4  -6  -5   10.94    1.69
   4   6  -5    8.17    1.47
  -4   6   5   11.95    1.88
  -4  -7   0   42.43    2.51
   4   7   0   38.81    2.70
   4  -7   0   44.18    2.92
   4   7   0   36.90    2.72
  -4   7   0   41.28    2.79
  -4  -7   1   15.80    1.67
  -4   7  -1   20.01    2.06
   4   7   1   13.95    1.74
   4  -7  -1   19.23    2.14
   4   7  -1   13.22    1.62
  -4   7   1   15.52    1.63
   4   7  -1   14.95    1.70
  -4   7   1   16.59    1.81
   4  -7   1   13.26    1.75
  -4  -7  -1   19.02    1.97
   4   7   2    6.69    1.21
   4  -7  -2    9.24    1.50
  -4   7  -2    8.71    1.32
  -4  -7   2    8.16    1.21
   4   7  -2    7.57    1.17
   4   7  -2   10.38    1.40
  -4  -7  -2    8.27    1.43
  -4   7   2    8.21    1.31
   4  -7   2    5.68    1.20
  -4   7   2   10.37    1.47
   4  -7  -3   30.82    2.55
   4   7   3   25.17    2.34
  -4  -7   3   30.52    2.38
  -4   7  -3   29.47    2.39
   4   7  -3   30.65    2.38
   4  -7   3   28.00    2.47
  -4  -7  -3   29.24    2.42
  -4   7   3   26.30    2.33
  -4   7   3   35.56    2.42
  -4  -7   4    1.80    0.81
   4  -7  -4    2.82    1.01
   4   7   4    2.04    0.68
  -4   7  -4    2.60    0.73
   4  -7  -4    2.78    0.75
   4   7  -4    2.34    0.66
   4  -7   4    3.40    0.78
   4  -7   4    2.91    1.05
  -4  -7  -4    1.01    0.57
  -4   7   4    2.32    0.79
   4  -7  -5   21.23    2.55
  -4   7  -5   19.70    2.32
  -4   7  -5   17.22    2.19
  -4  -7   5   24.61    2.75
   4  -7   5   21.57    2.45
  -4  -7  -5   19.22    2.36
   4   8   0   -0.51    0.44
  -4   8   0   -0.06    0.39
   4   8   0    0.72    0.47
   4  -8   0   -0.14    0.60
   4   8   1    4.16    0.91
   4  -8  -1    4.34    1.18
  -4   8  -1    4.24    1.10
  -4  -8   1    3.11    0.87
  -4  -8  -1    1.61    0.79
   4  -8   1    3.29    0.94
  -4   8   1    3.58    0.97
   4   8  -1    2.38    0.66
  -4   8  -2   17.65    2.15
  -4  -8   2   17.33    2.05
   4   8   2   15.04    1.97
   4  -8  -2   19.41    2.28
  -4  -8  -2   21.73    2.40
  -4   8   2   15.53    1.90
  -4   8   2   14.94    1.92
   4  -8   2   17.78    2.11
   4   8  -2   18.48    1.99
   4   8   3   15.73    2.14
   4  -8  -3   18.82    2.35
  -4   8  -3   15.89    2.02
   4  -8   3   12.77    2.06
  -4  -8  -3   14.83    2.04
   4   8  -3   15.30    1.94
  -4   8   3   19.09    2.11
  -4   8   3   14.52    1.97
  -4   8  -4    7.43    1.34
   4  -8  -4    8.20    1.41
  -4  -8   4    8.39    1.44
  -4   8   4    5.68    1.23
   4   8  -4    5.34    1.11
   4   9   0    4.15    0.87
   4  -9   0    3.77    1.04
  -4   9   0    3.23    0.94
   4   9   1    1.81    0.75
   4  -9  -1    3.10    1.01
  -4   9  -1    2.49    0.83
  -4   9   1    2.93    0.89
   4  -9   1    1.21    0.64
  -4  -9  -1    2.66    0.87
   4   9  -1    2.71    0.69
  -4   9  -2   15.16    2.06
   4   9   2   13.17    1.80
  -4  -9   2   14.23    2.01
   4  -9  -2   16.10    2.23
  -4   9   2   13.73    1.80
   4  -9   2   16.72    2.27
  -4  -9  -2   13.09    1.95
   4   9  -2   17.57    2.02
  -4  -9   3    0.97    1.04
  -4   9   3    0.90    0.62
  -4   9   3    1.40    0.78
   5   0   0   -0.09    0.14
  -5   0   0   -0.20    0.12
  -5   0   0    0.09    0.17
   5   0   0   -0.33    0.11
   5   0  -1  183.55    7.40
   5   0   1  173.67    7.42
   5   0   1  178.23    7.28
  -5   0  -1  182.24    7.28
   5   0   1  186.92    6.86
  -5   0   1  183.59    6.81
   5   0  -1  177.76    7.42
  -5   0   1  176.39    7.19
   5   0  -2   -0.02    0.18
  -5   0  -2    0.04    0.24
   5   0   2   -0.15    0.15
  -5   0   2   -0.32    0.16
   5   0   2    0.24    0.22
  -5   0  -2    0.18    0.10
   5   0  -2    0.12    0.18
  -5   0  -3   21.43    1.62
  -5   0  -3   19.20    1.16
   5   0  -3   20.04    1.57
  -5   0   3   20.68    1.48
   5   0   3   18.16    1.50
   5   0  -3   19.67    1.66
   5   0   3   19.00    1.27
   5   0  -4    8.75    1.37
   5   0   4   10.15    0.89
   5   0   4    9.44    1.35
  -5   0   4   12.62    1.29
  -5   0  -4    9.46    1.36
  -5   0   4    9.40    1.20
  -5   0   5    2.90    0.72
   5   0   5    2.33    0.67
  -5   0  -5    2.86    0.83
   5   0  -5    2.88    0.78
  -5   0   5    2.41    0.67
   5   0  -6    6.37    1.34
  -5   0   6    6.97    1.18
  -5   0   6    6.64    1.09
  -5   0  -6    6.61    1.24
   5   0   6    6.57    1.18
   5   0   7    2.48    0.73
   5   0  -7    3.64    0.97
  -5   0  -7    3.21    0.68
  -5   0   7    2.86    0.70
  -5   1   0    0.05    0.16
   5   1   0    0.07    0.14
   5   1   0   -0.17    0.09
   5  -1   0    0.11    0.14
  -5   1   0    0.09    0.13
  -5  -1   0    0.06    0.16
   5  -1   0    0.16    0.19
   5   1   0    0.00    0.21
  -5  -1   0    0.10    0.16
   5  -1  -1   -0.10    0.12
  -5  -1   1    0.09    0.18
  -5  -1   1    0.11    0.12
  -5   1  -1    0.29    0.24
  -5   1  -1    0.01    0.15
   5   1   1    0.01    0.19
   5  -1  -1   -0.02    0.22
   5   1   1   -0.14    0.18
   5   1  -1    0.11    0.18
   5  -1   1   -0.01    0.14
   5   1  -1    0.08    0.16
  -5   1   1   -0.21    0.17
  -5  -1  -1   -0.02    0.22
   5  -1   1    0.00    0.16
  -5   1   1   -0.01    0.11
   5  -1  -2   16.10    1.24
  -5  -1   2   15.73    1.19
  -5   1  -2   17.57    1.32
   5   1   2   18.32    1.35
   5  -1  -2   18.30    1.48
   5   1   2   17.47    1.23
  -5   1  -2   17.55    1.03
  -5   1   2   16.15    1.24
   5  -1   2   14.73    1.27
  -5  -1  -2   15.54    1.33
   5   1  -2   17.03    1.33
  -5  -1  -2   16.44    0.77
   5   1  -2   17.16    1.37
  -5   1   2   17.00    0.86
   5  -1   2   17.59    1.11
   5   1   3   -0.27    0.20
   5  -1  -3   -0.06    0.21
  -5   1  -3   -0.04    0.24
   5   1   3    0.16    0.20
   5  -1  -3    0.04    0.28
  -5  -1   3    0.35    0.29
  -5   1  -3   -0.11    0.15
   5   1  -3   -0.29    0.20
   5  -1   3    0.45    0.32
   5  -1   3    0.21    0.20
  -5   1   3   -0.41    0.20
  -5  -1  -3    0.12    0.29
  -5  -1  -3    0.08    0.11
   5   1  -3    0.22    0.28
   5   1   4    4.36    0.76
  -5   1  -4    4.42    0.71
  -5  -1   4    4.04    0.75
   5   1   4    3.89    0.81
  -5  -1   4    2.89    0.72
  -5   1  -4    4.22    0.85
   5  -1  -4    3.75    0.89
   5   1  -4    3.86    0.87
   5  -1   4    4.02    0.87
  -5  -1  -4    4.66    0.94
  -5   1   4    4.81    0.86
  -5   1   4    4.32    0.81
  -5  -1   5    4.07    0.74
   5  -1  -5    4.95    1.10
  -5  -1   5    3.62    0.87
   5   1   5    3.41    0.81
  -5   1  -5    5.30    1.04
   5  -1   5    4.83    1.02
  -5   1   5    4.58    0.88
   5   1  -5    4.11    1.02
  -5   1   5    5.75    0.99
  -5  -1  -5    4.46    0.95
   5   1   6    7.46    1.30
  -5   1  -6    8.51    1.35
  -5  -1   6    7.11    1.23
   5  -1  -6    6.97    1.36
  -5   1   6    7.63    1.20
   5   1  -6   11.28    1.85
  -5   1   6    9.24    1.33
   5  -1   6    7.55    1.32
  -5  -1  -6    6.63    1.28
   5  -1  -7    0.12    0.56
  -5   1  -7    0.75    0.55
  -5  -1   7    0.32    0.40
   5   1   7    0.44    0.41
  -5  -1  -7    0.23    0.54
   5  -1   7    0.09    0.44
   5   1  -7   -0.09    0.51
   5   2   0   -0.17    0.13
  -5  -2   0   -0.21    0.17
   5   2   0   -0.09    0.10
  -5   2   0   -0.08    0.17
   5   2   0   -0.07    0.15
   5  -2   0    0.10    0.22
  -5   2   0   -0.08    0.15
   5  -2   0   -0.11    0.13
   5   2   1   24.98    1.56
   5   2   1   24.51    1.58
   5  -2  -1   22.97    1.35
  -5   2  -1   23.59    1.24
  -5   2  -1   23.61    1.46
  -5  -2   1   19.55    1.32
   5  -2  -1   21.94    1.56
  -5  -2   1   20.93    1.18
   5  -2   1   20.44    1.44
  -5   2   1   24.62    1.48
  -5   2   1   22.17    1.26
   5   2  -1   22.17    1.36
  -5  -2  -1   22.98    1.50
   5   2  -1   21.84    1.58
   5  -2   1   23.19    1.37
   5   2   2    1.66    0.44
  -5   2  -2    1.99    0.31
  -5   2  -2    1.53    0.37
   5  -2  -2    1.39    0.56
  -5   2  -2    1.52    0.46
  -5  -2   2    1.41    0.23
   5  -2  -2    2.21    0.47
  -5  -2   2    1.46    0.40
   5   2   2    0.95    0.36
  -5  -2  -2    1.32    0.15
  -5   2   2    1.42    0.45
  -5   2   2    1.98    0.34
   5  -2   2    1.35    0.44
   5   2  -2    1.66    0.48
  -5  -2  -2    1.05    0.46
   5   2  -2    1.00    0.38
   5  -2  -3  112.42    4.41
   5  -2  -3  103.73    4.83
  -5  -2   3  103.96    4.74
   5   2   3  109.24    5.04
  -5   2  -3  105.29    5.08
  -5   2  -3  105.09    4.78
   5  -2  -3  100.72    5.32
   5   2   3  108.20    4.98
   5   2  -3  114.37    5.40
  -5  -2  -3  106.90    5.15
   5  -2   3  106.69    5.17
   5   2  -3  106.70    5.23
  -5   2   3  114.97    5.04
   5   2   4   -0.37    0.23
  -5   2  -4    0.37    0.31
  -5  -2   4   -0.22    0.25
  -5  -2   4    0.58    0.38
   5   2   4   -0.36    0.20
  -5   2  -4    0.12    0.22
   5  -2  -4    0.04    0.35
  -5  -2  -4    0.08    0.35
  -5   2   4    0.31    0.23
   5   2  -4    0.06    0.31
  -5   2   4    0.25    0.31
   5  -2   4    0.03    0.35
  -5  -2   5   28.97    2.40
   5   2   5   35.21    2.44
   5   2   5   37.41    2.39
  -5   2  -5   33.68    2.55
  -5   2  -5   37.99    2.35
   5  -2  -5   35.65    2.80
  -5   2   5   35.87    2.44
   5  -2   5   30.04    2.53
  -5  -2  -5   35.27    2.58
   5   2  -5   30.10    2.57
  -5  -2   6    0.60    0.37
  -5   2  -6    0.43    0.48
   5  -2  -6    0.74    0.52
   5   2   6    0.48    0.34
  -5  -2  -6    0.00    0.43
   5  -2   6    0.18    0.39
  -5   2   6    1.57    0.50
   5   2  -6    0.31    0.49
   5  -2  -7   20.72    2.57
  -5  -2   7   19.52    2.37
  -5  -2  -7   16.67    2.14
  -5   2   7   21.11    2.20
  -5   3   0    0.15    0.20
  -5   3   0    0.23    0.21
   5  -3   0    0.28    0.16
  -5  -3   0    0.02    0.22
   5   3   0   -0.12    0.21
   5   3   0    0.52    0.27
   5   3   0   -0.06    0.12
   5  -3   0    0.06    0.26
   5  -3  -1    0.35    0.18
   5   3   1    0.52    0.27
  -5  -3   1    0.27    0.23
  -5   3  -1    0.28    0.27
  -5  -3   1    0.01    0.18
   5  -3  -1    0.33    0.32
   5   3   1    0.39    0.24
  -5   3  -1    0.28    0.21
  -5  -3  -1    0.38    0.33
   5   3  -1   -0.03    0.16
   5  -3   1    0.34    0.22
   5   3  -1    0.77    0.37
   5   3  -1    0.27    0.25
   5  -3   1    0.54    0.32
  -5   3   1    0.08    0.25
  -5  -3  -1    0.53    0.18
  -5   3   1    0.31    0.23
   5  -3  -2   16.86    1.12
   5  -3  -2   19.58    1.64
  -5   3  -2   15.03    1.33
   5   3   2   16.55    1.27
   5   3   2   16.39    1.35
  -5  -3   2   16.15    1.19
  -5   3   2   17.70    1.41
   5   3  -2   16.45    1.36
  -5   3   2   17.11    1.16
   5  -3   2   16.62    1.38
   5  -3   2   16.68    1.35
   5   3  -2   14.13    1.58
  -5  -3  -2   15.97    1.41
   5   3  -2   17.44    1.07
   5   3   3    0.58    0.33
   5   3   3    0.87    0.36
  -5  -3   3    0.86    0.39
  -5   3  -3    0.51    0.34
  -5   3  -3    0.62    0.30
   5  -3  -3    0.53    0.48
  -5  -3  -3    0.62    0.44
   5   3  -3    1.29    0.53
  -5   3   3    1.00    0.34
   5   3  -3    1.39    0.48
   5  -3   3    0.80    0.48
  -5   3   3    0.49    0.33
   5  -3  -4    6.21    1.26
   5   3   4    3.83    0.76
  -5  -3   4    3.23    0.67
  -5   3  -4    4.86    0.86
  -5   3  -4    4.11    0.89
  -5  -3   4    2.73    0.81
   5   3   4    5.51    0.96
  -5   3   4    5.29    0.98
   5   3  -4    4.42    0.95
   5  -3   4    5.06    1.08
  -5  -3  -4    3.95    0.94
   5  -3  -5    0.44    0.51
  -5   3  -5    1.09    0.44
   5   3   5    1.65    0.57
  -5  -3   5    0.99    0.49
  -5   3  -5    1.79    0.58
  -5  -3  -5    0.64    0.58
   5  -3   5    1.93    0.73
   5   3  -5    1.14    0.51
  -5   3   5    0.10    0.38
  -5   3  -6    1.60    0.64
  -5  -3   6    3.56    0.88
   5  -3  -6    1.55    0.72
   5   3   6    4.01    0.92
   5  -3   6    3.43    0.90
  -5  -3  -6    0.97    0.52
  -5   3   6    4.64    1.00
   5   3  -6    1.70    0.63
  -5  -3  -7    0.22    0.53
  -5   4   0    0.13    0.25
  -5   4   0   -0.05    0.24
  -5  -4   0    0.26    0.27
   5   4   0   -0.03    0.23
   5   4   0   -0.08    0.15
   5  -4   0    0.08    0.16
   5  -4   0    0.05    0.33
   5   4   0    0.02    0.24
   5  -4  -1   91.68    4.57
  -5   4  -1  100.56    4.48
   5   4   1   90.17    4.51
  -5   4  -1   93.13    3.91
   5   4   1   99.32    4.43
   5   4  -1   94.38    4.62
   5   4  -1   96.58    4.29
  -5  -4  -1   90.90    3.93
   5   4  -1   96.84    4.29
  -5   4   1   95.71    4.38
  -5   4   1   90.57    4.27
   5  -4   1   91.92    4.31
  -5  -4  -1   87.90    4.43
   5   4  -1   93.57    4.47
   5  -4   1   91.75    4.41
   5  -4  -2    0.36    0.35
   5   4   2    0.20    0.23
   5   4   2    0.33    0.27
  -5   4  -2    0.01    0.23
  -5  -4   2    0.46    0.32
   5   4  -2    0.15    0.22
   5  -4   2    0.43    0.38
  -5   4   2    0.28    0.27
  -5   4   2    0.18    0.29
   5  -4   2    0.65    0.44
   5   4  -2   -0.06    0.24
  -5  -4  -2    0.89    0.51
   5   4  -2    0.61    0.35
  -5  -4   3    7.06    0.95
  -5  -4   3    9.15    1.36
   5   4   3   10.05    1.37
  -5   4  -3   10.99    1.30
   5   4   3    9.35    1.13
   5  -4  -3   12.66    1.77
  -5   4  -3    7.49    1.16
  -5   4   3    8.84    1.04
  -5  -4  -3    7.12    1.22
   5  -4   3   11.87    1.50
   5   4  -3    7.35    1.30
   5   4  -3    9.75    1.31
  -5   4   3    9.42    1.28
   5  -4  -4    4.46    1.09
   5   4   4    4.55    0.94
  -5   4  -4    5.39    0.97
  -5   4  -4    4.47    0.93
  -5  -4   4    5.68    1.14
  -5  -4  -4    4.09    0.95
   5   4  -4    3.81    0.91
   5  -4   4    3.69    0.95
  -5   4   4    5.23    1.01
   5  -4  -5    2.23    0.79
  -5   4  -5    1.11    0.54
   5   4   5    1.04    0.50
  -5   4  -5    2.43    0.70
  -5  -4   5    1.46    0.70
   5   4  -5    1.32    0.55
  -5  -4  -5    1.49    0.61
   5  -4   5    1.64    0.66
  -5   4   5    2.48    0.72
  -5   4  -6    4.99    1.00
  -5   4  -6    2.86    0.76
  -5  -4   6    2.80    0.89
   5   4   6    4.46    0.88
   5  -4  -6    2.53    0.91
   5  -4   6    3.51    0.94
  -5  -4  -6    3.51    0.98
   5   4  -6    2.82    0.80
  -5   4   6    3.50    0.89
  -5  -5   0   -0.21    0.27
   5   5   0   -0.07    0.30
   5   5   0   -0.24    0.26
   5  -5   0   -0.30    0.32
  -5  -5   0    0.15    0.32
  -5   5   0    0.03    0.29
  -5   5   0   -0.05    0.22
   5   5   1   -0.15    0.23
  -5   5  -1    0.01    0.27
   5  -5  -1   -0.11    0.37
   5   5   1    0.01    0.28
   5  -5   1    0.40    0.27
   5   5  -1   -0.17    0.30
  -5   5   1   -0.18    0.25
   5   5  -1   -0.21    0.21
  -5   5   1    0.14    0.31
   5  -5   1   -0.11    0.32
   5   5  -1   -0.02    0.26
   5   5  -1   -0.26    0.30
  -5  -5  -1    0.08    0.39
   5   5   2    4.29    0.89
   5  -5  -2    6.87    1.27
  -5   5  -2    5.55    0.95
  -5  -5   2    5.47    0.83
  -5   5   2    4.66    0.83
  -5   5   2    6.38    1.06
   5  -5   2    5.68    0.97
   5   5  -2    5.43    0.90
   5   5  -2    7.04    0.95
   5  -5   2    4.92    1.00
   5   5  -2    4.60    0.98
  -5  -5  -2    6.82    1.16
   5  -5  -3   -0.09    0.47
  -5   5  -3    0.13    0.32
  -5  -5   3   -0.31    0.34
   5   5   3   -0.02    0.32
   5  -5   3   -0.51    0.28
   5  -5   3    0.06    0.53
   5   5  -3    0.81    0.39
  -5   5   3   -0.13    0.33
  -5   5   3    0.11    0.28
  -5  -5  -3    0.10    0.34
   5  -5  -4    3.02    0.97
  -5  -5   4    2.13    0.67
   5   5   4    2.71    0.72
  -5   5  -4    1.82    0.65
  -5   5  -4    2.49    0.63
  -5   5   4    1.80    0.64
   5  -5   4    2.76    0.82
  -5  -5  -4    3.70    0.96
   5   5  -4    1.69    0.56
   5  -5  -5    3.51    1.00
  -5   5  -5    5.56    1.08
   5   5   5    4.86    0.95
  -5  -5   5    5.57    1.28
  -5   5  -5    5.07    1.05
   5   5  -5    4.11    0.90
  -5   5   5    5.59    1.15
  -5  -5  -5    6.62    1.24
   5  -5   5    5.95    1.23
   5  -5  -6   12.95    1.95
  -5   5  -6    8.48    1.37
  -5   5  -6    8.12    1.46
   5   5   6    8.82    1.39
   5  -5   6    6.51    1.26
  -5  -5  -6   10.83    1.70
  -5   6   0    0.53    0.35
  -5   6   0    0.30    0.41
   5  -6   0   -0.07    0.43
   5   6   0    0.06    0.29
  -5  -6   0    0.00    0.45
   5   6   0   -0.35    0.29
  -5  -6   0    0.11    0.37
   5  -6  -1    4.63    1.10
   5   6   1    3.91    0.91
  -5   6  -1    4.95    0.98
   5  -6   1    4.42    1.02
  -5   6   1    4.62    0.90
   5   6  -1    5.03    0.93
   5   6  -1    3.94    0.85
   5   6  -1    4.18    0.84
  -5   6   1    5.00    0.89
   5   6  -1    4.13    0.73
  -5  -6  -1    4.25    0.97
  -5   6  -2    0.74    0.38
   5  -6  -2   -0.65    0.36
  -5  -6   2    0.54    0.34
  -5  -6   2    0.33    0.45
   5   6   2    0.31    0.36
  -5   6   2    0.22    0.37
  -5   6   2   -0.27    0.34
  -5  -6  -2    0.97    0.59
   5   6  -2   -0.01    0.26
   5   6  -2    1.04    0.45
   5  -6   2    0.55    0.44
   5  -6   2    0.50    0.46
   5  -6  -3   37.71    2.84
   5   6   3   33.24    2.66
  -5  -6   3   34.78    2.61
  -5   6  -3   35.83    2.66
  -5  -6  -3   37.47    2.79
   5   6  -3   33.96    2.54
   5  -6   3   37.84    2.60
   5  -6   3   33.60    2.65
  -5   6   3   35.00    2.62
  -5   6   3   36.35    2.42
  -5   6  -4   -0.25    0.41
   5  -6  -4    0.98    0.61
  -5  -6   4    0.34    0.50
   5   6   4    0.24    0.42
   5   6  -4    0.45    0.41
  -5  -6  -4   -0.47    0.39
   5  -6   4    0.62    0.69
  -5   6   4    0.31    0.48
   5  -6   4   -0.02    0.41
   5   6   5   15.98    2.15
  -5   6  -5   14.76    2.01
   5  -6  -5   18.51    2.43
  -5   6  -5   19.11    2.21
  -5  -6   5   21.61    2.55
  -5  -6  -5   20.51    2.46
   5  -6   5   17.19    2.24
   5   6  -5   17.33    2.28
  -5   6   5   15.96    2.19
   5   7   0   -0.38    0.41
   5   7   0    0.21    0.39
  -5   7   0    0.43    0.45
   5  -7   0    0.23    0.47
  -5  -7   0   -0.18    0.42
  -5   7  -1    0.41    0.42
   5  -7  -1    0.51    0.54
   5   7   1   -0.22    0.38
  -5  -7   1    0.26    0.47
  -5   7   1    0.30    0.38
  -5   7   1   -0.04    0.37
   5   7  -1    0.08    0.34
   5   7  -1   -0.01    0.44
   5  -7   1    0.48    0.52
  -5  -7  -1    0.40    0.45
  -5   7  -2    7.27    1.21
   5  -7  -2    9.88    1.62
   5   7   2    8.73    1.44
  -5  -7   2    8.95    1.31
  -5   7   2    8.38    1.29
   5  -7   2    8.24    1.38
  -5  -7  -2    9.73    1.52
   5   7  -2    7.16    1.13
  -5   7   2    9.16    1.38
   5   7  -2    7.38    1.14
  -5  -7   3    0.45    0.53
   5  -7  -3    0.26    0.50
  -5   7  -3    0.17    0.42
   5   7   3    0.25    0.42
   5  -7   3   -0.69    0.50
   5   7  -3    0.29    0.35
  -5  -7  -3    0.21    0.52
  -5   7   3    1.04    0.46
  -5   7   3   -0.05    0.49
  -5  -7   4    2.09    0.76
   5  -7  -4    1.42    0.78
  -5   7  -4    1.00    0.58
   5   7   4    2.79    0.86
   5   7  -4    2.86    0.70
   5  -7   4    2.63    0.71
   5  -7   4    2.98    1.04
  -5  -7  -4    2.46    0.74
  -5   7   4    1.21    0.63
  -5   7  -5    0.58    0.54
   5  -7   5   -0.50    0.49
   5  -8   0   -0.22    0.55
  -5   8   0   -0.47    0.41
  -5  -8   0   -0.68    0.47
   5   8   0   -0.48    0.42
   5   8   1   27.78    2.34
  -5   8  -1   26.01    2.34
   5  -8  -1   25.38    2.69
   5  -8   1   26.23    2.37
   5   8  -1   28.63    2.29
  -5  -8  -1   30.72    2.48
  -5   8   1   29.10    2.35
  -5   8  -2    0.50    0.48
  -5  -8   2   -0.79    0.62
   5   8   2   -0.44    0.42
   5  -8  -2   -0.95    0.52
  -5   8   2    0.28    0.49
   5  -8   2    0.27    0.54
  -5  -8  -2    0.22    0.58
  -5   8   2    0.49    0.44
   5  -8  -3    1.39    0.87
   5   8   3    1.91    0.70
  -5   8  -3    2.04    0.62
  -5   8   3    0.73    0.56
  -5   8   3    1.54    0.66
  -5  -8  -3    2.20    0.68
   5   8  -3    1.29    0.46
   5  -8   3    1.69    0.75
  -5  -8   4    0.02    0.47
   5   8  -4    0.18    0.46
   5  -9   0   -0.15    0.53
  -5  -9   0    0.28    0.58
  -5   9   0    0.85    0.48
   5  -9  -1    0.05    0.61
   5   9   1    0.77    0.65
  -5   9  -1   -0.11    0.51
  -5  -9  -1    0.20    0.51
  -5   9   1   -0.23    0.42
   5  -9   1    0.01    0.62
   5   9  -1   -0.44    0.56
   5  -9  -2    2.27    0.70
   5   9   2    2.01    0.64
  -5   9   2    1.96    0.65
   6   0   0   27.94    1.51
  -6   0   0   26.27    1.53
   6   0   0   25.72    1.69
  -6   0   0   25.09    1.46
   6   0   1   11.36    0.67
   6   0  -1   11.47    1.01
   6   0   1   10.11    1.12
  -6   0   1   10.66    0.67
  -6   0  -1   10.85    0.97
  -6   0   1   11.43    0.95
  -6   0  -1   11.02    0.86
   6   0  -1   11.08    0.98
   6   0  -2   21.34    1.65
   6   0   2   20.23    1.56
  -6   0  -2   18.44    1.48
   6   0   2   20.24    1.44
   6   0  -2   22.01    1.63
  -6   0   2   20.21    1.45
   6   0   2   22.68    1.11
  -6   0  -3   -0.10    0.24
   6   0   3    0.83    0.28
  -6   0   3    0.55    0.33
   6   0  -3   -0.24    0.23
   6   0   3   -0.02    0.20
   6   0  -3    0.17    0.23
   6   0   4   87.04    4.73
   6   0  -4   96.27    4.83
  -6   0   4   98.62    4.56
   6   0  -4   86.76    4.92
  -6   0  -4   88.86    4.76
  -6   0   5    1.40    0.54
  -6   0  -5    2.02    0.58
   6   0   5    2.11    0.60
  -6   0   5    1.47    0.50
   6   0  -5    1.96    0.67
  -6   0   6   15.82    1.88
   6   0   6   17.74    2.14
  -6   0  -6   17.64    2.12
   6   0  -6   18.90    2.43
  -6   0   6   18.00    1.85
  -6   0  -7    0.78    0.50
   6   0   7    1.67    0.56
   6  -1   0   63.17    3.15
   6   1   0   68.79    3.30
  -6   1   0   68.36    3.02
  -6   1   0   63.27    2.92
   6   1   0   65.44    2.76
  -6  -1   0   66.59    3.06
   6  -1   0   61.58    3.00
  -6  -1   0   64.57    3.01
  -6   1  -1    0.21    0.21
   6  -1  -1    0.17    0.16
  -6   1  -1    0.04    0.20
   6   1   1    0.52    0.28
  -6  -1   1    0.39    0.25
   6  -1  -1    0.13    0.26
   6   1   1   -0.19    0.14
  -6  -1   1    0.16    0.15
   6  -1   1   -0.27    0.14
   6  -1   1   -0.03    0.17
  -6   1   1   -0.06    0.22
   6   1  -1    0.22    0.21
  -6   1   1    0.14    0.13
   6   1  -1    0.20    0.19
  -6  -1  -1    0.19    0.24
  -6   1  -2   18.00    1.42
   6   1   2   17.44    1.37
  -6   1  -2   21.04    1.20
   6  -1  -2   17.75    1.39
   6  -1  -2   18.17    1.56
   6   1   2   17.49    1.43
  -6  -1   2   16.94    1.32
   6  -1   2   22.33    1.25
  -6   1   2   17.01    1.34
  -6   1   2   19.46    0.95
   6  -1   2   16.42    1.41
   6   1  -2   20.69    1.61
   6   1  -2   20.69    1.53
  -6  -1  -2   15.45    1.39
  -6   1  -3   37.03    2.41
  -6   1  -3   37.61    1.97
   6  -1  -3   38.65    2.64
   6   1   3   39.53    2.26
  -6  -1   3   37.49    2.23
   6   1   3   37.75    2.41
   6  -1  -3   35.36    2.30
   6   1  -3   44.61    2.65
   6  -1   3   40.22    2.11
   6   1  -3   41.19    2.57
   6  -1   3   37.23    2.46
  -6  -1  -3   33.25    2.37
  -6   1   3   38.06    2.33
  -6   1  -4   12.15    1.53
  -6  -1   4   12.23    1.32
   6   1   4   12.50    1.30
   6  -1  -4   10.44    1.58
   6   1   4   11.21    1.44
  -6  -1  -4   10.61    1.49
   6   1  -4   11.90    1.66
  -6   1   4   13.71    1.36
   6   1  -4   11.62    1.62
  -6   1   4   15.66    1.51
   6  -1   4   10.89    1.51
  -6   1  -5    3.90    0.90
  -6  -1   5    7.35    1.11
   6  -1  -5    7.31    1.43
   6   1   5    8.07    1.30
  -6  -1   5    6.21    1.10
  -6  -1  -5    5.96    1.09
   6  -1   5    5.47    1.13
   6   1  -5    4.38    1.05
  -6   1   5    5.81    0.99
  -6   1   5    6.61    1.11
  -6   1  -6    9.72    1.58
   6   1   6    9.47    1.52
   6  -1  -6   11.10    1.84
  -6  -1   6    7.79    1.36
  -6   1   6   11.71    1.57
   6  -1   6   10.34    1.65
   6   1  -6    8.34    1.55
  -6  -1  -6    7.86    1.38
   6   1   7    0.05    0.47
  -6   1  -7    0.94    0.51
  -6  -1   7    0.99    0.53
   6  -1   7    0.71    0.50
  -6  -1  -7    0.61    0.53
   6   2   0  905.83   33.70
   6   2   0  916.86   34.63
  -6   2   0  939.44   33.81
   6   2   0  905.01   34.21
  -6   2   0  902.40   33.73
  -6  -2   0  888.00   33.75
   6  -2   0  966.40   34.25
   6  -2   0  887.00   34.36
   6  -2  -1    2.20    0.56
   6   2   1    2.10    0.56
  -6   2  -1    1.01    0.37
  -6  -2   1    1.81    0.35
   6  -2  -1    1.82    0.45
   6   2   1    3.03    0.63
  -6   2  -1    2.23    0.42
  -6  -2   1    1.32    0.38
  -6   2   1    1.83    0.39
  -6  -2  -1    1.63    0.53
  -6   2   1    2.35    0.54
   6  -2   1    1.82    0.45
   6  -2   1    2.16    0.52
   6   2  -1    1.78    0.40
   6   2  -1    1.29    0.46
  -6  -2   2   34.01    2.09
   6  -2  -2   38.51    2.19
   6   2   2   41.07    2.40
   6  -2  -2   39.21    2.56
  -6   2  -2   41.37    1.88
  -6   2  -2   35.53    2.27
   6   2   2   36.96    2.29
   6  -2   2   39.12    2.12
   6   2  -2   36.31    2.44
   6   2  -2   38.77    2.33
  -6  -2  -2   37.30    2.38
  -6   2   2   39.78    1.88
   6  -2   2   38.50    2.35
  -6   2   2   39.96    2.30
   6  -2  -3    0.21    0.24
   6   2   3    0.06    0.28
  -6   2  -3    0.02    0.23
   6   2   3   -0.29    0.21
  -6  -2   3    0.31    0.35
  -6   2  -3    0.03    0.18
   6  -2  -3   -0.03    0.24
   6   2  -3    0.05    0.31
  -6  -2  -3    0.69    0.47
   6   2  -3   -0.08    0.25
  -6   2   3    0.08    0.26
   6  -2   3    0.46    0.38
  -6   2  -4  196.53    8.64
  -6   2  -4  209.19    9.22
   6  -2  -4  205.13    9.57
  -6  -2   4  221.81    8.75
  -6  -2   4  198.55    9.15
   6   2   4  215.00    8.89
   6   2   4  199.43    9.10
  -6   2   4  200.87    8.91
  -6  -2  -4  209.51    9.25
   6  -2   4  223.58    9.42
   6   2  -4  198.09    9.38
  -6   2   4  219.98    8.71
  -6   2  -5   -0.06    0.37
   6   2   5    0.17    0.31
   6  -2  -5   -0.31    0.44
  -6  -2   5    0.90    0.36
  -6  -2   5    0.12    0.36
   6   2   5    0.29    0.29
  -6   2   5    0.83    0.42
   6  -2   5   -0.43    0.30
   6   2  -5    0.25    0.36
  -6  -2  -5    0.16    0.34
  -6  -2   6   46.50    3.34
   6   2   6   47.18    3.24
   6  -2  -6   52.44    3.75
  -6   2  -6   44.61    3.28
  -6  -2  -6   48.17    3.33
   6   2  -6   43.69    3.48
   6  -2   6   46.43    3.42
  -6   2   6   50.66    3.21
  -6   2  -7    2.07    0.69
  -6   2   7    3.02    0.70
  -6  -2  -7    2.21    0.72
   6   3   0   43.39    2.54
   6   3   0   44.42    2.01
  -6  -3   0   37.41    2.23
   6   3   0   45.11    2.61
  -6   3   0   42.16    2.29
   6  -3   0   42.60    2.44
  -6   3   0   46.75    2.32
   6  -3   0   42.20    2.29
  -6  -3   1   43.03    2.25
   6  -3  -1   44.12    2.32
   6   3   1   48.54    2.66
  -6  -3   1   44.16    2.42
   6  -3  -1   44.75    2.66
  -6   3  -1   48.39    2.25
   6   3   1   46.33    2.69
  -6   3  -1   45.62    2.52
  -6  -3  -1   42.01    2.50
   6   3  -1   48.19    2.81
   6  -3   1   46.24    2.55
   6   3  -1   47.09    2.36
  -6   3   1   44.37    2.31
   6  -3   1   44.72    2.46
  -6   3   1   47.16    2.52
   6  -3  -2   13.27    1.06
  -6  -3   2   13.19    1.12
  -6   3  -2   13.29    1.40
   6   3   2   14.57    1.30
   6   3   2   13.18    1.38
   6  -3  -2   12.51    1.57
  -6   3   2   14.09    1.24
   6  -3   2   13.02    1.20
   6   3  -2   14.34    1.24
   6  -3   2   12.32    1.40
   6   3  -2   13.19    1.59
  -6   3   2   14.16    1.05
  -6  -3  -2   15.42    1.56
  -6   3  -3    0.75    0.39
  -6  -3   3    1.51    0.46
   6   3   3    0.88    0.40
   6   3   3    1.30    0.47
  -6   3  -3    0.77    0.33
   6  -3  -3    1.13    0.53
   6   3  -3    0.48    0.41
   6  -3   3    0.57    0.44
  -6   3   3    0.31    0.36
   6   3  -3    0.95    0.37
  -6  -3  -3    0.87    0.52
   6   3   4   11.42    1.43
  -6   3  -4    8.03    1.23
  -6  -3   4   10.12    1.15
  -6  -3   4    6.37    1.21
  -6   3  -4    8.96    1.16
   6  -3  -4    9.05    1.53
   6   3   4    7.29    1.12
  -6   3   4   10.08    1.39
   6  -3   4    9.30    1.46
   6   3  -4    8.77    1.37
  -6  -3  -4    6.56    1.22
  -6  -3   5    3.08    0.80
   6  -3  -5    2.50    0.88
   6   3   5    3.52    0.80
  -6   3  -5    3.45    0.76
   6  -3   5    3.26    0.95
  -6  -3  -5    2.49    0.77
  -6   3   5    3.41    0.82
   6   3  -5    1.48    0.58
  -6  -3   6    9.59    1.60
   6  -3  -6   10.56    1.75
  -6   3  -6    7.53    1.29
   6  -3   6    5.87    1.23
   6   3  -6    7.69    1.42
  -6  -3  -6    7.36    1.31
  -6   3   6   11.27    1.63
  -6   4   0    0.17    0.29
   6   4   0    0.60    0.36
   6   4   0    0.79    0.25
   6  -4   0    0.67    0.26
  -6   4   0    0.40    0.32
  -6  -4   0    0.43    0.36
   6  -4   0    0.45    0.44
   6   4   0    0.71    0.35
  -6   4  -1    6.99    1.01
   6   4   1    5.98    0.96
   6  -4  -1    5.04    0.96
   6   4   1    6.39    1.04
  -6  -4   1    5.37    0.78
  -6   4  -1    5.26    0.65
  -6   4   1    4.76    0.78
   6   4  -1    4.73    0.90
   6  -4   1    5.06    0.82
   6   4  -1    6.51    0.85
  -6  -4  -1    7.71    1.10
   6  -4   1    4.88    0.90
   6   4  -1    6.05    1.05
  -6   4   1    6.37    0.93
  -6  -4   2   38.26    2.13
  -6   4  -2   37.38    2.40
   6  -4  -2   33.32    2.46
   6   4   2   36.89    2.43
   6   4   2   36.73    2.27
  -6  -4  -2   35.89    2.42
   6  -4   2   39.89    2.39
   6   4  -2   34.53    2.49
  -6   4   2   35.54    2.31
   6  -4   2   37.66    2.39
   6   4  -2   30.42    2.15
  -6   4   2   34.85    2.08
   6   4   3    0.29    0.31
  -6   4  -3    0.47    0.31
   6  -4  -3   -0.53    0.36
  -6  -4   3    0.47    0.36
   6   4   3   -0.32    0.32
  -6  -4  -3    0.48    0.51
   6  -4   3    0.06    0.34
   6  -4   3    0.04    0.45
  -6   4   3   -0.10    0.35
   6   4  -3    0.38    0.27
   6   4  -3    0.00    0.33
   6  -4  -4   33.43    2.68
  -6   4  -4   33.07    2.22
  -6  -4   4   32.53    2.49
  -6   4  -4   26.64    2.20
   6   4   4   32.13    2.38
   6   4  -4   26.38    2.32
  -6  -4  -4   25.39    2.28
   6  -4   4   28.31    2.33
  -6   4   4   28.50    2.24
   6  -4  -5    3.70    1.06
  -6  -4   5    1.28    0.68
  -6   4  -5    1.81    0.52
   6   4   5    2.85    0.72
  -6   4  -5    1.48    0.56
  -6   4   5    1.03    0.50
   6  -4   5    0.66    0.48
   6   4  -5    1.63    0.51
  -6  -4  -5    0.58    0.46
  -6  -4   6   25.20    2.85
  -6   4  -6   23.47    2.60
   6  -4  -6   28.67    3.14
   6   4   6   28.40    2.42
   6   4  -6   26.03    3.01
   6  -4   6   29.52    2.60
  -6  -4  -6   26.79    2.41
  -6   4   6   29.93    2.42
   6   5   0   27.53    2.18
  -6  -5   0   33.33    2.19
  -6   5   0   31.35    2.10
   6  -5   0   28.73    2.19
   6   5   0   32.33    2.24
  -6   5   0   32.11    1.96
   6   5   1   18.60    1.58
  -6  -5   1   18.81    1.51
  -6   5  -1   21.34    1.74
   6   5   1   17.29    1.86
   6  -5  -1   18.35    1.90
  -6   5   1   19.81    1.56
   6   5  -1   17.80    1.60
   6   5  -1   21.63    1.50
  -6  -5  -1   21.85    1.81
   6  -5   1   20.05    1.75
   6  -5   1   20.00    1.49
  -6   5   1   23.08    1.67
   6   5  -1   17.71    1.88
   6   5   2    7.76    1.30
  -6  -5   2   13.16    1.15
   6  -5  -2   10.54    1.56
  -6   5  -2   11.70    1.50
   6   5  -2   12.36    1.26
   6  -5   2   13.04    1.44
  -6   5   2   12.16    1.32
   6  -5   2   12.29    1.50
   6   5  -2   10.29    1.29
  -6  -5  -2   13.40    1.65
  -6   5   2   10.75    1.43
   6   5  -2   12.13    1.66
  -6   5  -3   83.85    4.62
   6   5   3   86.42    4.69
  -6  -5   3   93.17    4.78
   6  -5  -3   91.93    5.08
   6   5  -3   88.13    4.96
   6  -5   3   73.60    4.45
  -6  -5  -3   91.06    4.82
   6  -5   3   90.83    4.68
   6   5  -3   83.21    4.60
  -6   5   3   83.73    4.60
  -6   5  -4    5.22    1.08
   6   5   4    6.85    1.25
   6  -5  -4    6.75    1.41
  -6  -5   4    7.75    1.40
   6  -5   4    5.59    1.15
  -6  -5  -4    7.66    1.34
   6  -5   4    7.34    1.38
   6   5  -4    6.63    1.18
  -6   5   4    4.95    1.02
  -6   5  -5   20.03    2.37
   6  -5  -5   22.44    2.76
  -6  -5   5   24.58    2.62
   6   5   5   24.14    2.59
  -6   5  -5   22.94    2.01
   6  -5   5   23.98    2.55
  -6  -5  -5   22.68    2.58
  -6   5   5   24.30    2.17
   6   5  -5   21.79    2.54
   6   5   6    4.25    0.91
  -6   5  -6    6.19    1.12
   6  -6   0  192.85    9.16
   6   6   0  214.72    9.16
  -6  -6   0  219.19    9.07
  -6   6   0  216.12    9.07
   6   6   0  198.80    9.24
   6   6   1    0.85    0.48
  -6   6  -1    0.97    0.50
   6  -6  -1    0.68    0.47
  -6  -6   1    0.75    0.49
  -6  -6  -1    1.90    0.66
  -6   6   1    0.76    0.38
  -6   6   1    1.09    0.52
   6   6  -1    1.34    0.34
   6  -6   1    0.12    0.47
   6   6  -1    0.65    0.40
   6   6  -1    0.99    0.49
  -6   6  -2    1.71    0.65
   6  -6  -2    0.37    0.56
  -6  -6   2    1.14    0.48
   6   6   2    0.46    0.40
   6  -6   2    1.57    0.58
  -6   6   2    0.98    0.51
   6   6  -2    0.88    0.38
  -6   6   2    0.84    0.47
  -6  -6  -2    0.61    0.51
   6   6  -2    0.71    0.50
  -6  -6   3   -0.10    0.43
   6  -6  -3   -0.04    0.53
  -6   6  -3   -0.12    0.39
   6   6   3   -0.06    0.33
  -6   6   3   -0.07    0.32
  -6  -6  -3   -0.49    0.51
   6   6  -3   -0.82    0.30
   6  -6   3   -0.79    0.41
   6  -6   3    0.02    0.40
  -6  -6   4   35.93    2.80
   6   6   4   40.47    2.96
   6  -6  -4   39.69    3.14
  -6   6  -4   32.63    2.67
  -6   6   4   28.42    2.57
  -6  -6  -4   35.38    2.83
   6  -6   4   38.15    2.81
   6   6  -4   35.10    2.77
   6  -6   4   37.28    2.88
  -6   6  -5    0.36    0.52
  -6  -6   5   -1.00    0.44
   6  -6  -5    0.54    0.57
   6   6   5   -0.68    0.45
  -6   6   5   -0.25    0.42
   6   6  -5    0.56    0.48
   6  -6   5    1.11    0.89
   6  -6   5    0.68    0.47
  -6  -6  -5    0.20    0.51
   6  -7   0    9.56    1.57
  -6  -7   0   14.96    1.75
   6   7   0   12.48    1.75
  -6   7   0   16.35    1.85
  -6  -7   1   46.48    2.84
   6   7   1   36.78    2.81
   6  -7  -1   35.92    2.83
  -6   7  -1   42.06    2.88
   6   7  -1   40.63    2.81
   6  -7   1   41.51    2.96
   6   7  -1   40.35    2.84
  -6   7   1   41.41    2.72
  -6   7   1   41.78    2.78
  -6  -7  -1   36.35    2.81
   6   7   2    3.18    0.78
   6  -7  -2    3.15    1.01
  -6  -7   2    3.58    0.87
  -6   7  -2    4.56    1.04
  -6   7   2    4.50    0.97
   6   7  -2    3.49    0.73
   6  -7   2    5.25    1.11
  -6  -7  -2    4.27    1.02
  -6   7   2    3.62    0.86
  -6  -7   3    4.61    1.04
   6  -7  -3    7.23    1.43
  -6   7  -3    6.12    1.15
   6   7   3    4.52    1.00
   6  -7   3    5.88    1.21
   6   7  -3    4.81    0.98
  -6   7   3    6.81    1.26
  -6  -7  -3    7.17    1.38
  -6   7  -4    3.43    0.90
  -6  -7   4    1.51    0.72
   6  -7  -4    3.67    0.89
   6   7   4    3.00    0.80
   6  -7   4    1.48    0.78
  -6   7   4    3.42    1.00
   6   7  -4    1.38    0.58
  -6  -7  -4    3.08    0.91
  -6   8   0   16.84    2.05
  -6  -8   0   19.22    2.08
   6   8   0   14.16    1.91
   6  -8   0   12.45    1.82
   6  -8  -1    3.70    1.02
  -6   8  -1    2.88    0.89
   6   8   1    1.17    0.58
  -6  -8   1    2.61    0.84
   6  -8   1    2.21    0.90
  -6   8   1    0.95    0.61
  -6  -8  -1    2.24    0.83
   6  -8  -2   46.15    3.41
  -6   8  -2   39.31    3.09
   6   8   2   42.62    3.26
  -6   8   2   45.31    3.10
  -6  -8  -2   48.74    3.44
   6  -8   2   43.60    3.28
  -6   8   2   42.35    3.00
  -6   8  -3   -0.12    0.46
   6  -8  -3    0.55    0.60
   6   8   3   -0.09    0.51
   6   8  -3   -0.74    0.41
  -6   8   3    0.74    0.57
  -6  -8  -3   -0.61    0.49
   6  -8   3    0.18    0.54
  -6  -9   0   13.30    1.76
  -6   9   0    8.22    1.48
   6  -9   0   10.73    1.79
  -6  -9   1    7.52    1.32
   6   9   1    4.72    1.11
  -6  -9  -1    8.09    1.44
  -6   9   1    6.10    1.16
  -6   9   2    3.44    0.90
   7   0   0    0.02    0.18
  -7   0   0   -0.11    0.18
   7   0   0   -0.06    0.17
  -7   0   0   -0.11    0.16
  -7   0  -1  123.28    5.00
   7   0  -1  117.06    5.20
  -7   0   1  113.17    4.63
   7   0  -1  113.27    5.29
   7   0   1  114.54    4.63
   7   0   1  116.76    5.37
  -7   0   1  118.16    5.08
  -7   0  -1  113.65    5.13
  -7   0  -2    2.93    0.71
   7   0  -2    3.82    0.84
  -7   0   2    2.47    0.59
   7   0   2    4.30    0.77
   7   0  -2    3.14    0.73
   7   0   2    3.57    0.75
   7   0   3   24.76    1.76
   7   0  -3   24.07    1.99
  -7   0   3   26.73    1.84
   7   0  -3   29.69    2.09
  -7   0  -3   30.29    2.15
   7   0   3   22.99    1.88
  -7   0  -4    3.74    0.90
  -7   0   4    4.37    0.89
   7   0  -4    4.51    0.99
   7   0  -4    5.99    1.14
   7   0   4    3.30    0.83
  -7   0   5    4.92    1.01
   7   0   5    5.79    1.16
  -7   0  -5    6.73    1.24
   7   0  -5    4.70    1.08
  -7   0   5    7.08    1.15
  -7   0  -6   11.74    1.73
  -7   0   6   12.17    1.61
  -7   0   6   13.69    1.63
   7   0   6    8.68    1.45
   7   0  -6   10.83    1.82
  -7   0  -7    4.64    0.96
   7   1   0   -0.10    0.19
  -7   1   0    0.11    0.20
  -7   1   0    0.20    0.23
   7  -1   0    0.10    0.23
   7  -1   0   -0.29    0.17
  -7  -1   0   -0.03    0.20
  -7  -1   0   -0.13    0.20
   7   1   0   -0.16    0.13
   7  -1  -1    7.30    0.97
  -7   1  -1    5.82    0.73
  -7  -1   1    6.13    0.84
  -7  -1   1    5.77    0.58
   7  -1  -1    5.68    0.93
  -7   1  -1    4.17    0.73
   7   1   1    5.58    0.92
   7   1   1    7.60    1.04
  -7  -1  -1    6.07    0.89
   7  -1   1    6.18    0.68
  -7   1   1    5.84    0.58
  -7   1   1    6.19    0.86
   7   1  -1    5.25    0.92
   7  -1   1    4.95    0.86
   7   1  -1    7.69    0.87
   7   1   2    5.23    0.90
  -7   1  -2    6.37    0.98
  -7   1  -2    6.79    0.76
   7  -1  -2    5.26    0.99
  -7  -1   2    5.17    0.87
   7  -1  -2    6.34    0.95
   7   1   2    5.71    0.98
   7  -1   2    5.82    0.64
  -7   1   2    6.61    0.96
  -7  -1  -2    5.46    0.96
   7   1  -2    6.31    0.98
   7   1  -2    7.57    1.19
   7  -1   2    5.47    0.93
   7  -1  -3    3.34    0.85
  -7   1  -3    3.99    0.87
   7  -1  -3    4.48    0.88
   7   1   3    4.22    0.78
   7   1   3    3.77    0.82
  -7  -1   3    4.42    0.81
   7   1  -3    4.97    1.02
  -7   1   3    5.07    0.88
   7  -1   3    2.90    0.75
   7   1  -3    4.06    0.87
  -7  -1  -3    4.13    0.90
  -7  -1   4    0.05    0.29
  -7   1  -4    0.32    0.31
   7   1   4    0.50    0.35
   7  -1  -4   -0.17    0.38
   7   1   4    0.24    0.29
   7  -1  -4   -0.13    0.33
  -7   1   4    0.16    0.31
   7   1  -4   -0.13    0.26
  -7  -1  -4    0.77    0.46
   7  -1   4    0.51    0.35
   7   1  -4    0.28    0.36
  -7  -1   5    1.26    0.54
  -7  -1   5    2.35    0.72
   7  -1  -5    2.63    0.87
   7   1   5    2.70    0.74
  -7   1  -5    2.95    0.72
   7   1  -5    1.32    0.56
  -7   1   5    3.42    0.81
   7  -1   5    2.22    0.72
  -7  -1  -5    2.68    0.73
  -7   1   5    2.72    0.70
  -7  -1   6    2.08    0.69
   7  -1  -6    2.02    0.72
   7   1   6    1.29    0.44
  -7   1  -6    1.51    0.57
  -7   1   6    2.64    0.73
   7   1  -6    1.26    0.71
  -7  -1  -6    1.16    0.61
   7  -1   6    1.43    0.52
  -7   1   7    0.44    0.44
   7   2   0   -0.18    0.19
  -7   2   0    0.35    0.27
   7   2   0   -0.08    0.11
   7   2   0    0.35    0.35
  -7  -2   0   -0.05    0.25
   7  -2   0   -0.09    0.27
   7  -2   0   -0.13    0.19
  -7   2   0    0.26    0.21
  -7   2  -1   12.23    1.10
  -7   2  -1   13.78    1.03
   7  -2  -1   13.69    1.12
  -7  -2   1   12.54    0.94
   7   2   1   14.34    1.27
   7   2   1   11.95    1.41
  -7  -2   1   11.45    1.05
   7  -2  -1   10.34    1.27
   7   2  -1   12.92    1.47
  -7  -2  -1   12.24    1.28
  -7   2   1   13.01    1.14
   7  -2   1   12.92    1.32
   7   2  -1   13.91    1.04
  -7   2   1   13.61    0.95
   7  -2   1   13.66    1.07
   7  -2  -2   12.97    1.15
   7  -2  -2   10.32    1.47
  -7   2  -2   12.85    0.95
   7   2   2   11.56    1.38
   7   2   2   14.49    1.48
  -7  -2   2   13.43    1.17
  -7   2  -2   13.64    1.41
  -7  -2  -2   14.27    1.49
  -7   2   2   12.23    1.32
   7   2  -2   14.14    1.27
   7  -2   2   12.89    1.05
   7   2  -2   11.69    1.51
   7  -2   2   13.81    1.47
   7  -2  -3   53.18    3.14
  -7  -2   3   60.96    3.19
   7  -2  -3   59.52    3.69
  -7   2  -3   65.66    3.56
   7   2   3   59.97    3.30
   7   2   3   59.75    3.43
  -7  -2  -3   60.51    3.53
   7  -2   3   57.58    3.45
   7  -2   3   62.86    3.11
   7   2  -3   57.40    3.55
   7   2  -3   56.71    3.45
  -7   2   3   61.32    3.34
   7  -2  -4    1.84    0.65
   7   2   4    1.47    0.46
  -7  -2   4    1.17    0.42
  -7   2  -4    1.46    0.57
   7   2   4    1.16    0.43
  -7   2   4    1.70    0.59
   7   2  -4    2.00    0.76
   7  -2   4    1.33    0.57
  -7  -2  -4    1.34    0.56
   7   2  -4    1.17    0.51
   7   2   5   12.09    1.49
  -7  -2   5   12.71    1.48
   7  -2  -5   10.82    1.77
  -7   2  -5   13.19    1.82
   7   2   5   10.39    1.57
  -7  -2   5    9.55    1.52
   7  -2   5   12.57    1.81
  -7  -2  -5   11.48    1.66
   7   2  -5   11.54    1.77
  -7   2   5   12.02    1.57
  -7   2  -6    0.20    0.43
   7   2   6    0.03    0.41
  -7  -2   6    0.83    0.49
   7  -2  -6    1.02    0.61
  -7  -2  -6    0.96    0.45
   7   2  -6    0.78    0.50
  -7   2   6    0.33    0.41
   7  -2   6    0.05    0.41
  -7  -3   0    0.10    0.26
   7  -3   0    0.13    0.19
   7   3   0    0.01    0.24
   7   3   0   -0.02    0.26
   7  -3   0    0.14    0.32
  -7   3   0    0.02    0.23
   7   3   0    0.03    0.12
  -7   3   0    0.14    0.26
   7  -3  -1    4.09    0.88
   7  -3  -1    4.03    0.69
   7   3   1    7.04    1.12
  -7   3  -1    6.85    0.97
  -7   3  -1    5.96    0.74
   7   3   1    5.01    0.93
  -7  -3   1    5.75    0.71
  -7  -3   1    5.68    0.86
  -7   3   1    4.82    0.71
   7   3  -1    5.34    0.97
   7  -3   1    5.73    0.92
  -7   3   1    6.86    0.98
   7  -3   1    5.18    0.86
  -7  -3  -1    5.01    0.91
   7   3  -1    6.31    0.76
   7  -3  -2    8.89    1.01
  -7  -3   2    8.98    1.08
   7  -3  -2    7.30    1.23
   7   3   2    8.05    1.21
   7   3   2   10.61    1.34
  -7   3  -2    9.23    1.22
   7   3  -2    6.22    1.11
  -7   3   2    7.19    1.09
   7  -3   2    9.13    1.06
   7  -3   2    7.30    1.11
  -7   3   2    9.42    0.82
   7   3  -2    9.05    1.13
  -7  -3  -2    7.96    1.23
  -7   3  -3    4.55    0.95
  -7  -3   3    5.89    0.95
   7   3   3    7.28    1.12
   7   3   3    6.39    1.06
   7  -3  -3    6.59    1.27
   7   3  -3    6.57    1.22
  -7  -3  -3    7.35    1.27
   7  -3   3    6.61    1.18
  -7   3   3    4.88    0.98
   7  -3   3    5.33    0.95
   7   3  -3    5.95    1.03
   7   3   4    0.07    0.30
  -7   3  -4    0.66    0.39
   7  -3  -4    0.82    0.43
  -7  -3   4    0.33    0.29
   7   3   4   -0.02    0.36
   7  -3   4    0.11    0.42
   7   3  -4    0.47    0.52
   7   3  -4    0.74    0.35
  -7  -3  -4    0.06    0.36
  -7   3   4    0.78    0.42
  -7  -3   5    0.13    0.37
   7  -3  -5   -0.88    0.55
   7   3   5    0.86    0.47
   7   3   5    0.64    0.39
  -7   3  -5    1.08    0.46
   7  -3   5    0.80    0.48
   7   3  -5    0.59    0.43
  -7  -3  -5    0.19    0.48
  -7   3   5    0.51    0.42
  -7   3  -6    0.24    0.47
  -7  -3   6   -0.32    0.34
   7  -3  -6   -0.46    0.51
   7   3  -6   -0.66    0.48
  -7   3   6   -0.22    0.43
  -7  -3  -6    0.75    0.50
   7  -3   6   -0.16    0.43
  -7   4   0   -0.03    0.27
   7  -4   0    0.10    0.34
   7  -4   0   -0.01    0.20
   7   4   0    0.03    0.25
  -7   4   0   -0.14    0.24
  -7  -4   0   -0.20    0.27
   7   4   0   -0.27    0.26
   7   4   1   74.22    3.72
  -7  -4   1   69.37    3.40
  -7   4  -1   67.01    3.51
   7  -4  -1   61.39    3.62
  -7  -4   1   58.54    3.14
   7   4   1   63.66    3.66
  -7   4   1   65.27    3.42
   7  -4   1   61.21    3.40
   7   4  -1   67.61    3.24
   7   4  -1   64.36    3.75
  -7  -4  -1   70.49    3.56
  -7   4   1   63.92    3.25
   7  -4   1   66.03    3.53
   7   4   2    3.65    0.81
   7   4   2    2.16    0.60
  -7  -4   2    3.63    0.71
   7  -4  -2    2.29    0.73
  -7   4  -2    2.46    0.71
   7   4  -2    3.01    0.77
   7  -4   2    3.38    0.77
  -7   4   2    3.13    0.75
  -7  -4  -2    3.30    0.84
   7   4  -2    3.52    0.68
   7  -4   2    3.02    0.74
  -7   4   2    2.77    0.60
  -7   4  -3   12.28    1.57
   7   4   3   11.67    1.48
  -7  -4   3   10.51    1.24
   7   4   3   11.03    1.54
   7  -4  -3   12.35    1.80
   7   4  -3   12.41    1.55
  -7   4   3   11.44    1.50
   7  -4   3   12.52    1.60
   7   4  -3   12.14    1.81
  -7  -4  -3   10.78    1.56
   7  -4   3   11.75    1.43
  -7  -4   4    2.81    0.86
   7  -4  -4    1.28    0.70
  -7   4  -4    1.81    0.57
   7   4   4    2.92    0.77
  -7  -4  -4    1.39    0.54
  -7   4   4    2.20    0.69
   7  -4   4    1.49    0.64
   7  -4   4    2.03    0.83
   7   4  -4    1.91    0.61
   7  -4  -5    5.60    1.19
   7   4   5    4.60    0.98
  -7   4  -5    3.41    0.88
  -7  -4   5    2.60    0.83
   7  -4   5    2.02    0.73
  -7   4   5    5.51    1.15
  -7  -4  -5    3.11    0.82
   7   4  -5    3.16    0.72
   7   4   6    7.62    1.24
   7  -4  -6    7.60    1.46
  -7   4  -6    6.12    1.20
   7  -4   6    4.94    1.03
   7   4  -6    4.69    1.11
  -7  -4  -6    6.45    1.31
  -7   4   6    6.40    1.16
   7   5   0   -0.41    0.28
   7   5   0   -0.10    0.32
  -7   5   0   -0.13    0.30
  -7   5   0    0.31    0.31
   7  -5   0    0.08    0.39
  -7  -5   0   -0.01    0.39
   7   5   1    4.26    0.97
  -7   5  -1    3.54    0.83
   7  -5  -1    3.88    0.97
   7   5   1    3.12    0.74
  -7  -5   1    2.58    0.65
  -7  -5  -1    4.55    0.96
  -7   5   1    2.52    0.67
   7   5  -1    3.46    0.66
   7  -5   1    2.64    0.57
   7   5  -1    3.21    0.78
   7  -5   1    2.60    0.77
  -7   5   1    3.12    0.71
   7   5  -1    3.31    0.81
   7  -5  -2    1.68    0.67
  -7   5  -2    2.44    0.73
   7   5   2    1.77    0.52
   7   5   2    1.64    0.66
  -7  -5   2    1.43    0.48
  -7   5   2    2.53    0.64
  -7   5   2    2.31    0.65
  -7  -5  -2    2.75    0.81
   7   5  -2    1.92    0.54
   7  -5   2    1.65    0.54
   7  -5   2    2.70    0.75
   7   5  -2    2.11    0.64
   7  -5  -3    1.12    0.59
  -7   5  -3    1.09    0.50
   7   5   3    2.19    0.63
  -7  -5   3    0.00    0.29
   7  -5   3    1.60    0.56
   7  -5   3    1.51    0.63
  -7   5   3    0.97    0.49
   7   5  -3    0.88    0.40
  -7  -5  -3    0.84    0.65
   7   5  -3    0.55    0.47
  -7   5  -4    0.48    0.36
   7   5   4    0.33    0.42
   7  -5  -4    0.16    0.55
  -7  -5   4    0.18    0.44
  -7  -5  -4    0.43    0.41
   7  -5   4    0.48    0.45
  -7   5   4    0.44    0.43
   7   5  -4    0.57    0.42
   7  -5   4    0.16    0.59
  -7  -5   5    4.09    1.05
   7  -5  -5    3.05    0.94
  -7   5  -5    3.33    0.94
   7   5   5    3.66    0.89
  -7   5   5    3.72    0.94
   7  -5   5    4.46    1.22
   7  -5   5    2.28    0.64
   7   5  -5    3.20    0.76
  -7  -5  -5    2.53    0.85
   7  -6   0   -0.07    0.41
  -7  -6   0   -0.01    0.38
   7   6   0    0.44    0.36
  -7   6   0   -0.52    0.28
   7   6   0    0.46    0.34
   7   6   1    2.02    0.63
  -7   6  -1    3.79    0.86
   7  -6  -1    3.81    0.95
  -7  -6   1    4.53    0.89
   7   6  -1    2.17    0.64
   7  -6   1    3.62    0.93
  -7   6   1    3.68    0.78
  -7  -6  -1    6.28    1.13
   7   6  -1    3.21    0.79
  -7   6   1    5.19    0.97
   7   6   2    3.48    0.89
   7  -6  -2    4.80    1.03
  -7   6  -2    5.82    1.15
  -7  -6   2    6.15    1.02
   7   6  -2    3.90    1.00
  -7   6   2    5.17    1.01
  -7  -6  -2    4.46    1.05
   7  -6   2    5.26    1.12
  -7   6   2    4.78    0.92
   7   6  -2    5.33    0.93
   7  -6  -3   18.72    2.47
  -7  -6   3   20.17    2.19
  -7   6  -3   22.36    1.98
   7   6   3   24.93    2.16
   7  -6   3   19.22    2.16
  -7  -6  -3   24.43    2.49
   7   6  -3   17.70    2.00
   7  -6   3   21.67    1.90
  -7   6   3   22.62    2.01
   7  -6  -4    1.60    0.81
  -7   6  -4    1.95    0.69
  -7  -6   4    0.54    0.50
   7   6   4    0.50    0.46
  -7  -6  -4    2.36    0.78
   7   6  -4    1.43    0.43
   7  -6   4    1.26    0.54
  -7   6   4    1.98    0.73
   7  -6   4   -0.07    0.52
   7   6   5    9.54    1.44
  -7   6  -5    5.93    1.19
  -7  -6   5    7.98    1.55
   7  -6   5    4.89    1.32
   7   6  -5    9.67    1.65
   7  -6   5    5.73    1.05
  -7   7   0    0.23    0.47
   7  -7   0    0.05    0.47
   7   7   0    0.37    0.39
  -7  -7   0   -0.55    0.40
  -7  -7   1    3.13    0.78
  -7   7  -1    2.87    0.86
   7   7   1    1.42    0.57
   7  -7  -1    4.07    1.01
  -7  -7  -1    3.81    0.96
   7   7  -1    2.50    0.84
  -7   7   1    3.44    0.84
   7  -7   1    2.90    0.85
   7   7   2    5.64    1.18
  -7   7  -2    4.62    1.08
   7  -7  -2    5.42    1.21
  -7   7   2    4.67    0.99
   7  -7   2    6.49    1.23
   7   7  -2    5.74    1.17
  -7  -7  -2    4.60    1.11
  -7   7   2    4.30    0.93
  -7  -7   3    3.47    0.97
  -7   7  -3    3.69    0.86
   7   7   3    2.72    0.93
   7  -7  -3    3.39    1.06
   7  -7   3    2.80    0.82
   7   7  -3    1.55    0.60
  -7   7   3    3.78    0.86
  -7  -7  -3    2.17    0.73
   7   7   4    0.75    0.48
  -7  -7   4    0.27    0.53
  -7   7  -4    0.15    0.49
   7  -7  -4    0.60    0.59
  -7   7   4    0.14    0.49
   7   7  -4    0.11    0.44
  -7  -7  -4    0.80    0.61
   7  -7   4    0.02    0.66
   7   8   0    0.11    0.51
  -7   8   0   -0.73    0.42
   7  -8   0    0.27    0.47
  -7  -8   0    0.26    0.51
   7   8   1   16.57    2.18
  -7   8  -1   18.47    2.25
   7  -8  -1   17.49    2.27
  -7   8   1   17.14    2.05
  -7  -8  -1   21.64    2.42
   7  -8   1   19.12    2.35
   7  -8  -2    2.76    0.78
  -7   8  -2    1.82    0.69
   7   8   2    1.03    0.69
  -7  -8  -2    1.49    0.72
   7  -8   2    0.34    0.68
  -7   8   2    0.46    0.56
   7  -8   3    3.75    1.06
  -7   8   3    2.72    0.78
  -7  -9   0    0.08    0.49
   7   9   0    0.38    0.58
   7   9   1   -0.51    0.56
  -7  -9  -1    1.46    0.64
  -7   9   1    2.59    0.69
   8   0   0    1.39    0.37
  -8   0   0    0.89    0.36
   8   0   0    1.09    0.43
  -8   0   0    1.01    0.36
  -8   0   1   78.92    3.74
  -8   0  -1   73.32    3.73
   8   0   1   73.95    3.93
  -8   0  -1   79.84    3.64
  -8   0   1   75.90    3.29
   8   0  -1   75.05    3.93
   8   0  -1   79.37    3.84
   8   0  -2  202.61    8.84
  -8   0  -2  216.13    8.72
   8   0   2  195.34    8.59
   8   0   2  194.55    8.82
  -8   0   2  210.03    8.52
   8   0  -2  197.69    8.77
   8   0  -3  205.23    9.11
   8   0   3  196.14    8.59
   8   0   3  196.41    9.00
  -8   0   3  208.54    8.67
  -8   0  -3  202.93    8.92
   8   0  -3  211.43    9.08
  -8   0   4    0.65    0.41
   8   0  -4    1.35    0.58
   8   0   4    0.61    0.34
  -8   0  -4    0.87    0.48
   8   0  -4    1.54    0.55
  -8   0  -5   59.55    3.78
   8   0  -5   53.97    3.83
   8   0   5   57.46    3.76
  -8   0   5   59.19    3.46
  -8   0   5   60.26    3.54
  -8   0   6   53.15    3.32
  -8   0  -6   45.02    3.40
   8   0   6   51.10    3.58
   8   0  -6   50.84    3.79
  -8   1   0   39.67    2.15
   8  -1   0   34.93    2.28
   8  -1   0   36.19    2.11
  -8  -1   0   36.54    2.11
   8   1   0   37.85    1.80
  -8  -1   0   33.89    2.00
   8   1   0   32.03    2.29
  -8   1   0   34.98    1.97
  -8  -1   1   29.83    1.64
   8   1   1   31.30    2.18
   8   1   1   33.11    2.27
  -8  -1   1   37.40    2.09
   8  -1  -1   29.64    2.04
  -8   1  -1   31.98    2.00
  -8   1  -1   30.18    1.86
   8  -1  -1   30.56    2.11
   8  -1   1   31.34    1.75
   8  -1   1   31.41    2.16
  -8  -1  -1   33.12    2.07
   8   1  -1   35.08    1.97
  -8  -1  -1   34.11    1.98
   8   1  -1   33.78    2.26
  -8   1   1   32.87    2.03
  -8   1   1   29.94    1.63
   8  -1  -2    3.32    0.73
   8  -1  -2    2.82    0.77
  -8   1  -2    3.88    0.82
  -8  -1   2    3.41    0.74
   8   1   2    2.89    0.73
  -8   1  -2    4.53    0.69
   8   1   2    3.39    0.76
  -8  -1  -2    3.27    0.77
   8  -1   2    3.86    0.79
  -8   1   2    2.61    0.65
   8   1  -2    3.65    0.77
   8   1  -2    4.24    0.93
   8  -1  -3   17.24    1.52
   8   1   3   15.23    1.63
   8  -1  -3   14.22    1.86
   8   1   3   14.45    1.67
  -8   1  -3   16.69    1.76
  -8  -1   3   18.66    1.50
   8   1  -3   14.24    1.70
  -8   1   3   18.06    1.55
  -8  -1  -3   14.56    1.70
   8   1  -3   15.85    1.88
   8  -1   3   16.24    1.81
   8  -1  -4    1.17    0.53
  -8   1  -4    1.47    0.56
   8   1   4    1.25    0.46
   8  -1  -4    2.42    0.74
   8   1   4    1.20    0.49
  -8  -1   4    1.64    0.57
   8  -1   4    1.09    0.54
   8   1  -4    0.66    0.49
  -8  -1  -4    0.48    0.39
  -8   1   4    1.60    0.55
   8   1  -4    1.07    0.56
  -8   1  -5    8.18    1.42
   8   1   5   10.01    1.59
   8  -1  -5    9.59    1.69
  -8  -1   5   11.18    1.54
  -8  -1   5   13.04    1.59
  -8   1   5   11.27    1.43
  -8  -1  -5    9.78    1.57
   8   1  -5   10.14    1.76
  -8   1   5   12.14    1.56
   8  -1   5   10.86    1.67
  -8   1  -6    8.62    1.56
   8   1   6   11.10    1.69
  -8  -1   6    9.47    1.53
  -8  -1   6   11.44    1.47
   8  -1  -6    8.73    1.62
   8  -1   6   10.69    1.73
  -8   1   6   10.26    1.49
  -8  -1  -6   10.52    1.67
   8   1  -6   10.21    1.72
  -8  -2   0   58.76    2.93
  -8   2   0   62.15    2.98
   8  -2   0   57.25    3.02
  -8  -2   0   54.31    2.95
   8   2   0   53.52    3.21
  -8   2   0   58.14    2.86
   8  -2   0   51.92    3.03
   8   2   1   28.62    2.02
   8  -2  -1   21.31    1.62
   8   2   1   21.51    1.76
  -8   2  -1   20.12    1.55
  -8  -2   1   23.31    1.43
  -8   2  -1   26.69    1.60
   8  -2  -1   21.20    1.76
  -8  -2   1   25.68    1.69
  -8   2   1   23.58    1.41
   8   2  -1   19.22    1.74
   8   2  -1   24.72    1.52
   8  -2   1   23.71    1.56
   8  -2   1   23.74    1.78
  -8  -2  -1   23.33    1.73
  -8   2   1   21.51    1.61
  -8   2  -2   25.36    1.85
  -8   2  -2   21.67    1.41
  -8  -2   2   24.35    1.69
   8   2   2   24.39    1.89
   8  -2  -2   17.76    1.54
   8   2   2   21.32    1.75
   8  -2  -2   19.45    2.03
   8  -2   2   22.56    1.82
  -8  -2  -2   23.21    1.85
   8   2  -2   22.15    1.93
   8   2  -2   22.02    1.72
   8  -2   2   21.83    1.48
  -8   2   2   20.74    1.66
   8  -2  -3    0.81    0.53
   8   2   3    0.42    0.35
   8   2   3    0.70    0.34
   8  -2  -3    0.69    0.37
  -8   2  -3    0.39    0.44
  -8  -2   3    0.55    0.37
   8  -2   3    0.67    0.47
   8   2  -3    0.09    0.28
  -8  -2  -3   -0.11    0.46
  -8   2   3    0.59    0.39
   8   2  -3    0.24    0.34
   8   2   4   22.74    1.83
  -8   2  -4   19.28    2.12
   8  -2  -4   17.94    2.32
   8   2   4   21.19    1.82
  -8  -2   4   21.99    1.74
   8   2  -4   21.94    2.41
  -8   2   4   19.72    1.73
  -8  -2  -4   14.85    1.92
   8  -2   4   20.29    2.18
   8   2  -4   17.96    2.15
   8  -2  -5    1.20    0.49
   8   2   5   -0.12    0.34
  -8   2  -5    0.18    0.40
  -8  -2   5   -0.03    0.36
  -8  -2   5    0.37    0.36
   8   2  -5    0.27    0.46
   8  -2   5    0.43    0.40
  -8  -2  -5    0.21    0.45
  -8   2   5   -0.05    0.36
   8   2   6    4.03    0.87
  -8   2  -6    4.73    1.13
  -8  -2   6    2.21    0.73
   8  -2  -6    2.40    0.84
  -8  -2  -6    4.34    1.05
   8  -2   6    3.23    0.74
   8   2  -6    3.13    0.90
  -8   2   6    2.57    0.73
  -8   3   0  123.24    5.38
  -8  -3   0  120.51    5.38
   8  -3   0  121.70    5.50
  -8   3   0  120.94    5.38
   8  -3   0  125.04    5.64
   8   3   0  116.56    5.82
   8   3   0  119.54    5.88
  -8   3  -1    2.87    0.61
   8   3   1    3.43    0.81
   8   3   1    4.54    0.95
   8  -3  -1    4.23    0.92
  -8   3  -1    3.15    0.70
   8  -3  -1    4.37    0.76
  -8  -3   1    2.34    0.52
  -8  -3   1    5.60    0.89
  -8   3   1    3.72    0.78
  -8   3   1    4.75    0.72
   8  -3   1    5.60    0.95
   8  -3   1    3.48    0.73
  -8  -3  -1    3.76    0.81
   8   3  -1    3.03    0.75
   8   3  -1    3.98    0.65
   8   3   2   44.94    2.95
   8  -3  -2   45.11    2.64
   8   3   2   55.68    3.16
   8  -3  -2   44.69    3.10
  -8   3  -2   48.19    2.89
  -8  -3   2   47.32    2.71
   8   3  -2   45.84    2.72
   8  -3   2   45.42    2.94
  -8   3   2   47.92    2.86
  -8  -3  -2   48.72    3.02
   8  -3   2   49.52    2.72
   8   3  -2   48.19    3.15
   8   3   3    2.27    0.67
   8   3   3    3.11    0.72
   8  -3  -3    0.92    0.49
  -8  -3   3    2.14    0.64
  -8   3  -3    1.75    0.67
   8   3  -3    2.51    0.65
   8  -3   3    2.09    0.72
  -8  -3  -3    2.17    0.76
   8   3  -3    1.27    0.60
  -8   3   3    1.62    0.64
   8  -3   3    1.54    0.56
  -8  -3   4    9.12    1.25
   8   3   4   10.91    1.54
  -8   3  -4    8.86    1.37
   8   3   4    9.74    1.43
   8  -3  -4    8.27    1.50
  -8  -3  -4   10.30    1.64
   8  -3   4    9.66    1.56
  -8   3   4   10.50    1.44
   8   3  -4    8.32    1.36
   8   3  -4    7.60    1.45
  -8   3  -5    1.98    0.57
  -8  -3   5    0.11    0.35
   8   3   5   -0.11    0.37
   8  -3  -5    0.52    0.49
   8   3   5    0.57    0.51
   8   3  -5    1.02    0.46
  -8   3   5    1.89    0.60
   8  -3   5    0.30    0.43
  -8  -3  -5    0.21    0.45
  -8  -3   6   35.15    2.93
   8  -3  -6   38.74    3.15
  -8   3  -6   32.75    2.80
  -8   3   6   39.67    2.83
   8  -3   6   38.83    3.10
   8   3  -6   31.45    2.94
  -8  -3  -6   36.78    2.97
   8   4   0   -0.04    0.28
   8   4   0    0.13    0.31
  -8  -4   0   -0.13    0.29
  -8   4   0    0.26    0.33
   8  -4   0   -0.33    0.37
  -8   4   0   -0.16    0.25
   8  -4   0    0.22    0.26
   8   4   1   23.56    2.06
  -8  -4   1   21.83    1.56
  -8   4  -1   27.74    1.95
   8  -4  -1   24.93    2.02
  -8  -4   1   25.12    1.82
   8   4   1   21.41    1.86
   8   4  -1   23.93    2.05
  -8  -4  -1   25.86    1.93
   8  -4   1   21.21    1.81
  -8   4   1   22.90    1.75
   8  -4   1   26.62    1.87
  -8   4   1   26.20    1.70
  -8  -4   2   95.17    4.43
   8   4   2   96.17    4.92
   8  -4  -2   79.43    4.79
   8   4   2   87.10    4.70
  -8   4  -2   93.40    4.70
  -8  -4  -2   94.18    4.78
   8   4  -2   80.02    4.86
  -8   4   2   88.15    4.57
   8  -4   2   92.53    4.54
   8   4  -2   89.08    4.41
   8  -4   2   93.26    4.74
  -8  -4   3  102.31    4.81
   8  -4  -3   94.93    5.46
   8   4   3  102.36    5.25
  -8   4  -3  104.76    5.20
   8   4   3   91.80    5.05
   8   4  -3   94.12    5.40
   8  -4   3   98.21    4.91
   8  -4   3  100.06    5.16
  -8  -4  -3  102.25    5.31
   8   4  -3   86.35    4.93
  -8   4   3   91.33    4.91
  -8  -4   4    0.41    0.37
  -8   4  -4   -0.66    0.32
   8   4   4   -0.25    0.39
   8  -4  -4    0.30    0.38
   8  -4   4    0.05    0.37
  -8  -4  -4    0.62    0.58
   8   4  -4    0.11    0.40
   8   4  -4   -0.05    0.37
  -8   4   4   -0.17    0.39
   8   4   5   24.89    2.50
  -8   4  -5   23.36    2.57
  -8  -4   5   24.39    2.61
   8  -4  -5   21.80    2.76
  -8  -4  -5   23.59    2.65
  -8   4   5   24.13    2.10
   8  -4   5   20.80    2.45
  -8   5   0    0.81    0.41
  -8  -5   0    0.58    0.45
  -8   5   0    0.50    0.42
   8  -5   0    0.59    0.51
   8   5   0    1.12    0.51
   8   5   0    0.39    0.41
   8   5   1   38.29    2.67
   8  -5  -1   37.52    2.74
   8   5   1   40.45    2.91
  -8   5  -1   40.65    2.65
  -8  -5   1   38.77    2.48
  -8   5   1   39.89    2.45
  -8   5   1   39.39    2.51
   8  -5   1   37.13    2.62
   8   5  -1   35.42    2.69
   8  -5   1   40.80    2.50
  -8  -5  -1   40.76    2.64
  -8  -5   2    4.43    0.84
   8   5   2    4.63    0.92
   8   5   2    3.97    0.95
  -8   5  -2    4.96    1.04
   8  -5  -2    4.13    1.00
   8   5  -2    2.61    0.64
   8  -5   2    5.16    0.96
   8   5  -2    4.18    0.99
   8  -5   2    5.38    1.07
  -8   5   2    3.55    0.87
  -8  -5  -2    5.17    1.06
  -8   5  -3   19.28    2.14
   8  -5  -3   15.69    2.19
  -8  -5   3   20.95    1.67
   8   5   3   17.75    2.13
   8  -5   3   16.79    1.95
   8   5  -3   16.15    2.19
  -8  -5  -3   19.35    2.19
  -8   5   3   17.42    1.95
   8  -5   3   18.36    1.88
   8   5  -3   15.82    1.83
  -8  -5   4   11.45    1.74
   8   5   4   14.30    1.91
  -8   5  -4   13.60    1.85
   8  -5  -4   14.77    2.21
  -8   5   4   10.75    1.64
   8   5  -4   12.42    1.72
  -8  -5  -4   14.55    2.10
   8  -5   4   10.51    1.57
   8  -5   4   14.26    1.94
  -8   5  -5   18.95    2.34
  -8  -5   5   18.84    2.36
   8   5   5   20.92    2.39
   8  -5  -5   20.02    2.61
   8   5  -5   13.80    1.99
  -8  -5  -5   21.43    2.58
   8  -5   5   21.57    2.46
  -8   5   5   20.48    2.38
   8   6   0   42.38    3.12
   8  -6   0   42.34    3.06
  -8   6   0   46.74    2.91
  -8  -6   0   48.14    2.92
   8   6   0   40.61    2.93
   8   6   1   -0.23    0.42
   8  -6  -1   -0.35    0.40
  -8   6  -1   -0.39    0.42
   8   6  -1    1.09    0.43
  -8   6   1    0.13    0.42
  -8   6   1    0.27    0.42
   8   6  -1   -0.07    0.40
  -8  -6  -1    1.15    0.58
   8  -6   1    0.24    0.52
  -8  -6   2    0.44    0.44
   8  -6  -2    0.44    0.50
   8   6   2    1.12    0.57
  -8   6  -2    0.83    0.56
   8   6  -2    2.42    0.78
   8  -6   2    2.24    0.81
  -8   6   2    1.39    0.51
  -8  -6  -2    0.03    0.58
  -8   6   2    0.52    0.41
   8  -6  -3    8.71    1.57
  -8   6  -3    9.16    1.51
   8   6   3   11.34    1.72
   8   6  -3    9.26    1.31
   8   6  -3    8.66    1.60
   8  -6   3    9.90    1.51
   8  -6   3   11.66    1.61
  -8  -6  -3   13.39    1.92
  -8   6   3    9.07    1.50
  -8  -6   4   21.85    2.49
  -8   6  -4   19.45    2.36
   8  -6  -4   25.14    2.96
   8   6   4   20.86    2.45
  -8  -6  -4   20.69    2.51
   8  -6   4   19.81    2.33
   8  -6   4   18.45    2.19
  -8   6   4   17.91    2.21
   8   6  -4   14.93    1.96
   8  -7   0   84.55    5.07
  -8   7   0   92.66    4.92
  -8  -7   0   85.91    4.82
   8  -7  -1    0.45    0.58
  -8   7  -1   -0.11    0.43
   8   7   1    0.89    0.57
  -8   7   1    0.08    0.50
  -8  -7  -1   -0.41    0.50
   8  -7   1    1.17    0.58
   8   7  -1    0.19    0.46
   8   7  -1    0.07    0.51
  -8   7  -2   36.94    2.83
   8  -7  -2   33.92    2.84
  -8   7   2   36.14    2.67
  -8  -7  -2   32.80    2.73
   8   7  -2   38.27    2.94
  -8   7   2   36.24    2.54
   8  -7   2   33.06    2.71
  -8  -7   3    0.03    0.48
   8  -7  -3   -0.12    0.56
  -8   7  -3    0.84    0.67
   8   7   3    0.66    0.49
   8  -7   3   -0.09    0.58
  -8   7   3    0.81    0.49
  -8  -7  -3   -0.05    0.55
  -8  -7   4   11.58    1.77
   8   7  -4    8.95    1.29
   8  -7   4    7.38    1.43
   8   8   0    1.08    0.71
   8  -8   0    0.78    0.63
  -8   8   0    1.63    0.65
  -8  -8   0    0.64    0.62
   8   8   1   -1.57    0.48
  -8   8  -1   -0.13    0.49
   8  -8  -1    1.30    0.63
   8  -8   1   -0.30    0.56
   8   8  -1    0.56    0.57
  -8   8   1   -0.48    0.45
  -8  -8  -1    0.40    0.50
   8  -8  -2   12.23    1.83
   8   8   2   11.74    1.88
  -8   8  -2   14.72    2.00
  -8  -8  -2   15.94    2.13
   8  -8   2    9.92    1.70
  -8   8   3    9.08    1.55
   9   0   0    0.29    0.31
  -9   0   0   -0.13    0.25
  -9   0   0    0.36    0.27
   9   0   0   -0.12    0.24
   9   0  -1   20.46    1.58
  -9   0  -1   17.51    1.39
  -9   0  -1   18.42    1.49
   9   0   1   19.95    1.67
   9   0  -1   20.61    1.69
  -9   0   1   16.73    1.44
  -9   0  -2    3.59    0.84
   9   0  -2    4.92    0.95
  -9   0  -2    4.76    0.81
   9   0   2    2.76    0.71
   9   0  -2    4.44    0.92
  -9   0   2    5.03    0.90
  -9   0   3   14.63    1.63
   9   0  -3   16.85    1.93
   9   0   3   14.98    1.80
  -9   0  -3   16.97    1.86
   9   0  -3   14.23    1.77
   9   0   3   18.47    1.57
  -9   0  -4    2.09    0.74
   9   0  -4    1.66    0.62
   9   0  -4    3.33    0.94
   9   0   4    3.45    0.79
  -9   0   4    1.86    0.63
   9   0   5   26.60    2.34
  -9   0   5   28.18    2.25
  -9   0   5   34.13    2.37
   9   0  -5   22.91    2.70
  -9   0  -5   21.18    2.42
   9   0  -6   11.03    1.90
  -9   0   6    7.25    1.26
  -9   0  -6    9.49    1.57
  -9   0   6   11.01    1.51
   9   0   6    7.47    1.33
   9  -1   0    0.04    0.27
   9  -1   0   -0.02    0.35
  -9  -1   0    0.15    0.28
   9   1   0   -0.22    0.26
  -9   1   0    0.00    0.23
  -9   1   0   -0.04    0.26
  -9  -1   0   -0.16    0.23
   9   1   1    6.80    1.13
  -9   1  -1    8.47    1.11
   9  -1  -1    9.00    1.24
  -9  -1   1    7.11    1.05
  -9   1  -1    7.53    0.98
   9  -1  -1    7.52    1.13
   9   1  -1    9.97    1.43
  -9   1   1    7.62    0.76
   9   1  -1    6.80    0.92
  -9  -1  -1    8.57    1.09
   9  -1   1    8.67    1.26
  -9   1   1    9.10    1.15
  -9  -1  -1    7.92    1.10
   9   1   2    0.24    0.27
   9   1   2    0.91    0.54
  -9   1  -2    1.27    0.44
  -9  -1   2    0.42    0.34
   9  -1  -2    0.92    0.42
  -9   1  -2    0.73    0.49
   9  -1  -2    0.58    0.39
   9  -1   2    0.37    0.31
  -9  -1  -2    0.01    0.39
   9   1  -2    0.88    0.45
   9   1  -2    0.45    0.36
  -9   1   2    0.47    0.38
   9  -1  -3    0.91    0.51
   9   1   3    1.33    0.55
   9  -1  -3    1.34    0.49
  -9   1  -3    2.32    0.72
   9   1   3    0.79    0.43
  -9  -1   3    1.66    0.58
  -9  -1  -3    0.44    0.49
   9  -1   3    0.75    0.46
   9   1  -3    2.13    0.75
   9   1  -3    2.38    0.63
  -9   1   3    1.96    0.60
  -9   1  -4    2.99    0.88
   9   1   4    6.37    1.03
   9   1   4    3.50    0.81
   9  -1  -4    2.51    0.73
   9  -1  -4    3.02    0.80
  -9  -1   4    3.15    0.75
  -9  -1  -4    3.40    0.92
   9   1  -4    4.75    1.11
  -9   1   4    3.22    0.78
   9   1  -4    3.46    0.86
   9  -1   4    3.31    0.84
   9   1   5    4.27    0.90
  -9   1  -5    2.47    0.78
  -9  -1   5    3.72    0.92
   9  -1  -5    4.28    1.01
  -9  -1   5    4.76    0.92
  -9   1   5    5.30    1.03
  -9  -1  -5    4.80    1.05
   9   1  -5    3.94    0.97
  -9   1   5    3.43    0.83
   9  -1   5    3.10    0.78
  -9  -1   6    5.30    1.00
  -9  -1   6    3.61    0.97
   9   1   6    3.30    0.87
   9  -1  -6    4.92    1.13
  -9   1  -6    3.19    0.86
   9   1  -6    5.18    1.18
   9  -1   6    4.02    0.98
  -9  -1  -6    2.69    0.76
  -9   1   6    5.46    1.04
   9  -2   0   -0.25    0.29
  -9   2   0    0.37    0.28
   9  -2   0   -0.19    0.25
   9   2   0   -0.18    0.24
  -9   2   0   -0.29    0.27
  -9  -2   0    0.10    0.32
  -9  -2   0    0.15    0.30
   9  -2  -1   55.49    3.32
  -9   2  -1   58.35    3.07
  -9  -2   1   58.45    3.13
   9   2   1   59.75    3.52
   9  -2  -1   57.77    3.19
   9   2   1   54.67    3.34
  -9   2  -1   60.75    3.00
   9  -2   1   58.65    3.35
  -9   2   1   53.71    2.72
  -9  -2  -1   58.16    3.19
   9  -2   1   56.74    2.93
  -9   2   1   53.41    3.08
   9   2  -1   55.52    2.84
   9   2  -1   52.97    3.38
   9  -2  -2    9.51    1.44
  -9   2  -2    8.70    0.99
  -9   2  -2    9.43    1.31
   9   2   2    8.56    1.35
  -9  -2   2    9.66    1.26
   9   2   2    8.05    1.27
   9  -2  -2    8.07    1.16
   9  -2   2    9.37    1.38
   9   2  -2    9.03    1.45
  -9  -2  -2   11.26    1.43
   9   2  -2    9.52    1.24
  -9   2   2    6.78    1.12
   9   2   3   11.88    1.64
   9  -2  -3   14.83    1.64
   9  -2  -3   12.39    1.79
  -9  -2   3   12.46    1.47
   9   2   3   15.12    1.78
  -9   2  -3   12.71    1.68
   9   2  -3   14.21    1.92
   9   2  -3   11.35    1.56
  -9  -2  -3   13.43    1.71
   9  -2   3   13.87    1.79
  -9   2   3   12.47    1.57
   9   2   4    6.32    1.06
  -9   2  -4    4.12    0.99
   9   2   4    4.35    0.91
   9  -2  -4    5.21    1.15
  -9  -2   4    6.88    1.14
  -9  -2  -4    5.55    1.16
   9   2  -4    5.39    1.20
  -9   2   4    5.35    1.04
   9  -2   4    4.72    1.01
   9   2  -4    2.92    0.80
   9  -2  -5    9.49    1.55
  -9  -2   5    7.28    1.28
  -9   2  -5    7.43    1.35
  -9  -2   5    5.95    1.10
   9   2   5    7.89    1.36
   9  -2   5    6.18    1.23
  -9  -2  -5    8.12    1.43
  -9   2   5    9.64    1.48
   9   2  -5    7.02    1.35
   9  -2  -6    1.92    0.69
  -9  -2   6    2.34    0.69
  -9   2  -6    5.02    1.08
   9   2   6    1.22    0.59
  -9   2   6    3.50    0.82
   9   2  -6    3.68    0.97
  -9  -2  -6    2.70    0.77
  -9   3   0   -0.17    0.24
   9  -3   0   -0.10    0.23
  -9   3   0   -0.21    0.30
  -9  -3   0   -0.08    0.32
   9   3   0   -0.48    0.28
  -9  -3   0    0.00    0.30
   9  -3   0   -0.14    0.36
   9   3   1    6.78    1.22
   9   3   1    6.76    1.21
   9  -3  -1    5.11    0.93
  -9   3  -1    8.08    1.01
  -9  -3   1    5.93    0.98
   9  -3  -1    7.64    1.24
  -9   3  -1    8.29    1.14
   9   3  -1    7.86    1.31
   9  -3   1    5.53    0.97
  -9  -3  -1    6.70    1.12
   9  -3   1    6.80    1.10
  -9   3   1    6.40    1.02
  -9   3   1    8.01    0.96
   9  -3  -2    0.90    0.37
   9  -3  -2    1.23    0.48
  -9  -3   2    0.91    0.47
  -9   3  -2    0.19    0.40
   9   3   2    1.04    0.53
   9   3   2    0.95    0.44
   9  -3   2    0.41    0.36
  -9  -3  -2    0.89    0.55
   9   3  -2    0.93    0.47
   9  -3   2    1.20    0.49
  -9   3   2    0.46    0.46
   9   3  -2    0.75    0.34
  -9  -3   3    1.09    0.54
  -9   3  -3    1.36    0.56
   9   3   3    1.72    0.58
   9  -3  -3    1.79    0.71
   9   3   3    1.36    0.57
  -9   3   3    1.27    0.54
   9  -3   3    1.53    0.58
  -9  -3  -3    2.10    0.79
   9   3  -3    0.85    0.39
   9   3  -3    1.27    0.55
   9   3   4    0.21    0.42
  -9   3  -4    0.90    0.43
   9  -3  -4    1.23    0.50
   9   3   4    0.53    0.35
  -9  -3   4    1.05    0.40
   9   3  -4    0.72    0.43
   9  -3   4   -0.38    0.33
  -9   3   4    0.57    0.47
   9   3  -4    0.62    0.51
  -9  -3  -4    0.43    0.51
   9  -3  -5    3.05    0.90
   9   3   5    3.26    0.80
  -9   3  -5    4.01    0.93
   9   3   5    3.07    0.69
  -9  -3   5    2.42    0.73
  -9   3   5    2.84    0.73
   9  -3   5    4.48    1.05
   9   3  -5    2.79    0.79
  -9  -3  -5    3.28    0.88
   9   4   0   -0.72    0.31
   9   4   0   -0.59    0.26
   9  -4   0   -0.18    0.28
   9  -4   0   -0.23    0.36
  -9   4   0    0.01    0.27
  -9  -4   0   -0.07    0.33
  -9   4   0   -0.06    0.32
   9   4   1    8.33    1.44
   9  -4  -1   10.58    1.51
  -9   4  -1   11.14    1.41
   9   4   1   10.39    1.55
  -9  -4   1   11.56    1.39
  -9  -4  -1   12.65    1.49
  -9   4   1   12.34    1.25
   9   4  -1    8.65    1.46
  -9   4   1   10.77    1.34
   9  -4   1   10.43    1.38
   9  -4   1   13.41    1.53
  -9   4  -2    3.49    0.84
   9  -4  -2    3.59    0.95
   9   4   2    4.79    1.04
   9   4   2    3.30    0.91
  -9  -4   2    5.10    0.94
   9  -4   2    3.69    0.85
  -9  -4  -2    2.98    0.88
  -9   4   2    3.23    0.80
   9  -4   2    3.83    0.86
   9   4  -2    3.86    0.88
   9   4   3    8.97    1.43
  -9  -4   3    9.97    1.36
   9   4   3   11.51    1.64
  -9   4  -3   11.02    1.62
   9  -4  -3   11.56    1.82
   9  -4   3   10.05    1.50
   9   4  -3    9.12    1.57
  -9   4   3    9.15    1.40
   9   4  -3    9.26    1.37
  -9  -4  -3   12.63    1.76
   9   4   4    2.82    0.74
  -9   4  -4    2.55    0.74
   9  -4  -4    1.49    0.58
  -9  -4   4    2.33    0.60
   9   4  -4    2.33    0.66
   9  -4   4    2.41    0.75
  -9  -4  -4    3.27    0.97
  -9   4   4    2.24    0.66
   9   4  -4    1.97    0.74
   9   4   5   17.82    2.16
   9  -4  -5   17.29    2.37
  -9   4  -5   17.28    2.25
  -9  -4   5   14.70    2.07
  -9  -4  -5   15.10    2.12
  -9   4   5   19.72    2.20
   9  -4   5   19.53    2.40
   9   4  -5   18.86    2.39
   9   5   0   -0.69    0.35
  -9   5   0    0.32    0.39
   9   5   0   -0.46    0.33
   9  -5   0    0.18    0.45
  -9  -5   0    0.11    0.38
   9   5   1    4.96    1.07
   9  -5  -1    4.10    0.98
   9   5   1    3.91    0.96
  -9   5  -1    4.57    0.96
  -9  -5   1    6.57    1.09
   9   5  -1    4.10    0.97
  -9   5   1    4.44    0.91
  -9  -5  -1    4.81    0.98
  -9   5   1    4.86    0.88
   9  -5   1    4.57    1.05
   9  -5  -2    0.62    0.46
  -9  -5   2    0.43    0.39
   9   5   2    1.05    0.46
  -9   5  -2    0.02    0.43
   9   5   2    0.78    0.45
   9   5  -2    0.72    0.46
  -9   5   2    0.11    0.36
  -9  -5  -2    0.12    0.48
   9  -5   2    1.00    0.41
   9  -5   2    0.02    0.45
  -9  -5   3    0.72    0.51
  -9   5  -3    0.87    0.64
   9   5   3    1.26    0.63
   9  -5  -3    1.32    0.66
   9  -5   3    0.96    0.54
  -9  -5  -3    0.65    0.60
   9   5  -3    0.34    0.39
   9   5  -3    0.37    0.48
  -9   5   3    1.38    0.51
   9  -5   3    0.86    0.42
   9  -5  -4    4.43    0.92
  -9   5  -4    3.26    0.82
   9   5   4    5.89    1.17
   9  -5   4    3.15    0.89
   9   5  -4    4.31    0.91
  -9   5   4    3.70    0.90
   9   5  -4    4.08    1.10
  -9  -5  -4    5.04    1.25
   9   5   5    2.22    0.75
   9  -5   5    3.32    0.78
   9   5  -5    2.74    0.62
  -9  -6   0    0.48    0.43
  -9   6   0    0.41    0.37
   9  -6   0   -0.32    0.42
   9   6   0   -0.28    0.40
   9   6   0    0.67    0.45
  -9   6  -1   22.52    1.98
   9  -6  -1   16.74    2.17
  -9  -6   1   21.43    1.81
   9   6   1   19.50    2.37
  -9   6   1   20.92    1.79
   9   6  -1   18.56    2.28
   9  -6   1   18.80    2.15
  -9  -6  -1   20.89    2.13
  -9   6   1   19.60    1.74
  -9   6  -2    7.01    1.26
   9   6   2    3.91    0.91
   9  -6  -2    1.75    0.79
  -9  -6   2    3.60    0.82
  -9  -6  -2    5.43    1.10
   9   6  -2    1.82    0.75
   9  -6   2    4.25    1.06
  -9   6   2    4.17    0.91
   9   6   3    6.46    1.29
  -9   6  -3    5.71    1.24
   9  -6  -3    6.01    1.26
  -9  -6  -3    6.19    1.34
  -9   6   3    3.62    0.97
   9  -6   3    6.47    1.23
   9   6  -3    6.84    1.40
   9  -6   3    5.06    1.18
  -9  -6   4    3.39    0.97
   9   6   4    1.17    0.65
  -9   6  -4    1.77    0.69
   9  -6  -4    2.95    0.74
   9   6  -4    1.68    0.65
   9  -6   4    2.44    0.66
  -9   6   4    1.90    0.73
  -9  -6  -4    2.99    1.00
  -9   7   0   -0.15    0.44
   9   7   0    0.14    0.54
  -9  -7   0   -0.86    0.46
   9  -7   0    0.14    0.43
   9   7   1    2.92    0.85
  -9  -7   1    2.71    0.75
  -9   7  -1    3.57    0.94
   9  -7  -1    1.72    0.71
  -9  -7  -1    2.31    0.84
  -9   7   1    4.13    0.92
   9  -7   1    3.31    0.96
   9   7  -1    3.94    0.94
   9  -7  -2    0.41    0.52
   9   7   2    0.30    0.51
  -9   7  -2    0.59    0.54
  -9   7   2    0.39    0.52
   9  -7   2    0.37    0.64
   9   7  -2   -0.25    0.52
  -9  -7  -2   -0.98    0.47
  -9   7  -3    0.22    0.56
  -9  -7   3   -0.21    0.48
   9  -7  -3    0.57    0.57
   9   7   3    0.91    0.58
  -9  -7  -3    0.38    0.62
  -9   7   3    1.54    0.62
   9  -7   3    0.56    0.71
   9  -8   0   -0.29    0.56
   9   8   0   -0.63    0.54
  -9   8   0   -0.15    0.45
  -9  -8   1    5.47    0.98
   9  -8  -1    1.95    0.81
   9   8   1    2.61    0.83
  -9   8  -1    1.55    0.65
  -9   8   1    3.51    0.81
  -9  -8  -1    4.20    1.02
   9  -8   1    1.82    0.70
   9  -8   2    0.13    0.70
  10   0   0   20.03    1.81
 -10   0   0   20.93    1.65
 -10   0   0   23.42    1.55
  10   0  -1    9.39    1.42
  10   0  -1    9.68    1.22
 -10   0   1    8.94    1.23
  10   0   1    7.59    1.27
 -10   0  -1   11.01    1.29
 -10   0  -1    8.33    1.11
  10   0  -2   84.36    4.46
  10   0  -2   77.48    4.19
  10   0   2   72.99    4.33
 -10   0  -2   79.34    3.90
 -10   0  -2   79.51    4.19
 -10   0   2   73.65    4.03
 -10   0   3   -0.57    0.29
  10   0  -3    0.07    0.36
 -10   0  -3    0.19    0.45
  10   0   3    0.58    0.33
  10   0  -3   -0.38    0.33
 -10   0  -3   -0.02    0.29
  10   0   4    0.64    0.39
  10   0  -4    1.82    0.61
 -10   0   4    2.17    0.70
  10   0  -4    2.48    0.86
 -10   0  -4    1.62    0.73
  10   0  -5    2.38    0.95
 -10   0   5    1.86    0.62
  10   0  -5    2.80    0.75
  10   0   5    1.65    0.55
 -10   0  -5    1.28    0.59
 -10   0   6    7.45    1.22
 -10   0   6    6.12    1.13
 -10   1   0    2.92    0.61
  10   1   0    4.46    0.97
  10  -1   0    4.14    0.91
 -10  -1   0    4.25    0.82
  10  -1   0    4.93    0.83
 -10   1   0    4.63    0.89
 -10  -1   0    4.30    0.77
  10   1   1   21.98    1.92
 -10  -1   1   18.67    1.64
  10  -1  -1   23.81    1.86
 -10   1  -1   21.61    1.63
  10  -1  -1   24.84    1.92
 -10   1  -1   25.77    1.82
  10  -1   1   22.62    1.90
 -10  -1  -1   22.95    1.73
 -10  -1  -1   21.40    1.69
 -10   1   1   21.86    1.73
  10   1  -1   20.24    1.89
  10   1   2    0.62    0.56
 -10   1  -2    0.94    0.48
  10  -1  -2    1.61    0.54
 -10  -1   2    0.82    0.46
 -10   1  -2    1.12    0.43
  10  -1  -2    0.39    0.40
  10   1   2    0.85    0.50
 -10  -1  -2    1.26    0.47
  10   1  -2    1.13    0.60
  10   1  -2    1.62    0.47
 -10   1   2    1.80    0.56
  10  -1   2    0.87    0.45
 -10  -1  -2    1.42    0.61
 -10   1  -3   72.46    4.14
  10  -1  -3   76.07    4.22
  10   1   3   81.68    4.25
  10  -1  -3   64.92    4.21
  10   1   3   66.84    4.17
 -10  -1   3   70.41    3.90
  10   1  -3   69.97    4.11
  10  -1   3   67.72    4.17
 -10   1   3   71.39    4.00
 -10  -1  -3   72.30    4.14
  10   1  -3   73.63    4.36
  10  -1  -4    1.65    0.60
  10   1   4    1.33    0.38
 -10   1  -4    2.24    0.76
  10  -1  -4    1.08    0.52
 -10  -1   4    1.43    0.57
  10   1  -4    0.12    0.50
 -10  -1  -4    2.45    0.81
  10   1  -4    0.62    0.55
 -10   1   4    1.35    0.55
  10  -1   4    1.74    0.47
  10  -1  -5   20.68    2.66
 -10  -1   5   25.57    2.13
 -10   1  -5   23.60    2.57
  10   1  -5   27.08    2.86
 -10   1   5   28.89    2.25
  10  -1   5   23.41    2.67
  10   1  -5   25.74    2.87
 -10  -1  -5   23.57    2.55
 -10  -1   6    0.29    0.54
 -10  -1   6    0.39    0.39
  10   1   6    0.09    0.49
 -10  -2   0    3.66    0.78
 -10   2   0    4.23    0.83
  10  -2   0    4.77    0.92
  10  -2   0    5.95    0.98
  10   2   0    3.37    0.82
 -10   2   0    5.22    0.82
 -10  -2   0    2.87    0.67
  10  -2  -1   53.44    3.17
 -10   2  -1   56.85    3.06
 -10   2  -1   50.71    2.89
  10  -2  -1   53.52    3.26
 -10  -2   1   55.72    3.13
  10   2   1   52.00    3.37
  10  -2   1   59.10    3.36
 -10   2   1   52.87    3.09
  10   2  -1   52.40    3.43
 -10  -2  -1   49.94    3.01
 -10  -2  -1   55.99    3.13
 -10  -2   2   64.27    3.56
  10   2   2   66.25    3.89
  10   2   2   64.85    3.89
 -10   2  -2   65.52    3.67
  10  -2  -2   59.07    3.56
  10  -2  -2   62.13    3.79
  10   2  -2   60.91    3.46
  10  -2   2   66.13    3.88
 -10  -2  -2   63.56    3.64
  10   2  -2   65.35    4.03
 -10   2   2   59.68    3.53
  10   2   3   62.19    3.99
  10   2   3   73.59    4.18
 -10  -2   3   69.90    3.85
 -10   2  -3   75.37    4.22
  10  -2  -3   71.79    4.02
  10  -2  -3   65.61    4.24
  10   2  -3   67.47    4.04
 -10  -2  -3   68.71    4.06
 -10   2   3   67.88    3.93
  10   2  -3   73.17    4.41
  10  -2   3   74.01    4.29
  10   2   4    4.04    0.94
  10  -2  -4    3.65    0.95
  10   2   4    6.86    1.24
 -10  -2   4    4.86    0.96
 -10   2  -4    3.94    1.03
  10  -2   4    5.11    1.11
 -10  -2  -4    3.74    1.05
  10   2  -4    4.90    1.25
  10   2  -4    5.45    1.06
 -10   2   4    4.83    1.00
  10  -2  -5   39.73    3.26
  10   2   5   40.82    3.08
 -10   2  -5   40.32    3.15
 -10  -2   5   43.18    2.88
 -10  -2  -5   35.52    2.92
 -10   2   5   41.71    2.96
  10  -2   5   43.05    3.26
  10   2  -5   41.14    3.29
  10   2  -5   39.77    3.19
  10   3   0    5.20    1.14
 -10  -3   0    6.22    1.06
  10  -3   0    5.90    1.02
 -10   3   0    6.44    1.00
 -10  -3   0    6.84    1.03
  10  -3   0    7.16    1.16
 -10   3   0    7.67    1.06
  10  -3  -1    1.13    0.50
  10   3   1    1.46    0.63
 -10   3  -1    1.40    0.47
  10   3   1    3.02    0.85
 -10   3  -1    2.46    0.63
  10  -3  -1    1.72    0.58
 -10  -3   1    2.46    0.67
  10  -3   1    1.01    0.51
  10   3  -1    2.82    0.79
 -10   3   1    1.48    0.51
 -10  -3  -1    2.17    0.65
  10  -3   1    2.16    0.70
 -10  -3   2   28.25    2.08
  10  -3  -2   24.47    2.24
  10   3   2   28.04    2.38
 -10   3  -2   29.71    2.21
  10   3   2   26.65    2.24
  10  -3   2   29.10    2.26
  10   3  -2   24.11    2.60
 -10  -3  -2   27.75    2.21
 -10   3   2   24.84    2.03
 -10   3  -3   28.34    2.31
  10   3   3   30.20    2.46
 -10  -3   3   28.08    2.15
  10   3   3   31.36    2.44
  10  -3  -3   27.06    2.44
  10   3  -3   30.46    2.59
 -10  -3  -3   29.47    2.40
  10   3  -3   23.39    2.04
  10  -3   3   30.86    2.48
 -10   3   3   25.16    2.11
 -10  -3   4   19.82    1.76
 -10   3  -4   23.57    2.43
  10  -3  -4   23.96    2.72
  10   3   4   22.84    2.39
  10   3   4   18.97    2.20
  10   3  -4   20.24    2.25
  10  -3   4   22.84    2.52
 -10  -3  -4   21.45    2.37
  10   3  -4   22.16    2.71
 -10   3   4   19.98    2.13
 -10   3  -5    5.05    1.04
  10  -3  -5    6.01    1.17
 -10  -3   5    5.42    0.91
  10   3   5    4.41    0.83
 -10  -3   5    4.43    1.04
 -10   3   5    4.89    1.07
 -10  -3  -5    6.36    1.28
  10  -3   5    6.07    1.19
  10   3  -5    5.49    1.06
  10  -4   0   20.74    1.82
 -10   4   0   22.78    1.70
 -10  -4   0   22.93    1.84
 -10   4   0   20.14    1.66
  10  -4   0   19.55    1.69
  10   4   0   21.49    2.34
 -10  -4   0   20.64    1.67
 -10  -4   1    0.31    0.33
  10   4   1    1.26    0.62
  10   4   1    0.06    0.39
  10  -4  -1    0.42    0.41
 -10   4  -1    0.84    0.56
  10   4  -1    0.00    0.38
  10  -4   1   -0.05    0.45
 -10  -4  -1    0.25    0.43
  10  -4   1    1.20    0.44
 -10   4   1    0.12    0.34
  10  -4  -2   34.81    2.81
  10   4   2   43.43    3.09
  10   4   2   35.17    2.80
 -10  -4   2   38.11    2.54
 -10   4  -2   38.97    2.69
  10   4  -2   36.01    2.94
 -10  -4  -2   38.17    2.75
 -10   4   2   35.43    2.52
  10  -4   2   37.31    2.68
 -10  -4   3    3.97    0.84
 -10   4  -3    4.48    1.06
  10   4   3    3.58    0.98
  10   4   3    5.22    0.98
  10  -4  -3    4.44    1.07
  10   4  -3    3.58    0.94
  10  -4   3    2.29    0.68
 -10   4   3    3.35    0.85
 -10  -4  -3    4.78    1.09
  10   4   4    0.38    0.52
 -10  -4   4    0.69    0.43
 -10   4  -4   -0.41    0.44
  10  -4  -4    0.60    0.55
 -10   4   4   -0.11    0.39
  10   4  -4    0.26    0.55
  10  -4   4   -0.70    0.37
  10   4  -4    0.92    0.43
 -10  -4  -4   -0.43    0.53
  10  -4  -5    0.18    0.61
  10   4   5   -1.09    0.52
  10  -4   5   -0.17    0.52
  10   4  -5    0.49    0.54
 -10   5   0   18.90    1.66
  10   5   0   15.95    2.12
  10   5   0   18.36    2.24
  10  -5   0   21.68    2.22
  10   5   1   32.39    2.64
  10   5   1   29.60    2.62
 -10   5  -1   37.28    2.51
 -10  -5   1   32.92    2.37
  10  -5  -1   32.29    2.58
  10  -5   1   32.68    2.53
 -10  -5  -1   31.57    2.41
 -10   5   1   32.89    2.20
  10   5  -1   28.75    2.58
 -10   5   1   31.95    2.34
  10   5   2    4.80    0.98
 -10  -5   2    5.31    1.02
  10   5   2    5.24    1.22
  10  -5  -2    6.52    1.27
 -10   5  -2    3.87    0.95
  10   5  -2    4.14    0.97
 -10  -5  -2    4.64    1.06
 -10   5   2    4.80    0.96
  10  -5   2    3.47    0.86
  10  -5   2    3.26    0.82
 -10   5  -3   64.33    4.11
 -10  -5   3   62.81    3.66
  10   5   3   66.23    4.27
  10  -5  -3   64.11    4.38
 -10  -5  -3   64.16    4.15
  10  -5   3   67.26    4.11
 -10   5   3   61.10    3.85
  10   5  -3   57.26    4.19
  10  -5  -4    1.67    0.66
  10   5   4    1.49    0.62
 -10   5  -4    3.58    0.88
 -10  -5  -4    0.34    0.65
  10   5  -4    3.44    1.07
  10  -5   4    1.61    0.79
 -10   5   4    1.57    0.69
  10   6   0   -0.66    0.45
  10   6   0    0.08    0.46
  10  -6   0    0.00    0.44
 -10   6   0    0.00    0.43
  10  -6  -1    3.61    0.98
 -10   6  -1    5.16    1.11
  10   6   1    4.31    1.05
 -10  -6   1    4.54    1.01
  10  -6   1    3.97    0.94
  10   6  -1    5.08    0.93
 -10  -6  -1    3.59    0.93
 -10   6   1    5.59    1.05
 -10  -6   2   10.94    1.47
  10   6   2    9.89    1.76
 -10   6  -2   14.05    1.89
  10  -6  -2   12.28    1.82
 -10   6   2   13.56    1.73
  10  -6   2   10.74    1.64
 -10  -6  -2   14.39    1.96
  10   6  -2   10.18    1.69
  10  -6  -3   11.72    1.94
  10   6   3    9.26    1.60
 -10   6  -3   11.98    1.70
 -10  -6  -3   15.07    2.11
  10   6  -3   10.32    1.85
 -10   6   3   11.29    1.69
  10  -6   4    6.12    1.11
 -10   7   0    6.28    1.18
  10  -7   0    8.63    1.50
  10   7   0    7.30    1.40
 -10   7  -1    0.16    0.48
  10  -7  -1    0.80    0.68
 -10  -7   1   -0.26    0.46
  10   7   1   -0.95    0.51
 -10  -7  -1   -0.14    0.47
  10  -7   1   -0.94    0.57
  10   7  -1    0.50    0.52
 -10   7   1   -0.68    0.49
 -10  -7   2   17.64    1.96
  10   7   2   16.74    2.46
 -10   7  -2   19.24    2.30
  10  -7  -2   19.18    2.43
 -10  -7  -2   22.82    2.51
  10   7  -2   18.17    2.49
  10  -7   2   18.44    2.33
  10  -7   3    6.58    1.28
  10   7  -3    7.53    1.71
 -10   7   3    5.96    1.19
  10   8   0   12.93    1.94
 -10   8   0   15.14    1.92
 -10  -8   1    3.95    0.96
 -10  -8  -1    5.05    1.02
 -11   0   0    0.54    0.39
 -11   0   0    0.03    0.27
  11   0   0    0.28    0.43
 -11   0  -1    3.71    0.78
 -11   0   1    3.76    0.87
  11   0   1    4.82    1.07
 -11   0  -1    3.43    0.77
  11   0  -1    3.12    0.80
  11   0  -2    0.35    0.32
  11   0   2   -0.22    0.34
 -11   0  -2   -0.06    0.34
  11   0  -2    0.19    0.36
 -11   0   2    0.53    0.39
 -11   0  -2   -0.02    0.30
 -11   0  -3   32.21    2.52
  11   0  -3   28.41    2.44
  11   0  -3   34.64    2.69
  11   0   3   30.26    2.53
 -11   0  -3   32.25    2.16
 -11   0   3   38.77    2.57
 -11   0   4    0.67    0.50
  11   0  -4   -0.34    0.43
  11   0   4    0.77    0.46
  11   0  -4    0.41    0.64
 -11   0  -4    2.40    0.78
  11   0  -5   21.66    2.60
  11   0   5   16.79    2.30
 -11   0  -5   21.35    2.47
 -11   0   5   20.20    2.24
  11   0  -5   17.15    2.29
 -11   1   0   -0.01    0.31
  11   1   0   -0.42    0.34
 -11   1   0    0.51    0.30
 -11  -1   0   -0.19    0.28
  11  -1   0   -0.18    0.33
 -11   1  -1   -0.06    0.29
  11  -1  -1   -0.14    0.29
  11   1   1    0.19    0.30
 -11  -1   1    0.13    0.36
  11  -1  -1    0.07    0.35
 -11   1  -1   -0.21    0.34
 -11  -1  -1    0.53    0.40
 -11   1   1   -0.22    0.33
  11   1  -1    0.54    0.49
  11  -1   1    0.26    0.38
 -11  -1  -1   -0.16    0.30
  11   1   2    6.89    1.27
 -11   1  -2    9.40    1.39
 -11   1  -2    7.56    1.08
  11  -1  -2    7.63    1.21
 -11  -1   2    6.99    1.17
  11  -1  -2    9.76    1.50
  11   1  -2    8.23    1.43
 -11  -1  -2    7.64    1.27
  11  -1   2    8.39    1.43
 -11   1   2    6.92    1.17
 -11  -1  -2    5.49    0.99
  11   1   3   -0.23    0.33
 -11  -1   3    0.56    0.43
  11  -1  -3    0.83    0.55
  11   1   3    0.14    0.52
 -11   1  -3   -0.36    0.41
  11  -1  -3   -0.09    0.40
 -11   1   3    0.43    0.48
  11   1  -3    0.36    0.35
  11   1  -3   -1.08    0.46
  11  -1   3    0.39    0.44
 -11  -1  -3   -0.04    0.49
 -11   1  -4    5.24    1.13
  11  -1  -4    4.24    0.99
  11  -1  -4    2.86    0.79
  11   1   4    5.05    1.05
 -11  -1   4    3.07    0.84
  11   1  -4    3.78    1.05
  11   1  -4    5.06    1.02
  11  -1   4    3.02    0.70
 -11  -1  -4    3.34    0.94
 -11   1   4    3.49    0.89
  11  -1  -5    0.74    0.53
 -11  -1   5   -0.12    0.43
 -11   1  -5    0.89    0.56
  11   1   5    0.61    0.45
  11  -1   5    0.85    0.43
 -11  -1  -5    0.72    0.49
 -11   1   5    0.94    0.56
  11   1  -5   -0.36    0.57
  11   1  -5    1.23    0.58
 -11   2   0    0.12    0.29
  11   2   0    0.11    0.40
  11  -2   0   -0.16    0.30
 -11  -2   0   -0.07    0.31
 -11   2   0   -0.09    0.34
 -11   2  -1   38.71    2.52
 -11   2  -1   39.44    2.48
  11   2   1   37.19    2.86
 -11  -2   1   42.62    2.69
  11  -2  -1   39.57    2.74
  11  -2  -1   43.03    2.78
  11   2  -1   42.74    3.07
 -11  -2  -1   44.73    2.69
  11  -2   1   40.49    2.79
 -11  -2  -1   36.75    2.53
 -11   2   1   39.86    2.64
  11  -2  -2    0.18    0.39
 -11  -2   2    0.18    0.42
 -11   2  -2    0.68    0.46
  11  -2  -2    0.23    0.38
  11   2   2   -0.84    0.47
  11   2   2    1.09    0.51
  11  -2   2    0.17    0.43
  11   2  -2    0.48    0.55
 -11   2   2    0.58    0.41
 -11  -2  -2    0.50    0.51
  11  -2  -3    4.19    0.92
  11  -2  -3    4.90    1.08
  11   2   3    3.84    0.96
 -11  -2   3    3.50    0.86
  11   2   3    4.04    0.91
 -11   2  -3    5.23    1.12
 -11   2   3    3.28    0.81
 -11  -2  -3    5.02    1.14
  11   2  -3    2.68    0.90
  11   2  -3    3.44    0.81
  11  -2   3    3.37    0.92
 -11  -2   4    2.50    0.77
  11  -2  -4    2.14    0.71
  11   2   4    2.57    0.82
 -11   2  -4    2.39    0.84
  11   2   4    3.36    0.72
 -11  -2  -4    1.29    0.67
  11   2  -4    1.69    0.61
 -11   2   4    2.79    0.76
  11   2  -4    3.19    0.97
  11  -2   4    1.92    0.66
  11  -2  -5    0.93    0.54
 -11   2  -5   -0.47    0.46
 -11  -2   5   -0.06    0.41
  11   2   5   -0.05    0.46
  11  -2   5   -0.83    0.41
 -11   2   5   -0.14    0.37
  11   2  -5   -0.17    0.59
  11   2  -5   -1.10    0.54
 -11  -2  -5    0.51    0.59
 -11   3   0   -0.34    0.31
  11   3   0   -0.08    0.40
 -11   3   0    0.18    0.31
 -11  -3   0   -0.16    0.27
  11  -3   0    0.87    0.44
  11  -3   0    0.34    0.33
 -11  -3   1    0.35    0.35
  11  -3  -1    0.58    0.33
 -11   3  -1    0.05    0.34
  11   3   1   -0.21    0.39
  11  -3  -1    0.06    0.40
 -11  -3  -1    0.34    0.38
 -11   3   1   -0.07    0.40
 -11  -3  -1    0.06    0.35
  11  -3   1    0.01    0.35
  11   3  -1    0.56    0.39
  11   3   2    5.20    1.10
  11  -3  -2    4.12    1.01
  11   3   2    3.84    1.07
 -11  -3   2    6.05    1.08
 -11   3  -2    4.98    1.03
 -11   3   2    4.25    0.93
  11   3  -2    5.14    1.17
  11  -3   2    7.18    1.23
 -11  -3  -2    5.26    1.07
  11   3   3    0.49    0.68
 -11   3  -3    1.16    0.58
  11  -3  -3    1.60    0.66
 -11  -3   3    1.21    0.56
  11   3   3    0.23    0.39
 -11   3   3    0.44    0.46
 -11  -3  -3    0.25    0.56
  11  -3   3    2.18    0.59
  11   3  -3    0.50    0.60
  11   3   4    3.39    0.87
 -11  -3   4    3.31    0.79
 -11   3  -4    2.77    0.88
  11  -3  -4    4.15    0.96
  11   3   4    3.17    0.80
  11  -3   4    1.70    0.83
 -11  -3  -4    2.05    0.86
  11   3  -4    1.45    0.56
 -11   3   4    1.93    0.68
  11   3  -4    3.85    1.10
 -11  -3   5    1.35    0.57
  11  -3  -5    1.33    0.59
  11   3   5    0.52    0.48
  11   3  -5    2.18    0.69
  11   3  -5    1.62    0.66
  11  -4   0   -0.08    0.44
 -11  -4   0   -0.21    0.37
 -11   4   0    0.27    0.38
 -11   4   0   -0.08    0.38
  11   4   0    0.40    0.42
  11  -4   0   -0.16    0.31
 -11   4  -1    3.08    0.80
  11  -4  -1    1.66    0.67
  11   4   1    1.47    0.72
 -11  -4   1    3.07    0.76
  11   4   1    2.47    0.73
  11  -4   1    1.90    0.64
  11   4  -1    2.48    0.75
 -11   4   1    1.98    0.60
 -11  -4  -1    2.32    0.71
  11   4   2   -0.06    0.49
 -11   4  -2   -0.10    0.45
  11   4   2   -0.04    0.46
  11  -4  -2    0.15    0.46
 -11  -4   2   -0.03    0.41
  11  -4   2   -0.11    0.35
  11   4  -2    0.43    0.40
 -11   4   2   -0.28    0.36
 -11  -4  -2   -0.19    0.37
  11   4   3   20.21    2.43
  11  -4  -3   18.23    2.34
  11   4   3   20.96    2.43
 -11  -4   3   20.74    1.81
 -11   4  -3   25.54    2.20
 -11   4   3   21.90    2.22
 -11  -4  -3   24.44    2.51
  11  -4   3   17.83    2.19
  11   4  -3   15.69    2.31
  11   4   4   -0.32    0.59
  11  -4  -4    1.68    0.70
 -11   4  -4    0.92    0.52
 -11  -4   4    0.87    0.46
 -11   4   4    0.79    0.50
  11   4  -4    0.10    0.61
  11  -4   4    0.29    0.43
 -11  -4  -4    0.25    0.55
  11   4   5   17.91    2.25
  11  -5   0    0.43    0.49
  11   5   0   -0.28    0.46
 -11  -5   0    0.65    0.44
 -11   5   0    0.08    0.42
 -11  -5   1   -0.68    0.33
 -11   5  -1   -0.19    0.40
  11  -5  -1    0.31    0.51
  11   5   1    0.50    0.47
  11   5   1   -0.29    0.45
 -11  -5  -1   -0.11    0.46
  11   5  -1    0.19    0.46
  11  -5   1   -0.73    0.39
 -11   5   1    0.29    0.41
 -11  -5   2    5.91    1.12
  11   5   2    5.82    1.22
 -11   5  -2    6.41    1.29
  11  -5  -2    4.49    1.00
  11   5   2    6.38    1.32
  11   5  -2    7.08    1.40
 -11   5   2    5.42    1.11
  11  -5   2    5.00    1.01
 -11  -5  -2    5.88    1.22
 -11  -5   3   -0.30    0.44
 -11   5  -3   -0.79    0.50
  11   5   3    0.06    0.50
  11  -5  -3    0.68    0.59
 -11  -5  -3   -0.37    0.55
  11   5  -3    1.03    0.56
  11  -5   3    1.06    0.48
 -11   5   3    0.35    0.46
  11  -5  -4    2.90    0.67
  11   5   4    4.40    0.85
  11  -5   4    2.33    0.61
 -11  -6   0   -0.56    0.38
  11  -6   0   -0.51    0.48
 -11   6   0   -0.29    0.43
  11   6   0   -0.86    0.50
  11   6   1   13.92    2.06
 -11  -6   1   20.07    2.08
  11  -6  -1   15.39    2.08
 -11   6  -1   21.96    2.24
 -11  -6  -1   19.15    2.10
  11   6  -1   17.33    2.29
  11  -6   1   17.20    2.16
  11  -6  -2    0.02    0.60
 -11  -6   2    0.40    0.44
  11   6   2   -0.07    0.48
 -11   6  -2   -0.01    0.52
  11   6  -2    0.26    0.68
 -11  -6  -2   -0.38    0.49
 -11   6   2   -0.06    0.48
  11  -6  -3    2.54    0.75
 -11   6  -3    0.71    0.55
 -11   6   3    0.54    0.47
 -11  -6  -3    2.45    0.69
  11   6  -3    1.30    0.80
  11   7   0   -0.30    0.66
 -11   7   0    0.76    0.47
  11  -7   0    0.47    0.59
 -11  -7   0    1.25    0.50
  11  -7  -1    0.22    0.53
 -11   7  -1    0.57    0.49
  11   7   1   -0.30    0.56
 -11  -7   1    0.09    0.48
  11   7  -1    1.37    0.63
  11  -7   1   -0.01    0.59
 -11  -7   2    0.38    0.50
  11   7  -2    1.80    0.85
  11  -7   2    1.11    0.59
 -11  -7  -2    1.93    0.66
 -12   0   0  203.06    9.08
  12   0   0  216.66    9.76
  12   0  -1    1.21    0.59
 -12   0   1    0.84    0.50
 -12   0  -1    1.93    0.60
 -12   0  -1    1.02    0.47
  12   0   1    1.67    0.62
 -12   0  -2    8.91    1.23
  12   0   2   10.49    1.63
 -12   0   2    8.16    1.31
  12   0  -2    7.44    1.42
 -12   0  -2    6.87    1.23
 -12   0  -3   -0.03    0.58
  12   0  -3    0.42    0.53
  12   0  -3    0.91    0.46
 -12   0   3    0.73    0.54
  12   0   3   -0.03    0.34
  12   0  -4   44.82    3.37
  12   0  -4   50.45    3.58
 -12   0  -4   53.18    3.55
 -12   0   4   44.19    3.14
  12   0   4   48.78    3.51
 -12   0   5    1.01    0.54
  12   0  -5    1.02    0.65
  12   0   5    0.12    0.46
  12   0  -5    1.07    0.55
  12  -1   0   59.14    3.72
 -12  -1   0   53.09    3.30
  12   1   0   60.27    3.82
 -12   1   0   56.38    3.36
 -12   1  -1    0.97    0.49
 -12  -1   1    1.79    0.59
  12   1   1    0.92    0.45
 -12   1  -1    1.51    0.53
  12  -1  -1    0.97    0.54
 -12  -1  -1    1.00    0.51
  12   1  -1    0.20    0.47
 -12   1   1    1.37    0.57
 -12  -1  -1    1.07    0.50
  12  -1   1    0.41    0.49
  12  -1  -2   17.71    2.02
 -12  -1   2   18.97    1.99
 -12   1  -2   16.60    1.52
 -12   1  -2   17.96    1.98
  12   1   2   16.67    2.16
  12  -1  -2   21.50    2.29
  12  -1   2   22.28    2.34
 -12  -1  -2   20.14    2.05
 -12  -1  -2   15.90    1.72
  12   1  -2   18.80    2.34
 -12   1   2   17.07    1.90
  12   1   3    4.63    1.09
 -12   1  -3    5.44    1.17
  12  -1  -3    6.35    1.19
 -12  -1   3    6.59    1.17
  12  -1  -3    7.29    1.38
 -12  -1  -3    6.95    1.31
  12   1  -3    6.51    1.36
 -12  -1  -3    5.79    1.03
  12  -1   3    5.27    1.21
 -12   1   3    5.53    1.12
 -12   1  -4   11.41    1.79
 -12  -1   4    8.46    1.40
  12  -1  -4    8.46    1.40
  12   1   4    7.99    1.42
  12  -1  -4    9.56    1.52
 -12   1   4    8.84    1.44
 -12  -1  -4   10.40    1.64
  12   1  -4    7.62    1.34
  12  -1   4    8.40    1.49
  12   1  -4   11.49    1.86
  12   1   5    2.22    0.69
  12  -1  -5    1.18    0.62
 -12  -1   5    0.91    0.50
  12   1  -5    0.91    0.63
  12   1  -5    1.37    0.73
 -12  -2   0   18.45    1.87
  12   2   0   17.52    2.24
  12  -2   0   21.46    1.93
 -12   2   0   19.61    1.72
 -12  -2   1    7.64    1.26
  12  -2  -1   10.16    1.56
  12   2   1    6.69    1.35
 -12   2  -1    6.54    1.10
 -12   2  -1    7.95    1.19
 -12  -2  -1    6.59    1.11
  12   2  -1    8.93    1.57
 -12   2   1    8.24    1.30
  12  -2   1    6.95    1.29
 -12  -2  -1    8.33    1.29
  12   2   2    0.62    0.38
 -12  -2   2   -0.22    0.34
 -12   2  -2    0.43    0.48
  12  -2  -2    0.15    0.40
  12  -2  -2   -0.01    0.44
 -12  -2  -2   -0.10    0.43
 -12  -2  -2   -0.35    0.30
  12   2  -2   -0.34    0.50
  12  -2   2    1.37    0.50
 -12   2   2    0.01    0.37
  12   2   3   -0.18    0.40
  12  -2  -3   -0.48    0.46
  12   2   3   -0.13    0.56
 -12  -2   3   -0.55    0.40
 -12   2  -3   -0.12    0.49
  12   2  -3    0.22    0.51
  12  -2   3    0.31    0.39
 -12   2   3    0.13    0.41
 -12  -2  -3    0.23    0.55
  12  -2  -4   47.89    3.62
  12   2   4   45.55    3.40
 -12  -2   4   51.34    3.27
 -12   2  -4   55.78    3.73
 -12   2   4   47.88    3.29
  12   2  -4   48.40    3.64
 -12  -2  -4   43.67    3.32
  12  -2   4   45.96    3.47
  12   2   5    2.05    0.66
 -12  -2   5    2.40    0.67
  12   2  -5    0.88    0.59
  12   3   0   42.29    3.26
  12  -3   0   49.73    3.12
 -12   3   0   43.75    2.80
 -12  -3   0   42.69    2.87
  12  -3  -1   10.45    1.56
 -12  -3   1    9.18    1.45
  12   3   1   12.27    1.80
 -12   3  -1   12.90    1.57
  12  -3  -1   12.11    1.60
 -12  -3  -1   11.31    1.46
  12  -3   1   14.33    1.86
 -12   3   1   12.25    1.58
 -12  -3  -1   12.35    1.61
  12   3  -1    7.25    1.38
  12   3   2   17.58    2.27
 -12   3  -2   18.43    2.03
  12  -3  -2   16.31    2.08
  12   3   2   16.06    2.28
 -12  -3   2   19.73    1.99
  12  -3   2   17.92    2.21
  12   3  -2   14.18    2.15
 -12   3   2   13.44    1.76
 -12  -3  -2   14.39    1.81
 -12   3  -3   48.95    3.26
  12  -3  -3   42.62    3.27
 -12  -3   3   41.63    2.90
  12   3   3   44.42    3.28
  12   3   3   43.20    3.28
 -12   3   3   37.40    2.87
  12  -3   3   41.73    3.20
  12   3  -3   40.83    3.40
 -12  -3  -3   45.94    3.17
  12   3   4   10.50    1.68
  12  -3  -4    6.72    1.46
 -12  -3   4    7.84    1.30
 -12   3  -4   10.55    1.66
  12   3   4   10.35    1.60
  12  -3   4    9.28    1.61
  12   3  -4    7.53    1.49
 -12   3   4    8.66    1.43
 -12  -3  -4    9.35    1.58
 -12  -4   0  104.93    5.34
  12   4   0   96.00    5.77
 -12  -4   1    0.54    0.51
 -12   4  -1    1.11    0.51
  12  -4  -1    0.53    0.53
  12   4   1    0.37    0.49
 -12  -4  -1    1.04    0.51
  12  -4   1    0.90    0.54
  12   4  -1   -0.19    0.45
 -12  -4  -1    0.66    0.52
 -12   4   1    0.26    0.39
 -12   4  -2    1.06    0.51
  12   4   2    0.74    0.49
 -12  -4   2    1.17    0.49
  12   4   2    0.93    0.71
  12  -4  -2    0.83    0.55
 -12   4   2    0.50    0.48
  12   4  -2    1.24    0.55
 -12  -4  -2    0.94    0.63
  12  -4   2    1.30    0.64
 -12   4  -3    0.68    0.58
  12  -4  -3    0.74    0.63
  12   4   3    0.89    0.50
 -12  -4   3    0.92    0.48
  12   4   3    1.96    0.73
 -12  -4  -3   -0.66    0.46
  12  -4   3    0.75    0.50
  12   4  -3    0.96    0.57
 -12   4   3    0.15    0.45
  12   4   4   15.67    2.04
  12  -4  -4   17.67    2.41
 -12  -4   4   18.02    1.99
 -12  -4  -4   17.21    2.25
  12  -4   4   19.52    2.38
 -12   5   0   30.44    2.22
  12  -5   0   25.18    2.31
  12   5   0   23.25    2.83
 -12  -5   0   32.45    2.44
  12   5   1    8.87    1.68
 -12  -5   1   12.82    1.71
 -12   5  -1   13.94    1.76
  12  -5  -1   15.03    2.00
  12   5   1   11.48    1.84
 -12   5   1   13.23    1.63
  12   5  -1   10.83    1.90
  12   5   2    8.66    1.59
 -12   5  -2    6.57    1.27
 -12  -5   2    9.34    1.40
  12   5   2    8.72    1.62
  12  -5  -2    8.90    1.51
 -12  -5  -2   12.08    1.74
  12  -5   2   11.74    1.64
 -12   5   2    7.41    1.29
  12   5  -2    7.13    1.49
  12   5   3    0.52    0.58
 -12  -5   3   -0.44    0.45
  12  -5  -3    3.07    0.81
 -12   5  -3    1.91    0.78
 -12   5   3    0.34    0.48
  12  -5   3    0.11    0.53
 -12  -5  -3   -0.05    0.59
  12   5  -3    1.04    0.66
 -12  -6   0    0.13    0.45
  12  -6   0    0.36    0.57
  12   6   0   -0.29    0.56
 -12   6   0    1.06    0.50
  12  -6  -1    4.30    1.03
 -12  -6   1    3.38    0.92
 -12   6  -1    4.77    1.13
  12   6   1    2.93    0.90
  12   6  -1    4.94    1.21
 -12   6  -2    4.46    1.02
  12  -6  -2    4.45    1.00
 -12  -6   2    6.78    1.13
 -12  -6  -2    6.79    1.24
  12   6  -2    4.64    1.24
 -12   6   2    3.51    0.87
  12  -7   0   23.02    2.65
 -13   0   0    1.28    0.57
  13   0   0    0.53    0.52
 -13   0  -1    3.68    0.87
 -13   0  -1    3.95    0.89
 -13   0   1    4.57    0.98
  13   0  -1    4.56    1.07
  13   0   1    4.38    1.06
  13   0   2    7.38    1.41
  13   0  -2    9.18    1.57
 -13   0  -2    6.81    1.16
 -13   0   2    7.08    1.26
 -13   0  -2    9.56    1.42
 -13   0  -3   12.32    1.82
  13   0  -3   11.56    1.88
 -13   0   3   14.06    1.82
  13   0   3   13.23    1.93
 -13   0   4    0.48    0.44
 -13   0  -4    0.97    0.57
  13   0  -4    0.38    0.56
  13   0   4   -0.11    0.44
  13   0  -4    0.43    0.51
 -13   1   0    0.04    0.42
  13  -1   0   -0.27    0.42
  13   1   0    0.61    0.41
 -13  -1   0    0.06    0.35
  13   1   1    4.48    1.15
 -13   1  -1    5.63    1.08
 -13  -1   1    5.52    1.10
 -13   1  -1    6.45    1.13
  13  -1  -1    3.44    0.94
  13  -1   1    4.47    1.04
  13   1  -1    4.92    1.22
 -13  -1  -1    3.87    0.92
 -13  -1  -1    5.93    1.00
 -13   1   1    4.85    0.98
 -13   1  -2    1.96    0.71
  13  -1  -2    1.93    0.73
  13   1   2    0.88    0.54
 -13  -1   2    1.87    0.76
  13  -1   2    1.72    0.67
 -13   1   2    1.95    0.65
  13   1  -2    1.39    0.72
 -13  -1  -2    2.02    0.68
 -13  -1  -2    1.45    0.58
 -13  -1   3    2.18    0.77
  13  -1  -3    3.16    1.04
  13   1   3    2.66    0.77
 -13   1  -3    2.37    0.78
  13   1  -3    1.93    0.74
 -13  -1  -3    3.84    0.96
  13  -1   3    4.26    0.99
 -13   1   3    3.66    0.88
 -13  -1  -3    2.34    0.69
 -13   1  -4    0.03    0.52
 -13  -1   4   -0.32    0.38
  13   1   4    0.53    0.46
  13  -1  -4   -0.43    0.52
 -13  -1  -4    0.18    0.49
 -13   1   4    0.20    0.41
  13  -1   4    0.30    0.46
  13   1  -4   -0.26    0.53
  13  -2   0   -0.41    0.38
 -13   2   0   -0.22    0.33
  13   2   0   -0.14    0.44
 -13  -2   0    0.34    0.36
 -13  -2   1   16.57    1.93
  13  -2  -1   16.26    2.04
 -13   2  -1   17.97    1.81
  13   2   1   16.85    2.25
 -13   2  -1   17.27    1.81
 -13   2   1   15.31    1.88
  13   2  -1   19.06    2.50
  13  -2   1   17.84    2.25
 -13  -2  -1   14.38    1.77
  13  -2  -2    2.49    0.81
  13   2   2    3.97    1.00
 -13   2  -2    2.34    0.70
 -13  -2   2    2.20    0.70
 -13  -2  -2    3.70    0.90
  13  -2   2    2.38    0.79
  13   2  -2    2.03    0.95
 -13   2   2    2.95    0.81
 -13  -2  -2    2.09    0.65
  13  -2  -3    6.69    1.21
 -13   2  -3    9.03    1.46
  13   2   3    6.75    1.26
 -13  -2   3    6.34    1.14
 -13  -2  -3    9.15    1.52
  13  -2   3    6.64    1.24
  13   2  -3    6.05    1.32
 -13   2   3    6.65    1.24
 -13  -2  -3    6.46    1.14
  13  -2  -4    0.95    0.62
 -13   2  -4    1.24    0.61
  13   2   4   -0.06    0.49
 -13  -2   4    0.86    0.47
  13   2  -4    0.26    0.55
 -13   2   4    0.94    0.60
  13  -2   4    0.00    0.44
 -13  -2  -4    1.11    0.58
 -13   3   0    0.13    0.41
  13  -3   0   -0.67    0.42
  13   3   0   -0.27    0.44
 -13  -3   0    0.32    0.37
 -13   3  -1    4.77    1.01
 -13  -3   1    4.67    1.02
  13   3   1    3.13    0.89
  13  -3  -1    5.06    1.13
 -13  -3  -1    3.08    0.82
  13  -3   1    5.09    1.16
  13   3  -1    5.28    1.19
 -13   3   1    2.93    0.78
  13   3   2   -0.52    0.50
 -13  -3   2    0.11    0.42
 -13   3  -2    1.06    0.56
  13  -3  -2    0.93    0.48
 -13  -3  -2    1.38    0.48
  13  -3   2    1.12    0.58
 -13  -3  -2    0.69    0.53
  13   3  -2    0.75    0.50
 -13   3   2    0.32    0.43
  13  -3  -3    0.55    0.55
  13   3   3    1.77    0.60
 -13  -3   3    1.68    0.63
  13   3   3    1.12    0.89
 -13   3  -3    3.27    0.93
  13   3  -3    1.88    0.74
  13  -3   3    1.37    0.57
 -13   3   3    1.92    0.75
 -13  -3  -3    1.64    0.67
  13  -3  -4    1.21    0.64
  13   3   4    0.28    0.62
 -13  -3   4   -0.41    0.40
  13   4   0   -0.28    0.45
 -13  -4   0   -0.25    0.35
 -13   4  -1    2.20    0.75
  13   4   1    3.03    0.90
 -13  -4   1    3.24    0.81
  13  -4   1    2.45    0.70
 -13  -4  -1    2.21    0.74
 -13   4   1    2.09    0.68
  13   4  -1    1.83    0.77
  13   4   2    6.95    1.51
 -13  -4   2    6.41    1.20
 -13   4  -2    4.14    1.09
  13  -4  -2    5.81    1.03
  13   4   2    7.22    1.33
 -13   4   2    5.57    1.09
  13  -4   2    6.84    1.28
 -13  -4  -2    5.51    1.21
  13   4  -2    5.29    1.23
 -13   4  -3   10.03    1.61
  13   4   3    9.81    1.80
  13   4   3    7.49    1.26
  13  -4  -3    9.28    1.64
 -13  -4   3    8.73    1.36
  13   4  -3    8.07    1.73
 -13   4   3   10.17    1.56
  13  -4   3    8.44    1.45
 -13  -4  -3   10.37    1.59
 -13  -5   0   -0.06    0.38
  13   5   0    0.01    0.65
 -13  -5   1    1.55    0.70
 -13   5  -1    3.01    0.86
  13  -5  -1    3.57    0.78
  13   5   1    2.26    0.90
 -13  -5  -1    3.31    0.83
  13   5  -1    3.76    1.18
 -13  -5   2    1.32    0.57
  13  -5  -2    0.73    0.71
  13   5   2    0.99    0.69
 -13   5  -2    2.31    0.77
  13   5   2    1.30    0.76
 -13  -5  -2    1.84    0.69
 -13   5   2    2.73    0.72
  13   5  -2    2.48    0.85
  13  -5   3    4.27    0.75
  13   6   0   -0.95    0.62
 -13   6  -1    8.62    1.30
  13  -6  -1    9.51    1.54
  13   6  -1    6.01    1.44
  14   0   0    2.75    0.91
 -14   0   0    3.51    0.85
  14   0  -1   34.03    2.90
  14   0   1   32.91    2.82
 -14   0   1   32.66    2.53
 -14   0  -1   32.14    2.46
  14   0   2   12.97    1.99
 -14   0   2    9.24    1.53
 -14   0  -2   11.61    1.56
  14   0  -2   11.68    1.93
 -14   0  -2   15.57    1.86
  14   0   3    3.40    0.89
 -14   0  -3    5.95    1.20
  14   0  -3    4.09    1.09
 -14   0   3    5.11    1.05
  14   0  -4    2.77    0.77
 -14   1   0   47.70    3.21
 -14  -1   0   48.41    3.25
  14  -1   0   54.08    3.70
  14   1   0   46.17    3.55
 -14   1  -1    3.18    0.90
 -14  -1   1    2.83    0.85
  14   1   1    3.98    1.14
  14  -1  -1    6.47    1.34
  14   1  -1    3.39    1.00
 -14   1   1    4.35    0.97
 -14  -1  -1    5.29    1.04
  14  -1   1    3.85    0.95
 -14   1  -2   19.29    2.16
  14  -1  -2   17.69    2.34
  14   1   2   17.67    2.34
 -14  -1   2   17.19    2.10
  14  -1   2   19.97    2.49
 -14  -1  -2   16.95    2.00
  14   1  -2   18.15    2.48
 -14   1   2   17.35    2.11
 -14  -1  -2   15.97    1.83
 -14   1  -3    7.26    1.43
  14   1   3    5.32    1.14
  14  -1  -3    7.67    1.58
 -14  -1   3    8.18    1.30
 -14  -1  -3    8.38    1.42
 -14   1   3    7.31    1.34
  14   1  -3    7.12    1.51
  14  -1   3    4.16    0.95
 -14  -2   0    0.61    0.51
  14  -2   0    0.03    0.51
  14   2   0    0.19    0.62
 -14   2   0    0.54    0.59
 -14  -2   1    2.79    0.90
  14  -2  -1    3.20    0.90
  14   2   1    4.82    1.19
  14  -2   1    4.51    1.03
  14   2  -1    2.11    0.85
 -14   2   1    3.57    0.91
 -14  -2  -1    4.71    0.96
 -14  -2   2   18.12    2.20
  14  -2  -2   25.45    2.25
  14   2   2   20.61    2.64
 -14   2  -2   22.56    2.32
 -14  -2  -2   20.21    2.11
  14   2  -2   21.94    2.83
 -14  -2  -2   21.02    2.21
  14  -2   2   22.41    2.66
 -14   2   2   18.51    2.22
  14   2   3   36.21    2.94
 -14  -2   3   34.38    2.66
 -14   2  -3   35.84    2.76
 -14  -2  -3   31.74    2.48
 -14  -2  -3   34.76    2.73
  14  -2   3   33.26    2.79
  14   2  -3   30.73    3.39
 -14   2   3   28.06    2.53
 -14   3   0   10.44    1.51
 -14  -3   0    6.87    1.30
  14   3   0    8.08    1.60
  14  -3   0   12.50    1.73
  14   3   1   13.77    2.08
 -14  -3   1   14.29    1.88
  14  -3   1   13.97    1.99
 -14  -3  -1   12.88    1.76
  14   3  -1   10.59    1.86
 -14   3   1   11.79    1.64
  14   3   2    0.48    0.60
 -14   3  -2    1.25    0.60
 -14  -3   2    1.02    0.46
  14   3  -2    0.60    0.67
 -14   3   2    0.50    0.51
  14  -3   2    1.25    0.66
 -14  -3  -2    1.38    0.61
 -14  -3  -2    0.87    0.65
  14   3   3   10.48    1.75
 -14   3  -3   15.52    1.99
 -14  -3   3   14.31    1.85
 -14   3   3    8.47    1.50
 -14  -3  -3   11.63    1.65
 -14  -3  -3   12.10    1.65
  14  -3   3   12.12    1.79
 -14  -4   0    4.13    1.02
  14   4   0    5.28    1.29
 -14  -4   1   12.13    1.76
  14   4   1   13.37    2.20
 -14   4   1   10.92    1.63
  14  -4   1   15.84    2.15
  14   4  -1   10.73    2.08
 -14  -4  -1   11.13    1.67
  14   4   2    4.68    1.09
 -14  -4   2    3.62    0.85
 -14   4  -2    5.59    1.13
  14  -4   2    5.12    0.92
 -14   4   2    4.26    0.94
  14   4  -2    4.31    1.10
 -14  -4  -2    3.01    0.81
  14   5   0   61.78    4.54
  14   5   1    1.48    0.68
  15   0   0    0.16    0.51
 -15   0   0   -0.37    0.44
  15   0   1   14.96    2.28
 -15   0  -1   14.22    1.86
 -15   0   1   15.55    2.00
  15   0  -1   16.50    2.38
 -15   0   2    3.93    0.91
  15   0  -2    4.72    1.11
 -15   0  -2    3.89    0.96
  15   0   2    3.64    0.87
 -15   0  -3    1.85    0.68
  15   0  -3    1.14    0.67
  15   1   0   -0.38    0.47
 -15   1   0   -0.26    0.42
  15  -1   0   -0.42    0.48
 -15  -1   0   -0.76    0.41
 -15   1  -1    1.38    0.61
  15   1   1    0.11    0.57
 -15  -1   1    1.28    0.61
  15  -1  -1    2.03    0.79
 -15   1   1    1.68    0.64
 -15  -1  -1    1.75    0.59
  15  -1   1    0.88    0.61
  15   1  -1    0.32    0.60
 -15   1  -2    0.40    0.59
 -15  -1   2    0.68    0.62
  15  -1  -2    0.40    0.77
  15   1   2   -0.06    0.52
 -15   1   2    0.92    0.53
  15  -1   2    0.78    0.55
 -15  -1  -2    1.17    0.51
  15   1  -2    1.47    0.69
 -15   1  -3    0.90    0.63
  15  -1  -3    2.20    0.78
 -15  -1  -3    0.55    0.50
 -15   2   0   -0.09    0.43
  15   2   0   -0.55    0.50
  15  -2   0   -0.03    0.50
 -15  -2   0   -0.05    0.45
  15  -2  -1    1.94    0.70
 -15  -2   1    0.40    0.44
  15   2   1    0.93    0.71
 -15  -2  -1    1.49    0.61
  15  -2   1    0.64    0.61
 -15   2   1    2.38    0.72
  15   2  -1    0.32    0.58
  15   2   2    0.46    0.70
 -15  -2   2    0.79    0.49
 -15   2  -2    0.38    0.57
  15  -2  -2    0.98    0.65
  15  -2   2   -0.41    0.56
  15   2  -2    1.78    0.64
 -15   2   2    1.44    0.63
 -15  -2  -2    1.03    0.57
 -15  -2  -3    3.19    0.74
 -15  -2  -3    2.81    0.82
  15  -3   0   -0.66    0.55
 -15  -3   0    0.25    0.50
  15   3   0    0.50    0.64
  15   3   1    0.39    0.72
 -15  -3   1    0.17    0.51
 -15  -3  -1    0.74    0.58
 -15   3   1    0.70    0.52
  15   3  -1    1.53    0.85
  15  -3   1    1.44    0.57
 -15   3  -2    1.87    0.60
 -15   3   2    0.79    0.58
 -15  -3  -2    0.30    0.49
  15  -3   2   -0.36    0.51
  16   0   0    3.59    0.92
 -16   0   0    3.64    0.89
 -16   0  -1    5.73    1.17
 -16   0   1    4.37    1.06
  16   0  -1    5.48    1.28
  16  -1   0    1.12    0.56
 -16  -1   0   -0.19    0.48
 -16   1   0   -0.23    0.55
  16  -1  -1    6.91    1.31
 -16  -1  -1    4.43    1.01
  16  -1   1    6.25    1.29
 -16   1   1    6.91    1.29
  16  -1  -2    0.10    0.65
 -16  -1  -2    0.65    0.57
  16  -2   0    1.71    0.60
 -16   2   0    2.41    0.71
  16  -2  -1    9.62    1.63
 -16   2   1    7.13    1.25
   0   0   0    0.00    0.00
;
_shelx_hkl_checksum              5072
loop_
_space_group_symop_operation_xyz
'x, y, z'
'-x+1/2, -y, z+1/2'
'-x, y+1/2, -z'
'x+1/2, -y+1/2, -z+1/2'
'-x, -y, -z'
'x-1/2, y, -z-1/2'
'x, -y-1/2, z'
'-x-1/2, y-1/2, z-1/2'
loop_
_atom_site_label
_atom_site_type_symbol
_atom_site_fract_x
_atom_site_fract_y
_atom_site_fract_z
_atom_site_U_iso_or_equiv
_atom_site_adp_type
_atom_site_occupancy
_atom_site_site_symmetry_order
_atom_site_calc_flag
_atom_site_refinement_flags_posn
_atom_site_refinement_flags_adp
_atom_site_refinement_flags_occupancy
_atom_site_disorder_assembly
_atom_site_disorder_group
Mn1 Mn 0.000000 0.000000 0.500000 0.0251(2) Uani 1 2 d S . P . .
P1 P 0.09106(8) 0.250000 0.10640(15) 0.0134(2) Uani 1 2 d S T P . .
S1 S 0.16492(6) 0.03569(11) 0.24284(11) 0.0182(2) Uani 1 1 d . . . . .
S2 S -0.06246(8) 0.250000 0.24092(15) 0.0159(2) Uani 1 2 d S T P . .
S3 S 0.09467(8) 0.250000 -0.24201(14) 0.0168(3) Uani 1 2 d S T P . .
Li1 Li -0.2281(7) 0.250000 -0.0109(12) 0.0302(17) Uani 1 2 d S T P . .
loop_
_atom_site_aniso_label
_atom_site_aniso_U_11
_atom_site_aniso_U_22
_atom_site_aniso_U_33
_atom_site_aniso_U_23
_atom_site_aniso_U_13
_atom_site_aniso_U_12
Mn1 0.0298(4) 0.0245(4) 0.0210(4) 0.0083(2) 0.0068(3) 0.0007(3)
P1 0.0168(5) 0.0164(5) 0.0070(4) 0.000 0.0000(3) 0.000
S1 0.0214(4) 0.0206(4) 0.0127(4) 0.0014(2) 0.0008(2) 0.0045(3)
S2 0.0151(5) 0.0202(5) 0.0126(5) 0.000 0.0007(3) 0.000
S3 0.0225(5) 0.0207(5) 0.0073(5) 0.000 0.0007(3) 0.000
Li1 0.030(4) 0.036(4) 0.025(4) 0.000 -0.006(3) 0.000
loop_
_atom_type_symbol
_atom_type_description
_atom_type_scat_dispersion_real
_atom_type_scat_dispersion_imag
_atom_type_scat_source
Li Li -0.0003 0.0001 'International Tables Vol C Tables 4.2.6.8 and 6.1.1.4'
P P 0.1023 0.0942 'International Tables Vol C Tables 4.2.6.8 and 6.1.1.4'
S S 0.1246 0.1234 'International Tables Vol C Tables 4.2.6.8 and 6.1.1.4'
Mn Mn 0.3368 0.7283 'International Tables Vol C Tables 4.2.6.8 and 6.1.1.4'
loop_
_geom_angle_atom_site_label_1
_geom_angle_atom_site_label_2
_geom_angle_atom_site_label_3
_geom_angle
_geom_angle_site_symmetry_1
_geom_angle_site_symmetry_3
_geom_angle_publ_flag
S2 Mn1 S2 180.0 . 5_556 ?
S2 Mn1 S1 100.25(3) . 5_556 ?
S2 Mn1 S1 79.75(3) 5_556 5_556 ?
S2 Mn1 S1 79.75(3) . . ?
S2 Mn1 S1 100.25(3) 5_556 . ?
S1 Mn1 S1 180.0 5_556 . ?
S2 Mn1 S3 93.78(3) . 5 ?
S2 Mn1 S3 86.22(3) 5_556 5 ?
S1 Mn1 S3 84.07(3) 5_556 5 ?
S1 Mn1 S3 95.93(3) . 5 ?
S2 Mn1 S3 86.22(3) . 1_556 ?
S2 Mn1 S3 93.78(3) 5_556 1_556 ?
S1 Mn1 S3 95.93(3) 5_556 1_556 ?
S1 Mn1 S3 84.07(3) . 1_556 ?
S3 Mn1 S3 180.00(3) 5 1_556 ?
S3 P1 S1 112.28(4) . 7_565 ?
S3 P1 S1 112.28(4) . . ?
S1 P1 S1 106.66(6) 7_565 . ?
S3 P1 S2 113.45(6) . . ?
S1 P1 S2 105.81(4) 7_565 . ?
S1 P1 S2 105.81(4) . . ?
P1 S1 Mn1 87.03(4) . . ?
P1 S1 Li1 87.83(12) . 6_656 ?
Mn1 S1 Li1 97.43(17) . 6_656 ?
P1 S1 Li1 126.12(15) . 5 ?
Mn1 S1 Li1 116.38(16) . 5 ?
Li1 S1 Li1 130.90(4) 6_656 5 ?
P1 S2 Li1 122.55(18) . . ?
P1 S2 Mn1 86.54(3) . 3_556 ?
Li1 S2 Mn1 126.19(7) . 3_556 ?
P1 S2 Mn1 86.54(3) . . ?
Li1 S2 Mn1 126.19(7) . . ?
Mn1 S2 Mn1 96.68(3) 3_556 . ?
P1 S3 Li1 124.25(18) . 6_655 ?
P1 S3 Mn1 123.08(3) . 1_554 ?
Li1 S3 Mn1 93.74(12) 6_655 1_554 ?
P1 S3 Mn1 123.08(3) . 3 ?
Li1 S3 Mn1 93.74(12) 6_655 3 ?
Mn1 S3 Mn1 89.90(3) 1_554 3 ?
S2 Li1 S1 94.2(2) . 4_455 ?
S2 Li1 S1 94.2(2) . 6_556 ?
S1 Li1 S1 77.0(2) 4_455 6_556 ?
S2 Li1 S3 177.7(3) . 6 ?
S1 Li1 S3 84.0(2) 4_455 6 ?
S1 Li1 S3 84.0(2) 6_556 6 ?
S2 Li1 S1 92.9(2) . 5 ?
S1 Li1 S1 162.7(3) 4_455 5 ?
S1 Li1 S1 86.70(4) 6_556 5 ?
S3 Li1 S1 88.48(18) 6 5 ?
S2 Li1 S1 92.9(2) . 3 ?
S1 Li1 S1 86.70(4) 4_455 3 ?
S1 Li1 S1 162.7(3) 6_556 3 ?
S3 Li1 S1 88.48(18) 6 3 ?
S1 Li1 S1 108.7(3) 5 3 ?
loop_
_geom_bond_atom_site_label_1
_geom_bond_atom_site_label_2
_geom_bond_distance
_geom_bond_site_symmetry_2
_geom_bond_publ_flag
Mn1 S2 2.5613(7) . ?
Mn1 S2 2.5613(7) 5_556 ?
Mn1 S1 2.5696(8) 5_556 ?
Mn1 S1 2.5696(8) . ?
Mn1 S3 2.7087(7) 5 ?
Mn1 S3 2.7087(7) 1_556 ?
P1 S3 2.0333(13) . ?
P1 S1 2.0451(10) 7_565 ?
P1 S1 2.0451(10) . ?
P1 S2 2.0791(14) . ?
S1 Li1 2.634(6) 6_656 ?
S1 Li1 2.691(5) 5 ?
S2 Li1 2.545(8) . ?
S3 Li1 2.649(8) 6_655 ?
