#------------------------------------------------------------------------------
#$Date: 2021-12-06 11:15:30 +0200 (Mon, 06 Dec 2021) $
#$Revision: 271128 $
#$URL: file:///home/coder/svn-repositories/cod/cif/1/56/55/1565556.cif $
#------------------------------------------------------------------------------
#
# This file is available in the Crystallography Open Database (COD),
# http://www.crystallography.net/
#
# All data on this site have been placed in the public domain by the
# contributors.
#
data_1565556
loop_
_publ_author_name
'Santra, Ananyakumari'
'Brandao, Paula'
'Mondal, Gopinath'
'Bera, Pradip'
'Jana, Abhimanyu'
'Bhattacharyya, Indranil'
'Pramanik, Chandana'
'Bera, Pulakesh'
_publ_section_title
;
 Monomeric and dimeric cadmium(II) complexes of S-alkyl/aryl
 dithiocarbazate as single-source precursors for cadmium sulfide
 nanoparticles: An experimental, theoretical interpretation in the
 stability of precursor and visible light dye degradation study
;
_journal_name_full               'Inorganica Chimica Acta'
_journal_page_first              119315
_journal_paper_doi               10.1016/j.ica.2019.119315
_journal_volume                  501
_journal_year                    2020
_chemical_formula_sum            'C30 H28 Cd2 Cl2 N6 S4'
_chemical_formula_weight         896.52
_space_group_crystal_system      triclinic
_space_group_IT_number           2
_space_group_name_Hall           '-P 1'
_space_group_name_H-M_alt        'P -1'
_atom_sites_solution_hydrogens   geom
_audit_creation_method           SHELXL-2013
_cell_angle_alpha                72.562(2)
_cell_angle_beta                 74.696(2)
_cell_angle_gamma                72.819(2)
_cell_formula_units_Z            1
_cell_length_a                   9.1658(5)
_cell_length_b                   9.2721(5)
_cell_length_c                   10.7922(6)
_cell_measurement_reflns_used    435
_cell_measurement_temperature    150(2)
_cell_measurement_theta_max      25.26
_cell_measurement_theta_min      2.93
_cell_volume                     820.36(8)
_computing_structure_refinement  'SHELXL-2013 (Sheldrick, 2013)'
_diffrn_ambient_temperature      150(2)
_diffrn_measured_fraction_theta_full 0.996
_diffrn_measured_fraction_theta_max 0.996
_diffrn_measurement_device_type  CCD
_diffrn_measurement_method       'omega and phi scans'
_diffrn_radiation_type           MoK\a
_diffrn_radiation_wavelength     0.71073
_diffrn_reflns_av_R_equivalents  0.0235
_diffrn_reflns_av_unetI/netI     0.0189
_diffrn_reflns_Laue_measured_fraction_full 0.996
_diffrn_reflns_Laue_measured_fraction_max 0.996
_diffrn_reflns_limit_h_max       12
_diffrn_reflns_limit_h_min       -12
_diffrn_reflns_limit_k_max       12
_diffrn_reflns_limit_k_min       -12
_diffrn_reflns_limit_l_max       14
_diffrn_reflns_limit_l_min       -14
_diffrn_reflns_number            19905
_diffrn_reflns_point_group_measured_fraction_full 0.996
_diffrn_reflns_point_group_measured_fraction_max 0.996
_diffrn_reflns_theta_full        25.242
_diffrn_reflns_theta_max         29.210
_diffrn_reflns_theta_min         2.370
_diffrn_source                   'fine-focus sealed tube'
_exptl_absorpt_coefficient_mu    1.746
_exptl_absorpt_correction_T_max  0.7458
_exptl_absorpt_correction_T_min  0.6603
_exptl_absorpt_correction_type   multi-scan
_exptl_crystal_colour            Bronze
_exptl_crystal_density_diffrn    1.815
_exptl_crystal_description       Block
_exptl_crystal_F_000             444
_exptl_crystal_size_max          0.320
_exptl_crystal_size_mid          0.200
_exptl_crystal_size_min          0.100
_refine_diff_density_max         0.453
_refine_diff_density_min         -0.253
_refine_diff_density_rms         0.063
_refine_ls_extinction_coef       .
_refine_ls_extinction_method     none
_refine_ls_goodness_of_fit_ref   1.053
_refine_ls_hydrogen_treatment    constr
_refine_ls_matrix_type           full
_refine_ls_number_parameters     200
_refine_ls_number_reflns         4436
_refine_ls_number_restraints     0
_refine_ls_restrained_S_all      1.053
_refine_ls_R_factor_all          0.0202
_refine_ls_R_factor_gt           0.0180
_refine_ls_shift/su_max          0.001
_refine_ls_shift/su_mean         0.000
_refine_ls_structure_factor_coef Fsqd
_refine_ls_weighting_details
'w=1/[\s^2^(Fo^2^)+(0.0185P)^2^+0.4368P] where P=(Fo^2^+2Fc^2^)/3'
_refine_ls_weighting_scheme      calc
_refine_ls_wR_factor_gt          0.0433
_refine_ls_wR_factor_ref         0.0442
_reflns_Friedel_coverage         0.000
_reflns_Friedel_fraction_full    .
_reflns_Friedel_fraction_max     .
_reflns_number_gt                4126
_reflns_number_total             4436
_reflns_threshold_expression     'I > 2\s(I)'
_cod_data_source_file            ICA-2020-501-119315.cif
_cod_data_source_block           f2
_cod_database_code               1565556
_shelx_space_group_comment
;
The symmetry employed for this shelxl refinement is uniquely defined
by the following loop, which should always be used as a source of
symmetry information in preference to the above space-group names.
They are only intended as comments.
;
_shelx_estimated_absorpt_t_min   0.605
_shelx_estimated_absorpt_t_max   0.845
_shelxl_version_number           2013-4
_shelx_res_file
;
TITL f.res in P-1    d=40mm     t=10s

CELL  0.71073   9.1658   9.2721  10.7922   72.562   74.696   72.819
ZERR    1.000   0.0005   0.0005   0.0006    0.002    0.002    0.002
LATT  1
SFAC C H N S Cl CD
UNIT 30 28 6 4 2 2
TEMP -123.140
SIZE 0.10 0.20 0.32
L.S. 100
ACTA
BOND
BOND $H
LIST 6
FMAP 2
PLAN 20
omit 2 2 4
WGHT    0.018500    0.436800
FVAR       0.79918
CD    6    0.205817    0.419134    0.439302    11.00000    0.01333    0.02248 =
         0.02239   -0.00874   -0.00369   -0.00080
CL1   5   -0.027434    0.305495    0.577474    11.00000    0.01621    0.01703 =
         0.02794   -0.00255   -0.00344   -0.00300
S1    4    0.275455    0.368006    0.212553    11.00000    0.01972    0.02844 =
         0.02437   -0.01084   -0.00886    0.00148
S2    4    0.499956    0.114507    0.116927    11.00000    0.02025    0.02827 =
         0.02341   -0.01357   -0.00313   -0.00509
N1    3    0.314346    0.425339    0.610537    11.00000    0.01763    0.02106 =
         0.02010   -0.00601   -0.00269   -0.00481
N2    3    0.451323    0.253726    0.434455    11.00000    0.01583    0.01897 =
         0.01926   -0.00706   -0.00289   -0.00265
N3    3    0.514837    0.170100    0.338166    11.00000    0.01600    0.02033 =
         0.01988   -0.00909   -0.00221   -0.00200
C1    1    0.244717    0.514297    0.697058    11.00000    0.02209    0.02389 =
         0.02349   -0.00845   -0.00107   -0.00361
AFIX  43
H1    2    0.146118    0.582796    0.687230    11.00000   -1.20000
AFIX   0
C2    1    0.310259    0.510791    0.800375    11.00000    0.02864    0.02541 =
         0.02025   -0.00942    0.00059   -0.00894
AFIX  43
H2    2    0.257985    0.575855    0.859718    11.00000   -1.20000
AFIX   0
C3    1    0.453281    0.410513    0.814968    11.00000    0.02961    0.02606 =
         0.01829   -0.00469   -0.00470   -0.01122
AFIX  43
H3    2    0.500905    0.405251    0.884939    11.00000   -1.20000
AFIX   0
C4    1    0.526770    0.317231    0.725815    11.00000    0.02172    0.02256 =
         0.02136   -0.00404   -0.00618   -0.00565
AFIX  43
H4    2    0.625261    0.247817    0.734252    11.00000   -1.20000
AFIX   0
C5    1    0.454627    0.326600    0.624216    11.00000    0.01734    0.01746 =
         0.01663   -0.00304   -0.00134   -0.00691
C6    1    0.528570    0.230107    0.525654    11.00000    0.01593    0.01713 =
         0.01886   -0.00331   -0.00293   -0.00538
C7    1    0.682618    0.117441    0.535274    11.00000    0.01917    0.02445 =
         0.02522   -0.00820   -0.00812   -0.00014
AFIX 137
H7A   2    0.702635    0.047955    0.476759    11.00000   -1.50000
H7B   2    0.681384    0.055968    0.626756    11.00000   -1.50000
H7C   2    0.764776    0.174571    0.508609    11.00000   -1.50000
AFIX   0
C8    1    0.437261    0.217143    0.241944    11.00000    0.01646    0.01985 =
         0.02037   -0.00746   -0.00144   -0.00661
C9    1    0.692789   -0.001535    0.142349    11.00000    0.02037    0.02127 =
         0.03281   -0.01182   -0.00133   -0.00203
AFIX  23
H9A   2    0.685974   -0.058295    0.236574    11.00000   -1.20000
H9B   2    0.727065   -0.079801    0.088802    11.00000   -1.20000
AFIX   0
C10   1    0.813865    0.091732    0.106358    11.00000    0.01656    0.01927 =
         0.02461   -0.01086   -0.00071    0.00071
C11   1    0.902560    0.077433    0.197742    11.00000    0.02288    0.02192 =
         0.02241   -0.00543   -0.00399    0.00026
AFIX  43
H11   2    0.885149    0.009802    0.283094    11.00000   -1.20000
AFIX   0
C12   1    1.016744    0.161055    0.165767    11.00000    0.02168    0.02908 =
         0.02595   -0.01024   -0.00778   -0.00132
AFIX  43
H12   2    1.076721    0.149983    0.229078    11.00000   -1.20000
AFIX   0
C13   1    1.042788    0.260443    0.041490    11.00000    0.02029    0.02634 =
         0.02888   -0.01103   -0.00022   -0.00510
AFIX  43
H13   2    1.119340    0.318864    0.019844    11.00000   -1.20000
AFIX   0
C14   1    0.956093    0.273904   -0.051071    11.00000    0.02155    0.02574 =
         0.02173   -0.00516   -0.00016   -0.00211
AFIX  43
H14   2    0.974589    0.340575   -0.136753    11.00000   -1.20000
AFIX   0
C15   1    0.842550    0.190368   -0.018926    11.00000    0.01989    0.02699 =
         0.02264   -0.00976   -0.00425   -0.00044
AFIX  43
H15   2    0.783808    0.200470   -0.082870    11.00000   -1.20000
AFIX   0
HKLF 4

REM  f.res in P-1    d=40mm     t=10s
REM R1 =  0.0180 for    4126 Fo > 4sig(Fo)  and  0.0202 for all    4436 data
REM    200 parameters refined using      0 restraints

END

WGHT      0.0180      0.4572

REM Highest difference peak  0.453,  deepest hole -0.253,  1-sigma level  0.063
Q1    1   0.5006  0.2943  0.5628  11.00000  0.05    0.45
Q2    1  -0.0481  0.3389  0.5342  11.00000  0.05    0.38
Q3    1   0.4750  0.3500  0.7811  11.00000  0.05    0.38
Q4    1   0.9918  0.2307  0.1121  11.00000  0.05    0.38
Q5    1   0.4830  0.3213  0.6831  11.00000  0.05    0.37
Q6    1   0.0008  0.3203  0.5967  11.00000  0.05    0.37
Q7    1   0.3682  0.4316  0.8177  11.00000  0.05    0.37
Q8    1   0.3890  0.3780  0.6160  11.00000  0.05    0.37
Q9    1  -0.0163  0.2540  0.5530  11.00000  0.05    0.37
Q10   1   0.8706  0.0828  0.1452  11.00000  0.05    0.36
Q11   1  -0.0625  0.2837  0.6129  11.00000  0.05    0.34
Q12   1   1.0443  0.1853  0.0934  11.00000  0.05    0.33
Q13   1   0.8466  0.1205  0.0353  11.00000  0.05    0.33
Q14   1   0.9577  0.1237  0.1785  11.00000  0.05    0.33
Q15   1   0.5886  0.0628  0.1361  11.00000  0.05    0.32
Q16   1   0.6052  0.1773  0.5264  11.00000  0.05    0.32
Q17   1   0.7656  0.0444  0.1243  11.00000  0.05    0.31
Q18   1   0.3550  0.2954  0.2402  11.00000  0.05    0.30
Q19   1   1.0057  0.2636  0.0014  11.00000  0.05    0.29
Q20   1   0.2804  0.4907  0.7538  11.00000  0.05    0.29
;
_shelx_res_checksum              54742
_shelx_hkl_file
;
  -1   0   0  272.37    5.10
  -1   0   0  278.57    6.20
  -1   0   0  279.17    6.40
  -1   0   0  255.97    6.10
  -1   0   0  262.97    6.60
  -1   0   0  275.47    6.40
  -1   0   0  271.27    5.00
   1   0   0  273.87    5.80
   1   0   0  274.07    5.10
   1   0   0  257.97    6.00
   1   0   0  270.97    6.10
   1   0   0  283.77    5.10
  -2   0   0   29.30    2.60
  -2   0   0   29.90    1.80
  -2   0   0   22.80    2.60
  -2   0   0   26.50    1.60
  -2   0   0   28.00    1.80
  -2   0   0   34.60    2.70
  -2   0   0   26.60    3.10
  -2   0   0   28.60    3.00
   2   0   0   32.60    3.10
   2   0   0   26.40    2.50
   2   0   0   23.80    2.60
   2   0   0   30.00    1.70
   2   0   0   31.20    3.40
   2   0   0   29.70    1.80
  -3   0   0 2124.39   38.20
  -3   0   0 2123.39   39.00
  -3   0   0 2127.39   34.40
  -3   0   0 2140.29   34.20
  -3   0   0 2062.09   38.00
   3   0   0 2072.99   36.60
   3   0   0 2161.28   40.70
   3   0   0 2182.68   39.40
   3   0   0 2081.79   34.00
   3   0   0 2061.19   33.90
  -4   0   0 8533.35  132.89
  -4   0   0 8386.56  133.99
  -4   0   0 8307.77  132.59
   4   0   0 8553.94  134.69
   4   0   0 8383.06  136.29
  -5   0   0  214.18   10.40
  -5   0   0  229.58   10.70
  -5   0   0  236.68   11.30
  -5   0   0  208.28    6.90
   5   0   0  218.48    6.90
   5   0   0  232.48   12.20
   5   0   0  230.08   11.40
   5   0   0  213.98    7.00
  -6   0   0  776.82   22.90
  -6   0   0  754.22   16.40
  -6   0   0  746.13   23.70
  -6   0   0  749.53   22.90
   6   0   0  777.72   24.70
   6   0   0  768.92   16.10
   6   0   0  741.73   16.20
   6   0   0  724.03   25.40
  -7   0   0  621.34   23.10
  -7   0   0  664.63   22.50
  -7   0   0  642.94   22.30
   7   0   0  658.43   24.20
   7   0   0  658.83   25.70
   7   0   0  652.83   14.80
  -8   0   0  419.06   18.80
  -8   0   0  321.57   17.60
  -8   0   0  370.16   11.70
   8   0   0  385.76   19.50
   8   0   0  331.47   19.50
  -9   0   0   44.80    8.40
  -9   0   0   48.70    8.70
   9   0   0   55.49   10.30
   9   0   0   58.19   10.20
 -10   0   0  598.14   26.10
 -10   0   0  609.04   27.70
  10   0   0  642.84   31.10
  10   0   0  593.64   28.20
 -11   0   0   11.80    6.60
 -11   0   0   24.30    7.30
  11   0   0    9.30    5.60
  11   0   0    8.20    6.60
  11  -1   0   -2.10    5.30
  11  -1   0   11.30    6.10
 -11   1   0    3.90    4.40
  10  -1   0   98.09   14.60
  10  -1   0  110.79   15.10
 -10   1   0  109.99   14.20
   9  -1   0 1216.68   42.40
   9  -1   0 1186.28   39.70
  -9   1   0 1227.58   39.10
  -9   1   0 1170.78   37.40
   8  -1   0   34.70    7.60
   8  -1   0   47.90    9.70
   8  -1   0   44.70    7.50
  -8   1   0   53.09    8.80
  -8   1   0   36.60    7.00
   7  -1   0   64.09    9.60
   7  -1   0   84.89   10.70
   7  -1   0   72.59    4.60
   7  -1   0   79.39    5.80
  -7   1   0   67.39    8.90
  -7   1   0   85.99   10.40
  -7   1   0   73.09    4.00
  -7   1   0   66.59    8.10
   6  -1   0  160.28    6.80
   6  -1   0  151.38   10.60
   6  -1   0  159.58   11.60
   6  -1   0  157.88    7.70
  -6   1   0  169.28   10.80
  -6   1   0  173.88    9.90
  -6   1   0  157.38    5.50
   5  -1   0 1178.98   23.30
   5  -1   0 1178.28   25.00
   5  -1   0 1181.48   30.40
   5  -1   0 1147.49   31.50
  -5   1   0 1139.69   29.50
  -5   1   0 1162.28   29.30
  -5   1   0 1173.08   27.40
   4  -1   0 3356.26   63.29
   4  -1   0 3359.46   54.99
   4  -1   0 3514.05   62.49
   4  -1   0 3366.06   56.79
  -4   1   0 3414.16   57.49
  -4   1   0 3320.67   56.69
  -4   1   0 3425.16   61.39
  -4   1   0 3331.17   58.49
  -4   1   0 3396.06   61.09
   3  -1   0  275.27    8.80
   3  -1   0  283.27    9.10
   3  -1   0  289.67   10.70
   3  -1   0  299.17   11.30
   3  -1   0  290.47    8.80
   3  -1   0  272.77    7.80
  -3   1   0  281.77    8.90
  -3   1   0  291.47    9.20
  -3   1   0  296.87   10.50
  -3   1   0  276.37    8.70
   2  -1   0 3184.08   54.09
   2  -1   0 3167.58   50.79
   2  -1   0 3334.97   54.09
   2  -1   0 3304.37   51.09
   2  -1   0 3188.88   51.99
   2  -1   0 3148.89   53.89
  -2   1   0 3171.68   50.89
  -2   1   0 3269.27   51.09
  -2   1   0 3137.49   53.69
  -2   1   0 3170.18   51.89
   1  -1   0  217.08    3.80
   1  -1   0  202.28    6.20
   1  -1   0  223.38    4.90
   1  -1   0  208.08    6.50
   1  -1   0  221.68    5.60
  -1   1   0  222.58    5.00
  -1   1   0  218.08    5.60
  -1   1   0  208.58    6.20
  -1   1   0  215.98    3.80
  -1  -1   0 3023.80   47.30
   2   1   0 7486.05  114.39
  -3  -1   0 1720.93   31.30
  -3  -1   0 1708.03   33.30
  -3  -1   0 1739.13   29.00
  -3  -1   0 1776.02   28.70
  -3  -1   0 1749.62   33.30
   3   1   0 1739.13   28.70
   3   1   0 1745.23   34.40
   3   1   0 1683.23   33.50
   3   1   0 1701.23   31.20
  -4  -1   0    5.40    2.10
  -4  -1   0    5.90    1.40
  -4  -1   0    4.70    1.20
  -4  -1   0    8.30    2.90
  -4  -1   0    0.60    1.60
   4   1   0    1.30    1.60
   4   1   0    4.50    1.20
   4   1   0    3.80    2.00
  -5  -1   0 3698.93   66.49
  -5  -1   0 3544.85   66.69
  -5  -1   0 3662.93   57.69
  -5  -1   0 3570.64   57.89
  -5  -1   0 3669.73   64.39
   5   1   0 3683.63   67.69
   5   1   0 3598.24   69.19
  -6  -1   0  125.39    9.10
  -6  -1   0  139.79    8.80
  -6  -1   0  114.19    8.50
  -6  -1   0  130.39    5.20
   6   1   0  128.09   10.20
   6   1   0  128.59    9.40
  -7  -1   0  403.36   16.60
  -7  -1   0  438.86   18.70
   7   1   0  405.06   19.60
   7   1   0  405.86   18.50
  -8  -1   0 1197.98   27.60
  -8  -1   0 1174.28   33.40
  -8  -1   0 1243.88   36.60
   8   1   0 1237.58   39.10
   8   1   0 1178.38   36.60
  -9  -1   0    5.80    2.60
  -9  -1   0   10.40    4.90
  -9  -1   0   10.70    4.90
   9   1   0    0.90    2.80
   9   1   0   -2.30    3.30
 -10  -1   0  106.49   12.50
 -10  -1   0   72.09   11.70
  10   1   0   89.49   13.20
  10   1   0  106.99   15.10
 -11  -1   0   40.60    9.50
 -11  -1   0   28.80    7.30
  11   1   0   44.90   10.70
  11   1   0   44.70   11.50
  11  -2   0  365.06   24.30
  11  -2   0  345.67   25.90
 -11   2   0  350.76   22.80
  10  -2   0  704.93   34.00
  10  -2   0  675.23   31.60
 -10   2   0  719.53   30.70
   9  -2   0 1189.18   40.80
   9  -2   0 1202.18   43.10
  -9   2   0 1179.78   38.90
   8  -2   0  130.79   15.10
   8  -2   0  148.19   12.80
   8  -2   0  162.78    9.60
  -8   2   0  160.98   15.80
   7  -2   0  707.53   27.00
   7  -2   0  747.53   21.50
   7  -2   0  757.42   29.10
   7  -2   0  746.43   18.90
  -7   2   0  739.33   26.60
  -7   2   0  731.03   22.80
   6  -2   0  161.48   11.40
   6  -2   0  143.29    8.50
   6  -2   0  151.48    7.60
   6  -2   0  158.48   11.90
  -6   2   0  147.79   10.70
  -6   2   0  154.18    9.10
  -6   2   0  144.19    8.60
   5  -2   0   14.30    4.00
   5  -2   0    4.40    2.30
   5  -2   0    7.60    2.40
   5  -2   0   11.10    3.50
  -5   2   0    7.90    2.60
  -5   2   0    5.80    2.30
  -5   2   0    7.30    3.10
   4  -2   0 1120.09   29.00
   4  -2   0 1114.19   28.70
   4  -2   0 1101.59   25.40
  -4   2   0 1109.39   24.10
  -4   2   0 1053.09   23.60
   3  -2   0 1162.58   25.50
   3  -2   0 1141.09   27.30
   3  -2   0 1156.08   27.60
   3  -2   0 1147.29   22.60
  -3   2   0 1120.49   23.30
  -3   2   0 1170.08   22.70
   0  -2   0   11.80    2.00
   0  -2   0   18.20    2.60
   0   2   0   13.90    2.30
   0   2   0   15.80    2.40
  -2  -2   0 7994.20  123.99
  -3  -2   0 4256.47   71.19
  -3  -2   0 4366.46   71.89
  -3  -2   0 4243.48   67.79
   3   2   0 4237.28   67.79
   3   2   0 4196.98   71.69
   3   2   0 4201.68   66.89
   3   2   0 4341.97   72.39
  -4  -2   0 2910.11   53.19
  -4  -2   0 2825.42   49.00
  -4  -2   0 2797.42   46.10
  -4  -2   0 2799.92   47.40
   4   2   0 2824.72   46.60
   4   2   0 2773.82   53.29
   4   2   0 2786.62   53.49
  -5  -2   0  103.09    6.50
  -5  -2   0  103.19    5.20
  -5  -2   0  101.49    7.60
  -5  -2   0  108.59    7.70
   5   2   0   96.59    7.50
   5   2   0   97.49    4.90
   5   2   0   96.79    8.00
  -6  -2   0   39.70    5.30
  -6  -2   0   48.20    7.10
  -6  -2   0   50.19    3.90
   6   2   0   53.19    3.80
   6   2   0   45.40    7.00
   6   2   0   46.00    7.10
  -7  -2   0  177.48   12.00
  -7  -2   0  162.58    8.00
  -7  -2   0  199.88   10.80
   7   2   0  197.68   12.80
   7   2   0  178.68   12.80
  -8  -2   0 1293.17   33.90
  -8  -2   0 1308.47   38.00
   8   2   0 1288.97   40.00
   8   2   0 1265.47   38.40
  -9  -2   0  289.47   13.00
  -9  -2   0  271.37   15.10
  -9  -2   0  279.27   17.20
   9   2   0  269.47   17.60
   9   2   0  283.37   18.90
 -10  -2   0  335.17   16.00
 -10  -2   0  339.37   18.00
 -10  -2   0  321.27   20.00
  10   2   0  313.77   21.40
  10   2   0  346.57   21.10
 -11  -2   0  159.28   15.90
 -11  -2   0  129.19   16.40
  11   2   0  163.38   18.80
  11   2   0  166.78   20.30
 -12  -2   0    6.60    4.90
 -12  -2   0    3.00    4.70
  12   2   0    2.60    6.10
  12   2   0    0.10    5.40
  10  -3   0   15.80    6.50
  10  -3   0   -1.80    4.50
 -10   3   0   -6.30    3.70
   9  -3   0  178.48   15.60
   9  -3   0  204.78   17.80
  -9   3   0  140.99   15.70
   8  -3   0  247.98   18.20
   8  -3   0  269.77   14.00
   8  -3   0  280.07   18.20
  -8   3   0  260.17   16.90
   7  -3   0  834.42   22.30
   7  -3   0  821.52   25.20
   7  -3   0  740.93   30.00
   7  -3   0  757.62   29.40
  -7   3   0  839.02   29.60
  -7   3   0  817.32   23.90
   6  -3   0  598.14   24.00
   6  -3   0  556.14   19.80
   6  -3   0  586.14   17.90
   6  -3   0  592.84   24.30
  -6   3   0  579.14   22.70
  -6   3   0  582.24   17.90
  -6   3   0  600.64   18.60
   5  -3   0  279.77   13.00
   5  -3   0  271.97   14.70
   5  -3   0  276.37   14.90
  -5   3   0  293.67   11.70
  -5   3   0  290.37   10.90
   4  -3   0  547.55   19.60
   4  -3   0  482.05   15.20
   4  -3   0  537.45   19.60
   4  -3   0  541.15   17.70
  -4   3   0  526.05   14.10
  -4   3   0  515.55   15.30
  -4   3   0  498.05   18.90
   3  -3   0  201.68   10.90
   3  -3   0  201.68    6.80
   3  -3   0  201.88   10.00
  -3   3   0  196.78   10.30
  -3   3   0  209.08    8.50
  -3   3   0  202.18    6.90
   2  -3   0  638.44   18.50
   2  -3   0  647.14   12.60
   2  -3   0  653.73   12.10
  -2   3   0  663.83   18.50
  -2   3   0  657.73   12.90
  -2   3   0  645.04   16.10
  -1   3   0 6411.06  102.39
   0  -3   0    9.80    2.50
   0  -3   0    8.90    2.40
   0  -3   0   10.50    2.40
   0   3   0    3.40    2.00
  -1  -3   0 1631.34   29.40
  -1  -3   0 1611.44   30.60
  -1  -3   0 1619.34   31.10
   1   3   0 1627.74   29.80
   1   3   0 1559.94   30.60
   1   3   0 1588.84   28.50
   1   3   0 1553.04   30.50
  -2  -3   0  268.27    9.00
   2   3   0  281.57    8.90
   2   3   0  283.27   10.00
   2   3   0  299.37    9.30
  -3  -3   0 5743.43   96.29
   3   3   0 5967.50   93.79
   3   3   0 5840.42   92.19
   3   3   0 5901.51   95.59
   3   3   0 5801.92   90.19
  -4  -3   0 1290.47   30.60
  -4  -3   0 1285.07   26.00
  -4  -3   0 1251.37   22.30
   4   3   0 1295.27   30.20
   4   3   0 1275.27   25.60
   4   3   0 1292.47   22.50
   4   3   0 1219.98   30.60
  -5  -3   0  169.08   10.10
  -5  -3   0  178.08    8.30
   5   3   0  158.08   10.00
   5   3   0  168.38    7.30
   5   3   0  163.08   10.20
  -6  -3   0 2421.56   51.89
  -6  -3   0 2321.87   46.10
   6   3   0 2370.26   52.79
   6   3   0 2348.76   42.70
   6   3   0 2424.56   53.19
  -7  -3   0   11.60    4.40
  -7  -3   0    4.40    2.80
   7   3   0   10.70    2.50
   7   3   0    5.30    3.80
   7   3   0    4.30    3.20
  -8  -3   0  122.49    9.40
  -8  -3   0  139.99   14.30
   8   3   0  112.99   13.20
   8   3   0  141.29   12.00
  -9  -3   0  119.59    9.90
  -9  -3   0  104.99   12.70
  -9  -3   0  131.89    9.70
   9   3   0  157.78   16.90
   9   3   0  136.09   12.50
 -10  -3   0  170.78   11.20
 -10  -3   0  163.28   12.30
 -10  -3   0  172.58   14.70
  10   3   0  158.08   17.80
  10   3   0  196.38   16.10
 -11  -3   0  353.16   19.40
 -11  -3   0  326.37   21.80
  11   3   0  375.46   23.90
  11   3   0  429.16   26.20
 -12  -3   0  173.88   17.20
 -12  -3   0  154.98   18.40
  12   3   0  169.08   20.70
  12   3   0  151.38   20.70
  10  -4   0 1111.69   44.20
  10  -4   0 1046.00   44.50
 -10   4   0 1134.09   42.90
   9  -4   0  387.66   25.00
   9  -4   0  370.16   23.40
  -9   4   0  372.26   22.70
   8  -4   0   83.89   10.30
   8  -4   0   90.49   13.20
   8  -4   0  111.89   15.10
  -8   4   0   82.39   12.60
   7  -4   0   26.30    6.90
   7  -4   0   45.10    7.70
   7  -4   0   38.00    6.20
   7  -4   0   38.40    8.30
  -7   4   0   29.70    7.30
  -7   4   0   33.70    5.90
   6  -4   0 2216.08   50.29
   6  -4   0 2176.88   46.20
   6  -4   0 2199.78   55.49
   6  -4   0 2217.38   55.39
  -6   4   0 2204.68   45.60
  -6   4   0 2147.79   53.39
  -6   4   0 2179.18   42.60
   5  -4   0  192.68   12.00
   5  -4   0  180.58   12.90
   5  -4   0  234.08   14.20
  -5   4   0  208.68   10.30
  -5   4   0  193.58    8.40
  -5   4   0  191.68   13.00
   4  -4   0    2.50    2.70
   4  -4   0    2.50    1.50
   4  -4   0    2.80    2.50
   4  -4   0    2.10    2.50
  -4   4   0   -1.60    2.20
  -4   4   0    0.20    1.80
  -4   4   0    3.80    1.60
   3  -4   0 1449.55   35.80
   3  -4   0 1552.04   24.70
   3  -4   0 1556.14   38.70
   3  -4   0 1494.95   26.40
  -3   4   0 1561.54   32.20
  -3   4   0 1466.15   35.90
  -3   4   0 1508.65   26.80
   2  -4   0   15.70    3.70
   2  -4   0   14.50    2.00
  -2   4   0   18.90    2.00
  -2   4   0   16.00    3.90
  -2   4   0   15.90    3.20
   1  -4   0 1505.45   27.70
   1  -4   0 1563.34   34.70
  -1   4   0 1520.65   25.70
  -1   4   0 1550.64   33.10
   0  -4   0 1310.67   30.10
   0  -4   0 1337.87   26.20
   0   4   0 1359.76   28.90
  -1  -4   0 3563.34   62.19
   1   4   0 3533.45   60.19
   1   4   0 3435.16   57.39
  -2  -4   0 2791.42   50.19
   2   4   0 2829.72   49.40
   2   4   0 2740.23   50.89
  -3  -4   0  343.27   11.30
   3   4   0  346.47   13.00
   3   4   0  341.17   11.70
   3   4   0  334.57   11.70
  -4  -4   0 1857.41   34.30
   4   4   0 1875.21   34.10
   4   4   0 1856.71   40.00
   4   4   0 1887.31   36.60
  -5  -4   0  295.47    8.50
   5   4   0  298.47   11.10
   5   4   0  307.27   14.90
  -6  -4   0 1189.58   33.50
   6   4   0 1203.88   26.80
   6   4   0 1204.28   34.60
   6   4   0 1197.08   33.40
  -7  -4   0 1778.62   45.50
  -7  -4   0 1799.42   39.20
   7   4   0 1842.82   47.30
   7   4   0 1783.72   36.10
   7   4   0 1832.22   46.60
  -8  -4   0  340.87   15.10
  -8  -4   0  324.77   18.30
   8   4   0  349.47   19.30
   8   4   0  351.26   19.20
   8   4   0  342.47   12.10
  -9  -4   0  106.49   11.20
  -9  -4   0  104.69   10.70
  -9  -4   0   96.99   12.60
   9   4   0   98.49   13.20
   9   4   0  109.99   14.10
 -10  -4   0    8.30    4.00
 -10  -4   0    6.30    4.10
 -10  -4   0    2.90    4.20
  10   4   0    5.40    4.60
  10   4   0    3.30    4.90
 -11  -4   0  563.14   22.30
 -11  -4   0  483.75   26.60
 -11  -4   0  527.05   23.10
  11   4   0  600.14   30.80
  11   4   0  598.54   30.30
 -12  -4   0  136.29   18.10
  12   4   0  123.19   18.30
  12   4   0  158.38   20.80
   9  -5   0   -2.30    5.00
   9  -5   0    2.50    5.10
  -9   5   0    2.60    5.10
   8  -5   0  884.21   31.30
   8  -5   0  907.71   37.60
   8  -5   0  985.40   38.90
  -8   5   0  909.41   36.00
   7  -5   0    7.20    4.30
   7  -5   0    6.30    5.00
   7  -5   0   14.30    5.60
  -7   5   0   24.80    5.50
  -7   5   0   19.90    6.50
   6  -5   0  122.59   14.10
   6  -5   0  137.19   11.40
   6  -5   0  121.49   14.60
  -6   5   0  118.89    8.80
   5  -5   0  478.05   21.90
   5  -5   0  454.65   22.40
   5  -5   0  493.25   21.10
  -5   5   0  499.95   22.10
  -5   5   0  460.05   16.90
   4  -5   0  532.75   21.30
   4  -5   0  575.74   24.10
  -4   5   0  536.95   12.50
  -4   5   0  539.65   21.90
  -4   5   0  543.15   17.90
   3  -5   0  875.21   27.50
   3  -5   0  863.61   29.00
   3  -5   0  846.62   16.40
  -3   5   0  860.51   16.10
  -3   5   0  866.01   26.60
  -3   5   0  825.52   22.90
   2  -5   0 1844.42   32.70
   2  -5   0 1857.11   43.40
  -2   5   0 1821.72   38.60
  -2   5   0 1935.91   42.10
  -2   5   0 1810.02   30.00
   1  -5   0  182.68    7.40
   1  -5   0  193.18   11.20
  -1   5   0  178.48    5.70
  -1   5   0  191.58   10.40
   0  -5   0  311.57   10.60
   0   5   0  296.77   12.50
  -1  -5   0  397.06   15.30
   1   5   0  415.86   14.20
  -2  -5   0 4300.17   75.69
   2   5   0 4296.07   73.69
   2   5   0 4277.07   75.69
  -3  -5   0  571.94   17.40
   3   5   0  586.74   18.90
   3   5   0  555.64   16.90
  -4  -5   0  695.03   22.80
  -4  -5   0  679.43   18.50
   4   5   0  685.03   19.80
   4   5   0  674.63   19.40
   4   5   0  692.83   21.80
  -5  -5   0  726.63   18.00
   5   5   0  725.53   23.80
   5   5   0  746.03   20.90
   5   5   0  740.83   22.00
  -6  -5   0  982.30   20.10
  -6  -5   0  975.60   30.60
   6   5   0  968.20   25.00
   6   5   0  959.60   29.70
  -7  -5   0  774.42   28.10
   7   5   0  766.62   28.40
   7   5   0  692.63   26.60
   7   5   0  747.03   21.10
  -8  -5   0   13.50    5.00
   8   5   0   24.40    4.50
   8   5   0   23.00    6.80
   8   5   0   23.30    6.50
  -9  -5   0  722.83   30.10
  -9  -5   0  663.43   24.70
   9   5   0  700.73   29.80
   9   5   0  670.23   29.90
 -10  -5   0    0.40    3.40
 -10  -5   0    1.60    4.00
  10   5   0    0.20    4.60
  10   5   0    0.60    4.20
 -11  -5   0    8.30    5.50
 -11  -5   0    1.90    3.40
  11   5   0    3.90    5.90
  11   5   0    1.00    4.40
   8  -6   0  839.92   37.30
   8  -6   0  858.71   32.80
   8  -6   0  842.52   38.00
  -8   6   0  858.71   36.50
   7  -6   0  856.41   36.80
   7  -6   0  910.41   33.60
   7  -6   0  936.11   37.10
  -7   6   0  902.61   35.40
   6  -6   0   11.40    5.20
   6  -6   0    8.40    5.50
   6  -6   0    2.80    4.20
  -6   6   0    7.10    3.50
   5  -6   0  159.78   13.10
   5  -6   0  142.69   15.10
   5  -6   0  121.39   14.50
  -5   6   0  113.29   13.00
  -5   6   0  125.59    9.10
   4  -6   0   55.79    8.80
   4  -6   0   50.89    9.10
  -4   6   0   59.59    7.50
  -4   6   0   73.69   10.50
   3  -6   0  951.80   19.00
   3  -6   0  946.71   30.70
   3  -6   0  920.31   32.20
  -3   6   0  890.51   25.40
  -3   6   0  911.31   29.20
   2  -6   0  425.26   19.40
   2  -6   0  419.46   12.10
  -2   6   0  431.06   18.10
  -2   6   0  428.36   16.40
   1  -6   0   56.69    5.60
   1  -6   0   63.59    8.60
  -1   6   0   51.69    3.40
  -1   6   0   54.29    7.20
   0  -6   0 1294.37   34.80
   0  -6   0 1303.97   28.70
   0   6   0 1324.97   32.10
   0   6   0 1297.27   25.10
  -1  -6   0  213.38   10.20
  -1  -6   0  206.08   12.00
   1   6   0  234.68   11.70
  -2  -6   0 1157.38   31.00
   2   6   0 1231.68   29.50
  -3  -6   0 1597.44   36.80
   3   6   0 1563.24   37.60
   3   6   0 1598.74   35.50
  -4  -6   0  519.25   17.60
   4   6   0  551.04   18.60
   4   6   0  522.65   19.80
   4   6   0  539.65   18.00
  -5  -6   0 1953.80   39.70
  -5  -6   0 1975.40   48.00
   5   6   0 1929.11   42.10
   5   6   0 1923.51   42.70
   5   6   0 1913.31   45.50
  -6  -6   0   -0.30    1.60
  -6  -6   0    3.50    3.20
   6   6   0    0.60    2.30
   6   6   0    2.00    2.30
   6   6   0    3.80    4.30
  -7  -6   0  768.02   29.40
   7   6   0  744.93   28.00
   7   6   0  750.22   23.10
   7   6   0  823.82   26.70
  -8  -6   0   31.40    7.50
   8   6   0   44.80    6.40
   8   6   0   42.80    8.80
  -9  -6   0  379.96   19.50
  -9  -6   0  405.16   22.70
   9   6   0  442.26   23.80
 -10  -6   0  443.46   21.30
 -10  -6   0  468.55   25.90
  10   6   0  460.15   25.50
 -11  -6   0    5.50    4.20
 -11  -6   0    2.30    4.90
  11   6   0   -0.70    5.90
   8  -7   0  134.19   19.10
   7  -7   0  733.03   35.80
   7  -7   0  749.03   34.20
   7  -7   0  758.22   32.40
  -7   7   0  781.52   34.50
   6  -7   0   23.50    7.40
   6  -7   0   24.40    7.80
   6  -7   0   25.20    7.70
   5  -7   0  193.08   15.50
   5  -7   0  200.18   15.70
   5  -7   0  152.18   17.90
  -5   7   0  192.88   15.50
  -5   7   0  200.38   12.20
   4  -7   0  434.36   22.50
   4  -7   0  476.65   25.20
  -4   7   0  448.36   18.30
  -4   7   0  449.76   22.00
   3  -7   0   23.30    6.20
   3  -7   0   34.10    8.40
  -3   7   0   28.40    6.60
  -3   7   0   24.70    5.20
   2  -7   0  148.19   12.40
   2  -7   0  128.19    6.90
  -2   7   0  140.89   11.40
  -2   7   0  132.79    9.80
   1  -7   0   20.40    6.00
   1  -7   0   25.20    4.20
  -1   7   0   19.30    5.50
  -1   7   0   26.00    2.80
   0  -7   0  972.60   31.40
   0  -7   0 1025.40   25.40
   0   7   0  975.80   20.80
   0   7   0  997.20   28.50
  -1  -7   0 1164.18   33.90
  -1  -7   0 1187.58   29.10
   1   7   0 1146.89   30.70
  -2  -7   0    1.90    2.30
  -2  -7   0   -2.00    2.70
   2   7   0   10.00    4.10
  -3  -7   0  337.77   15.90
   3   7   0  337.67   16.40
   3   7   0  356.46   15.50
  -4  -7   0   85.69    9.10
   4   7   0  101.09    8.50
   4   7   0  102.69   10.90
   4   7   0  105.29   10.60
  -5  -7   0 1942.61   49.80
  -5  -7   0 1972.30   42.80
   5   7   0 1973.10   44.90
   5   7   0 1910.91   44.10
   5   7   0 1959.80   47.80
  -6  -7   0  729.93   21.20
  -6  -7   0  743.63   28.70
   6   7   0  697.43   24.10
   6   7   0  695.23   23.50
   6   7   0  740.23   27.30
  -7  -7   0  270.47   17.70
   7   7   0  249.88   16.50
   7   7   0  272.57   15.20
   7   7   0  282.77   14.10
  -8  -7   0  171.28   13.20
  -8  -7   0  140.79   16.10
   8   7   0  152.38   10.60
   8   7   0  166.48   14.80
   8   7   0  134.09   11.60
  -9  -7   0  220.58   15.40
  -9  -7   0  158.18   17.70
   9   7   0  199.08   14.60
   9   7   0  204.78   17.10
 -10  -7   0  435.96   25.80
 -10  -7   0  405.26   21.60
  10   7   0  439.96   25.70
  10   7   0  460.65   23.60
 -11  -7   0    2.90    6.00
 -11  -7   0    2.90    4.20
  11   7   0    9.60    5.70
  11   7   0   -6.30    4.80
   6  -8   0   99.79   15.20
   6  -8   0  109.09   15.70
   6  -8   0   96.39   15.60
   5  -8   0  688.53   31.20
   5  -8   0  652.83   33.20
   5  -8   0  657.93   30.30
  -5   8   0  722.13   30.70
  -5   8   0  643.74   35.50
   4  -8   0  305.97   21.80
   4  -8   0  316.97   20.40
  -4   8   0  269.07   15.00
  -4   8   0  287.77   18.60
   3  -8   0   28.90    8.20
   3  -8   0   37.50    9.10
  -3   8   0   51.29    8.20
  -3   8   0   23.60    6.40
   2  -8   0  177.88   14.50
   2  -8   0  190.18    9.20
  -2   8   0  175.88   13.30
  -2   8   0  179.68   12.20
   1  -8   0   15.30    5.60
   1  -8   0   20.40    4.10
  -1   8   0   30.20    6.50
   0  -8   0  120.59   13.20
   0  -8   0  130.59    8.70
   0   8   0  148.49   11.50
  -1  -8   0 2033.40   44.40
  -1  -8   0 2010.10   51.19
   1   8   0 2050.79   47.10
  -2  -8   0  103.29   12.20
  -2  -8   0   92.79    9.40
   2   8   0  104.79   10.70
  -3  -8   0  593.04   21.80
  -3  -8   0  649.14   24.20
   3   8   0  626.74   22.30
  -4  -8   0  410.16   18.40
  -4  -8   0  374.16   17.70
   4   8   0  373.46   17.00
   4   8   0  397.46   18.00
   4   8   0  365.56   18.50
  -5  -8   0  816.42   27.90
  -5  -8   0  814.72   26.20
   5   8   0  840.42   27.50
   5   8   0  800.22   26.20
   5   8   0  786.02   28.80
  -6  -8   0  411.56   22.40
  -6  -8   0  470.25   18.10
  -6  -8   0  425.16   20.20
   6   8   0  447.56   19.40
   6   8   0  420.96   21.30
   6   8   0  422.96   18.90
  -7  -8   0    0.30    3.50
  -7  -8   0   12.00    5.50
   7   8   0    2.80    3.20
   7   8   0    0.30    2.90
   7   8   0   -3.10    3.20
  -8  -8   0  677.03   27.60
  -8  -8   0  659.83   30.70
   8   8   0  693.93   26.90
   8   8   0  658.83   24.60
   8   8   0  698.63   30.10
  -9  -8   0    3.40    4.30
  -9  -8   0    1.60    4.50
   9   8   0   -3.50    4.10
   9   8   0    2.30    3.90
 -10  -8   0   81.59   12.10
 -10  -8   0  105.19   16.50
  10   8   0   95.19   14.90
  10   8   0   66.49   11.60
   5  -9   0    7.40    6.80
   5  -9   0    8.10    6.60
   5  -9   0    5.50    5.00
  -5   9   0   -0.50    4.40
   4  -9   0  566.34   31.70
   4  -9   0  523.55   28.10
  -4   9   0  539.05   26.40
  -4   9   0  487.85   25.00
   3  -9   0   43.30   10.20
   3  -9   0   39.60   10.50
  -3   9   0   42.90    8.30
  -3   9   0   37.00    8.20
   2  -9   0    1.90    4.00
  -2   9   0    6.20    4.30
  -2   9   0    2.10    3.80
   1  -9   0  641.44   29.00
   1  -9   0  663.33   20.70
  -1   9   0  736.73   27.00
   0  -9   0   70.39    8.20
   0  -9   0   51.09    9.90
   0   9   0   63.99    9.30
  -1  -9   0    8.00    3.50
  -1  -9   0   10.70    5.60
   1   9   0    1.70    3.90
  -2  -9   0   65.19   10.70
  -2  -9   0   47.60    7.40
   2   9   0   54.29    8.70
  -3  -9   0  960.90   32.80
  -3  -9   0  868.31   28.60
   3   9   0  957.00   30.10
  -4  -9   0  431.66   19.90
  -4  -9   0  450.85   21.10
   4   9   0  446.96   20.10
   4   9   0  431.06   20.30
  -5  -9   0   59.69    9.10
  -5  -9   0   60.69    9.40
   5   9   0   65.69   10.90
   5   9   0   85.89   10.60
   5   9   0   54.79    8.90
  -6  -9   0  505.85   23.00
  -6  -9   0  490.45   20.60
  -6  -9   0  426.96   24.00
   6   9   0  475.65   21.40
   6   9   0  479.15   21.30
   6   9   0  480.85   23.60
  -7  -9   0   23.60    6.30
  -7  -9   0   22.90    7.80
   7   9   0   23.00    6.80
   7   9   0   31.20    8.50
   7   9   0   24.10    6.20
  -8  -9   0  660.93   28.70
  -8  -9   0  663.03   32.20
   8   9   0  704.63   27.90
   8   9   0  691.13   26.80
   8   9   0  685.13   30.90
  -9  -9   0  288.37   21.80
  -9  -9   0  254.27   18.20
   9   9   0  303.17   18.80
   9   9   0  279.97   21.10
 -10  -9   0   94.09   15.40
 -10  -9   0  118.29   14.60
  10   9   0  106.39   15.80
  10   9   0  120.99   15.30
   4 -10   0  120.89   17.80
   4 -10   0  140.09   20.00
  -4  10   0  151.78   17.50
   3 -10   0  126.09   17.90
   3 -10   0  149.09   20.40
  -3  10   0  107.29   14.60
  -3  10   0   96.59   13.20
   2 -10   0   57.09   11.80
  -2  10   0   79.99   11.60
  -2  10   0   70.39   10.70
   1 -10   0  409.46   25.00
  -1  10   0  432.36   21.40
  -1  10   0  414.86   21.30
   0 -10   0  319.67   21.60
   0 -10   0  341.47   15.90
   0  10   0  333.77   18.50
  -1 -10   0  176.48   12.00
  -1 -10   0  168.08   18.20
   1  10   0  203.78   14.60
  -2 -10   0  128.19   12.70
  -2 -10   0  129.19   15.60
   2  10   0  123.49   13.00
  -3 -10   0    4.70    4.10
  -3 -10   0   11.00    6.10
   3  10   0    7.10    5.00
  -4 -10   0  821.52   31.40
  -4 -10   0  813.22   29.30
   4  10   0  769.22   30.00
   4  10   0  809.62   28.90
  -5 -10   0   39.20    8.10
  -5 -10   0   46.30    8.70
   5  10   0   36.30    8.30
   5  10   0   42.40    8.90
  -6 -10   0   36.60    7.80
  -6 -10   0   24.00    6.90
  -6 -10   0   26.50    8.00
   6  10   0   29.70    7.80
   6  10   0   23.50    7.40
   6  10   0   16.40    5.90
  -7 -10   0  152.18   19.00
  -7 -10   0  113.79   13.80
   7  10   0  136.99   15.20
   7  10   0  127.19   14.50
   7  10   0  131.79   16.40
  -8 -10   0  145.59   19.10
  -8 -10   0  134.09   15.50
   8  10   0  177.68   19.00
   8  10   0  164.28   16.50
  -9 -10   0  288.47   19.80
  -9 -10   0  303.57   23.20
   9  10   0  302.37   22.10
   2 -11   0   13.00    6.80
   1 -11   0  147.89   19.60
  -1  11   0  149.88   16.20
   0 -11   0  198.38   21.80
  -1 -11   0  163.78   18.80
  -1 -11   0  177.18   12.80
  -2 -11   0   43.20    8.00
  -2 -11   0   41.10    9.90
  -3 -11   0   25.70    6.40
  -3 -11   0   13.50    6.60
   3  11   0   27.60    7.50
  -4 -11   0  144.19   15.10
  -4 -11   0  146.59   16.70
   4  11   0  182.08   18.30
  -5 -11   0   61.69   11.20
  -5 -11   0   83.59   12.30
   5  11   0   61.89   11.00
  -6 -11   0   61.69   10.30
  -6 -11   0   89.49   14.90
   6  11   0  100.89   13.60
  -7 -11   0  485.55   28.90
  -7 -11   0  472.65   25.10
   7  11   0  430.56   23.20
   7  11   0  427.26   25.40
  -2 -12   0  118.39   17.30
  -2 -12   0  149.69   15.90
   2  12   0  128.59   16.70
  -3 -12   0   94.99   15.60
  -3 -12   0  117.19   14.30
   3  12   0   86.19   13.70
  -4 -12   0   -1.20    4.90
  -4 -12   0    0.80    3.80
   4  12   0    8.80    5.80
   6  11  -1  103.59   13.90
  -6 -11   1  112.49   17.30
  -6 -11   1  129.49   16.20
   5  11  -1    0.20    4.00
  -5 -11   1    2.60    4.50
  -5 -11   1    2.60    4.10
   4  11  -1  354.96   21.60
  -4 -11   1  345.57   22.00
  -4 -11   1  395.76   21.10
   3  11  -1    4.70    5.10
  -3 -11   1   11.20    4.70
  -3 -11   1    5.30    5.60
   2  11  -1  215.88   17.50
  -2 -11   1  205.18   14.60
  -2 -11   1  212.38   18.50
   1  11  -1  133.69   16.00
  -1 -11   1  185.18   13.30
  -1 -11   1  174.98   20.10
   0 -11   1  324.37   23.40
  -1  11  -1  130.09   15.60
   1 -11   1  149.69   19.90
   8  10  -1  138.39   18.20
   8  10  -1  142.99   16.40
  -8 -10   1  151.68   20.30
  -8 -10   1  150.98   16.60
   7  10  -1   18.30    7.90
   7  10  -1   12.90    5.80
  -7 -10   1    2.80    4.80
  -7 -10   1    3.20    5.00
   6  10  -1  390.46   23.60
   6  10  -1  411.86   22.00
  -6 -10   1  410.06   22.10
  -6 -10   1  425.96   25.70
   5  10  -1    5.90    4.40
  -5 -10   1   -3.90    3.60
  -5 -10   1   -1.00    3.90
   4  10  -1  537.45   25.40
  -4 -10   1  613.44   25.40
  -4 -10   1  549.35   25.70
   3  10  -1  583.84   26.50
  -3 -10   1  664.93   25.80
  -3 -10   1  645.04   28.60
   2  10  -1  108.39   13.60
  -2 -10   1   83.79   10.30
  -2 -10   1   95.49   14.00
  -1 -10   1   -2.60    3.80
  -1 -10   1   -0.60    2.70
   0 -10   1  139.09   17.60
   0 -10   1  123.09   12.00
  -1  10  -1  434.26   22.50
   1 -10   1  476.95   27.10
  -2  10  -1   66.49   10.80
   2 -10   1   62.29   12.30
  -3  10  -1    8.20    5.20
   3 -10   1   14.80    8.10
   3 -10   1    2.80    5.70
   4 -10   1   54.19   12.10
   4 -10   1   51.39   12.80
   9   9  -1   38.40   10.30
  -9  -9   1   34.20   10.20
  -9  -9   1   49.10   10.60
   8   9  -1  431.96   21.70
   8   9  -1  446.36   25.70
  -8  -9   1  468.75   26.70
  -8  -9   1  359.96   21.70
   7   9  -1   30.90    8.10
   7   9  -1   33.50    7.70
   7   9  -1   29.00    8.90
  -7  -9   1   52.49   11.30
  -7  -9   1   36.20    8.00
   6   9  -1  127.09   12.90
   6   9  -1  106.09   12.50
   6   9  -1   85.89   12.70
  -6  -9   1  135.89   13.80
  -6  -9   1   92.99   12.20
  -6  -9   1   71.39   12.30
   5   9  -1  109.79   11.50
   5   9  -1  135.39   14.50
   5   9  -1  102.09   13.50
  -5  -9   1  115.29   12.60
  -5  -9   1  110.09   12.70
   4   9  -1  484.35   20.10
   4   9  -1  544.35   23.60
  -4  -9   1  496.15   22.80
  -4  -9   1  493.15   21.90
   3   9  -1  751.62   25.10
   3   9  -1  714.43   27.90
  -3  -9   1  767.32   29.60
  -3  -9   1  756.22   26.90
   2   9  -1   -3.00    3.10
   2   9  -1   -1.60    3.80
  -2  -9   1    2.60    4.50
  -2  -9   1   -1.10    2.60
   1   9  -1 1080.49   31.50
  -1  -9   1 1094.39   31.10
  -1  -9   1 1113.59   38.20
   0   9  -1    3.60    3.70
   0  -9   1    0.10    2.40
   0  -9   1   -2.00    4.50
  -1   9  -1  179.08   13.00
   1  -9   1  196.38   10.90
   1  -9   1  178.48   18.90
  -2   9  -1  345.97   18.50
  -2   9  -1  402.46   20.30
   2  -9   1  398.76   23.40
  -3   9  -1  127.99   14.30
  -3   9  -1  137.39   14.50
   3  -9   1  142.29   17.20
  -4   9  -1   37.60    8.00
  -4   9  -1   27.70    7.50
   4  -9   1   24.80    9.10
   4  -9   1   29.20    9.20
   5  -9   1  180.98   22.00
   5  -9   1  180.18   19.90
  10   8  -1  113.79   14.20
  10   8  -1  110.99   17.00
 -10  -8   1  124.99   17.00
 -10  -8   1  129.09   15.90
   9   8  -1   47.10   11.00
   9   8  -1   36.40    8.00
  -9  -8   1   33.60    9.60
  -9  -8   1   27.20    8.10
   8   8  -1  210.78   17.60
   8   8  -1  232.58   15.20
   8   8  -1  211.58   14.10
  -8  -8   1  199.38   17.10
   7   8  -1  516.25   22.30
   7   8  -1  536.65   25.80
   7   8  -1  473.85   20.80
  -7  -8   1  506.95   26.40
   6   8  -1  127.99   14.70
   6   8  -1   95.69   11.30
   6   8  -1  115.99    9.90
  -6  -8   1  127.99    9.80
  -6  -8   1  118.89   14.30
   5   8  -1  532.35   20.20
   5   8  -1  524.45   24.10
   5   8  -1  533.75   22.10
  -5  -8   1  547.75   21.40
  -5  -8   1  562.44   25.50
   4   8  -1   67.69   10.00
   4   8  -1   83.29   10.70
   4   8  -1   86.79    9.40
  -4  -8   1   83.99   10.40
   3   8  -1  468.75   20.60
   3   8  -1  462.65   18.00
  -3  -8   1  474.35   21.20
   2   8  -1   23.20    5.30
  -2  -8   1   19.60    5.90
   1   8  -1  832.72   25.20
  -1  -8   1  841.22   30.50
  -1  -8   1  776.62   24.50
   0   8  -1  585.64   21.40
   0  -8   1  609.64   20.00
   0  -8   1  613.14   26.20
  -1   8  -1   19.60    5.30
   1  -8   1   21.10    6.50
   1  -8   1   30.90    5.10
  -2   8  -1   44.70    7.40
  -2   8  -1   52.19    8.80
   2  -8   1   61.39    7.30
   2  -8   1   64.79   11.00
  -3   8  -1   19.30    5.70
  -3   8  -1   31.70    6.80
   3  -8   1   23.80    7.00
  -4   8  -1  616.64   26.40
  -4   8  -1  626.04   24.60
   4  -8   1  605.74   28.90
   4  -8   1  638.64   31.50
  -5   8  -1  202.48   14.00
   5  -8   1  229.28   19.50
   5  -8   1  220.58   18.30
  -6   8  -1   67.39   12.60
   6  -8   1   43.60   10.70
   6  -8   1   49.20   11.20
   6  -8   1   49.70   11.80
  10   7  -1  298.97   18.80
  10   7  -1  337.87   23.70
 -10  -7   1  354.66   20.80
 -10  -7   1  334.07   23.10
   9   7  -1   82.99   14.00
   9   7  -1   57.29    9.50
  -9  -7   1   82.19   13.90
   8   7  -1   69.29    9.30
   8   7  -1   59.79   10.60
   8   7  -1   47.30    8.30
  -8  -7   1   67.99   11.40
   7   7  -1  205.98   13.00
   7   7  -1  224.58   13.50
   7   7  -1  198.68   15.30
  -7  -7   1  215.48   16.10
   6   7  -1   21.60    6.10
   6   7  -1   31.60    6.60
   6   7  -1   26.30    5.60
  -6  -7   1   32.60    5.50
  -6  -7   1   45.30    9.00
   5   7  -1 1088.89   34.40
   5   7  -1 1073.19   31.60
   5   7  -1 1085.09   29.50
  -5  -7   1 1124.89   35.90
  -5  -7   1 1129.79   30.00
   4   7  -1  361.16   15.00
   4   7  -1  367.96   17.10
   4   7  -1  393.16   19.10
  -4  -7   1  365.26   16.60
   3   7  -1  504.15   20.10
   3   7  -1  520.15   18.10
   3   7  -1  522.25   21.90
  -3  -7   1  558.64   21.10
   2   7  -1  886.91   24.90
  -2  -7   1  888.01   28.50
   1   7  -1  317.17   14.10
  -1  -7   1  326.67   16.80
   0   7  -1 2319.37   48.90
   0  -7   1 2359.56   46.90
   0  -7   1 2291.17   54.79
  -1   7  -1   47.30    7.20
   1  -7   1   24.00    6.40
   1  -7   1   46.20    5.60
  -2   7  -1  325.67   16.00
  -2   7  -1  339.47   16.00
   2  -7   1  311.67   11.30
   2  -7   1  311.27   18.20
  -3   7  -1  216.98   13.80
  -3   7  -1  225.08   13.30
   3  -7   1  226.08   15.90
  -4   7  -1  317.07   15.90
  -4   7  -1  300.77   17.20
   4  -7   1  286.97   18.50
   4  -7   1  264.77   18.90
  -5   7  -1  245.88   14.30
  -5   7  -1  215.18   15.60
   5  -7   1  225.58   16.80
   5  -7   1  241.98   18.50
  -6   7  -1   71.49    9.80
  -6   7  -1   70.89   11.90
   6  -7   1   82.19   13.40
   6  -7   1   61.59   12.20
   6  -7   1   53.69   10.90
  -7   7  -1  238.68   18.80
   7  -7   1  252.37   20.50
   7  -7   1  238.78   18.30
   7  -7   1  249.18   20.40
  11   6  -1   11.40    7.30
 -11  -6   1   20.70    8.10
 -11  -6   1    4.80    4.70
  10   6  -1  271.17   20.70
 -10  -6   1  240.68   19.30
   9   6  -1  817.32   33.80
  -9  -6   1  797.42   33.50
   8   6  -1    5.00    3.30
   8   6  -1    3.50    5.10
  -8  -6   1    3.50    3.70
   7   6  -1   12.00    5.60
   7   6  -1    9.40    3.90
   7   6  -1    9.00    3.80
  -7  -6   1    9.20    4.80
   6   6  -1   58.99    7.60
   6   6  -1   42.30    7.90
   6   6  -1   45.10    6.70
  -6  -6   1   37.90    7.40
  -6  -6   1   61.59    6.40
   5   6  -1  481.55   17.20
   5   6  -1  458.95   20.10
   5   6  -1  447.16   17.70
  -5  -6   1  422.66   20.00
  -5  -6   1  481.95   16.40
   4   6  -1  882.31   25.90
   4   6  -1  902.91   24.00
   4   6  -1  882.91   28.20
  -4  -6   1  881.31   24.70
   3   6  -1   77.29    6.60
   3   6  -1   67.99    8.40
   3   6  -1   70.59    8.10
  -3  -6   1   66.89    7.80
   2   6  -1 1747.23   36.90
  -2  -6   1 1711.03   40.80
   1   6  -1   50.59    6.40
  -1  -6   1   54.19    8.00
   0   6  -1 1245.18   23.80
   0   6  -1 1256.67   30.00
   0  -6   1 1247.58   34.60
  -1   6  -1  396.46   15.70
   1  -6   1  399.56   13.00
   1  -6   1  414.66   18.60
  -2   6  -1 1939.11   44.10
  -2   6  -1 1947.91   44.50
   2  -6   1 2004.50   49.00
   2  -6   1 2035.20   37.00
  -3   6  -1  566.54   21.20
  -3   6  -1  530.45   19.80
   3  -6   1  552.74   23.40
   3  -6   1  547.95   13.20
  -4   6  -1   87.89   10.60
  -4   6  -1   80.29    9.00
   4  -6   1   93.79   12.10
   4  -6   1   95.99   12.80
  -5   6  -1  459.45   21.60
  -5   6  -1  449.76   18.70
   5  -6   1  448.66   21.90
   5  -6   1  471.45   24.20
  -6   6  -1    2.40    3.00
  -6   6  -1   -1.50    3.70
   6  -6   1    6.70    5.00
   6  -6   1    1.70    3.30
   6  -6   1    4.00    3.80
  -7   6  -1   15.00    6.70
  -7   6  -1   19.50    5.50
   7  -6   1   19.90    6.70
   7  -6   1   19.70    8.00
   7  -6   1   20.40    7.70
  -8   6  -1 1009.40   39.50
   8  -6   1 1009.40   36.50
   8  -6   1  915.21   39.50
   8  -6   1  941.01   40.50
  11   5  -1  236.88   20.70
  11   5  -1  229.18   23.60
 -11  -5   1  222.88   23.40
 -11  -5   1  221.88   15.30
  10   5  -1  261.47   20.20
  10   5  -1  286.57   20.50
 -10  -5   1  262.17   19.50
   9   5  -1  212.48   17.30
   9   5  -1  221.18   17.00
  -9  -5   1  192.88   15.60
   8   5  -1  234.28   17.20
   8   5  -1  214.38   11.40
   8   5  -1  225.38   16.30
  -8  -5   1  215.28   15.40
   7   5  -1  704.53   28.80
   7   5  -1  769.02   22.90
   7   5  -1  788.92   28.90
  -7  -5   1  743.33   28.20
   6   5  -1  158.88    9.60
   6   5  -1  145.79   12.20
  -6  -5   1  141.39    6.80
  -6  -5   1  160.88   12.20
   5   5  -1   62.89    7.00
   5   5  -1   70.29    7.60
   5   5  -1   84.49   10.40
  -5  -5   1   67.49    5.40
  -5  -5   1   57.09    8.00
   4   5  -1 2020.90   42.80
   4   5  -1 1990.40   45.50
   4   5  -1 2034.10   40.90
  -4  -5   1 2082.59   46.80
  -4  -5   1 2064.29   41.00
   3   5  -1   21.00    3.70
   3   5  -1   18.60    4.90
   3   5  -1   19.00    3.90
  -3  -5   1   32.70    5.00
   2   5  -1 1685.13   38.20
   2   5  -1 1643.64   33.40
  -2  -5   1 1631.34   36.80
   1   5  -1 3987.70   67.89
  -1  -5   1 3902.91   72.69
   0   5  -1  729.03   19.60
   0   5  -1  742.03   15.60
   0  -5   1  751.72   23.40
  -1   5  -1 1305.57   30.10
   1  -5   1 1284.87   33.80
  -2   5  -1   44.70    6.10
  -2   5  -1   53.89    6.80
   2  -5   1   52.59    3.80
   2  -5   1   60.59    8.10
  -3   5  -1 3020.00   58.89
  -3   5  -1 3155.98   61.39
   3  -5   1 2977.10   48.50
   3  -5   1 3019.00   63.49
  -4   5  -1   42.20    6.50
  -4   5  -1   39.20    7.50
   4  -5   1   30.70    6.40
   4  -5   1   25.80    6.40
  -5   5  -1   50.59    7.60
   5  -5   1   60.69    9.30
   5  -5   1   43.60    8.20
  -6   5  -1  484.35   19.00
  -6   5  -1  472.95   22.70
   6  -5   1  512.95   22.40
   6  -5   1  477.15   23.50
   6  -5   1  495.95   24.30
  -7   5  -1  448.76   18.80
  -7   5  -1  417.96   22.90
   7  -5   1  425.16   20.90
   7  -5   1  407.06   23.50
   7  -5   1  402.16   22.80
  -8   5  -1  175.68   18.50
  -8   5  -1  164.18   12.00
   8  -5   1  197.88   17.40
   8  -5   1  173.08   13.70
   8  -5   1  156.58   18.00
  -9   5  -1  554.44   28.80
   9  -5   1  489.75   29.70
   9  -5   1  567.74   29.90
  11   4  -1  656.43   32.70
  11   4  -1  610.04   32.10
 -11  -4   1  601.44   24.00
 -11  -4   1  597.14   30.40
  10   4  -1  124.29   16.40
  10   4  -1  101.49   14.70
 -10  -4   1  102.59   11.20
 -10  -4   1  117.39   15.20
   9   4  -1  379.66   22.30
   9   4  -1  337.87   20.90
  -9  -4   1  369.86   21.20
  -9  -4   1  361.26   16.10
   8   4  -1  115.29    7.80
   8   4  -1  104.19   13.30
   8   4  -1   98.79   12.40
  -8  -4   1  108.69   12.70
  -8  -4   1  127.89    8.90
   7   4  -1  152.28    8.80
   7   4  -1  138.19   12.20
   7   4  -1  143.09   12.00
  -7  -4   1  142.89    8.60
  -7  -4   1  145.69   11.80
   6   4  -1 1847.42   38.90
   6   4  -1 1898.31   48.00
   6   4  -1 1790.12   45.00
  -6  -4   1 1880.21   31.40
  -6  -4   1 1922.51   46.20
   5   4  -1   45.40    7.50
   5   4  -1   29.90    5.70
   5   4  -1   30.60    4.70
  -5  -4   1   28.70    5.80
  -5  -4   1   39.00    3.90
   4   4  -1  438.86   14.70
   4   4  -1  460.25   17.30
  -4  -4   1  468.55   13.30
  -4  -4   1  425.36   16.90
   3   4  -1 5653.63   94.79
   3   4  -1 5459.15   91.69
   3   4  -1 5472.35   89.29
  -3  -4   1 5535.15   90.39
   2   4  -1 3897.11   67.39
   2   4  -1 3860.81   68.99
   2   4  -1 3838.12   63.89
  -2  -4   1 3864.41   67.29
   1   4  -1 3048.09   56.29
   1   4  -1 2953.70   50.49
   1   4  -1 3014.50   51.59
  -1  -4   1 2980.60   55.49
  -1  -4   1 3006.00   50.59
   0   4  -1  422.96   10.00
   0   4  -1  429.76   12.80
   0  -4   1  440.96   15.50
   0  -4   1  403.36   12.30
  -1   4  -1 7418.96  118.49
   1  -4   1 7487.25  123.19
  -2   4  -1  112.79    7.60
  -2   4  -1  109.69    7.20
   2  -4   1  117.49    4.80
   2  -4   1  123.69    8.70
  -3   4  -1 1476.15   33.10
  -3   4  -1 1473.45   34.90
   3  -4   1 1468.15   36.10
   3  -4   1 1464.45   24.10
  -4   4  -1  826.82   23.00
  -4   4  -1  815.32   25.50
   4  -4   1  820.12   25.80
   4  -4   1  801.52   15.30
   4  -4   1  846.92   27.40
  -5   4  -1   68.99    7.90
   5  -4   1   44.80    7.40
   5  -4   1   66.09   10.00
   5  -4   1   56.09    7.90
  -6   4  -1  529.55   19.10
  -6   4  -1  546.75   23.30
   6  -4   1  575.64   24.20
   6  -4   1  534.35   21.30
   6  -4   1  520.65   23.90
  -7   4  -1   74.59   11.30
  -7   4  -1   63.09    8.40
   7  -4   1   68.69   10.50
   7  -4   1   55.39    9.90
   7  -4   1   50.69    9.00
   7  -4   1   70.79    9.70
  -8   4  -1  185.78   12.00
  -8   4  -1  183.68   18.10
   8  -4   1  175.88   12.80
   8  -4   1  153.18   17.90
   8  -4   1  138.99   16.00
  -9   4  -1  170.48   18.60
   9  -4   1  191.38   21.70
   9  -4   1  145.09   17.30
 -10   4  -1  181.88   19.90
  10  -4   1  191.08   17.50
  10  -4   1  162.48   20.80
  11   3  -1  733.43   35.00
  11   3  -1  777.02   35.90
 -11  -3   1  758.32   38.00
 -11  -3   1  757.42   34.10
  10   3  -1  414.56   24.30
  10   3  -1  399.76   23.90
 -10  -3   1  361.26   17.80
 -10  -3   1  441.06   24.00
   9   3  -1  182.08   15.50
   9   3  -1  180.68   15.20
  -9  -3   1  187.68   11.70
  -9  -3   1  201.78   15.40
   8   3  -1  186.48   14.40
   8   3  -1  190.18   14.70
   8   3  -1  176.78    9.00
  -8  -3   1  171.48   10.50
  -8  -3   1  177.88   13.40
   7   3  -1   10.70    2.90
   7   3  -1    5.00    4.10
   7   3  -1    9.50    4.20
  -7  -3   1    4.20    3.30
  -7  -3   1    5.80    4.10
  -7  -3   1   15.70    3.80
   6   3  -1 1224.28   35.50
   6   3  -1 1259.77   27.80
  -6  -3   1 1197.18   27.60
  -6  -3   1 1200.28   33.60
  -6  -3   1 1236.28   33.70
   5   3  -1  341.97   15.30
   5   3  -1  338.77   11.90
   5   3  -1  352.26   16.20
  -5  -3   1  335.17   11.20
  -5  -3   1  334.27    8.20
  -5  -3   1  326.77   14.50
  -5  -3   1  312.07   14.40
   4   3  -1   78.79    5.40
   4   3  -1   65.99    7.20
   4   3  -1   49.60    6.70
  -4  -3   1   79.59    6.60
  -4  -3   1   65.79    3.80
  -4  -3   1   50.89    6.30
   3   3  -1 3978.70   68.49
   3   3  -1 3653.03   69.79
   3   3  -1 3882.11   62.89
   3   3  -1 3876.41   61.59
   3   3  -1 3780.12   65.09
  -3  -3   1 3902.91   68.59
  -3  -3   1 3896.51   63.19
  -3  -3   1 3928.71   67.59
   2   3  -1  145.29    7.00
   2   3  -1  150.38    8.10
   2   3  -1  153.28    6.70
   2   3  -1  158.08    6.20
  -2  -3   1  159.08    7.00
  -2  -3   1  149.99    7.10
   1   3  -1 5523.55   88.89
   1   3  -1 5353.26   84.59
  -1  -3   1 5362.86   87.69
   0   3  -1  930.91   17.00
   0   3  -1  935.11   19.30
   0  -3   1  928.51   22.20
   0  -3   1  933.01   19.20
  -1   3  -1 3519.65   59.59
   1  -3   1 3516.95   59.89
   1  -3   1 3696.13   63.59
  -2   3  -1 5463.35   88.79
  -2   3  -1 5406.16   89.09
   2  -3   1 5380.66   91.29
  -3   3  -1  560.94   17.80
  -3   3  -1  550.64   16.30
   3  -3   1  553.04   11.10
   3  -3   1  568.64   18.60
   3  -3   1  579.64   18.40
  -4   3  -1 1197.28   27.70
   4  -3   1 1204.48   29.70
   4  -3   1 1087.19   30.40
   4  -3   1 1180.28   22.60
  -5   3  -1  325.97   15.70
  -5   3  -1  331.47   13.40
   5  -3   1  315.87   15.40
   5  -3   1  344.67   14.90
   5  -3   1  342.07   16.90
  -6   3  -1 1806.42   40.40
  -6   3  -1 1826.72   46.30
   6  -3   1 1832.72   48.10
   6  -3   1 1857.71   42.10
   6  -3   1 1871.01   46.40
  -7   3  -1  893.71   26.60
  -7   3  -1  955.70   32.00
   7  -3   1  904.71   31.60
   7  -3   1  971.00   34.60
   7  -3   1  916.31   23.10
   7  -3   1  895.31   27.30
  -8   3  -1   95.19   12.30
  -8   3  -1  116.49    9.40
   8  -3   1  104.19   14.10
   8  -3   1  140.39   12.70
   8  -3   1  108.09    9.10
  -9   3  -1   45.90    9.40
   9  -3   1   56.09   12.00
   9  -3   1   37.50    8.20
 -10   3  -1   95.89   14.40
  10  -3   1   97.39   14.30
  10  -3   1   89.89   15.10
  11   2  -1  207.48   22.50
  11   2  -1  191.28   22.10
 -11  -2   1  204.18   21.30
 -11  -2   1  195.38   14.50
  10   2  -1  419.96   24.90
  10   2  -1  435.86   24.90
 -10  -2   1  396.56   19.30
 -10  -2   1  459.75   24.40
 -10  -2   1  463.55   18.00
   9   2  -1  112.09   14.70
   9   2  -1  134.79   15.80
  -9  -2   1  110.59   13.70
  -9  -2   1  125.09   10.30
   8   2  -1 1400.26   42.80
   8   2  -1 1427.06   42.90
  -8  -2   1 1463.45   41.50
  -8  -2   1 1402.46   40.40
  -8  -2   1 1453.75   35.80
   7   2  -1    3.20    3.50
   7   2  -1    9.10    4.30
  -7  -2   1    3.80    3.70
  -7  -2   1    3.90    2.70
  -7  -2   1    6.20    3.30
   6   2  -1   83.09    9.80
   6   2  -1   91.69   10.40
   6   2  -1   86.09    5.70
  -6  -2   1   82.69    9.40
  -6  -2   1   85.29    6.30
  -6  -2   1   83.69    9.70
   5   2  -1 2975.80   51.89
   5   2  -1 2969.00   60.39
   5   2  -1 2865.91   59.39
  -5  -2   1 3026.40   52.69
  -5  -2   1 2972.20   58.19
  -5  -2   1 2957.10   58.39
   4   2  -1  441.26   12.40
   4   2  -1  420.26   15.30
   4   2  -1  383.46   15.30
  -4  -2   1  434.86   15.20
  -4  -2   1  417.66   11.60
  -4  -2   1  401.96   14.80
  -4  -2   1  408.36    9.00
   3   2  -1  413.16   11.60
   3   2  -1  427.26   14.70
   3   2  -1  403.86   10.00
  -3  -2   1  419.86   13.50
  -3  -2   1  401.96   10.00
  -3  -2   1  402.76    9.60
   0   2  -1   67.99    3.50
   0   2  -1   76.59    3.00
   0   2  -1   83.79    4.80
   0  -2   1   77.19    3.00
   0  -2   1   83.19    5.10
   0  -2   1   81.69    3.60
   0  -2   1   78.59    4.60
  -1   2  -1  364.66    9.80
   1  -2   1  370.86    9.90
   1  -2   1  338.27   11.00
  -3   2  -1  297.77   10.40
  -3   2  -1  297.57   11.60
   3  -2   1  294.47   11.10
   3  -2   1  295.37   11.60
   3  -2   1  293.47    7.90
  -4   2  -1   69.09    5.40
  -4   2  -1   75.69    7.90
   4  -2   1   57.69    6.90
   4  -2   1   74.79    6.20
   4  -2   1   72.99    4.50
   4  -2   1   69.09    5.70
  -5   2  -1  524.75   19.30
  -5   2  -1  548.65   16.90
   5  -2   1  530.75   19.00
   5  -2   1  524.65   20.40
   5  -2   1  523.35   17.00
  -6   2  -1 1038.50   30.40
  -6   2  -1 1034.20   26.60
   6  -2   1  995.10   31.90
   6  -2   1  952.30   25.40
   6  -2   1  981.90   29.60
   6  -2   1 1020.10   22.20
  -7   2  -1  815.82   24.70
  -7   2  -1  868.41   29.00
   7  -2   1  831.42   19.30
   7  -2   1  823.42   30.80
   7  -2   1  828.92   28.40
   7  -2   1  854.61   23.90
  -8   2  -1    5.70    3.70
   8  -2   1   -2.20    2.80
   8  -2   1    3.90    3.50
   8  -2   1    6.10    3.00
  -9   2  -1  313.47   19.10
   9  -2   1  350.96   20.40
   9  -2   1  341.87   22.00
 -10   2  -1   12.00    5.80
  10  -2   1   10.00    5.00
  10  -2   1    0.70    5.30
 -11   2  -1  137.69   17.60
  11  -2   1  127.69   18.30
  11  -2   1  158.78   19.30
  11   1  -1  137.59   18.60
  11   1  -1  143.59   18.80
 -11  -1   1  153.38   16.40
 -11  -1   1  124.09   16.80
  10   1  -1 1095.59   41.80
  10   1  -1 1162.08   41.80
 -10  -1   1 1094.49   35.10
 -10  -1   1 1099.39   39.30
   9   1  -1   31.30    7.80
   9   1  -1   29.30    7.80
  -9  -1   1   25.10    7.10
  -9  -1   1   21.80    5.50
   8   1  -1  652.03   27.50
   8   1  -1  628.64   26.70
  -8  -1   1  661.63   23.10
  -8  -1   1  666.43   26.10
  -8  -1   1  675.53   25.60
   7   1  -1 1356.76   39.30
   7   1  -1 1321.07   38.60
  -7  -1   1 1363.66   37.00
  -7  -1   1 1422.86   38.00
  -7  -1   1 1385.96   34.00
   6   1  -1   76.89    9.50
  -6  -1   1   83.59    6.80
  -6  -1   1   74.39    8.80
  -6  -1   1   67.19    8.20
   5   1  -1  371.66   15.90
   5   1  -1  371.36   15.80
  -5  -1   1  369.26    8.00
  -5  -1   1  350.46   14.70
  -5  -1   1  390.66   13.10
  -5  -1   1  364.76   14.90
   4   1  -1  105.89    7.50
   4   1  -1   96.79    7.20
   4   1  -1   98.29    5.40
   4   1  -1   96.49    5.10
  -4  -1   1   89.49    6.60
  -4  -1   1   99.59    5.30
  -4  -1   1   90.09    3.30
  -4  -1   1   90.09    5.30
   3   1  -1 4619.64   78.49
   3   1  -1 4531.75   73.99
   3   1  -1 4544.35   72.79
   3   1  -1 4698.43   78.19
   3   1  -1 4749.62   73.49
  -3  -1   1 4772.02   77.59
  -3  -1   1 4592.54   72.89
  -3  -1   1 4638.94   77.09
  -3  -1   1 4598.94   73.79
   2   1  -1 3249.97   58.49
   2   1  -1 3486.35   53.59
   2   1  -1 3479.55   55.59
   2   1  -1 3501.15   58.19
   2   1  -1 3448.65   57.49
  -2  -1   1 3640.24   59.19
  -2  -1   1 3485.35   57.79
  -2  -1   1 3447.35   55.49
  -2  -1   1 3497.55   56.39
  -2  -1   1 3582.34   57.69
   1   1  -1  232.38    4.40
   1   1  -1  217.88    7.10
   1   1  -1  226.38    6.70
   1   1  -1  228.28    6.80
   1   1  -1  241.08    7.70
  -1  -1   1  233.48    6.70
  -1  -1   1  230.68    7.60
  -1  -1   1  228.98    6.30
  -1  -1   1  235.48    7.20
  -1  -1   1  225.98    6.90
  -1   1  -1   62.19    3.50
  -1   1  -1   56.69    3.00
  -1   1  -1   62.79    3.60
   1  -1   1   62.39    3.30
   1  -1   1   66.19    3.70
   1  -1   1   56.49    3.00
  -2   1  -1 2057.19   35.90
  -2   1  -1 2071.19   36.20
  -2   1  -1 2088.69   37.20
   2  -1   1 2099.19   36.50
   2  -1   1 2052.59   33.20
   2  -1   1 2085.09   35.90
   2  -1   1 2023.20   36.70
   2  -1   1 2090.89   36.30
  -3   1  -1 3255.97   56.49
  -3   1  -1 3160.68   53.69
  -3   1  -1 3230.18   54.19
   3  -1   1 3192.18   53.99
   3  -1   1 3245.18   57.79
   3  -1   1 3257.27   55.19
   3  -1   1 3147.39   52.09
  -4   1  -1 5468.55   89.39
  -4   1  -1 5380.06   90.09
  -4   1  -1 5049.39   87.89
  -4   1  -1 5245.98   86.89
   4  -1   1 5407.96   86.29
   4  -1   1 5523.65   92.79
   4  -1   1 5324.57   88.79
  -5   1  -1 2220.98   45.50
  -5   1  -1 2178.28   42.80
  -5   1  -1 2202.58   34.00
  -5   1  -1 2198.68   46.10
   5  -1   1 2130.79   48.10
   5  -1   1 2215.88   41.20
   5  -1   1 2192.88   36.90
   5  -1   1 2210.28   45.40
  -6   1  -1   86.39    9.10
  -6   1  -1   88.09    7.00
  -6   1  -1   96.39    9.80
  -6   1  -1   97.39    3.40
   6  -1   1   83.89    9.80
   6  -1   1  100.09    8.10
   6  -1   1   99.79    6.30
   6  -1   1   93.89    4.40
  -7   1  -1 1107.49   32.60
  -7   1  -1 1110.69   19.30
  -7   1  -1 1103.89   32.40
   7  -1   1 1114.59   20.30
   7  -1   1 1108.39   32.40
   7  -1   1 1099.99   35.60
   7  -1   1 1144.19   26.10
  -8   1  -1   16.90    5.30
  -8   1  -1   12.40    4.20
   8  -1   1   26.50    6.50
   8  -1   1   30.40    7.90
   8  -1   1   30.00    4.60
  -9   1  -1  338.57   19.10
   9  -1   1  292.87   18.10
   9  -1   1  366.96   22.30
 -10   1  -1  807.62   32.20
  10  -1   1  759.42   35.10
  10  -1   1  809.72   32.70
 -11   1  -1   66.89   12.10
  11  -1   1   62.29   12.90
  11  -1   1   73.09   12.50
  11   0  -1   73.39   14.50
  11   0  -1   82.39   13.80
 -11   0   1   58.69   10.20
 -11   0   1   75.79   13.10
  10   0  -1  174.58   16.00
  10   0  -1  169.98   18.80
 -10   0   1  159.68   17.30
 -10   0   1  196.88   14.50
   9   0  -1  769.72   32.60
   9   0  -1  740.93   31.20
  -9   0   1  758.52   30.20
  -9   0   1  746.63   27.50
   8   0  -1  863.11   32.20
   8   0  -1  789.52   30.60
  -8   0   1  790.42   27.60
  -8   0   1  819.02   29.70
  -8   0   1  878.41   27.90
   7   0  -1  798.82   28.90
   7   0  -1  887.91   30.60
   7   0  -1  905.11   20.90
  -7   0   1  887.01   28.80
  -7   0   1  835.12   27.10
  -7   0   1  884.91   26.60
   6   0  -1  316.87   15.70
   6   0  -1  303.87   10.50
  -6   0   1  306.47   14.30
  -6   0   1  299.27   14.60
  -6   0   1  305.07   13.50
  -6   0   1  287.27    9.00
   5   0  -1  779.02   18.20
   5   0  -1  753.12   23.80
   5   0  -1  803.82   24.70
  -5   0   1  766.92   16.40
  -5   0   1  754.82   22.40
  -5   0   1  762.72   22.90
  -5   0   1  760.82   18.60
  -5   0   1  782.42   21.30
   4   0  -1 1483.55   33.90
   4   0  -1 1450.55   28.00
   4   0  -1 1483.45   34.00
  -4   0   1 1494.25   32.50
  -4   0   1 1404.46   30.00
  -4   0   1 1471.75   27.70
  -4   0   1 1423.76   31.70
  -4   0   1 1504.25   26.30
   3   0  -1  155.48    6.00
   3   0  -1  155.48    7.90
   3   0  -1  151.78    8.00
  -3   0   1  142.39    7.10
  -3   0   1  142.29    7.20
  -3   0   1  144.69    5.00
  -3   0   1  131.89    5.60
  -3   0   1  146.59    6.50
  -3   0   1  140.09    6.30
   2   0  -1 2929.01   49.60
   2   0  -1 2919.31   49.00
   2   0  -1 2818.72   46.80
   2   0  -1 2909.41   48.80
   2   0  -1 2905.51   47.20
   2   0  -1 2970.10   50.49
  -2   0   1 2900.11   45.60
  -2   0   1 2965.00   49.20
  -2   0   1 2847.52   47.00
  -2   0   1 2951.90   48.90
  -2   0   1 2999.40   50.19
  -2   0   1 2877.51   49.50
  -2   0   1 2907.81   46.90
   1   0  -1  366.16    8.40
   1   0  -1  366.66    8.70
   1   0  -1  385.76    9.10
   1   0  -1  392.26    8.80
   1   0  -1  364.96    8.60
   1   0  -1  375.86    9.60
   1   0  -1  380.26    9.10
  -1   0   1  376.56    8.70
  -1   0   1  382.46    8.80
  -1   0   1  369.46    8.40
  -1   0   1  366.96    8.60
  -1   0   1  380.36    9.60
  -1   0   1  387.16    9.10
  -1   0  -1  272.47    5.70
  -1   0  -1  264.47    5.40
  -1   0  -1  274.97    5.60
  -1   0  -1  264.27    5.30
  -1   0  -1  264.17    6.50
   1   0   1  268.97    5.60
   1   0   1  271.57    6.50
   1   0   1  261.67    6.30
   1   0   1  276.17    5.40
   1   0   1  262.87    6.50
   1   0   1  273.27    5.30
   1   0   1  266.07    5.70
  -2   0  -1  845.32   15.90
  -2   0  -1  877.31   16.10
  -2   0  -1  862.51   17.20
  -2   0  -1  882.71   14.60
  -2   0  -1  864.61   17.10
  -2   0  -1  871.21   17.80
   2   0   1  877.01   16.30
   2   0   1  868.81   16.00
   2   0   1  873.01   17.30
   2   0   1  851.91   14.50
   2   0   1  848.22   16.50
   2   0   1  872.11   17.70
   2   0   1  876.61   17.20
  -3   0  -1 1182.18   22.80
  -3   0  -1 1172.48   19.70
  -3   0  -1 1152.08   24.30
  -3   0  -1 1171.58   23.40
  -3   0  -1 1148.49   21.00
  -3   0  -1 1181.58   24.00
   3   0   1 1082.99   25.20
   3   0   1 1176.48   23.20
   3   0   1 1151.98   23.00
   3   0   1 1173.78   21.20
  -4   0  -1  231.78    9.70
  -4   0  -1  231.58    7.20
  -4   0  -1  238.48   10.00
  -4   0  -1  233.18    9.10
  -4   0  -1  236.98    6.40
   4   0   1  231.38    7.30
   4   0   1  231.38   10.90
   4   0   1  224.28    9.30
  -5   0  -1 5197.38   82.79
  -5   0  -1 5262.17   81.49
  -5   0  -1 5280.47   80.69
  -5   0  -1 5360.66   90.59
  -5   0  -1 5309.57   90.69
   5   0   1 5428.06   90.39
   5   0   1 5216.18   93.89
   5   0   1 5318.97   82.99
  -6   0  -1  546.55   19.30
  -6   0  -1  569.84   14.00
  -6   0  -1  549.35   12.40
  -6   0  -1  571.54   19.80
  -6   0  -1  571.34   13.20
   6   0   1  557.54   19.40
   6   0   1  570.54   21.90
   6   0   1  555.94   13.80
  -7   0  -1  313.47   15.40
  -7   0  -1  339.07   16.20
  -7   0  -1  337.07    9.80
   7   0   1  319.67   10.00
   7   0   1  311.17   15.40
   7   0   1  329.97   17.70
  -8   0  -1  221.48   14.00
  -8   0  -1  232.38    8.30
  -8   0  -1  260.07   15.20
   8   0   1  234.98   16.40
   8   0   1  232.48   14.40
  -9   0  -1  972.80   33.40
  -9   0  -1  993.30   33.10
   9   0   1 1010.40   34.40
   9   0   1  972.30   36.80
 -10   0  -1  328.57   19.70
 -10   0  -1  337.67   19.70
  10   0   1  318.97   19.80
  10   0   1  318.27   22.10
 -11   0  -1  106.09   14.50
 -11   0  -1  119.39   15.20
  11   0   1  111.59   17.60
  11   0   1   95.49   14.10
  11  -1  -1  308.87   22.80
  11  -1  -1  345.27   24.90
 -11   1   1  328.17   20.50
  10  -1  -1  296.07   21.50
  10  -1  -1  249.28   19.30
 -10   1   1  265.87   17.70
   9  -1  -1 1536.45   48.10
   9  -1  -1 1581.94   49.80
  -9   1   1 1555.24   46.30
  -9   1   1 1592.84   44.40
   8  -1  -1   40.90    8.90
   8  -1  -1   47.20    9.10
  -8   1   1   36.40    7.70
  -8   1   1   32.80    6.90
  -8   1   1   47.40    8.20
   7  -1  -1  664.13   25.90
   7  -1  -1  614.84   17.10
   7  -1  -1  623.94   25.60
   7  -1  -1  652.83   17.70
  -7   1   1  691.73   25.00
  -7   1   1  615.34   22.10
  -7   1   1  643.24   23.30
   6  -1  -1   23.50    3.70
   6  -1  -1   23.10    3.60
   6  -1  -1   14.80    4.50
   6  -1  -1   15.60    4.60
  -6   1   1   22.40    5.00
  -6   1   1   21.50    4.60
  -6   1   1   30.60    5.50
   5  -1  -1 1759.12   41.80
   5  -1  -1 1788.52   34.10
   5  -1  -1 1818.62   34.40
   5  -1  -1 1742.13   41.50
  -5   1   1 1784.42   38.60
  -5   1   1 1700.73   39.60
  -5   1   1 1821.62   39.30
   4  -1  -1 3684.33   60.69
   4  -1  -1 3747.83   67.79
   4  -1  -1 3644.04   60.99
   4  -1  -1 3635.34   67.59
  -4   1   1 3633.04   60.69
  -4   1   1 3701.03   64.19
  -4   1   1 3532.05   65.39
  -4   1   1 3578.84   64.49
   3  -1  -1  131.19    5.90
   3  -1  -1  128.59    5.20
   3  -1  -1  127.59    7.30
   3  -1  -1  130.89    7.60
   3  -1  -1  120.89    5.60
  -3   1   1  116.99    6.70
  -3   1   1  138.09    5.90
  -3   1   1  114.39    7.10
  -3   1   1  135.09    6.70
   2  -1  -1 3079.69   51.59
   2  -1  -1 3073.59   53.69
   2  -1  -1 3134.39   52.39
   2  -1  -1 3159.88   49.50
   2  -1  -1 3215.98   54.49
   2  -1  -1 3171.28   51.89
   2  -1  -1 3372.56   55.49
  -2   1   1 3168.98   53.59
  -2   1   1 3259.97   55.19
  -2   1   1 3164.18   53.49
  -2   1   1 3219.38   54.59
  -2   1   1 3189.18   51.69
  -2   1   1 3224.98   52.69
   1  -1  -1  919.81   18.70
   1  -1  -1  857.91   17.00
   1  -1  -1  883.01   18.00
   1  -1  -1  898.31   17.10
   1  -1  -1  851.11   17.00
   1  -1  -1  873.21   16.70
   1  -1  -1  873.71   15.30
   1  -1  -1  854.31   16.80
   1  -1  -1  880.81   14.10
  -1   1   1  881.81   18.10
  -1   1   1  888.11   14.10
  -1   1   1  890.71   17.00
  -1   1   1  862.31   15.10
  -1   1   1  872.41   16.70
  -1   1   1  910.11   18.60
  -1   1   1  909.71   16.90
   0  -1  -1 2511.35   41.40
   0  -1  -1 2548.34   41.40
   0   1   1 2633.94   39.80
   0   1   1 2668.53   41.00
  -2  -1  -1  788.92   16.00
  -2  -1  -1  761.42   16.30
  -2  -1  -1  775.22   14.70
  -2  -1  -1  809.72   15.10
  -2  -1  -1  772.82   15.90
   2   1   1  756.92   16.40
   2   1   1  801.92   15.40
   2   1   1  757.32   15.70
   2   1   1  777.52   15.90
   2   1   1  777.52   15.90
  -3  -1  -1 4051.19   64.49
  -3  -1  -1 3926.61   62.69
  -3  -1  -1 4029.50   66.99
  -3  -1  -1 3953.10   65.39
  -3  -1  -1 3995.80   65.89
   3   1   1 4087.99   67.59
   3   1   1 4062.49   64.99
   3   1   1 3968.90   65.69
  -4  -1  -1 1500.35   23.70
  -4  -1  -1 1546.55   27.90
  -4  -1  -1 1516.85   31.90
  -4  -1  -1 1511.55   31.10
   4   1   1 1522.85   33.50
   4   1   1 1543.05   31.20
   4   1   1 1555.84   24.30
  -5  -1  -1 1515.85   28.30
  -5  -1  -1 1459.65   23.90
  -5  -1  -1 1499.45   32.80
  -5  -1  -1 1463.05   33.30
   5   1   1 1456.85   35.40
   5   1   1 1477.55   23.90
   5   1   1 1544.65   33.30
  -6  -1  -1 1669.23   37.80
  -6  -1  -1 1673.13   38.80
  -6  -1  -1 1634.24   27.30
  -6  -1  -1 1700.63   32.10
   6   1   1 1703.03   41.80
   6   1   1 1732.23   38.90
  -7  -1  -1  749.42   25.10
  -7  -1  -1  753.22   24.10
  -7  -1  -1  774.42   18.80
  -7  -1  -1  740.73   14.00
   7   1   1  773.42   25.20
   7   1   1  808.12   28.00
  -8  -1  -1 1392.16   29.60
  -8  -1  -1 1426.96   37.80
  -8  -1  -1 1413.06   39.00
   8   1   1 1417.16   39.20
   8   1   1 1382.56   42.10
  -9  -1  -1  144.69    7.80
  -9  -1  -1  144.19   12.20
  -9  -1  -1  134.09   13.60
   9   1   1  122.99   14.90
   9   1   1  131.19   12.00
 -10  -1  -1   68.49   11.10
 -10  -1  -1   65.89   10.40
  10   1   1   75.69   11.20
  10   1   1   92.89   14.30
 -11  -1  -1   27.70    7.40
 -11  -1  -1   19.70    6.90
  11   1   1   15.70    8.20
  11   1   1   18.60    7.10
 -12  -1  -1   84.59   13.20
 -12  -1  -1   83.29   14.40
  12   1   1   54.69   13.00
  12   1   1   67.39   13.00
  11  -2  -1  584.44   32.80
  11  -2  -1  551.94   31.30
  10  -2  -1    4.80    4.60
  10  -2  -1    8.60    6.40
 -10   2   1    8.30    5.30
   9  -2  -1  785.82   34.50
   9  -2  -1  848.92   34.90
  -9   2   1  826.92   31.50
   8  -2  -1  977.30   29.00
   8  -2  -1 1063.99   37.10
   8  -2  -1 1027.20   37.10
  -8   2   1  987.20   33.30
  -8   2   1 1034.60   30.90
   7  -2  -1  565.74   24.90
   7  -2  -1  542.75   17.00
   7  -2  -1  539.25   24.00
   7  -2  -1  591.34   18.40
  -7   2   1  572.44   22.70
  -7   2   1  574.54   20.60
   6  -2  -1  384.76   18.40
   6  -2  -1  363.66   18.10
   6  -2  -1  362.56   13.80
   6  -2  -1  374.06   13.20
  -6   2   1  377.16   17.00
  -6   2   1  357.26   15.00
   5  -2  -1  238.38   10.00
   5  -2  -1  249.78   13.60
   5  -2  -1  227.28   10.30
   5  -2  -1  221.48   13.00
  -5   2   1  217.88   10.70
  -5   2   1  226.08    6.40
  -5   2   1  228.58   12.10
   4  -2  -1 2262.97   43.00
   4  -2  -1 2290.27   48.40
   4  -2  -1 2177.88   46.90
   4  -2  -1 2256.97   42.10
  -4   2   1 2307.47   43.20
  -4   2   1 2238.38   36.00
  -4   2   1 2231.48   47.80
  -4   2   1 2254.27   40.10
   3  -2  -1  458.85   15.10
   3  -2  -1  481.75   14.00
   3  -2  -1  464.85   16.10
   3  -2  -1  435.76   13.00
   3  -2  -1  453.25   11.30
  -3   2   1  442.36   11.20
  -3   2   1  447.46    9.30
  -3   2   1  455.35   13.00
  -3   2   1  420.86   15.30
   2  -2  -1  172.28    7.60
   2  -2  -1  196.28    8.00
   2  -2  -1  199.58    9.20
   2  -2  -1  177.78    6.60
   2  -2  -1  185.48    5.80
  -2   2   1  171.28    8.50
  -2   2   1  173.68    5.60
  -2   2   1  191.08    8.80
  -2   2   1  187.08    4.90
  -2   2   1  178.88    6.70
   1  -2  -1  107.69    3.70
   1  -2  -1   98.09    4.10
   1  -2  -1  109.29    6.10
  -1   2   1  102.79    3.80
  -1   2   1  104.39    3.60
  -1   2   1  105.09    4.50
  -1   2   1  113.19    5.50
   0  -2  -1 1109.79   19.40
   0  -2  -1 1096.99   21.90
   0  -2  -1 1045.80   21.40
   0   2   1 1103.19   19.40
   0   2   1 1131.69   21.60
   0   2   1 1121.19   22.30
   0   2   1 1123.89   19.70
  -1  -2  -1 1326.67   23.90
  -1  -2  -1 1303.07   24.30
  -1  -2  -1 1370.26   23.60
  -1  -2  -1 1349.77   22.40
   1   2   1 1309.07   22.40
   1   2   1 1308.87   23.70
   1   2   1 1287.07   24.30
  -2  -2  -1 2597.14   41.20
  -2  -2  -1 2711.83   44.40
  -2  -2  -1 2596.64   43.40
  -2  -2  -1 2540.45   42.90
   2   2   1 2599.34   43.40
   2   2   1 2576.14   43.10
   2   2   1 2538.75   41.10
  -3  -2  -1 5951.30   92.19
  -3  -2  -1 5502.45   93.39
  -3  -2  -1 6112.59   94.29
  -3  -2  -1 5877.91   91.59
  -4  -2  -1 2770.82   48.90
  -4  -2  -1 2758.52   50.69
   4   2   1 2741.53   43.10
   4   2   1 2804.62   50.49
   4   2   1 2618.54   51.19
  -5  -2  -1    1.10    0.90
  -5  -2  -1    0.50    1.60
  -5  -2  -1    0.70    1.60
   5   2   1    1.50    1.60
   5   2   1    3.70    1.00
   5   2   1    2.30    2.10
  -6  -2  -1 2753.12   43.70
  -6  -2  -1 2685.93   55.79
  -6  -2  -1 2787.42   50.19
  -6  -2  -1 2809.82   53.59
   6   2   1 2783.22   55.89
   6   2   1 2709.63   57.89
  -7  -2  -1  299.27   14.00
  -7  -2  -1  331.07   12.20
  -7  -2  -1  307.57   15.40
   7   2   1  309.07   15.30
   7   2   1  316.97   16.90
  -8  -2  -1 1642.54   40.90
  -8  -2  -1 1715.63   36.00
  -8  -2  -1 1778.52   44.60
   8   2   1 1658.13   46.40
   8   2   1 1652.93   43.70
  -9  -2  -1  632.34   24.20
  -9  -2  -1  665.53   26.70
  -9  -2  -1  668.03   19.90
   9   2   1  653.73   26.70
   9   2   1  664.63   28.80
 -10  -2  -1  128.89   13.50
 -10  -2  -1  135.59   15.60
  10   2   1  102.69   14.60
  10   2   1  123.29   14.50
 -11  -2  -1   77.59   11.70
 -11  -2  -1   67.99   11.80
  11   2   1   67.59   13.00
  11   2   1   46.10   10.20
 -12  -2  -1    3.00    4.60
 -12  -2  -1    5.20    5.20
  12   2   1   11.30    6.90
  12   2   1    6.00    6.00
  10  -3  -1  596.54   32.20
  10  -3  -1  559.04   30.90
 -10   3   1  629.04   29.70
   9  -3  -1  790.12   34.80
   9  -3  -1  703.53   32.60
  -9   3   1  761.02   31.50
   8  -3  -1  306.47   19.80
   8  -3  -1  284.47   14.20
   8  -3  -1  276.77   19.20
  -8   3   1  276.77   17.50
  -8   3   1  284.47   14.80
   7  -3  -1    9.50    4.90
   7  -3  -1    6.80    3.00
   7  -3  -1    2.00    3.30
   7  -3  -1   20.20    4.80
  -7   3   1   15.20    4.20
  -7   3   1   15.70    5.20
   6  -3  -1 3056.99   60.19
   6  -3  -1 3052.49   68.19
   6  -3  -1 3090.69   67.59
   6  -3  -1 3098.59   58.19
  -6   3   1 3030.80   65.19
  -6   3   1 3056.19   59.19
   5  -3  -1  145.19    9.20
   5  -3  -1  130.49   10.50
   5  -3  -1  138.19    8.40
   5  -3  -1  143.79   10.80
  -5   3   1  132.59    7.20
  -5   3   1  128.19   12.70
  -5   3   1  128.29    8.10
   4  -3  -1  278.57   12.30
   4  -3  -1  253.97   11.00
   4  -3  -1  293.57   13.60
   4  -3  -1  268.17   14.00
  -4   3   1  258.37    5.80
  -4   3   1  258.07   13.60
  -4   3   1  269.47    9.60
  -4   3   1  252.87   10.30
   3  -3  -1 1261.67   32.00
   3  -3  -1 1213.38   29.30
   3  -3  -1 1165.98   26.80
   3  -3  -1 1283.87   29.30
  -3   3   1 1281.17   31.20
  -3   3   1 1229.48   20.70
  -3   3   1 1229.18   24.40
  -3   3   1 1220.48   25.40
   2  -3  -1 1933.01   31.10
   2  -3  -1 1857.11   38.10
   2  -3  -1 1989.60   41.20
   2  -3  -1 1857.81   33.00
  -2   3   1 1901.21   33.30
  -2   3   1 1835.42   33.50
  -2   3   1 1849.02   39.10
  -2   3   1 1882.11   30.90
   1  -3  -1 4316.77   71.39
   1  -3  -1 4205.88   65.39
  -1   3   1 4204.18   65.99
  -1   3   1 4118.89   71.49
  -1   3   1 4141.99   64.89
   0  -3  -1 3582.14   60.29
   0  -3  -1 3531.25   60.09
   0  -3  -1 3540.75   56.39
   0   3   1 3540.35   55.99
   0   3   1 3514.15   60.19
   0   3   1 3504.55   56.29
  -1  -3  -1    9.70    2.30
  -1  -3  -1   13.40    2.20
  -1  -3  -1   10.10    2.30
  -1  -3  -1   10.00    2.00
   1   3   1   12.80    2.40
   1   3   1   23.20    3.40
   1   3   1   22.60    2.80
  -2  -3  -1 1198.58   23.80
  -2  -3  -1 1200.98   23.70
  -2  -3  -1 1233.28   24.40
   2   3   1 1213.38   25.00
   2   3   1 1221.28   23.70
   2   3   1 1214.78   23.80
  -3  -3  -1   43.10    4.80
  -3  -3  -1   39.20    4.20
  -3  -3  -1   49.99    3.20
   3   3   1   50.79    3.20
   3   3   1   46.70    4.80
  -4  -3  -1 6125.79   97.69
   4   3   1 5985.60   93.79
   4   3   1 6158.98  101.29
   4   3   1 6040.60  100.69
  -5  -3  -1  450.85   16.60
  -5  -3  -1  459.55   14.70
   5   3   1  464.95   17.00
   5   3   1  424.46   16.00
   5   3   1  446.46   11.30
  -6  -3  -1 1230.28   29.20
  -6  -3  -1 1201.28   24.20
  -6  -3  -1 1247.28   32.20
  -6  -3  -1 1193.28   28.10
   6   3   1 1119.19   31.10
   6   3   1 1194.78   22.90
   6   3   1 1226.38   33.10
  -7  -3  -1 1101.99   29.00
  -7  -3  -1 1064.89   22.00
  -7  -3  -1 1090.39   32.20
  -7  -3  -1 1120.29   27.50
   7   3   1 1113.79   33.50
   7   3   1 1072.79   21.00
   7   3   1 1140.39   32.50
  -8  -3  -1 1493.85   41.20
  -8  -3  -1 1481.25   37.40
  -8  -3  -1 1488.85   34.60
   8   3   1 1558.54   43.60
   8   3   1 1443.76   40.60
  -9  -3  -1  344.67   14.80
  -9  -3  -1  358.16   17.30
  -9  -3  -1  383.06   20.10
   9   3   1  405.26   20.60
   9   3   1  298.67   19.40
 -10  -3  -1    4.00    3.70
 -10  -3  -1    3.20    2.90
 -10  -3  -1    4.00    3.60
  10   3   1    4.00    4.60
  10   3   1    4.70    4.00
 -11  -3  -1  535.75   24.20
 -11  -3  -1  579.04   28.10
  11   3   1  492.65   26.30
  11   3   1  544.45   29.40
 -12  -3  -1   36.60   10.30
 -12  -3  -1   46.70    9.40
  12   3   1   40.30   10.00
  12   3   1   37.90   10.90
  10  -4  -1  481.55   29.50
  10  -4  -1  577.74   31.70
 -10   4   1  513.05   28.30
   9  -4  -1   28.30    8.60
   9  -4  -1   30.30    8.60
  -9   4   1   38.80    9.20
   8  -4  -1  847.62   28.30
   8  -4  -1  907.81   36.00
   8  -4  -1  911.81   36.40
  -8   4   1  819.42   32.60
   7  -4  -1   12.30    3.80
   7  -4  -1   18.90    5.00
   7  -4  -1   20.60    6.60
   7  -4  -1   13.90    5.40
  -7   4   1   19.60    4.70
  -7   4   1   17.60    5.60
   6  -4  -1 1317.97   40.90
   6  -4  -1 1282.37   32.90
   6  -4  -1 1321.67   39.60
   6  -4  -1 1286.37   35.00
  -6   4   1 1278.37   30.00
  -6   4   1 1315.47   31.30
   5  -4  -1 1288.77   34.40
   5  -4  -1 1269.47   36.70
   5  -4  -1 1314.97   32.60
   5  -4  -1 1318.97   39.00
  -5   4   1 1356.76   30.10
  -5   4   1 1325.37   29.20
  -5   4   1 1371.66   38.90
   4  -4  -1  232.08   12.80
   4  -4  -1  239.38   12.70
   4  -4  -1  250.67   14.40
  -4   4   1  234.68   13.70
  -4   4   1  237.08    9.70
  -4   4   1  225.38    9.40
   3  -4  -1    5.70    2.90
   3  -4  -1    6.30    1.40
   3  -4  -1    5.50    3.10
   3  -4  -1    7.40    2.10
   3  -4  -1    6.10    2.70
  -3   4   1    6.40    2.10
  -3   4   1    0.40    2.50
  -3   4   1    8.20    2.20
   2  -4  -1    1.50    1.00
   2  -4  -1    3.70    2.20
   2  -4  -1    3.30    2.40
  -2   4   1   -0.70    1.80
  -2   4   1   -0.40    1.10
  -2   4   1    2.20    1.50
   1  -4  -1 2518.85   49.00
   1  -4  -1 2497.05   41.80
  -1   4   1 2396.26   48.40
  -1   4   1 2514.45   41.90
   0  -4  -1 1608.34   29.50
   0  -4  -1 1579.14   31.20
   0   4   1 1536.95   33.40
   0   4   1 1589.04   28.50
  -1  -4  -1   37.00    4.20
  -1  -4  -1   37.10    5.00
  -1  -4  -1   34.10    3.90
   1   4   1   31.20    4.40
  -2  -4  -1 3399.86   58.29
  -2  -4  -1 3406.46   58.89
   2   4   1 3397.56   59.49
   2   4   1 3402.66   58.19
  -3  -4  -1    0.70    1.30
  -3  -4  -1    1.70    1.50
   3   4   1    2.00    2.10
   3   4   1    0.40    1.60
   3   4   1    1.50    1.30
  -4  -4  -1 2142.09   38.10
  -4  -4  -1 2136.59   45.00
   4   4   1 2152.28   43.10
   4   4   1 2303.37   44.00
   4   4   1 2137.89   38.10
  -5  -4  -1 1674.03   29.00
  -5  -4  -1 1735.13   39.70
   5   4   1 1655.73   38.00
   5   4   1 1651.63   32.20
   5   4   1 1649.54   29.10
  -6  -4  -1 1357.96   32.00
  -6  -4  -1 1321.97   35.10
  -6  -4  -1 1334.77   31.00
   6   4   1 1320.47   35.30
   6   4   1 1327.27   27.10
   6   4   1 1321.97   34.90
  -7  -4  -1 1651.13   42.40
  -7  -4  -1 1631.64   37.90
  -7  -4  -1 1654.83   38.10
   7   4   1 1664.73   43.00
   7   4   1 1640.64   31.60
   7   4   1 1653.43   42.80
  -8  -4  -1  103.09   10.10
  -8  -4  -1  109.59   10.70
  -8  -4  -1  101.49   11.90
   8   4   1   94.09   11.70
   8   4   1  117.99   13.10
   8   4   1  102.39    6.30
  -9  -4  -1  785.02   24.80
  -9  -4  -1  748.23   25.60
  -9  -4  -1  788.82   30.30
   9   4   1  765.32   29.80
   9   4   1  762.32   31.00
 -10  -4  -1   63.59   11.20
 -10  -4  -1   60.19    8.50
 -10  -4  -1   59.99    9.20
  10   4   1   62.49   11.20
  10   4   1   57.29   10.30
 -11  -4  -1  494.35   20.40
 -11  -4  -1  504.35   23.00
 -11  -4  -1  539.45   27.40
  11   4   1  468.15   25.90
  11   4   1  543.05   28.90
 -12  -4  -1  477.15   27.50
 -12  -4  -1  484.35   23.80
  12   4   1  486.15   27.80
  12   4   1  477.05   28.70
   9  -5  -1  226.08   20.00
   9  -5  -1  219.98   23.10
  -9   5   1  213.28   21.90
   8  -5  -1  347.67   18.90
   8  -5  -1  354.26   22.70
   8  -5  -1  359.86   23.60
  -8   5   1  352.16   22.00
   7  -5  -1  586.24   23.60
   7  -5  -1  527.45   27.40
   7  -5  -1  616.54   24.80
   7  -5  -1  534.05   26.50
  -7   5   1  637.64   28.00
   6  -5  -1  115.09   14.70
   6  -5  -1  118.69    9.60
   6  -5  -1  118.19   13.90
   6  -5  -1  131.99   11.10
  -6   5   1  112.59    8.60
  -6   5   1  116.79   13.60
  -6   5   1  123.49    8.10
   5  -5  -1  967.80   31.80
   5  -5  -1  939.71   33.70
   5  -5  -1  991.40   30.80
  -5   5   1  976.30   23.50
  -5   5   1  980.60   33.10
  -5   5   1  946.81   24.40
   4  -5  -1   20.60    5.40
   4  -5  -1   15.90    5.50
   4  -5  -1   15.00    4.50
  -4   5   1   19.10    5.50
  -4   5   1   25.00    4.20
  -4   5   1   19.60    3.40
   3  -5  -1 2311.57   50.69
   3  -5  -1 2308.47   37.70
   3  -5  -1 2221.58   53.39
  -3   5   1 2173.88   50.39
  -3   5   1 2211.18   39.90
  -3   5   1 2196.28   42.80
   2  -5  -1  675.03   15.20
   2  -5  -1  656.33   22.30
  -2   5   1  675.03   18.40
  -2   5   1  668.73   22.30
  -2   5   1  659.63   15.50
   1  -5  -1   56.59    7.20
   1  -5  -1   51.09    3.90
  -1   5   1   56.79    4.00
  -1   5   1   67.19    8.00
   0  -5  -1  892.01   20.30
   0  -5  -1  894.71   25.00
   0   5   1  866.41   24.20
   0   5   1  887.81   19.10
  -1  -5  -1   48.40    5.10
  -1  -5  -1   38.90    5.60
   1   5   1   31.90    5.10
  -2  -5  -1 1037.00   25.90
  -2  -5  -1 1045.90   24.80
   2   5   1 1081.19   26.20
   2   5   1 1066.79   25.20
  -3  -5  -1 3693.83   64.99
  -3  -5  -1 3651.73   65.59
   3   5   1 3717.73   66.19
   3   5   1 3663.43   65.49
  -4  -5  -1   20.10    3.60
  -4  -5  -1   21.00    4.30
   4   5   1   12.50    3.50
   4   5   1   14.80    4.20
  -5  -5  -1  978.30   21.60
  -5  -5  -1  966.60   28.70
  -5  -5  -1 1015.60   26.80
   5   5   1  991.60   27.40
   5   5   1  985.10   23.70
   5   5   1  944.31   26.30
  -6  -5  -1  107.09    5.10
  -6  -5  -1  105.29   11.20
  -6  -5  -1   88.39    9.10
   6   5   1   90.39    6.20
   6   5   1   96.89    4.80
   6   5   1  110.79    9.60
  -7  -5  -1 3706.83   71.39
  -7  -5  -1 3690.43   76.59
   7   5   1 3687.33   64.69
   7   5   1 3755.82   75.69
  -8  -5  -1  271.07   14.20
  -8  -5  -1  234.88   15.70
   8   5   1  278.57   17.10
   8   5   1  240.88   10.00
   8   5   1  300.67   17.20
  -9  -5  -1  356.36   20.30
  -9  -5  -1  350.46   16.80
   9   5   1  309.07   19.00
   9   5   1  333.97   20.10
 -10  -5  -1  213.88   13.60
 -10  -5  -1  229.48   17.20
  10   5   1  224.68   17.20
  10   5   1  206.08   17.50
 -11  -5  -1  232.58   15.30
 -11  -5  -1  255.77   19.00
 -11  -5  -1  232.78   14.80
  11   5   1  243.98   20.10
  11   5   1  249.88   19.30
 -12  -5  -1  133.69   18.00
  12   5   1  193.28   21.20
  12   5   1  154.38   20.20
   8  -6  -1  104.99   13.90
   8  -6  -1   90.89   14.00
   8  -6  -1  116.69   17.30
  -8   6   1  100.89   15.00
   7  -6  -1 1066.69   36.10
   7  -6  -1  995.10   40.50
   7  -6  -1 1087.79   39.80
  -7   6   1  998.20   38.20
   6  -6  -1   13.80    5.50
   6  -6  -1   14.10    4.80
   6  -6  -1   42.00   10.00
   6  -6  -1    6.90    4.60
  -6   6   1   13.40    6.00
   5  -6  -1  428.86   23.20
   5  -6  -1  447.16   21.60
   5  -6  -1  434.16   21.10
  -5   6   1  412.96   21.90
  -5   6   1  440.06   16.00
   4  -6  -1   43.50    7.60
   4  -6  -1   57.39    8.90
   4  -6  -1   59.29   10.30
  -4   6   1   56.89    9.20
  -4   6   1   67.39    7.40
  -4   6   1   52.69    4.40
   3  -6  -1  813.12   28.10
   3  -6  -1  789.32   17.20
   3  -6  -1  769.12   29.90
  -3   6   1  811.82   28.00
  -3   6   1  787.82   17.70
  -3   6   1  801.62   22.20
   2  -6  -1 1612.64   42.00
   2  -6  -1 1642.64   31.30
  -2   6   1 1618.74   35.60
  -2   6   1 1608.64   30.20
  -2   6   1 1674.63   41.40
   1  -6  -1  163.78   11.30
   1  -6  -1  170.68    7.70
  -1   6   1  157.28   11.30
  -1   6   1  160.78    6.90
   0  -6  -1  450.05   14.20
   0  -6  -1  447.86   18.40
   0   6   1  469.65   18.00
   0   6   1  434.36   12.50
  -1  -6  -1   54.59    6.00
  -1  -6  -1   31.20    5.60
   1   6   1   53.29    7.40
  -2  -6  -1 1388.06   31.10
  -2  -6  -1 1275.97   32.60
   2   6   1 1340.87   32.50
  -3  -6  -1 1855.71   40.60
  -3  -6  -1 1831.92   39.80
   3   6   1 1958.20   41.30
   3   6   1 1822.22   40.30
  -4  -6  -1   10.10    3.20
  -4  -6  -1   12.70    3.50
   4   6   1   14.00    3.90
   4   6   1   14.40    4.30
  -5  -6  -1  730.33   23.30
  -5  -6  -1  773.72   20.50
   5   6   1  733.53   21.40
   5   6   1  741.33   23.80
   5   6   1  733.63   23.30
  -6  -6  -1  689.23   25.80
  -6  -6  -1  658.13   22.80
  -6  -6  -1  691.33   17.90
   6   6   1  727.53   24.80
   6   6   1  700.93   23.60
   6   6   1  698.63   20.60
  -7  -6  -1  593.14   24.80
  -7  -6  -1  638.04   22.80
   7   6   1  602.74   24.00
   7   6   1  573.44   22.50
   7   6   1  623.74   19.20
  -8  -6  -1  348.27   17.10
  -8  -6  -1  290.27   18.10
   8   6   1  320.77   13.10
   8   6   1  331.67   18.80
  -9  -6  -1  252.17   17.60
  -9  -6  -1  251.57   15.10
   9   6   1  248.58   17.30
 -10  -6  -1 1152.48   35.50
 -10  -6  -1 1222.98   42.50
  10   6   1 1081.39   40.00
 -11  -6  -1    7.50    5.40
 -11  -6  -1    5.10    4.50
  11   6   1    2.90    5.80
   7  -7  -1  381.26   23.70
   7  -7  -1  364.06   22.10
   7  -7  -1  352.56   24.70
  -7   7   1  350.36   23.40
   6  -7  -1  943.31   35.90
   6  -7  -1  858.21   37.80
   6  -7  -1  897.21   34.30
   6  -7  -1  913.61   32.10
  -6   7   1  967.60   37.30
   5  -7  -1  275.07   20.10
   5  -7  -1  280.27   18.20
   5  -7  -1  261.87   17.30
  -5   7   1  247.28   13.80
  -5   7   1  291.27   19.30
   4  -7  -1  258.17   17.30
   4  -7  -1  264.97   19.00
   4  -7  -1  240.18   15.80
  -4   7   1  266.17   12.70
  -4   7   1  261.87   17.10
   3  -7  -1    1.80    3.50
   3  -7  -1    0.80    3.10
  -3   7   1    6.20    4.00
  -3   7   1    0.70    2.10
   2  -7  -1 2811.12   63.69
   2  -7  -1 2763.62   49.20
  -2   7   1 2717.53   46.10
  -2   7   1 2781.42   61.19
  -2   7   1 2632.04   54.39
   1  -7  -1    1.70    2.00
   1  -7  -1    2.60    3.20
  -1   7   1    1.30    1.60
  -1   7   1    1.10    4.00
   0  -7  -1  227.48   14.20
   0  -7  -1  275.37   11.50
   0   7   1  262.77    9.70
   0   7   1  269.37   14.50
  -1  -7  -1 1159.48   28.50
  -1  -7  -1 1188.28   33.70
   1   7   1 1139.99   31.70
  -2  -7  -1   43.40    6.40
  -2  -7  -1   46.40    7.50
   2   7   1   43.80    7.20
  -3  -7  -1  130.49    9.20
  -3  -7  -1  126.19    9.70
   3   7   1  125.19    9.70
   3   7   1  133.19   10.00
  -4  -7  -1  298.57   14.40
  -4  -7  -1  279.47   13.70
   4   7   1  280.87   14.50
   4   7   1  316.97   14.90
  -5  -7  -1 1241.28   33.70
  -5  -7  -1 1237.48   30.90
   5   7   1 1254.07   32.10
   5   7   1 1259.37   34.40
   5   7   1 1274.37   33.90
  -6  -7  -1 1598.84   35.20
  -6  -7  -1 1621.54   41.00
  -6  -7  -1 1599.94   44.90
   6   7   1 1647.64   42.10
   6   7   1 1577.44   37.70
   6   7   1 1626.44   41.10
  -7  -7  -1    0.90    3.10
  -7  -7  -1    2.70    3.30
   7   7   1    0.30    2.70
   7   7   1    3.80    2.80
   7   7   1   -1.80    3.60
  -8  -7  -1  694.93   29.70
  -8  -7  -1  712.43   26.30
   8   7   1  694.13   28.00
   8   7   1  619.44   25.40
   8   7   1  705.93   22.40
  -9  -7  -1   87.39   13.00
  -9  -7  -1  100.59   12.30
   9   7   1   99.09   13.90
   9   7   1  101.89   12.90
 -10  -7  -1  675.43   27.50
 -10  -7  -1  725.83   33.00
  10   7   1  678.63   31.20
  10   7   1  657.13   28.90
 -11  -7  -1  329.97   23.00
 -11  -7  -1  320.17   19.30
  11   7   1  282.57   21.70
  11   7   1  290.47   20.10
   7  -8  -1  131.79   19.30
   7  -8  -1  128.39   16.60
   6  -8  -1  329.07   20.10
   6  -8  -1  358.76   22.50
   6  -8  -1  387.96   23.60
   6  -8  -1  398.86   26.50
  -6   8   1  370.66   23.70
   5  -8  -1   -4.60    3.00
   5  -8  -1    2.10    4.40
   5  -8  -1   -3.30    3.80
  -5   8   1    6.10    5.10
   4  -8  -1 1290.07   46.20
   4  -8  -1 1176.38   41.00
   4  -8  -1 1178.08   38.70
  -4   8   1 1196.18   40.30
  -4   8   1 1197.38   32.40
   3  -8  -1  256.47   17.80
   3  -8  -1  286.97   20.40
  -3   8   1  287.97   17.90
  -3   8   1  269.97   14.00
   2  -8  -1  117.59   14.30
   2  -8  -1  125.19    7.50
  -2   8   1  115.19   13.00
  -2   8   1  117.09    9.30
   1  -8  -1  292.17   12.10
   1  -8  -1  267.17   17.10
  -1   8   1  286.97   16.60
   0  -8  -1 1002.40   26.40
   0  -8  -1 1073.39   34.80
   0   8   1 1002.90   23.10
   0   8   1 1026.60   31.80
  -1  -8  -1  653.33   20.90
  -1  -8  -1  631.04   25.50
   1   8   1  607.44   23.40
  -2  -8  -1  262.57   13.30
  -2  -8  -1  279.87   16.10
   2   8   1  268.97   15.20
  -3  -8  -1  257.27   13.40
  -3  -8  -1  281.67   15.40
   3   8   1  234.18   14.20
  -4  -8  -1    4.80    3.50
  -4  -8  -1   -1.40    2.10
   4   8   1    2.10    3.20
   4   8   1   -3.20    2.70
  -5  -8  -1    3.10    3.30
  -5  -8  -1    3.70    3.10
   5   8   1    2.60    3.30
   5   8   1    8.60    4.10
   5   8   1    0.30    3.10
  -6  -8  -1 1111.19   30.30
  -6  -8  -1 1148.39   34.60
  -6  -8  -1 1163.28   38.60
   6   8   1 1188.58   35.80
   6   8   1 1244.78   33.50
   6   8   1 1151.08   34.20
  -7  -8  -1   13.60    5.20
  -7  -8  -1   10.70    4.60
   7   8   1    9.40    4.60
   7   8   1   13.10    5.70
   7   8   1   17.90    5.00
  -8  -8  -1  347.57   19.00
  -8  -8  -1  364.26   21.80
   8   8   1  345.17   16.30
   8   8   1  380.86   19.90
   8   8   1  361.06   20.60
  -9  -8  -1  288.67   20.40
  -9  -8  -1  259.47   16.80
   9   8   1  268.57   19.10
   9   8   1  260.07   17.30
 -10  -8  -1  372.06   21.10
 -10  -8  -1  357.96   24.10
  10   8   1  405.96   22.70
  10   8   1  376.46   23.70
 -11  -8  -1   70.39   11.70
 -11  -8  -1   48.00   11.70
  11   8   1   59.99   13.40
  11   8   1   52.59   10.70
   5  -9  -1   18.30    6.90
   5  -9  -1   14.40    7.10
   5  -9  -1    8.50    6.80
  -5   9   1   14.40    6.70
   4  -9  -1  768.52   34.30
   4  -9  -1  832.32   38.80
   4  -9  -1  822.02   32.90
  -4   9   1  797.02   33.40
   3  -9  -1  951.20   41.00
   3  -9  -1  982.40   38.50
  -3   9   1 1003.80   30.60
  -3   9   1 1040.80   36.70
   2  -9  -1   58.49   11.00
  -2   9   1   65.59    9.40
  -2   9   1   84.29   11.90
   1  -9  -1  537.55   26.30
   1  -9  -1  540.65   18.40
  -1   9   1  531.65   23.90
   0  -9  -1  112.29    8.50
   0  -9  -1   93.49   12.70
   0   9   1   91.59   11.90
  -1  -9  -1  725.93   23.60
  -1  -9  -1  718.03   29.10
   1   9   1  719.43   21.40
   1   9   1  748.73   27.10
  -2  -9  -1  246.18   16.30
  -2  -9  -1  252.67   13.70
   2   9   1  248.08   15.50
  -3  -9  -1   -1.70    3.00
  -3  -9  -1    4.10    3.20
   3   9   1   -1.50    3.40
  -4  -9  -1  394.96   19.40
  -4  -9  -1  377.96   18.40
   4   9   1  382.66   19.00
  -5  -9  -1   69.09    9.60
  -5  -9  -1   43.10    7.70
   5   9   1   74.99   10.20
   5   9   1   74.59   10.60
   5   9   1   71.39    9.90
  -6  -9  -1  102.59   12.10
  -6  -9  -1  104.49   13.50
  -6  -9  -1  128.59   10.50
   6   9   1  117.89   13.20
   6   9   1  121.59   12.40
   6   9   1  142.99   12.70
  -7  -9  -1  313.77   18.20
  -7  -9  -1  288.17   19.80
   7   9   1  333.37   19.30
   7   9   1  311.07   16.80
   7   9   1  302.57   17.70
  -8  -9  -1  556.64   25.40
  -8  -9  -1  546.45   28.80
   8   9   1  581.74   27.10
   8   9   1  568.54   25.20
   8   9   1  542.95   22.50
  -9  -9  -1  301.67   22.40
  -9  -9  -1  362.46   20.80
   9   9   1  327.77   20.00
   9   9   1  349.96   21.90
 -10  -9  -1  109.39   17.00
 -10  -9  -1  122.19   16.00
  10   9   1  159.08   19.40
  10   9   1  133.29   15.80
   4 -10  -1   55.19   13.30
   4 -10  -1   74.49   14.60
   4 -10  -1   64.79   12.00
  -4  10   1   53.19   11.10
   3 -10  -1  279.07   23.60
   3 -10  -1  339.47   23.30
  -3  10   1  318.07   21.00
   2 -10  -1   -2.10    3.90
   2 -10  -1   -0.40    3.80
  -2  10   1   13.90    6.00
  -2  10   1    4.10    4.00
   1 -10  -1 1009.90   39.40
  -1  10   1 1044.10   35.90
  -1  10   1  983.50   32.50
   0 -10  -1    5.80    3.60
   0 -10  -1    8.60    5.20
   0  10   1   19.10    6.50
  -1 -10  -1   10.60    5.70
  -1 -10  -1    6.00    3.50
   1  10   1   11.10    5.80
  -2 -10  -1   63.39   11.20
  -2 -10  -1   71.89    9.60
   2  10   1   70.29   10.70
  -3 -10  -1  209.98   14.00
  -3 -10  -1  266.57   17.90
   3  10   1  267.97   16.60
  -4 -10  -1  223.38   14.90
  -4 -10  -1  211.38   15.80
   4  10   1  226.08   15.60
  -5 -10  -1  463.55   22.10
  -5 -10  -1  479.65   22.50
   5  10   1  502.25   22.70
   5  10   1  448.36   22.20
  -6 -10  -1   34.40    7.60
  -6 -10  -1   42.00    8.60
  -6 -10  -1   19.70    7.30
   6  10   1   33.50    7.90
   6  10   1   32.50    7.60
   6  10   1   37.80    8.40
  -7 -10  -1  154.68   16.50
  -7 -10  -1  120.09   16.60
   7  10   1  157.08   16.80
   7  10   1  152.78   16.40
   7  10   1  161.18   13.00
  -8 -10  -1   25.40    8.80
  -8 -10  -1   34.90    8.50
   8  10   1   37.30    8.00
   8  10   1   40.30    9.40
   8  10   1   37.80    9.30
  -9 -10  -1  388.96   22.90
  -9 -10  -1  333.17   23.80
   9  10   1  324.77   22.10
   9  10   1  361.56   21.80
   2 -11  -1   57.19   12.80
   2 -11  -1   66.79   14.50
  -2  11   1   61.39   11.10
   1 -11  -1  725.43   34.70
  -1  11   1  695.13   28.00
  -1  11   1  742.83   31.20
   0 -11  -1  613.74   31.60
   0  11   1  597.44   27.30
  -1 -11  -1   40.70    7.80
  -1 -11  -1   33.20   10.00
   1  11   1   36.80    8.80
  -2 -11  -1   31.30    8.30
  -2 -11  -1   29.10    6.90
   2  11   1   39.70    8.90
  -3 -11  -1    3.30    4.60
  -3 -11  -1    1.30    3.90
   3  11   1    1.90    4.60
  -4 -11  -1   67.29   11.90
  -4 -11  -1   64.09    9.90
   4  11   1   76.39   12.00
  -5 -11  -1  241.48   16.40
  -5 -11  -1  214.68   16.40
   5  11   1  268.97   18.00
   5  11   1  237.78   16.80
  -6 -11  -1   11.80    6.90
  -6 -11  -1   11.60    7.50
  -6 -11  -1    4.30    3.80
   6  11   1    0.20    4.50
   6  11   1    6.40    6.10
  -7 -11  -1  172.38   17.90
  -7 -11  -1  126.39   17.70
   7  11   1  165.08   17.00
   7  11   1  162.18   21.00
   7  11   1  135.49   16.30
  -8 -11  -1   69.69   12.40
  -8 -11  -1   85.09   14.70
   8  11   1  109.29   15.60
   8  11   1   93.19   13.10
  -1 -12  -1  101.09   16.00
  -2 -12  -1   21.00    5.90
  -2 -12  -1   17.80    8.20
  -3 -12  -1  483.25   23.30
  -3 -12  -1  517.85   28.60
  -4 -12  -1   84.99   12.30
  -4 -12  -1   50.79   11.40
   4  12   1   69.69   12.40
  -5 -12  -1   -6.60    3.90
  -5 -12  -1    5.70    4.50
   5  12   1   -0.50    4.20
   5  11  -2   72.79   12.60
  -5 -11   2   73.29   14.10
  -5 -11   2   73.69   12.50
  -5 -11   2   34.30    9.00
   4  11  -2   16.50    7.40
  -4 -11   2   13.80    6.50
  -4 -11   2   17.30    7.60
   3  11  -2   71.99   12.30
  -3 -11   2   68.19   10.70
  -3 -11   2   69.59   12.90
   2  11  -2  301.67   20.70
  -2 -11   2  297.07   17.70
  -2 -11   2  346.97   23.20
   1  11  -2  125.69   16.30
  -1 -11   2  141.69   18.30
  -1 -11   2  116.99   13.20
   0  11  -2    6.80    6.40
   0  11  -2    2.30    5.30
   0 -11   2    4.30    6.50
  -1  11  -2  362.46   22.50
  -1  11  -2  359.76   23.00
   1 -11   2  377.56   26.20
   7  10  -2   46.80    9.90
   7  10  -2   50.09   11.50
  -7 -10   2   35.70   10.30
  -7 -10   2   30.60    8.30
   6  10  -2   73.19   11.30
   6  10  -2   83.89   14.40
  -6 -10   2   80.09   14.10
  -6 -10   2   52.99   10.00
   5  10  -2  131.89   15.10
  -5 -10   2  132.19   16.70
  -5 -10   2  122.39   14.80
  -5 -10   2  139.09   15.10
   4  10  -2  130.89   15.50
  -4 -10   2  118.89   15.00
  -4 -10   2  105.99   13.30
   3  10  -2  340.77   20.70
  -3 -10   2  316.37   20.90
  -3 -10   2  344.47   19.00
   2  10  -2   -0.90    4.40
  -2 -10   2    6.00    3.90
  -2 -10   2    6.70    6.00
   1  10  -2  441.36   23.80
  -1 -10   2  478.95   20.60
  -1 -10   2  501.55   27.00
   0  10  -2    5.80    5.20
   0 -10   2    8.80    4.40
   0 -10   2    7.00    6.10
  -1  10  -2  376.46   22.00
  -1  10  -2  287.37   19.20
   1 -10   2  297.67   22.50
  -2  10  -2  464.85   24.90
  -2  10  -2  469.15   24.30
   2 -10   2  444.06   27.30
  -3  10  -2   91.49   13.00
   3 -10   2   66.09   13.10
   8   9  -2  233.18   16.90
   8   9  -2  212.28   22.40
  -8  -9   2  183.38   20.40
   7   9  -2  263.17   17.60
   7   9  -2  280.97   20.80
  -7  -9   2  272.47   20.70
   6   9  -2    4.30    4.80
   6   9  -2   16.90    6.90
  -6  -9   2    0.60    4.30
   5   9  -2    8.80    5.00
   5   9  -2   -1.90    4.40
  -5  -9   2   14.90    5.60
  -5  -9   2    7.60    5.20
   4   9  -2   11.20    5.10
  -4  -9   2   18.10    6.10
   3   9  -2  696.23   28.00
  -3  -9   2  680.33   28.60
   2   9  -2  378.56   20.50
  -2  -9   2  349.67   20.80
   1   9  -2   39.80    8.20
  -1  -9   2   57.49    8.50
  -1  -9   2   45.80    9.30
   0   9  -2  182.38   14.60
   0  -9   2  184.78   16.00
   0  -9   2  186.98   11.80
  -1   9  -2  237.98   16.10
   1  -9   2  219.08   12.20
   1  -9   2  249.38   18.90
  -2   9  -2  569.74   25.50
  -2   9  -2  573.84   33.20
   2  -9   2  540.15   28.30
  -3   9  -2   13.80    5.90
  -3   9  -2   13.00    8.00
   3  -9   2    1.30    5.80
  -4   9  -2  281.27   18.00
   4  -9   2  281.37   21.30
   4  -9   2  308.87   23.40
  -5   9  -2   17.60    6.10
  -5   9  -2   20.00    8.40
   5  -9   2   22.30    9.40
   5  -9   2   12.50    7.80
   9   8  -2   61.19   12.80
  -9  -8   2   39.30   10.20
   8   8  -2  346.97   19.20
   8   8  -2  352.66   23.10
  -8  -8   2  374.46   23.80
   7   8  -2  106.59   14.90
   7   8  -2  102.09   12.40
  -7  -8   2   86.79   13.00
   6   8  -2   43.60    8.20
   6   8  -2   47.20    7.50
   6   8  -2   52.39   10.80
  -6  -8   2   38.00    8.90
  -6  -8   2   43.90    7.30
   5   8  -2   94.49    9.70
   5   8  -2   91.89   12.40
   5   8  -2   87.69   11.10
  -5  -8   2  129.49   10.90
  -5  -8   2  109.09   14.20
   4   8  -2   19.80    6.10
   4   8  -2   15.90    4.70
   4   8  -2   14.30    6.10
  -4  -8   2   18.10    5.30
   3   8  -2  582.04   19.90
   3   8  -2  611.64   24.50
  -3  -8   2  633.24   25.10
   2   8  -2 1202.18   36.30
   2   8  -2 1203.08   30.20
  -2  -8   2 1207.38   37.40
   1   8  -2   89.89    9.10
   1   8  -2   53.49    8.60
  -1  -8   2   86.29   11.80
   0   8  -2 1230.78   31.50
   0  -8   2 1235.48   31.90
   0  -8   2 1214.68   39.20
  -1   8  -2    0.10    2.80
   1  -8   2   -1.50    3.90
   1  -8   2    1.50    2.20
  -2   8  -2  286.57   15.20
  -2   8  -2  326.77   18.00
   2  -8   2  305.57   19.60
  -3   8  -2  212.58   13.80
  -3   8  -2  181.48   13.70
   3  -8   2  197.58   16.30
  -4   8  -2  588.64   24.90
  -4   8  -2  615.84   25.60
   4  -8   2  596.54   29.20
   4  -8   2  625.54   30.90
  -5   8  -2  379.26   20.20
  -5   8  -2  341.77   21.40
   5  -8   2  401.86   25.60
   5  -8   2  389.86   23.90
  -6   8  -2   79.59   11.40
  -6   8  -2   96.39   14.50
   6  -8   2  119.49   17.30
   6  -8   2   97.59   15.70
   6  -8   2  102.99   15.20
  10   7  -2   58.69   12.10
  10   7  -2   61.09   10.40
 -10  -7   2   51.39   11.40
   9   7  -2  376.46   19.50
   9   7  -2  385.36   24.30
  -9  -7   2  426.36   25.10
   8   7  -2  160.18   12.00
   8   7  -2  153.58   17.00
   8   7  -2  148.69   12.20
  -8  -7   2  157.18   17.80
   7   7  -2   11.90    4.60
   7   7  -2   19.50    5.10
   7   7  -2   17.60    6.80
  -7  -7   2   22.00    7.00
   6   7  -2   52.29    9.90
   6   7  -2   50.59    7.30
   6   7  -2   40.70    7.60
  -6  -7   2   62.49    7.80
  -6  -7   2   50.69    9.50
   5   7  -2  525.85   21.50
   5   7  -2  558.74   24.60
   5   7  -2  520.25   18.40
  -5  -7   2  512.75   19.60
  -5  -7   2  545.55   24.50
   4   7  -2  528.45   17.90
   4   7  -2  499.55   21.00
   4   7  -2  569.44   24.20
  -4  -7   2  554.74   21.30
   3   7  -2  292.77   17.00
   3   7  -2  312.47   13.20
   3   7  -2  286.27   15.40
  -3  -7   2  289.37   15.60
   2   7  -2  308.07   12.80
   2   7  -2  305.67   15.80
  -2  -7   2  330.77   17.10
   1   7  -2   41.50    5.80
   1   7  -2   48.60    7.80
  -1  -7   2   40.70    7.90
   0   7  -2 1447.36   33.50
   0  -7   2 1457.45   41.50
  -1   7  -2 1308.67   32.40
   1  -7   2 1306.77   39.80
  -2   7  -2  512.15   21.50
  -2   7  -2  539.85   19.90
   2  -7   2  512.65   15.70
   2  -7   2  509.05   23.50
  -3   7  -2  132.39   13.60
  -3   7  -2  124.39   10.30
   3  -7   2  131.99   15.30
  -4   7  -2   54.39    8.80
  -4   7  -2   59.99    9.10
   4  -7   2   60.09   10.50
   4  -7   2   52.19    9.80
  -5   7  -2 1291.17   38.10
  -5   7  -2 1371.46   42.80
   5  -7   2 1244.88   44.30
   5  -7   2 1291.97   43.30
  -6   7  -2   44.20    8.90
  -6   7  -2   54.69   10.70
   6  -7   2   51.39   10.50
   6  -7   2   53.29   11.10
   6  -7   2   50.69   10.40
  -7   7  -2   21.00    6.70
  -7   7  -2   21.70    7.70
   7  -7   2   23.90    8.20
   7  -7   2   10.40    6.50
   7  -7   2   12.70    7.40
  10   6  -2  622.94   31.80
 -10  -6   2  617.24   31.10
   9   6  -2  172.18   19.50
  -9  -6   2  154.78   17.50
   8   6  -2  224.48   13.60
   8   6  -2  251.37   18.50
  -8  -6   2  230.68   17.10
   7   6  -2  462.15   19.00
   7   6  -2  488.55   19.80
   7   6  -2  490.85   23.80
  -7  -6   2  442.16   22.60
   6   6  -2  331.17   16.10
   6   6  -2  357.16   15.20
   6   6  -2  345.97   19.30
  -6  -6   2  338.37   18.70
  -6  -6   2  323.77   13.10
   5   6  -2   16.40    3.90
   5   6  -2   11.00    5.30
   5   6  -2   12.20    4.20
  -5  -6   2   16.30    4.90
  -5  -6   2   13.30    4.00
   4   6  -2 5191.88   98.69
   4   6  -2 5215.68   95.19
   4   6  -2 5246.67   88.79
  -4  -6   2 5391.26   99.09
  -4  -6   2 5190.38   92.89
   3   6  -2    3.60    3.90
   3   6  -2    4.30    3.00
   3   6  -2    3.40    2.30
  -3  -6   2    6.10    3.20
   2   6  -2   74.29    6.10
   2   6  -2   73.29    8.60
  -2  -6   2   87.89    9.60
   1   6  -2 1544.85   32.20
   1   6  -2 1482.05   37.30
  -1  -6   2 1499.05   38.80
   0   6  -2 2256.97   39.50
   0   6  -2 2353.46   45.30
   0  -6   2 2411.86   53.89
  -1   6  -2 1065.59   26.50
   1  -6   2  987.80   31.70
  -2   6  -2   42.40    7.00
  -2   6  -2   50.59    6.80
   2  -6   2   46.80    5.20
   2  -6   2   53.99    8.70
  -3   6  -2 1301.67   34.30
  -3   6  -2 1264.37   35.00
   3  -6   2 1342.77   39.40
   3  -6   2 1314.77   25.70
  -4   6  -2  157.48   11.30
  -4   6  -2  140.59   10.90
   4  -6   2  133.89   14.60
  -5   6  -2  508.05   21.10
  -5   6  -2  534.55   24.20
   5  -6   2  486.05   23.70
   5  -6   2  512.85   25.20
  -6   6  -2  327.97   19.90
  -6   6  -2  293.67   16.40
   6  -6   2  315.47   20.90
   6  -6   2  315.07   20.30
   6  -6   2  323.57   19.70
  -7   6  -2  359.16   21.80
  -7   6  -2  310.27   17.50
   7  -6   2  367.76   23.80
   7  -6   2  326.27   21.50
   7  -6   2  382.46   21.60
  -8   6  -2  481.55   22.30
  -8   6  -2  493.25   27.20
   8  -6   2  492.45   29.40
   8  -6   2  521.65   26.10
   8  -6   2  545.15   28.90
  11   5  -2  145.59   19.20
  11   5  -2  173.68   21.50
 -11  -5   2  190.28   21.80
  10   5  -2   15.90    7.70
  10   5  -2    8.10    7.00
 -10  -5   2    3.80    5.10
   9   5  -2  633.94   29.80
   9   5  -2  571.84   29.80
  -9  -5   2  620.14   29.00
   8   5  -2  229.48   17.90
   8   5  -2  227.48   12.80
   8   5  -2  225.08   17.20
  -8  -5   2  197.88   15.40
   7   5  -2  160.58   14.20
   7   5  -2  161.48   13.70
   7   5  -2  158.98   10.70
  -7  -5   2  198.88   14.60
   6   5  -2  394.66   19.90
   6   5  -2  428.86   21.40
   6   5  -2  450.65   17.70
  -6  -5   2  445.46   20.80
  -6  -5   2  402.56   13.30
   5   5  -2   15.70    4.30
   5   5  -2   26.60    4.70
   5   5  -2   22.30    5.90
  -5  -5   2   25.90    4.50
  -5  -5   2   25.00    5.80
   4   5  -2  181.58   12.50
   4   5  -2  172.78    8.70
   4   5  -2  177.18   10.60
  -4  -5   2  164.88   11.40
  -4  -5   2  182.78    9.70
   3   5  -2  326.87   15.90
   3   5  -2  336.87   14.50
   3   5  -2  320.47   11.30
  -3  -5   2  338.27   14.10
   2   5  -2 1488.35   35.10
   2   5  -2 1481.55   37.00
   2   5  -2 1473.05   29.70
  -2  -5   2 1465.95   35.10
   1   5  -2 1597.34   36.90
   1   5  -2 1609.74   31.50
  -1  -5   2 1572.14   32.10
  -1  -5   2 1608.34   38.10
   0   5  -2  237.48    9.70
   0   5  -2  231.78    7.40
   0  -5   2  233.48   12.80
  -1   5  -2 1890.41   37.70
   1  -5   2 1867.51   44.30
  -2   5  -2   40.70    5.80
  -2   5  -2   35.30    6.10
   2  -5   2   23.20    5.20
  -3   5  -2 2137.39   47.10
  -3   5  -2 2164.18   46.30
   3  -5   2 2145.09   36.70
   3  -5   2 2117.19   50.49
  -4   5  -2 1830.32   43.00
   4  -5   2 1811.62   46.50
   4  -5   2 1855.41   47.40
  -5   5  -2  153.28   10.80
  -5   5  -2  135.99   14.10
   5  -5   2   96.99   12.00
   5  -5   2  115.99   12.40
  -6   5  -2  363.86   17.30
  -6   5  -2  370.06   19.80
   6  -5   2  345.87   18.80
   6  -5   2  367.06   21.50
   6  -5   2  347.27   19.60
  -7   5  -2  178.48   12.50
  -7   5  -2  191.58   15.30
   7  -5   2  188.48   20.00
   7  -5   2  171.08   13.70
   7  -5   2  192.98   15.40
  -8   5  -2  431.36   24.10
  -8   5  -2  443.46   20.50
   8  -5   2  423.06   24.20
   8  -5   2  405.46   25.40
   8  -5   2  387.16   21.20
  -9   5  -2  119.49   16.40
  -9   5  -2  175.08   25.20
   9  -5   2  144.09   17.80
   9  -5   2  180.18   21.50
  11   4  -2  506.25   30.40
  11   4  -2  535.55   30.30
 -11  -4   2  523.55   28.50
  10   4  -2  174.88   19.60
  10   4  -2  148.69   18.40
 -10  -4   2  188.48   19.60
   9   4  -2  442.66   24.30
   9   4  -2  431.56   24.90
  -9  -4   2  421.56   22.90
   8   4  -2  170.78   14.90
   8   4  -2  179.08   15.00
   8   4  -2  161.78   10.10
  -8  -4   2  170.28   13.80
   7   4  -2    0.90    3.00
   7   4  -2   10.00    5.10
   7   4  -2    2.80    2.50
  -7  -4   2    7.70    3.90
  -7  -4   2    4.70    3.40
   6   4  -2 2611.24   61.79
   6   4  -2 2592.44   58.99
   6   4  -2 2654.73   52.99
  -6  -4   2 2653.73   45.30
  -6  -4   2 2702.13   58.89
  -6  -4   2 2550.84   58.49
   5   4  -2  183.38   10.30
   5   4  -2  190.98   13.10
  -5  -4   2  191.68    8.40
  -5  -4   2  196.98   12.20
  -5  -4   2  201.18   12.60
   4   4  -2   29.00    4.70
   4   4  -2   30.20    3.40
   4   4  -2   30.70    6.10
   4   4  -2   26.90    5.80
  -4  -4   2   29.50    4.30
  -4  -4   2   38.80    6.20
  -4  -4   2   23.70    4.90
   3   4  -2 3008.90   51.99
   3   4  -2 3009.20   59.29
   3   4  -2 2948.21   49.20
   3   4  -2 3062.69   56.99
  -3  -4   2 3024.20   57.09
  -3  -4   2 3053.19   55.29
  -3  -4   2 3008.20   58.49
   2   4  -2 2820.72   53.99
   2   4  -2 2866.91   48.40
   2   4  -2 2847.32   56.19
  -2  -4   2 2867.81   52.09
  -2  -4   2 2918.51   54.09
   1   4  -2 2061.39   41.50
   1   4  -2 2062.29   43.50
   1   4  -2 2010.40   35.60
  -1  -4   2 1976.30   41.90
  -1  -4   2 1995.70   34.80
  -1  -4   2 2005.40   36.90
   0   4  -2 2907.51   49.50
   0   4  -2 2872.51   47.50
   0  -4   2 2964.80   49.30
   0  -4   2 2984.00   56.99
  -1   4  -2  712.73   17.60
   1  -4   2  681.33   21.70
  -2   4  -2  201.38    9.50
  -2   4  -2  214.88   11.00
   2  -4   2  213.08   11.80
  -3   4  -2  169.58    9.70
  -3   4  -2  178.98   10.20
   3  -4   2  172.78   10.90
  -4   4  -2 2744.03   54.79
   4  -4   2 2730.33   58.49
   4  -4   2 2622.04   57.19
  -5   4  -2   35.60    6.60
  -5   4  -2   15.00    4.10
   5  -4   2    8.60    3.70
   5  -4   2   12.40    4.20
  -6   4  -2 2051.89   51.09
  -6   4  -2 1987.30   45.60
   6  -4   2 1964.60   52.99
   6  -4   2 1929.71   47.90
   6  -4   2 1943.01   49.90
  -7   4  -2  173.38   13.90
  -7   4  -2  195.28   12.50
   7  -4   2  167.08   18.10
   7  -4   2  192.78   14.40
   7  -4   2  182.08   13.00
  -8   4  -2  262.57   15.30
  -8   4  -2  299.87   19.00
   8  -4   2  255.77   15.90
   8  -4   2  279.97   18.50
   8  -4   2  282.17   20.00
  -9   4  -2  151.28   15.00
  -9   4  -2  137.29   16.60
   9  -4   2  155.88   19.60
   9  -4   2  123.89   15.80
 -10   4  -2  119.49   16.90
  10  -4   2   84.99   13.70
  10  -4   2   91.29   15.60
  11   3  -2  604.94   31.80
  11   3  -2  649.24   33.80
 -11  -3   2  548.05   29.50
  10   3  -2  553.14   29.00
  10   3  -2  520.25   28.60
 -10  -3   2  542.15   27.50
   9   3  -2   39.80    9.40
   9   3  -2   32.60    8.70
  -9  -3   2   23.10    7.20
  -9  -3   2   32.80    6.10
   8   3  -2  647.24   28.20
   8   3  -2  567.04   25.90
   8   3  -2  617.04   19.90
  -8  -3   2  603.34   19.60
  -8  -3   2  609.84   26.00
  -8  -3   2  610.04   25.90
   7   3  -2    8.80    4.50
   7   3  -2   12.50    3.70
   7   3  -2   10.70    4.60
  -7  -3   2   12.40    3.40
  -7  -3   2   17.40    5.60
  -7  -3   2   13.40    5.00
   6   3  -2 1032.40   33.40
   6   3  -2 1048.40   26.60
   6   3  -2 1005.80   31.50
  -6  -3   2 1074.69   32.00
  -6  -3   2 1053.79   24.00
  -6  -3   2 1039.00   19.80
  -6  -3   2 1072.59   31.90
   5   3  -2 1722.73   41.40
   5   3  -2 1737.83   43.40
   5   3  -2 1734.23   36.70
  -5  -3   2 1685.93   40.70
  -5  -3   2 1687.73   32.10
  -5  -3   2 1680.33   40.70
  -5  -3   2 1695.83   31.30
   4   3  -2  271.37   14.00
   4   3  -2  273.57   13.30
   4   3  -2  267.27    8.20
   4   3  -2  255.97   11.10
  -4  -3   2  277.87    9.50
  -4  -3   2  274.37   12.80
  -4  -3   2  270.37   12.70
   3   3  -2 1169.18   28.50
   3   3  -2 1123.39   20.40
   3   3  -2 1123.59   26.30
   3   3  -2 1113.79   29.80
  -3  -3   2 1127.89   27.40
  -3  -3   2 1105.99   24.30
  -3  -3   2 1132.29   27.70
   2   3  -2   54.29    3.40
   2   3  -2   47.00    5.20
   2   3  -2   52.39    6.00
  -2  -3   2   58.79    5.80
  -2  -3   2   52.69    4.50
   1   3  -2 1932.61   39.20
   1   3  -2 1925.51   37.50
   1   3  -2 1891.51   31.70
   1   3  -2 1868.01   34.60
  -1  -3   2 1898.21   34.80
  -1  -3   2 1866.21   37.60
   0   3  -2  238.28    7.00
   0   3  -2  228.58    9.60
   0   3  -2  229.48    6.90
   0  -3   2  225.88    6.70
   0  -3   2  229.18    6.90
   0  -3   2  236.48   10.30
  -1   3  -2  328.17    9.70
   1  -3   2  321.07    9.90
  -2   3  -2 5686.83   91.59
  -2   3  -2 5643.74   94.19
   2  -3   2 5619.04   96.09
  -3   3  -2  344.07   13.20
   3  -3   2  346.97   14.30
  -4   3  -2  861.81   25.30
  -4   3  -2  868.31   23.70
   4  -3   2  841.12   24.80
   4  -3   2  848.12   16.10
   4  -3   2  823.22   24.90
  -5   3  -2  526.35   18.50
  -5   3  -2  519.05   20.50
   5  -3   2  538.95   19.60
   5  -3   2  502.05   19.50
   5  -3   2  533.55   13.40
  -6   3  -2 1838.42   46.70
  -6   3  -2 1871.81   42.90
   6  -3   2 1925.61   50.19
   6  -3   2 2007.60   47.10
   6  -3   2 1907.71   44.30
  -7   3  -2  797.02   29.10
  -7   3  -2  772.82   25.20
   7  -3   2  804.32   31.50
   7  -3   2  768.72   27.90
   7  -3   2  765.82   25.40
   7  -3   2  695.53   26.70
  -8   3  -2    1.70    2.90
  -8   3  -2   -1.10    3.00
   8  -3   2    3.30    4.10
   8  -3   2    1.00    2.70
   8  -3   2    1.60    3.30
  -9   3  -2  214.68   16.70
   9  -3   2  243.58   17.00
   9  -3   2  256.87   20.00
 -10   3  -2   66.69   12.40
  10  -3   2   62.79   11.80
  10  -3   2   57.99   12.80
  11   2  -2   -0.80    5.20
  11   2  -2   -1.90    4.90
 -11  -2   2   -4.90    4.20
  10   2  -2 1565.44   52.19
  10   2  -2 1655.33   52.29
 -10  -2   2 1557.94   49.00
 -10  -2   2 1571.64   41.60
   9   2  -2   94.29   13.00
   9   2  -2  111.29   14.60
  -9  -2   2   97.79   13.50
  -9  -2   2  104.89   10.60
  -9  -2   2  112.59   13.50
   8   2  -2  436.86   23.20
   8   2  -2  464.85   23.20
  -8  -2   2  487.95   22.70
  -8  -2   2  464.85   22.00
  -8  -2   2  474.85   17.80
   7   2  -2 1187.18   36.60
   7   2  -2 1204.78   38.00
   7   2  -2 1193.58   28.90
  -7  -2   2 1196.38   29.10
  -7  -2   2 1225.28   36.00
   6   2  -2  655.63   23.90
   6   2  -2  621.94   24.30
   6   2  -2  617.24   18.20
  -6  -2   2  608.24   22.70
  -6  -2   2  582.74   12.30
  -6  -2   2  579.54   22.00
  -6  -2   2  607.24   12.20
  -6  -2   2  583.24   17.10
   5   2  -2  888.21   28.10
   5   2  -2  887.91   22.50
   5   2  -2  888.81   26.90
  -5  -2   2  870.71   26.00
  -5  -2   2  930.61   20.70
  -5  -2   2  881.21   17.90
  -5  -2   2  940.01   27.10
  -5  -2   2  871.71   17.50
   4   2  -2   99.59    6.30
   4   2  -2   99.19    7.90
  -4  -2   2  100.29    4.90
  -4  -2   2   87.79    7.10
  -4  -2   2   95.89    7.40
  -4  -2   2  108.39    5.00
   3   2  -2 4840.52   81.09
   3   2  -2 4880.31   75.19
   3   2  -2 4967.80   84.09
   3   2  -2 4905.41   86.09
  -3  -2   2 4959.70   75.19
  -3  -2   2 4877.21   83.29
  -3  -2   2 4962.90   78.39
  -3  -2   2 4969.40   83.89
   2   2  -2 1155.48   19.20
   2   2  -2 1229.18   28.20
   2   2  -2 1163.08   26.40
   2   2  -2 1202.18   25.50
  -2  -2   2 1190.28   24.10
  -2  -2   2 1171.78   25.60
  -2  -2   2 1224.68   26.10
   1   2  -2   81.29    3.00
   1   2  -2   92.29    5.40
   1   2  -2   85.89    4.80
   1   2  -2   86.79    6.00
  -1  -2   2  105.79    6.30
  -1  -2   2   86.49    5.20
  -1  -2   2   88.79    5.00
   0   2  -2  638.74   13.20
   0   2  -2  624.04   11.30
   0   2  -2  651.53   15.90
   0  -2   2  639.64   13.40
   0  -2   2  664.23   16.80
   0  -2   2  608.94   11.20
  -1   2  -2  269.67    7.50
  -1   2  -2  252.37    5.60
  -1   2  -2  259.97    8.90
   1  -2   2  249.68    5.70
   1  -2   2  252.57    7.40
   1  -2   2  275.97   10.30
  -2   2  -2 2151.58   40.40
   2  -2   2 2156.28   41.60
   2  -2   2 2177.78   32.70
   2  -2   2 2155.38   32.80
   2  -2   2 2126.79   38.70
  -3   2  -2 4070.19   70.09
  -3   2  -2 4051.69   71.09
   3  -2   2 4072.09   62.79
   3  -2   2 4147.19   71.49
  -4   2  -2 1199.08   30.30
  -4   2  -2 1256.97   28.80
   4  -2   2 1223.28   23.60
   4  -2   2 1213.68   29.10
   4  -2   2 1259.57   29.40
  -5   2  -2 1825.42   41.90
  -5   2  -2 1848.02   39.10
   5  -2   2 1837.62   39.40
   5  -2   2 1779.02   43.90
   5  -2   2 1726.33   39.40
  -6   2  -2   54.69    6.80
  -6   2  -2   49.50    7.50
   6  -2   2   46.60    6.80
   6  -2   2   60.19    7.00
   6  -2   2   42.30    7.40
  -7   2  -2 2887.61   58.39
  -7   2  -2 2913.21   63.59
   7  -2   2 2853.11   56.49
   7  -2   2 2825.52   66.59
   7  -2   2 2659.23   49.10
   7  -2   2 2868.91   61.19
  -8   2  -2   -0.20    2.30
  -8   2  -2    0.50    2.80
   8  -2   2    1.80    2.50
   8  -2   2    1.60    2.50
   8  -2   2   -1.90    3.10
  -9   2  -2  284.57   18.30
   9  -2   2  269.27   20.10
   9  -2   2  267.97   17.10
 -10   2  -2  455.65   24.70
  10  -2   2  390.76   22.40
  10  -2   2  397.36   25.70
 -11   2  -2   32.50    9.40
  11  -2   2   42.10   10.30
  11  -2   2   51.59   12.20
  11   1  -2   74.29   13.70
  11   1  -2   75.39   13.80
 -11  -1   2   99.49   12.40
 -11  -1   2   72.69   13.20
  10   1  -2  146.49   17.50
  10   1  -2  136.29   17.70
 -10  -1   2  112.79   15.00
 -10  -1   2  122.59   13.20
   9   1  -2  313.47   20.50
   9   1  -2  289.77   20.00
  -9  -1   2  282.27   18.30
  -9  -1   2  289.17   15.50
  -9  -1   2  298.37   18.20
   8   1  -2  901.21   33.20
   8   1  -2  855.71   33.00
  -8  -1   2  864.71   30.90
  -8  -1   2  855.41   26.40
  -8  -1   2  852.21   30.50
   7   1  -2 2306.27   56.09
   7   1  -2 2157.18   54.09
  -7  -1   2 2218.28   46.80
  -7  -1   2 2251.07   52.79
  -7  -1   2 2185.08   52.39
   6   1  -2  507.25   21.60
   6   1  -2  502.65   21.00
  -6  -1   2  519.75   20.10
  -6  -1   2  500.55   11.80
  -6  -1   2  509.35   16.60
  -6  -1   2  517.85   20.40
   5   1  -2 1399.96   30.20
   5   1  -2 1374.76   36.60
   5   1  -2 1451.05   36.40
   5   1  -2 1419.76   31.20
  -5  -1   2 1408.56   34.70
  -5  -1   2 1453.25   35.60
  -5  -1   2 1397.66   25.70
  -5  -1   2 1446.46   30.10
   4   1  -2    4.10    1.90
   4   1  -2    4.60    2.30
   4   1  -2    3.60    1.90
   4   1  -2    5.50    2.80
  -4  -1   2    1.20    1.10
  -4  -1   2    1.30    1.90
  -4  -1   2    7.80    2.10
  -4  -1   2    6.10    2.50
   3   1  -2 2658.63   49.60
   3   1  -2 2658.93   46.70
   3   1  -2 2651.23   51.29
   3   1  -2 2654.63   47.60
  -3  -1   2 2554.84   49.20
  -3  -1   2 2607.44   43.00
  -3  -1   2 2629.64   48.60
   2   1  -2 2722.33   45.70
   2   1  -2 2649.53   48.40
   2   1  -2 2883.11   50.79
   2   1  -2 2711.63   47.30
   2   1  -2 2793.82   48.60
  -2  -1   2 2761.22   48.80
  -2  -1   2 2793.02   53.49
  -2  -1   2 2665.23   47.60
   1   1  -2  197.28    5.30
   1   1  -2  197.38    7.30
   1   1  -2  204.38    7.40
   1   1  -2  216.58    8.30
   1   1  -2  210.58    8.10
   1   1  -2  218.88    8.30
  -1  -1   2  210.38    6.90
  -1  -1   2  207.58    8.20
  -1  -1   2  196.18    7.80
  -1  -1   2  195.98    7.50
   0   1  -2   49.30    4.20
   0   1  -2   54.69    2.40
   0   1  -2   51.69    3.20
   0   1  -2   52.99    3.60
   0  -1   2   54.89    3.30
   0  -1   2   46.10    3.70
   0  -1   2   43.00    3.40
   0  -1   2   54.29    3.50
  -1   1  -2 1525.25   27.20
  -1   1  -2 1560.24   28.80
  -1   1  -2 1496.15   29.00
  -1   1  -2 1564.54   27.70
  -1   1  -2 1541.65   25.20
   1  -1   2 1536.85   25.70
   1  -1   2 1576.74   29.40
   1  -1   2 1534.95   25.30
  -2   1  -2  716.23   17.10
  -2   1  -2  728.43   15.30
  -2   1  -2  707.53   16.90
  -2   1  -2  724.13   17.10
   2  -1   2  740.93   16.30
   2  -1   2  744.03   17.60
   2  -1   2  730.03   13.60
   2  -1   2  734.13   15.80
  -3   1  -2 2951.00   52.19
  -3   1  -2 3016.80   53.39
   3  -1   2 2987.50   50.69
   3  -1   2 2949.60   51.99
   3  -1   2 2908.01   48.10
   3  -1   2 3042.80   45.50
  -4   1  -2  490.75   16.40
  -4   1  -2  498.55   15.40
   4  -1   2  537.25   13.60
   4  -1   2  515.35   17.80
   4  -1   2  511.15   14.80
   4  -1   2  499.35   14.90
  -5   1  -2 4900.91   72.89
  -5   1  -2 5000.50   84.19
  -5   1  -2 4743.23   86.49
   5  -1   2 4918.11   83.89
   5  -1   2 4844.52   89.39
   5  -1   2 4931.61   82.19
  -6   1  -2  115.09    9.10
  -6   1  -2  102.99    7.90
   6  -1   2  107.49    4.20
   6  -1   2   99.49    7.70
   6  -1   2  107.49    7.10
   6  -1   2  110.99    9.60
  -7   1  -2  742.33   23.60
  -7   1  -2  797.32   26.70
   7  -1   2  753.02   20.80
   7  -1   2  742.53   28.50
   7  -1   2  753.72   24.70
  -8   1  -2  230.68   14.90
   8  -1   2  278.27   15.40
   8  -1   2  240.68   17.10
   8  -1   2  246.18   11.20
  -9   1  -2  998.30   34.60
   9  -1   2  972.00   37.90
   9  -1   2 1005.50   33.50
 -10   1  -2  506.55   25.40
  10  -1   2  557.54   29.90
  10  -1   2  607.04   26.80
 -11   1  -2   46.50   10.50
  11  -1   2   44.70    9.80
  11  -1   2   33.80   10.30
  11   0  -2  746.83   36.60
  11   0  -2  680.43   35.10
 -11   0   2  712.63   33.40
 -11   0   2  727.93   29.70
  10   0  -2    6.50    5.30
  10   0  -2   -1.90    5.00
 -10   0   2    1.90    3.10
 -10   0   2   -1.70    3.10
 -10   0   2    0.40    3.50
   9   0  -2  771.82   32.60
   9   0  -2  706.43   31.40
  -9   0   2  699.63   29.20
  -9   0   2  645.94   25.20
  -9   0   2  644.64   27.20
   8   0  -2    4.40    3.80
   8   0  -2   -2.90    3.10
  -8   0   2    2.20    2.70
  -8   0   2    2.90    3.50
  -8   0   2    4.90    3.60
   7   0  -2 2201.28   54.29
   7   0  -2 2171.58   54.69
   7   0  -2 2162.58   43.60
  -7   0   2 2154.78   47.60
  -7   0   2 2211.28   52.29
  -7   0   2 2161.48   51.29
   6   0  -2  176.38   12.60
   6   0  -2  203.28   13.10
   6   0  -2  200.08    9.60
  -6   0   2  187.28   11.90
  -6   0   2  177.88    7.30
  -6   0   2  165.28   11.10
  -6   0   2  186.18   10.30
   5   0  -2 1860.81   43.60
   5   0  -2 1772.32   41.90
   5   0  -2 1804.12   36.50
  -5   0   2 1845.82   37.50
  -5   0   2 1810.02   40.90
  -5   0   2 1715.93   40.30
  -5   0   2 1763.62   32.80
   4   0  -2 1860.21   41.80
   4   0  -2 1902.81   36.80
   4   0  -2 1914.21   40.90
  -4   0   2 1884.11   39.60
  -4   0   2 1814.82   39.60
  -4   0   2 1831.72   33.40
  -4   0   2 1940.71   36.70
   3   0  -2  120.69    7.20
   3   0  -2  123.49    7.80
   3   0  -2  105.49    5.80
   3   0  -2  118.99    6.30
  -3   0   2  104.59    6.70
  -3   0   2  112.49    5.50
  -3   0   2  115.99    6.70
  -3   0   2  117.99    5.20
   2   0  -2 1407.86   27.20
   2   0  -2 1421.26   27.70
   2   0  -2 1421.16   27.00
   2   0  -2 1381.56   28.10
   2   0  -2 1373.96   29.50
  -2   0   2 1434.96   29.70
  -2   0   2 1399.56   27.40
  -2   0   2 1371.86   27.30
  -2   0   2 1397.56   27.40
  -2   0   2 1408.56   28.50
   1   0  -2    9.50    2.10
   1   0  -2    4.30    1.70
   1   0  -2    9.40    1.90
   1   0  -2    6.20    1.80
   1   0  -2   10.20    2.10
   1   0  -2    7.70    1.40
   1   0  -2    8.10    1.80
  -1   0   2    6.00    1.70
  -1   0   2    6.40    1.70
  -1   0   2    7.70    1.60
  -1   0   2    5.30    1.50
  -1   0   2    8.90    1.90
  -1   0   2    8.10    2.00
  -1   0   2    6.40    2.20
   0   0  -2 1782.32   29.70
   0   0  -2 1734.53   27.70
   0   0  -2 1802.92   29.80
   0   0  -2 1756.72   29.80
   0   0  -2 1691.23   29.90
   0   0  -2 1773.72   30.80
   0   0   2 1765.52   29.90
   0   0   2 1745.43   27.90
   0   0   2 1677.33   29.70
   0   0   2 1653.43   30.40
   0   0   2 1758.92   29.50
   0   0   2 1751.12   29.70
   0   0   2 1748.43   27.20
   0   0   2 1748.13   27.40
  -2   0  -2  173.98    5.00
  -2   0  -2  176.98    5.10
  -2   0  -2  178.08    6.80
  -2   0  -2  183.08    5.60
   2   0   2  180.58    6.70
   2   0   2  163.88    6.30
   2   0   2  173.88    4.90
   2   0   2  176.78    6.80
   2   0   2  180.38    5.40
   2   0   2  180.48    4.50
   2   0   2  178.48    5.60
   2   0   2  182.78    5.10
  -3   0  -2 1963.60   31.70
  -3   0  -2 2012.30   32.50
  -3   0  -2 2003.40   35.80
  -3   0  -2 2033.50   37.60
  -3   0  -2 2045.40   37.00
   3   0   2 1971.60   31.80
   3   0   2 2012.00   35.40
   3   0   2 2017.20   32.50
   3   0   2 2018.30   34.00
   3   0   2 1973.40   38.60
  -4   0  -2  546.65   16.30
  -4   0  -2  516.95   15.30
  -4   0  -2  552.94   11.40
  -4   0  -2  516.95   15.00
  -4   0  -2  524.05   10.20
   4   0   2  532.85   13.60
   4   0   2  544.75   14.10
   4   0   2  519.95   17.20
  -5   0  -2 3158.28   57.49
  -5   0  -2 3057.79   49.40
  -5   0  -2 3000.50   56.59
  -5   0  -2 3062.29   58.39
   5   0   2 3110.69   52.79
   5   0   2 3154.78   55.69
   5   0   2 3091.19   61.29
  -6   0  -2 3178.48   59.99
  -6   0  -2 3170.28   61.19
  -6   0  -2 3181.38   50.99
  -6   0  -2 3033.60   48.60
  -6   0  -2 3093.59   61.79
   6   0   2 3187.88   54.29
   6   0   2 3134.59   59.59
   6   0   2 3228.08   66.09
  -7   0  -2  173.08   11.40
  -7   0  -2  160.88    4.60
  -7   0  -2  189.18   11.50
  -7   0  -2  153.98    6.10
   7   0   2  165.28    7.50
   7   0   2  147.79   10.00
   7   0   2  150.78   12.00
  -8   0  -2 1397.46   26.40
  -8   0  -2 1438.56   39.50
  -8   0  -2 1426.76   38.70
   8   0   2 1394.86   37.60
   8   0   2 1406.66   28.70
   8   0   2 1411.06   43.10
  -9   0  -2    9.10    4.50
  -9   0  -2   15.00    5.40
   9   0   2   12.30    4.70
   9   0   2    7.60    4.80
 -10   0  -2  647.84   27.80
 -10   0  -2  617.44   27.10
  10   0   2  657.93   27.50
  10   0   2  654.13   31.70
 -11   0  -2  114.39   14.50
  11   0   2   91.29   12.90
  11   0   2   83.29   14.40
  11  -1  -2  463.75   29.10
  11  -1  -2  530.55   30.70
 -11   1   2  536.85   26.00
  10  -1  -2    7.00    6.00
  10  -1  -2   11.80    6.50
 -10   1   2    5.90    4.20
 -10   1   2   13.40    5.70
   9  -1  -2  468.25   25.40
   9  -1  -2  475.65   25.60
  -9   1   2  411.36   20.60
  -9   1   2  458.75   22.30
  -9   1   2  421.96   22.80
   8  -1  -2 1022.90   36.90
   8  -1  -2 1109.19   38.00
  -8   1   2 1091.99   35.70
  -8   1   2 1039.60   32.60
  -8   1   2 1080.09   33.80
   7  -1  -2  415.06   21.20
   7  -1  -2  418.16   15.00
   7  -1  -2  415.46   20.80
  -7   1   2  394.36   19.00
  -7   1   2  382.76   17.30
  -7   1   2  414.66   18.60
   6  -1  -2  895.11   30.20
   6  -1  -2  898.91   29.50
   6  -1  -2  939.91   23.80
  -6   1   2  904.21   27.50
  -6   1   2  902.01   28.30
  -6   1   2  904.41   26.30
   5  -1  -2  244.38   13.70
   5  -1  -2  227.68   10.10
   5  -1  -2  253.97   13.50
  -5   1   2  242.28   11.60
  -5   1   2  252.77   12.60
  -5   1   2  230.28   12.00
   4  -1  -2 5161.48   83.69
   4  -1  -2 5197.98   90.79
   4  -1  -2 5222.08   85.69
   4  -1  -2 5204.58   92.49
  -4   1   2 5218.58   90.89
  -4   1   2 5205.48   88.89
  -4   1   2 5109.89   89.29
   3  -1  -2  344.37   12.60
   3  -1  -2  330.47   13.30
   3  -1  -2  327.27    8.60
   3  -1  -2  332.27   10.30
   3  -1  -2  315.87   11.00
  -3   1   2  346.47   12.30
  -3   1   2  319.47   10.20
  -3   1   2  316.87   11.80
   2  -1  -2   71.59    2.80
   2  -1  -2   76.09    4.90
   2  -1  -2   71.09    4.70
   2  -1  -2   71.49    4.30
  -2   1   2   68.99    4.60
  -2   1   2   73.69    5.10
  -2   1   2   65.99    5.10
  -2   1   2   73.99    4.40
  -2   1   2   69.59    4.60
   1  -1  -2 1053.59   22.60
   1  -1  -2 1047.90   20.30
   1  -1  -2 1072.59   21.70
   1  -1  -2 1066.49   20.10
   1  -1  -2 1050.69   21.20
  -1   1   2 1051.49   22.50
  -1   1   2 1068.39   19.70
  -1   1   2 1069.49   20.20
  -1   1   2 1090.59   21.60
  -1   1   2 1063.99   20.50
  -1   1   2 1062.89   21.90
  -1   1   2 1025.40   20.70
   0  -1  -2 2243.18   34.80
   0  -1  -2 2211.98   37.70
   0  -1  -2 2280.27   36.90
   0  -1  -2 2285.07   38.00
   0   1   2 2232.88   34.40
   0   1   2 2207.08   37.80
   0   1   2 2275.77   38.30
   0   1   2 2360.46   38.20
   0   1   2 2297.07   37.80
   0   1   2 2228.58   36.70
  -1  -1  -2 2209.08   36.30
  -1  -1  -2 2309.17   36.80
  -1  -1  -2 2244.88   37.10
  -1  -1  -2 2279.67   37.40
   1   1   2 2283.17   36.70
   1   1   2 2312.47   36.50
   1   1   2 2170.88   37.20
   1   1   2 2291.97   37.30
   1   1   2 2296.67   37.20
   1   1   2 2218.58   36.30
   2   1   2 5131.89   79.79
   2   1   2 5016.60   79.29
   2   1   2 5131.49   77.89
  -3  -1  -2  211.48    7.90
  -3  -1  -2  168.48    5.80
  -3  -1  -2  149.99    6.40
  -3  -1  -2  159.88    4.10
  -3  -1  -2  161.18    5.10
   3   1   2  166.28    7.50
   3   1   2  174.78    5.60
   3   1   2  158.28    5.60
  -4  -1  -2 2240.28   42.80
  -4  -1  -2 2256.07   41.90
  -4  -1  -2 2242.58   38.20
   4   1   2 2270.27   40.00
   4   1   2 2245.88   44.50
   4   1   2 2262.27   37.40
  -5  -1  -2  585.64   18.10
  -5  -1  -2  586.84   13.90
  -5  -1  -2  542.55   17.10
   5   1   2  563.04   12.60
   5   1   2  548.15   19.00
   5   1   2  563.24   16.10
  -6  -1  -2 4398.66   79.09
  -6  -1  -2 4305.67   70.49
  -6  -1  -2 4347.06   78.39
   6   1   2 4476.85   83.19
   6   1   2 4208.88   76.39
   6   1   2 4380.96   68.29
  -7  -1  -2   29.50    3.90
  -7  -1  -2   33.60    6.10
  -7  -1  -2   32.40    5.70
   7   1   2   26.80    6.20
   7   1   2   42.50    6.40
   7   1   2   38.50    2.90
  -8  -1  -2 1591.44   41.10
  -8  -1  -2 1645.54   41.50
  -8  -1  -2 1562.84   31.10
   8   1   2 1487.75   39.40
   8   1   2 1527.45   44.50
  -9  -1  -2  194.98   13.90
  -9  -1  -2  181.78    9.50
  -9  -1  -2  196.38   13.70
   9   1   2  191.38   13.50
   9   1   2  187.28   15.30
 -10  -1  -2  553.94   25.30
 -10  -1  -2  552.34   25.20
  10   1   2  614.04   26.00
  10   1   2  656.23   30.90
 -11  -1  -2  249.78   17.60
 -11  -1  -2  275.87   18.90
  11   1   2  221.58   16.90
  11   1   2  259.97   20.70
 -12  -1  -2   48.40   11.20
 -12  -1  -2   48.90   10.70
  12   1   2   38.90   10.70
  12   1   2   53.29   10.80
  10  -2  -2  152.38   18.40
  10  -2  -2  225.68   19.60
 -10   2   2  208.48   16.30
   9  -2  -2  850.81   35.70
   9  -2  -2  791.32   34.30
  -9   2   2  790.82   30.70
  -9   2   2  785.52   29.20
   8  -2  -2  958.70   36.20
   8  -2  -2 1005.50   36.40
  -8   2   2  910.71   30.40
  -8   2   2  901.51   31.50
   7  -2  -2   -0.80    1.80
   7  -2  -2    1.30    2.00
   7  -2  -2    4.50    3.80
   7  -2  -2   -1.10    2.40
  -7   2   2    4.80    3.10
  -7   2   2   -0.50    2.40
   6  -2  -2 1878.81   48.60
   6  -2  -2 1869.01   39.80
   6  -2  -2 1839.72   46.90
   6  -2  -2 1929.11   39.70
  -6   2   2 1832.02   43.00
  -6   2   2 1841.22   44.00
   5  -2  -2   22.10    5.50
   5  -2  -2   14.70    4.40
   5  -2  -2   20.20    3.90
   5  -2  -2   14.90    3.50
  -5   2   2   17.90    4.40
  -5   2   2   17.50    5.00
   4  -2  -2 1479.75   31.80
   4  -2  -2 1437.16   29.30
   4  -2  -2 1490.95   35.40
   4  -2  -2 1518.95   32.40
   4  -2  -2 1521.25   37.70
  -4   2   2 1487.75   36.60
  -4   2   2 1540.65   28.30
  -4   2   2 1498.15   33.30
   3  -2  -2 3000.50   58.99
   3  -2  -2 3002.90   54.19
   3  -2  -2 3127.89   56.59
   3  -2  -2 3050.49   48.70
   3  -2  -2 3068.69   54.69
  -3   2   2 3082.79   54.89
  -3   2   2 3018.20   57.99
  -3   2   2 3063.89   49.50
   2  -2  -2 1859.21   35.60
   2  -2  -2 1865.51   35.30
   2  -2  -2 1818.42   29.10
   2  -2  -2 1861.11   35.10
   2  -2  -2 1822.72   38.20
  -2   2   2 1799.02   37.20
  -2   2   2 1759.22   34.20
  -2   2   2 1849.21   31.20
  -2   2   2 1812.52   34.90
  -2   2   2 1861.71   29.10
   1  -2  -2 6367.86  102.69
  -1   2   2 6338.57  102.09
  -1   2   2 6354.36  102.59
  -1   2   2 6459.25  100.39
   0  -2  -2 3244.68   54.09
   0  -2  -2 3187.58   54.69
   0  -2  -2 3371.96   55.49
   0  -2  -2 3154.28   52.59
   0  -2  -2 3249.87   51.89
   0   2   2 3167.58   52.99
   0   2   2 3321.17   51.89
   0   2   2 3294.17   55.39
   0   2   2 3370.66   54.29
  -1  -2  -2 2615.84   42.00
  -1  -2  -2 2578.74   43.50
  -1  -2  -2 2510.75   42.80
   1   2   2 2486.05   41.60
   1   2   2 2535.55   43.60
   1   2   2 2547.45   42.80
  -2  -2  -2  228.38    7.30
  -2  -2  -2  223.88    6.80
   2   2   2  218.58    7.80
   2   2   2  227.18    6.90
   2   2   2  225.48    7.00
   2   2   2  217.08    7.10
  -3  -2  -2   33.90    3.50
  -3  -2  -2   53.29    4.10
  -3  -2  -2   33.90    3.90
  -3  -2  -2   35.40    3.00
   3   2   2   34.20    2.50
   3   2   2   32.40    3.60
  -4  -2  -2 5119.09   81.49
  -4  -2  -2 5074.49   84.29
  -4  -2  -2 5098.59   84.39
   4   2   2 5195.68   86.19
   4   2   2 5056.29   77.49
  -5  -2  -2  364.96    7.30
  -5  -2  -2  335.97   13.00
  -5  -2  -2  348.97   13.40
  -5  -2  -2  376.46   11.50
   5   2   2  363.86   14.70
   5   2   2  363.46    7.80
   5   2   2  357.96   12.80
   5   2   2  358.76    7.70
  -6  -2  -2  681.33   21.50
  -6  -2  -2  684.03   17.50
  -6  -2  -2  677.03   20.90
   6   2   2  658.13   22.80
   6   2   2  654.83   20.10
  -7  -2  -2 1691.73   41.10
  -7  -2  -2 1692.03   40.40
  -7  -2  -2 1830.02   35.30
   7   2   2 1727.63   44.40
   7   2   2 1683.23   40.10
  -8  -2  -2 1470.15   39.20
  -8  -2  -2 1466.45   31.50
  -8  -2  -2 1401.46   37.60
   8   2   2 1473.35   38.40
   8   2   2 1401.16   41.80
  -9  -2  -2 1155.48   36.10
  -9  -2  -2 1131.69   27.50
  -9  -2  -2 1165.88   35.10
   9   2   2 1161.28   39.30
   9   2   2 1179.38   35.50
 -10  -2  -2   -1.70    3.00
 -10  -2  -2    3.20    3.10
  10   2   2    1.10    2.80
  10   2   2   -3.60    3.10
 -11  -2  -2  571.54   27.40
 -11  -2  -2  577.94   26.50
  11   2   2  588.64   30.60
  11   2   2  624.24   28.10
 -12  -2  -2   49.40   10.60
 -12  -2  -2   49.90   10.80
  12   2   2   47.10   11.70
  12   2   2   34.50    9.10
  10  -3  -2   50.39   12.30
  10  -3  -2   75.09   13.90
 -10   3   2   69.39   12.60
   9  -3  -2    2.50    4.90
   9  -3  -2   10.60    6.20
  -9   3   2   46.20   10.00
  -9   3   2    4.20    3.50
   8  -3  -2 1038.70   39.10
   8  -3  -2 1038.40   38.30
  -8   3   2 1105.09   36.40
  -8   3   2 1060.19   32.40
   7  -3  -2  150.18   13.60
   7  -3  -2  195.88   11.20
   7  -3  -2  187.38   11.20
   7  -3  -2  194.98   14.80
  -7   3   2  198.48   13.90
  -7   3   2  182.58   12.00
   6  -3  -2  382.96   15.60
   6  -3  -2  365.16   19.70
   6  -3  -2  414.86   19.90
   6  -3  -2  410.86   16.30
  -6   3   2  405.96   16.90
   5  -3  -2 2601.64   56.39
   5  -3  -2 2570.84   51.79
   5  -3  -2 2575.74   51.19
   5  -3  -2 2612.94   59.29
  -5   3   2 2510.85   42.00
  -5   3   2 2503.65   57.69
  -5   3   2 2532.15   51.39
   4  -3  -2  704.23   20.50
   4  -3  -2  667.73   24.00
   4  -3  -2  692.43   22.30
   4  -3  -2  683.03   20.50
  -4   3   2  687.63   15.90
  -4   3   2  710.63   24.00
  -4   3   2  686.23   19.80
  -4   3   2  666.63   14.30
   3  -3  -2  479.35   16.10
   3  -3  -2  485.55   16.30
   3  -3  -2  469.05   15.70
   3  -3  -2  494.05   18.60
  -3   3   2  478.45   11.30
  -3   3   2  497.25   15.00
  -3   3   2  482.85   11.30
   2  -3  -2  534.55   16.30
   2  -3  -2  531.45   18.20
   2  -3  -2  540.45   12.40
   2  -3  -2  486.65   14.70
  -2   3   2  510.25   11.00
  -2   3   2  531.05   11.90
  -2   3   2  525.85   17.60
  -2   3   2  524.85   14.60
   1  -3  -2 5938.91   91.79
   1  -3  -2 5887.01   95.59
   1  -3  -2 5788.02   91.59
   1  -3  -2 5788.52   90.29
   1  -3  -2 5804.02   98.09
  -1   3   2 5732.23   96.69
  -1   3   2 5926.21   92.69
  -1   3   2 5968.00   90.09
   0  -3  -2   99.59    4.70
   0  -3  -2   99.19    6.00
   0   3   2  108.09    4.80
   0   3   2  106.29    5.20
   0   3   2  102.89    6.60
  -1  -3  -2  175.78    6.60
  -1  -3  -2  177.18    5.00
  -1  -3  -2  167.18    7.30
   1   3   2  157.78    7.60
  -2  -3  -2 1083.39   20.70
  -2  -3  -2 1101.19   22.40
  -2  -3  -2 1100.09   22.50
   2   3   2 1070.69   20.40
   2   3   2 1109.79   22.30
   2   3   2 1071.69   23.80
  -3  -3  -2  535.15   14.10
  -3  -3  -2  539.85   12.90
  -3  -3  -2  514.85   13.90
   3   3   2  522.45   12.60
   3   3   2  513.95   13.90
   3   3   2  502.65   14.90
  -4  -3  -2 3314.67   60.39
  -4  -3  -2 3375.76   59.29
  -4  -3  -2 3455.55   58.39
   4   3   2 3439.06   60.49
   4   3   2 3300.87   53.69
  -5  -3  -2 4496.65   79.09
  -5  -3  -2 4606.34   75.59
  -5  -3  -2 4399.56   77.09
   5   3   2 4345.77   68.69
   5   3   2 4584.14   78.29
   5   3   2 4393.16   67.99
   5   3   2 4531.95   79.89
  -6  -3  -2 1126.49   28.40
  -6  -3  -2 1121.99   21.40
  -6  -3  -2 1127.19   29.70
  -6  -3  -2 1126.99   26.20
   6   3   2 1126.59   29.00
   6   3   2 1080.19   30.60
   6   3   2 1110.69   19.10
  -7  -3  -2  408.36   14.80
  -7  -3  -2  458.75   18.80
  -7  -3  -2  443.36    9.50
  -7  -3  -2  443.76   17.40
   7   3   2  437.76   17.70
   7   3   2  425.86   19.30
  -8  -3  -2  118.09    8.10
  -8  -3  -2   92.59    9.80
  -8  -3  -2  112.69   11.70
   8   3   2  112.39    9.70
   8   3   2  115.59   13.10
  -9  -3  -2 2351.46   48.60
  -9  -3  -2 2478.25   58.39
  -9  -3  -2 2393.66   54.99
   9   3   2 2372.76   56.59
   9   3   2 2353.76   60.39
 -10  -3  -2   -4.80    2.10
 -10  -3  -2    2.30    2.50
 -10  -3  -2    1.80    3.40
  10   3   2   -1.00    3.00
  10   3   2    4.70    4.60
 -11  -3  -2  233.88   16.40
 -11  -3  -2  249.58   18.10
  11   3   2  253.57   17.90
  11   3   2  224.88   19.00
 -12  -3  -2  394.76   22.20
 -12  -3  -2  369.16   23.50
  12   3   2  417.66   24.20
  12   3   2  403.36   26.90
   9  -4  -2  151.48   19.30
   9  -4  -2  152.08   18.80
  -9   4   2  158.88   18.10
   8  -4  -2  144.09   13.90
   8  -4  -2  112.99   15.50
   8  -4  -2  110.79   15.70
  -8   4   2  132.99   15.50
  -8   4   2  125.19   10.50
   7  -4  -2  516.75   20.80
   7  -4  -2  496.65   19.70
   7  -4  -2  554.44   25.60
   7  -4  -2  518.95   26.30
  -7   4   2  472.65   23.10
  -7   4   2  550.04   20.60
   6  -4  -2  455.65   21.60
   6  -4  -2  425.76   18.30
   6  -4  -2  450.05   18.10
   6  -4  -2  466.45   23.50
  -6   4   2  438.66   22.20
  -6   4   2  438.46   17.30
   5  -4  -2 2086.89   46.80
   5  -4  -2 2103.79   49.70
   5  -4  -2 1964.90   51.79
   5  -4  -2 2035.20   45.50
  -5   4   2 2075.59   43.60
  -5   4   2 2052.69   38.80
  -5   4   2 2096.89   52.09
   4  -4  -2  439.66   18.00
   4  -4  -2  461.65   17.20
   4  -4  -2  424.16   19.90
   4  -4  -2  466.75   18.00
  -4   4   2  471.75   15.60
  -4   4   2  450.15   10.60
  -4   4   2  475.45   20.30
  -4   4   2  463.95   12.80
   3  -4  -2 3714.73   68.69
   3  -4  -2 3688.43   69.89
   3  -4  -2 3802.92   74.89
  -3   4   2 3749.72   60.99
  -3   4   2 3788.82   65.19
  -3   4   2 3739.03   72.89
  -3   4   2 3728.53   59.49
   2  -4  -2 1085.09   25.50
   2  -4  -2 1078.19   27.80
   2  -4  -2 1079.29   30.20
   2  -4  -2 1058.79   21.20
  -2   4   2 1043.50   21.00
  -2   4   2 1076.59   29.10
  -2   4   2 1055.49   23.70
   1  -4  -2 1044.90   27.90
   1  -4  -2 1036.20   26.30
   1  -4  -2 1022.70   20.90
  -1   4   2  991.40   22.20
  -1   4   2 1053.89   27.10
   0  -4  -2 3862.11   63.09
   0  -4  -2 3802.12   67.99
   0   4   2 3836.12   68.79
   0   4   2 3883.71   63.59
  -1  -4  -2  314.77    9.00
  -1  -4  -2  332.37   10.40
  -1  -4  -2  299.97   11.50
   1   4   2  316.77   12.30
  -2  -4  -2  662.83   17.00
  -2  -4  -2  655.23   15.10
  -2  -4  -2  692.23   17.70
   2   4   2  651.83   15.30
  -3  -4  -2  659.83   17.70
  -3  -4  -2  662.43   16.70
   3   4   2  685.73   19.10
   3   4   2  658.73   16.60
  -4  -4  -2  101.29    5.40
  -4  -4  -2   88.49    6.80
  -4  -4  -2   95.49    6.50
   4   4   2   85.29    6.50
   4   4   2   96.99    6.60
   4   4   2   94.89    5.10
  -5  -4  -2 1408.86   31.30
   5   4   2 1390.96   26.80
   5   4   2 1352.96   25.60
   5   4   2 1443.36   33.20
  -6  -4  -2    9.90    3.10
  -6  -4  -2    4.20    2.80
  -6  -4  -2    4.80    2.60
   6   4   2    6.00    2.90
   6   4   2    3.60    1.50
   6   4   2    4.60    1.10
  -7  -4  -2 2545.65   53.09
  -7  -4  -2 2498.55   50.99
  -7  -4  -2 2622.44   56.49
   7   4   2 2505.25   42.50
   7   4   2 2599.74   57.39
   7   4   2 2596.14   55.89
  -8  -4  -2  337.17   17.80
  -8  -4  -2  422.06   17.70
  -8  -4  -2  363.96   15.40
   8   4   2  388.86   19.70
   8   4   2  382.16   18.40
  -9  -4  -2  672.33   24.40
  -9  -4  -2  636.14   21.50
  -9  -4  -2  676.23   27.10
   9   4   2  618.44   27.40
   9   4   2  618.74   25.70
 -10  -4  -2  334.77   19.70
 -10  -4  -2  318.07   17.60
 -10  -4  -2  325.17   15.50
  10   4   2  339.57   19.60
  10   4   2  332.67   21.00
 -11  -4  -2  493.25   20.00
 -11  -4  -2  536.45   26.80
 -11  -4  -2  544.35   24.30
  11   4   2  524.65   28.70
  11   4   2  492.85   25.40
 -12  -4  -2  286.07   18.70
 -12  -4  -2  266.27   20.20
  12   4   2  261.97   21.90
  12   4   2  320.07   21.70
   9  -5  -2  283.97   21.60
   9  -5  -2  273.77   22.40
  -9   5   2  276.87   20.60
   8  -5  -2   69.69   12.40
   8  -5  -2   52.29   11.70
   8  -5  -2   60.99    9.60
  -8   5   2   23.90    7.40
   7  -5  -2  532.45   27.90
   7  -5  -2  536.45   26.10
   7  -5  -2  508.65   22.50
   7  -5  -2  519.45   21.50
  -7   5   2  497.95   25.10
   6  -5  -2    0.40    2.20
   6  -5  -2   -1.60    2.30
   6  -5  -2   -2.10    3.10
   6  -5  -2    3.80    3.60
  -6   5   2    0.60    2.40
  -6   5   2    1.50    3.90
   5  -5  -2 1016.10   32.40
   5  -5  -2  983.60   31.00
   5  -5  -2  984.30   29.70
   5  -5  -2 1006.20   35.80
  -5   5   2  965.40   23.20
  -5   5   2 1015.20   26.10
  -5   5   2 1000.30   34.40
   4  -5  -2 1465.45   37.70
   4  -5  -2 1358.76   41.10
   4  -5  -2 1401.26   37.70
   4  -5  -2 1473.25   36.80
  -4   5   2 1388.06   31.40
  -4   5   2 1447.16   29.30
  -4   5   2 1426.66   40.50
   3  -5  -2 1758.22   32.40
   3  -5  -2 1903.21   47.60
   3  -5  -2 1814.02   40.90
   3  -5  -2 1776.12   43.00
  -3   5   2 1768.62   36.00
  -3   5   2 1789.62   34.20
  -3   5   2 1767.62   44.50
   2  -5  -2 1087.69   30.30
   2  -5  -2 1085.39   33.00
   2  -5  -2 1136.09   23.00
  -2   5   2 1089.59   24.60
  -2   5   2 1076.59   31.10
  -2   5   2 1129.29   23.90
   1  -5  -2  428.66   12.30
   1  -5  -2  406.66   16.40
  -1   5   2  407.76   17.00
  -1   5   2  424.26   12.90
   0  -5  -2 2052.69   44.30
   0  -5  -2 2062.19   38.50
   0   5   2 2059.99   38.40
   0   5   2 2099.59   44.70
  -1  -5  -2  269.57   10.30
  -1  -5  -2  287.07   12.60
  -1  -5  -2  287.57    9.90
   1   5   2  300.47   13.20
  -2  -5  -2 2108.89   41.70
  -2  -5  -2 1964.10   39.20
   2   5   2 1999.90   37.80
   2   5   2 1971.10   41.90
  -3  -5  -2 2260.37   44.00
  -3  -5  -2 2275.87   44.50
   3   5   2 2269.67   42.70
   3   5   2 2296.57   46.10
  -4  -5  -2   74.99    5.60
  -4  -5  -2   82.79    6.50
   4   5   2   71.99    6.20
   4   5   2   85.09    8.60
  -5  -5  -2  968.40   21.60
  -5  -5  -2  963.30   28.00
  -5  -5  -2 1000.40   26.00
   5   5   2  959.90   26.90
   5   5   2  963.80   26.00
  -6  -5  -2   16.50    4.10
  -6  -5  -2    8.40    3.50
   6   5   2   15.50    2.40
   6   5   2   18.50    3.10
   6   5   2   16.80    4.50
   6   5   2   14.70    4.60
  -7  -5  -2 1426.16   35.10
  -7  -5  -2 1419.56   38.80
   7   5   2 1400.36   37.90
   7   5   2 1369.16   28.50
  -8  -5  -2 1015.60   29.60
  -8  -5  -2 1080.99   34.40
   8   5   2 1125.49   34.90
  -9  -5  -2   88.69   10.00
  -9  -5  -2   86.59   11.50
  -9  -5  -2  100.69   10.70
   9   5   2   95.39   12.30
 -10  -5  -2  296.97   16.80
 -10  -5  -2  311.27   15.90
 -10  -5  -2  326.87   20.00
  10   5   2  312.37   20.10
  10   5   2  308.67   18.90
 -11  -5  -2   14.00    5.00
 -11  -5  -2   -0.20    3.60
 -11  -5  -2    3.50    4.20
  11   5   2    2.80    4.40
  11   5   2    2.50    5.90
 -12  -5  -2  538.55   28.80
 -12  -5  -2  549.74   25.70
  12   5   2  529.55   29.90
  12   5   2  579.64   28.80
   8  -6  -2   12.50    6.00
   8  -6  -2   19.00    8.00
   8  -6  -2   10.70    6.10
  -8   6   2    9.50    5.70
   7  -6  -2  398.86   23.20
   7  -6  -2  390.96   21.20
   7  -6  -2  387.86   25.00
   6  -6  -2 1032.80   40.10
   6  -6  -2 1103.29   37.00
   6  -6  -2 1038.00   34.80
   6  -6  -2 1035.50   33.20
  -6   6   2 1042.90   38.70
   5  -6  -2  213.18   13.80
   5  -6  -2  258.77   18.30
   5  -6  -2  238.78   15.50
   5  -6  -2  217.28   14.90
  -5   6   2  212.48   14.70
  -5   6   2  222.18   16.60
  -5   6   2  241.78   16.70
   4  -6  -2 1258.17   41.40
   4  -6  -2 1245.08   35.90
   4  -6  -2 1392.26   38.90
  -4   6   2 1289.07   28.80
  -4   6   2 1330.27   40.30
  -4   6   2 1276.97   28.90
   3  -6  -2  106.99   11.70
   3  -6  -2  127.59    9.60
   3  -6  -2  109.79   13.10
   3  -6  -2  124.59    6.20
  -3   6   2  138.89    7.60
  -3   6   2  146.49   14.70
  -3   6   2  126.19    7.40
   2  -6  -2 3929.91   81.69
   2  -6  -2 3892.91   65.29
   2  -6  -2 3874.21   77.49
  -2   6   2 3870.81   77.99
  -2   6   2 3883.01   67.69
  -2   6   2 3992.30   66.99
   1  -6  -2  131.19   10.40
   1  -6  -2  115.49    6.60
  -1   6   2  135.59    7.30
  -1   6   2  136.59   11.20
   0  -6  -2  669.33   23.10
   0  -6  -2  688.03   18.30
   0   6   2  672.43   23.00
   0   6   2  669.33   17.80
  -1  -6  -2  277.37   11.30
  -1  -6  -2  253.87   13.20
   1   6   2  312.07   14.80
  -2  -6  -2  727.33   22.50
  -2  -6  -2  685.33   19.90
   2   6   2  709.33   22.70
  -3  -6  -2  464.45   16.90
  -3  -6  -2  473.35   16.60
   3   6   2  479.85   15.90
   3   6   2  485.05   17.90
  -4  -6  -2  417.86   15.20
  -4  -6  -2  447.96   16.50
   4   6   2  442.16   17.20
   4   6   2  468.35   16.30
  -5  -6  -2  790.62   20.80
  -5  -6  -2  770.22   23.60
  -5  -6  -2  791.32   26.00
   5   6   2  785.32   24.70
   5   6   2  769.32   23.30
  -6  -6  -2  227.38   14.10
  -6  -6  -2  237.28   12.70
  -6  -6  -2  233.88    9.60
   6   6   2  221.58   13.00
   6   6   2  223.28   10.30
   6   6   2  235.38   13.40
  -7  -6  -2   72.59   10.00
  -7  -6  -2   63.09    8.50
   7   6   2   56.59    8.20
   7   6   2   66.49    6.80
   7   6   2   73.59   10.00
  -8  -6  -2 1679.93   41.80
  -8  -6  -2 1645.14   46.10
   8   6   2 1643.64   44.50
   8   6   2 1588.74   34.00
   8   6   2 1671.03   44.40
  -9  -6  -2   11.80    4.70
  -9  -6  -2   20.60    6.80
   9   6   2    8.00    4.30
 -10  -6  -2  241.98   17.90
 -10  -6  -2  268.87   15.80
  10   6   2  220.98   17.40
 -11  -6  -2  326.37   22.10
 -11  -6  -2  341.27   18.40
  11   6   2  349.87   22.90
 -12  -6  -2  178.78   17.00
 -12  -6  -2  172.68   20.70
  12   6   2  197.38   22.20
   7  -7  -2  330.87   20.80
   7  -7  -2  315.07   21.60
   7  -7  -2  326.37   24.40
   6  -7  -2  674.13   29.40
   6  -7  -2  692.33   34.00
   6  -7  -2  695.83   28.10
   6  -7  -2  730.63   30.60
  -6   7   2  729.83   32.80
   5  -7  -2  177.88   13.80
   5  -7  -2  179.38   14.80
   5  -7  -2  176.28   16.10
   5  -7  -2  195.38   14.70
  -5   7   2  161.88   17.70
   4  -7  -2 1180.58   35.80
   4  -7  -2 1178.48   42.10
   4  -7  -2 1207.58   38.40
  -4   7   2 1163.68   39.20
  -4   7   2 1139.49   28.10
   3  -7  -2   23.90    6.20
   3  -7  -2    5.30    4.00
   3  -7  -2    9.80    4.40
   3  -7  -2   15.70    3.20
  -3   7   2   18.20    6.50
  -3   7   2   21.10    3.90
  -3   7   2   15.60    3.70
   2  -7  -2 1630.54   47.60
   2  -7  -2 1635.14   44.20
   2  -7  -2 1542.25   32.20
  -2   7   2 1588.04   43.50
  -2   7   2 1607.74   35.50
  -2   7   2 1583.74   32.50
   1  -7  -2  978.10   23.60
   1  -7  -2  909.91   30.90
  -1   7   2  974.30   31.40
  -1   7   2  986.00   23.20
   0  -7  -2 1113.69   33.80
   0  -7  -2 1117.39   26.90
   0   7   2 1119.19   33.00
   0   7   2 1155.58   26.20
  -1  -7  -2  622.14   19.00
  -1  -7  -2  605.14   23.00
   1   7   2  629.04   23.00
  -2  -7  -2    9.80    4.30
  -2  -7  -2    3.60    2.10
   2   7   2    2.70    3.30
  -3  -7  -2  763.52   23.30
  -3  -7  -2  793.62   24.90
   3   7   2  809.12   23.40
   3   7   2  811.62   25.90
  -4  -7  -2   59.59    7.60
  -4  -7  -2   81.09    9.20
   4   7   2   63.29    8.30
   4   7   2   57.29    7.40
  -5  -7  -2   36.20    5.60
  -5  -7  -2   24.60    5.20
   5   7   2   29.60    6.10
   5   7   2   24.20    5.60
  -6  -7  -2 1509.15   33.60
  -6  -7  -2 1456.35   41.80
  -6  -7  -2 1508.65   38.80
   6   7   2 1533.15   38.70
   6   7   2 1482.15   39.70
   6   7   2 1561.84   35.60
  -7  -7  -2   18.80    5.50
  -7  -7  -2   23.90    4.00
  -7  -7  -2   19.30    6.00
   7   7   2   22.00    6.00
   7   7   2   24.60    4.60
   7   7   2   24.20    6.00
  -8  -7  -2   27.10    7.00
  -8  -7  -2   27.90    6.70
   8   7   2   21.10    4.60
   8   7   2   19.30    5.70
   8   7   2   35.10    7.80
  -9  -7  -2  333.47   20.70
  -9  -7  -2  315.27   17.50
   9   7   2  321.67   19.60
   9   7   2  348.47   19.60
 -10  -7  -2  922.91   36.50
 -10  -7  -2  890.31   31.50
  10   7   2  887.21   34.20
  10   7   2  882.51   35.00
 -11  -7  -2   83.49   14.10
 -11  -7  -2   90.39   12.00
  11   7   2   97.89   15.60
  11   7   2   74.09   12.70
   6  -8  -2  726.53   32.30
   6  -8  -2  747.23   30.70
   6  -8  -2  725.43   36.80
   6  -8  -2  732.73   32.10
  -6   8   2  735.33   34.50
   5  -8  -2   19.50    7.30
   5  -8  -2   17.00    6.20
   5  -8  -2   21.40    6.80
   5  -8  -2   30.50    9.30
  -5   8   2   20.40    7.60
   4  -8  -2  380.26   24.80
   4  -8  -2  370.36   19.80
   4  -8  -2  389.66   22.50
  -4   8   2  383.96   22.50
   3  -8  -2 1425.46   48.50
   3  -8  -2 1514.35   46.10
   3  -8  -2 1509.15   41.10
  -3   8   2 1484.85   35.10
  -3   8   2 1502.75   45.30
   2  -8  -2  798.22   33.80
   2  -8  -2  888.71   22.30
   2  -8  -2  865.91   32.40
  -2   8   2  895.21   25.50
  -2   8   2  876.11   31.70
   1  -8  -2  105.59    7.20
   1  -8  -2  108.19   13.30
  -1   8   2  102.29    6.90
  -1   8   2  115.29   13.40
   0  -8  -2   26.40    6.70
   0  -8  -2   41.30    6.00
   0   8   2   34.80    7.40
   0   8   2   45.40    5.60
  -1  -8  -2 2421.16   49.80
  -1  -8  -2 2512.75   58.39
   1   8   2 2421.36   56.09
   1   8   2 2448.56   47.80
  -2  -8  -2   25.70    5.40
  -2  -8  -2   25.20    6.00
   2   8   2   53.79    8.60
  -3  -8  -2   44.80    7.60
  -3  -8  -2   49.70    7.30
   3   8   2   43.00    7.90
  -4  -8  -2  569.44   21.50
  -4  -8  -2  657.43   23.20
   4   8   2  640.24   22.20
   4   8   2  623.54   23.90
  -5  -8  -2  397.36   18.20
  -5  -8  -2  449.46   18.10
   5   8   2  441.36   18.90
   5   8   2  450.85   20.00
  -6  -8  -2  655.63   24.70
  -6  -8  -2  624.84   21.20
  -6  -8  -2  679.93   27.70
   6   8   2  682.03   24.80
   6   8   2  697.53   25.80
   6   8   2  661.23   22.50
  -7  -8  -2  479.55   21.40
  -7  -8  -2  485.15   24.10
  -7  -8  -2  461.85   24.50
   7   8   2  470.95   21.40
   7   8   2  481.45   18.70
   7   8   2  472.05   21.90
  -8  -8  -2   11.00    5.30
  -8  -8  -2   14.20    6.10
   8   8   2   15.70    6.50
   8   8   2   15.20    6.30
   8   8   2   17.50    4.60
  -9  -8  -2  165.78   17.00
  -9  -8  -2  147.49   17.10
   9   8   2  154.48   16.70
   9   8   2  137.69   15.10
 -10  -8  -2    1.30    4.10
 -10  -8  -2    3.80    4.20
  10   8   2    2.00    5.00
  10   8   2   -2.60    4.30
 -11  -8  -2  313.07   22.50
 -11  -8  -2  255.07   17.70
  11   8   2  283.27   21.50
  11   8   2  323.27   21.50
   5  -9  -2  189.78   21.00
   5  -9  -2  202.78   23.10
   5  -9  -2  180.38   15.80
   5  -9  -2  203.48   16.50
  -5   9   2  165.78   19.00
   4  -9  -2   65.99   10.80
   4  -9  -2   64.29   13.20
   4  -9  -2   90.19   14.70
  -4   9   2   49.30   10.30
   3  -9  -2 1154.98   41.40
   3  -9  -2 1152.48   36.30
   3  -9  -2 1047.30   43.10
  -3   9   2 1112.89   39.70
   2  -9  -2   21.50    6.90
   2  -9  -2   24.30    8.30
  -2   9   2   15.10    5.00
  -2   9   2   18.90    6.70
   1  -9  -2  564.54   18.80
   1  -9  -2  593.44   27.30
  -1   9   2  515.85   24.60
   0  -9  -2   10.80    4.00
   0  -9  -2    5.80    4.60
   0   9   2   12.70    6.00
  -1  -9  -2  652.93   21.80
  -1  -9  -2  597.04   26.40
   1   9   2  631.04   19.50
   1   9   2  681.13   26.70
  -2  -9  -2  520.15   20.00
  -2  -9  -2  494.95   23.20
   2   9   2  534.35   23.10
  -3  -9  -2   37.40    6.50
  -3  -9  -2   53.39    9.10
   3   9   2   66.79   10.30
  -4  -9  -2  142.29   11.90
  -4  -9  -2  118.89   11.70
   4   9   2  149.88   14.90
  -5  -9  -2   92.59   10.50
  -5  -9  -2   96.89   11.30
   5   9   2   81.49   10.10
   5   9   2   94.19   12.00
  -6  -9  -2  254.07   17.70
  -6  -9  -2  245.08   15.30
  -6  -9  -2  278.67   14.90
   6   9   2  266.87   16.10
   6   9   2  270.87   16.60
   6   9   2  282.97   15.30
  -7  -9  -2  171.68   18.60
  -7  -9  -2  141.29   14.90
   7   9   2  155.68   13.30
   7   9   2  160.08   11.70
   7   9   2  153.88   15.80
  -8  -9  -2   32.50    7.60
  -8  -9  -2   35.80    8.80
   8   9   2   31.60    8.20
   8   9   2   37.10    7.00
   8   9   2   36.80    8.70
  -9  -9  -2  246.38   17.20
  -9  -9  -2  230.08   19.10
   9   9   2  241.48   18.20
   9   9   2  222.88   17.00
 -10  -9  -2   74.99   13.40
 -10  -9  -2   80.59   12.10
  10   9   2   74.69   12.60
  10   9   2   54.39   10.80
   4 -10  -2   40.90   10.80
   4 -10  -2   35.70   11.60
  -4  10   2   56.89   11.80
   3 -10  -2  265.87   22.30
   3 -10  -2  239.88   19.50
  -3  10   2  273.77   19.70
   2 -10  -2  430.26   25.40
   2 -10  -2  463.45   29.10
  -2  10   2  442.96   24.50
   1 -10  -2  520.85   27.70
  -1  10   2  557.74   26.40
  -1  10   2  512.45   21.60
   0 -10  -2  157.08   10.70
   0 -10  -2  110.39   14.50
   0  10   2  158.28   16.40
  -1 -10  -2  222.98   17.40
  -1 -10  -2  230.38   13.20
   1  10   2  242.78   16.70
  -2 -10  -2 1055.69   31.10
  -2 -10  -2 1000.70   36.40
   2  10   2  909.21   37.90
   2  10   2 1051.89   35.60
  -3 -10  -2   85.49   12.20
  -3 -10  -2   96.79   11.60
   3  10   2   89.09   12.30
  -4 -10  -2  231.78   14.90
  -4 -10  -2  195.38   14.90
   4  10   2  207.48   15.70
  -5 -10  -2  883.91   31.00
  -5 -10  -2  859.81   30.50
   5  10   2  825.72   31.30
  -6 -10  -2   58.39    9.00
  -6 -10  -2   37.30    8.10
   6  10   2   56.99   10.10
   6  10   2   45.90    9.30
   6  10   2   38.70    7.90
  -7 -10  -2   -1.10    3.20
  -7 -10  -2    3.30    4.10
   7  10   2   -4.80    2.80
   7  10   2    4.70    4.70
   7  10   2    4.70    5.30
  -8 -10  -2   -2.00    4.00
  -8 -10  -2    3.40    4.80
   8  10   2    4.40    4.60
   8  10   2   -3.20    3.90
   8  10   2    0.40    3.50
  -9 -10  -2  142.89   16.80
  -9 -10  -2  159.98   19.70
   9  10   2  167.48   18.00
   9  10   2  194.48   16.30
   2 -11  -2   88.49   15.40
   2 -11  -2   82.49   16.60
  -2  11   2   93.49   13.60
   1 -11  -2    6.50    6.30
   1 -11  -2   16.00    7.90
  -1  11   2   12.30    6.30
   0 -11  -2  710.63   33.90
   0  11   2  773.92   32.30
  -1 -11  -2    1.10    4.70
  -1 -11  -2    4.00    3.90
   1  11   2    3.50    5.40
  -2 -11  -2   79.99   13.70
  -2 -11  -2   53.39    8.50
   2  11   2   62.89   11.00
  -3 -11  -2  215.08   17.10
  -3 -11  -2  202.58   14.30
   3  11   2  214.28   16.70
  -4 -11  -2  397.06   22.50
  -4 -11  -2  466.65   22.20
   4  11   2  450.45   23.60
  -5 -11  -2  153.68   16.50
  -5 -11  -2  154.28   16.00
   5  11   2  166.98   17.60
  -6 -11  -2  153.18   15.80
  -6 -11  -2  137.79   15.10
   6  11   2  145.09   16.60
   6  11   2  119.49   14.10
  -7 -11  -2  316.17   19.90
  -7 -11  -2  343.27   23.90
   7  11   2  297.87   20.10
   7  11   2  293.17   18.30
   7  11   2  308.57   19.60
  -8 -11  -2    5.70    5.00
  -8 -11  -2   -1.00    4.10
   8  11   2    2.30    5.10
   8  11   2   -1.20    5.90
   8  11   2   -2.80    4.10
   0 -12  -2  147.69   19.90
   0  12   2  164.58   18.30
  -1 -12  -2  392.86   26.00
   1  12   2  411.76   23.60
  -2 -12  -2   16.10    8.10
  -2 -12  -2   29.00    7.20
   2  12   2   29.40    8.90
  -3 -12  -2  295.27   21.40
  -3 -12  -2  294.87   17.80
   3  12   2  234.38   18.80
  -4 -12  -2   -2.70    5.00
  -4 -12  -2   13.70    5.70
   4  12   2    5.50    6.20
  -5 -12  -2  196.18   19.60
  -5 -12  -2  173.98   18.90
   5  12   2  202.38   16.50
   5  12   2  186.28   19.60
  -6 -12  -2    9.50    5.50
   6  12   2   -2.10    5.80
   6  12   2    7.50    5.80
   3  11  -3   33.40    9.50
  -3 -11   3   32.00    9.40
  -3 -11   3   25.70    7.70
   2  11  -3    0.60    5.20
  -2 -11   3   -2.60    5.80
  -2 -11   3    1.30    4.30
  -1 -11   3  362.46   25.60
   6  10  -3  151.38   17.20
  -6 -10   3  157.28   18.80
   5  10  -3   68.29   11.90
  -5 -10   3   73.49   12.50
  -5 -10   3   52.89   11.70
   4  10  -3   13.60    6.40
  -4 -10   3    8.10    5.50
   3  10  -3  260.77   18.80
  -3 -10   3  267.27   19.60
   2  10  -3   11.60    5.70
  -2 -10   3   18.60    7.60
  -2 -10   3   13.30    5.20
   1  10  -3  154.78   17.80
  -1 -10   3  115.39   15.50
  -1 -10   3  148.29   14.30
   0  10  -3   76.49   12.90
   0 -10   3   95.99   15.00
   0 -10   3   98.59   16.80
  -1  10  -3   28.30    7.90
  -1  10  -3   15.70    6.30
   1 -10   3   47.90   11.60
  -2  10  -3  476.65   25.50
  -2  10  -3  509.25   26.40
   2 -10   3  562.54   31.30
  -3  10  -3   15.10    6.80
  -3  10  -3   27.00    9.00
   3 -10   3   43.30   11.60
   8   9  -3  142.29   16.70
   8   9  -3  105.89   16.60
  -8  -9   3  118.09   17.50
   7   9  -3  128.99   15.60
   7   9  -3   95.49   15.50
  -7  -9   3  119.79   17.30
   6   9  -3   20.90    8.50
   6   9  -3   42.20    9.50
  -6  -9   3   29.20    8.30
   5   9  -3   91.89   14.30
   5   9  -3   93.69   13.00
  -5  -9   3   82.59   11.80
  -5  -9   3   80.29   13.30
   4   9  -3    1.90    3.20
  -4  -9   3   -2.10    3.70
   3   9  -3  309.67   19.50
  -3  -9   3  342.57   20.30
   2   9  -3  473.15   23.50
  -2  -9   3  446.36   23.90
   1   9  -3   -4.30    3.50
  -1  -9   3    1.50    3.90
   0   9  -3  284.77   18.60
   0  -9   3  266.57   14.60
   0  -9   3  288.17   20.20
  -1   9  -3   70.59   11.20
  -1   9  -3   81.89   12.70
   1  -9   3  110.69   15.80
  -2   9  -3  586.54   27.20
  -2   9  -3  611.14   27.50
   2  -9   3  618.54   31.00
  -3   9  -3  532.55   25.90
  -3   9  -3  584.44   27.20
   3  -9   3  550.94   30.00
  -4   9  -3  295.77   19.20
  -4   9  -3  305.57   20.10
  -4   9  -3  283.07   19.00
   4  -9   3  303.17   23.10
   9   8  -3  270.37   22.10
  -9  -8   3  225.28   23.90
   8   8  -3  455.35   27.40
   8   8  -3  454.25   23.00
  -8  -8   3  412.76   25.30
   7   8  -3   74.09   13.00
   7   8  -3   65.19   11.00
  -7  -8   3   72.69   13.00
   6   8  -3  559.84   28.10
   6   8  -3  566.94   25.50
  -6  -8   3  616.34   28.90
   5   8  -3  679.33   27.70
   5   8  -3  707.33   30.70
  -5  -8   3  694.23   26.00
  -5  -8   3  707.83   30.40
   4   8  -3   24.90    7.30
   4   8  -3   16.80    5.60
  -4  -8   3   29.40    7.00
  -4  -8   3   20.30    6.80
   3   8  -3    8.60    4.10
  -3  -8   3    6.20    4.50
   2   8  -3  788.12   29.20
  -2  -8   3  730.63   29.20
   1   8  -3   40.10    8.40
  -1  -8   3   39.20    9.00
   0   8  -3  103.79   12.70
   0  -8   3   73.89   11.60
  -1   8  -3  341.97   19.10
  -1   8  -3  369.76   19.90
   1  -8   3  352.96   21.50
  -2   8  -3  131.39   14.20
  -2   8  -3  119.19   13.70
   2  -8   3  117.49   15.10
  -3   8  -3  485.25   23.00
  -3   8  -3  480.45   23.10
   3  -8   3  488.25   26.20
  -4   8  -3   47.10    9.30
  -4   8  -3   57.59   11.00
  -4   8  -3   47.00    9.40
   4  -8   3   36.10   10.00
  -5   8  -3  664.73   30.00
  -5   8  -3  666.73   28.50
  -5   8  -3  700.13   28.60
   5  -8   3  701.03   33.30
   5  -8   3  653.93   33.20
  -6   8  -3   -1.10    4.50
  -6   8  -3    5.60    6.10
  -6   8  -3   -2.40    3.50
   6  -8   3   -6.50    4.30
   6  -8   3    1.30    4.90
   9   7  -3  115.09   16.70
  -9  -7   3  109.69   16.10
   8   7  -3    7.90    4.90
   8   7  -3    5.80    5.30
  -8  -7   3   12.80    6.30
   7   7  -3  659.63   26.40
   7   7  -3  712.03   31.30
  -7  -7   3  642.64   29.70
   6   7  -3   81.29   10.80
   6   7  -3   58.79   12.40
   6   7  -3   92.09   13.60
  -6  -7   3   93.29   10.20
  -6  -7   3   92.29   12.70
   5   7  -3  219.58   14.80
   5   7  -3  202.98   11.10
   5   7  -3  213.98   16.30
  -5  -7   3  281.47   17.50
  -5  -7   3  202.68   13.00
   4   7  -3  880.81   32.30
   4   7  -3  872.81   23.30
   4   7  -3  905.41   30.10
  -4  -7   3  881.71   31.30
  -4  -7   3  909.91   29.20
   3   7  -3  108.09    7.40
   3   7  -3   79.49   10.30
   3   7  -3  102.49   12.90
  -3  -7   3  115.29   12.20
   2   7  -3  186.38    9.00
   2   7  -3  201.88   13.40
  -2  -7   3  207.98   14.10
   1   7  -3  216.18    9.60
   1   7  -3  190.78   13.20
  -1  -7   3  192.48   13.90
   0   7  -3  866.71   22.30
   0   7  -3  875.61   29.40
   0  -7   3  862.51   31.20
  -1   7  -3  783.12   22.00
  -1   7  -3  721.53   26.70
   1  -7   3  811.42   30.80
  -2   7  -3  176.18   13.00
  -2   7  -3  168.78   13.10
  -2   7  -3  159.58   10.10
   2  -7   3  182.68   14.80
  -3   7  -3  602.04   21.70
  -3   7  -3  623.24   25.10
   3  -7   3  589.94   27.30
  -4   7  -3    5.00    3.40
  -4   7  -3    9.00    4.60
   4  -7   3    2.40    4.00
  -5   7  -3 1063.89   35.50
  -5   7  -3 1060.89   37.20
   5  -7   3 1073.89   40.50
   5  -7   3 1086.99   39.90
  -6   7  -3  768.52   28.80
  -6   7  -3  793.42   30.60
  -6   7  -3  831.02   34.00
   6  -7   3  798.82   35.00
   6  -7   3  811.42   34.70
  -7   7  -3   23.30    7.90
  -7   7  -3   28.30    7.70
   7  -7   3   28.90    8.70
   7  -7   3   16.40    8.30
   7  -7   3   33.40    9.70
  10   6  -3   -3.90    6.40
 -10  -6   3    4.70    5.70
   9   6  -3  401.06   25.00
  -9  -6   3  409.76   24.60
   8   6  -3  455.05   24.90
   8   6  -3  443.06   20.40
  -8  -6   3  454.75   24.50
   7   6  -3  185.88   13.40
   7   6  -3  219.48   16.80
   7   6  -3  208.28   12.20
  -7  -6   3  227.88   16.70
   6   6  -3  247.38   12.30
   6   6  -3  237.28   16.80
   6   6  -3  261.07   15.10
  -6  -6   3  249.08   12.40
  -6  -6   3  249.38   16.50
   5   6  -3   27.70    7.90
   5   6  -3   31.80    6.90
   5   6  -3   40.70    5.70
  -5  -6   3   27.50    6.90
  -5  -6   3   48.80    7.20
   4   6  -3 1308.97   38.50
   4   6  -3 1223.48   34.90
   4   6  -3 1250.37   28.10
  -4  -6   3 1176.98   32.60
  -4  -6   3 1250.17   36.60
   3   6  -3   -0.20    2.70
   3   6  -3    4.50    4.70
   3   6  -3    0.10    2.10
  -3  -6   3   -3.00    2.30
   2   6  -3  102.39    6.40
   2   6  -3   87.09    9.80
  -2  -6   3   82.79   10.00
   1   6  -3   77.09    5.50
   1   6  -3   71.59    8.80
  -1  -6   3   61.99    8.60
   0   6  -3  165.98    8.10
   0   6  -3  156.08   11.00
   0  -6   3  155.38   12.10
  -1   6  -3  765.22   25.50
  -1   6  -3  745.63   20.10
   1  -6   3  714.03   27.00
  -2   6  -3  362.46   17.60
  -2   6  -3  324.37   16.10
  -2   6  -3  313.77   13.40
   2  -6   3  312.87   17.80
  -3   6  -3  296.47   16.00
   3  -6   3  315.57   18.20
  -4   6  -3  761.62   27.90
  -4   6  -3  758.72   27.10
   4  -6   3  724.83   29.50
  -5   6  -3  605.94   25.80
  -5   6  -3  580.04   24.00
   5  -6   3  627.74   27.90
   5  -6   3  544.75   25.60
  -6   6  -3  447.56   23.20
  -6   6  -3  444.66   21.30
   6  -6   3  464.05   24.50
   6  -6   3  476.95   24.50
  -7   6  -3   39.00    9.70
  -7   6  -3   23.40    7.00
   7  -6   3   28.60    9.00
   7  -6   3   17.90    7.00
   7  -6   3   18.20    6.50
  -8   6  -3  833.92   35.90
  -8   6  -3  840.32   31.60
   8  -6   3  784.12   38.40
   8  -6   3  838.22   34.50
   8  -6   3  857.31   36.40
  10   5  -3   20.70    8.30
  10   5  -3   25.60   10.10
 -10  -5   3   22.50    7.50
   9   5  -3  417.96   26.20
   9   5  -3  493.05   27.00
  -9  -5   3  511.15   26.70
   8   5  -3 1091.69   32.40
   8   5  -3 1095.99   39.00
   8   5  -3 1078.99   41.30
  -8  -5   3 1072.39   38.20
   7   5  -3    3.40    3.30
   7   5  -3    7.40    5.20
   7   5  -3    7.50    5.00
  -7  -5   3    0.80    3.30
  -7  -5   3   -0.50    2.70
   6   5  -3  951.80   29.00
   6   5  -3  964.70   33.10
   6   5  -3  995.80   35.10
  -6  -5   3  913.71   31.70
  -6  -5   3  890.51   30.90
  -6  -5   3  926.51   23.90
   5   5  -3    7.50    2.80
   5   5  -3    9.30    4.50
   5   5  -3    9.70    4.00
  -5  -5   3   10.20    4.20
  -5  -5   3    2.20    2.60
  -5  -5   3   10.60    4.70
   4   5  -3 2691.93   57.19
   4   5  -3 2734.23   49.70
   4   5  -3 2643.14   59.79
  -4  -5   3 2758.42   59.09
  -4  -5   3 2625.94   56.49
  -4  -5   3 2832.92   54.89
   3   5  -3  605.24   21.40
   3   5  -3  637.74   16.10
   3   5  -3  625.14   14.40
   3   5  -3  637.54   23.80
  -3  -5   3  615.04   20.30
  -3  -5   3  626.64   22.10
  -3  -5   3  637.64   21.20
   2   5  -3  126.69    6.30
   2   5  -3  166.48   12.00
   2   5  -3  124.19    9.40
  -2  -5   3  123.09    9.30
  -2  -5   3  144.59    8.40
   1   5  -3  596.84   20.50
   1   5  -3  581.24   14.00
  -1  -5   3  568.34   20.90
   0   5  -3  133.59    6.10
   0   5  -3  147.49    9.80
   0   5  -3  128.09    6.30
   0  -5   3  148.59    6.40
  -1   5  -3  126.69    6.90
  -1   5  -3  127.39    9.20
   1  -5   3  113.99   11.70
  -2   5  -3  667.93   22.30
  -2   5  -3  704.43   19.70
  -2   5  -3  712.03   23.90
   2  -5   3  667.83   24.70
  -3   5  -3  272.27   14.50
   3  -5   3  248.58   15.00
  -4   5  -3 2530.25   55.89
  -4   5  -3 2539.45   56.79
   4  -5   3 2511.45   59.19
  -5   5  -3  147.89   11.30
  -5   5  -3  163.38   12.80
   5  -5   3  148.39   12.60
   5  -5   3  162.18   12.90
  -6   5  -3  428.16   21.30
  -6   5  -3  397.06   19.10
   6  -5   3  398.26   20.70
   6  -5   3  386.46   21.00
  -7   5  -3   26.00    6.70
  -7   5  -3   22.80    7.30
   7  -5   3   27.30    8.00
   7  -5   3   22.60    7.00
   7  -5   3   34.50    8.10
  -8   5  -3  728.63   32.20
  -8   5  -3  708.43   28.00
   8  -5   3  745.33   29.90
   8  -5   3  742.53   35.50
   8  -5   3  749.13   31.70
  -9   5  -3  341.07   20.00
  -9   5  -3  357.66   23.70
   9  -5   3  349.96   22.70
   9  -5   3  348.47   25.60
  11   4  -3  116.29   18.10
  11   4  -3  104.59   16.70
 -11  -4   3  115.39   16.40
  10   4  -3  300.67   22.30
  10   4  -3  308.67   23.40
 -10  -4   3  269.97   20.30
   9   4  -3   -1.40    4.40
   9   4  -3    8.40    5.40
  -9  -4   3    1.10    3.80
  -9  -4   3    1.00    3.60
   8   4  -3  985.20   38.50
   8   4  -3 1131.79   31.30
   8   4  -3 1038.60   37.20
  -8  -4   3 1032.10   36.50
  -8  -4   3 1047.60   36.80
   7   4  -3   11.90    4.20
   7   4  -3    7.40    5.00
   7   4  -3   14.30    5.50
  -7  -4   3   13.40    5.60
  -7  -4   3   18.80    5.90
   6   4  -3  731.73   23.50
   6   4  -3  673.53   28.00
   6   4  -3  677.53   26.40
  -6  -4   3  682.43   26.00
  -6  -4   3  677.93   25.80
  -6  -4   3  700.03   18.40
   5   4  -3  697.63   22.40
   5   4  -3  720.83   25.70
   5   4  -3  626.04   25.80
  -5  -4   3  662.13   24.10
  -5  -4   3  672.13   24.30
  -5  -4   3  688.03   19.10
   4   4  -3  847.22   25.20
   4   4  -3  878.61   29.30
   4   4  -3  841.72   16.50
   4   4  -3  890.31   28.10
  -4  -4   3  870.51   23.00
  -4  -4   3  897.51   26.70
  -4  -4   3  855.41   26.70
   3   4  -3  129.59   10.40
   3   4  -3  115.19    8.50
   3   4  -3  126.79    6.00
   3   4  -3  126.49    4.50
  -3  -4   3  134.69    8.50
  -3  -4   3  129.49    9.10
  -3  -4   3  124.69    8.70
   2   4  -3  170.78   11.10
   2   4  -3  189.68   10.40
   2   4  -3  172.68    6.20
  -2  -4   3  168.88    9.80
  -2  -4   3  162.98    8.90
   1   4  -3 1822.52   40.20
   1   4  -3 1869.11   31.50
  -1  -4   3 1866.61   41.20
  -1  -4   3 1878.21   36.30
   0   4  -3  206.48   10.80
   0   4  -3  190.48    6.50
   0   4  -3  190.58    7.20
   0  -4   3  211.88   11.50
   0  -4   3  199.98    6.40
   0  -4   3  214.48    7.50
  -1   4  -3    1.90    2.00
  -1   4  -3    0.60    1.20
  -1   4  -3    1.30    0.90
   1  -4   3    1.10    1.70
   1  -4   3    2.20    2.20
  -2   4  -3 1007.70   27.60
  -2   4  -3  971.10   22.80
  -2   4  -3  992.00   26.00
   2  -4   3  926.91   28.10
  -3   4  -3   21.40    5.20
  -3   4  -3   17.20    4.60
   3  -4   3   15.20    4.80
  -4   4  -3 1523.95   37.60
  -4   4  -3 1497.05   38.20
   4  -4   3 1531.95   40.00
  -5   4  -3 1218.68   35.60
  -5   4  -3 1254.17   34.20
   5  -4   3 1304.67   36.80
   5  -4   3 1262.67   36.10
  -6   4  -3  525.15   21.20
  -6   4  -3  554.34   23.60
   6  -4   3  525.95   22.50
   6  -4   3  521.35   22.50
  -7   4  -3  363.86   17.80
  -7   4  -3  363.16   20.10
   7  -4   3  319.67   20.90
   7  -4   3  337.87   18.70
   7  -4   3  330.77   18.20
  -8   4  -3   82.29   11.90
  -8   4  -3   92.19   11.50
   8  -4   3   95.89   12.30
   8  -4   3   97.89   15.10
   8  -4   3   66.19   10.60
  -9   4  -3  906.81   32.30
  -9   4  -3  997.10   38.20
   9  -4   3  962.50   36.00
   9  -4   3  913.81   40.50
 -10   4  -3   -0.60    5.10
  10  -4   3   -0.80    4.00
  10  -4   3    0.80    6.00
  11   3  -3    4.70    6.50
  11   3  -3   16.40    8.90
 -11  -3   3   17.90    7.00
  10   3  -3  798.72   37.40
  10   3  -3  820.92   35.70
 -10  -3   3  839.42   35.00
   9   3  -3  243.08   19.40
   9   3  -3  237.28   18.00
  -9  -3   3  205.38   16.30
  -9  -3   3  247.58   17.80
   8   3  -3  148.69   17.50
   8   3  -3  111.19    9.10
   8   3  -3  111.39   13.90
  -8  -3   3  135.59    8.60
  -8  -3   3  113.99   13.20
  -8  -3   3  111.49   13.60
   7   3  -3  674.93   27.30
   7   3  -3  610.94   27.40
   7   3  -3  668.63   22.10
  -7  -3   3  634.74   25.90
  -7  -3   3  682.93   18.40
  -7  -3   3  675.73   26.70
   6   3  -3 2019.00   52.29
   6   3  -3 1967.90   49.00
   6   3  -3 2009.40   43.90
  -6  -3   3 2020.20   37.00
  -6  -3   3 1964.50   37.10
  -6  -3   3 1991.40   48.50
  -6  -3   3 1918.01   48.60
   5   3  -3 3205.18   67.19
   5   3  -3 3295.47   70.49
   5   3  -3 3276.57   62.99
  -5  -3   3 3286.07   67.49
  -5  -3   3 3369.86   57.69
  -5  -3   3 3388.36   67.19
   4   3  -3  140.29   10.80
   4   3  -3  154.18   10.60
   4   3  -3  149.09    9.10
  -4  -3   3  145.29    7.70
  -4  -3   3  176.78   10.40
  -4  -3   3  143.79    9.90
   3   3  -3 1520.25   24.30
   3   3  -3 1472.25   37.70
   3   3  -3 1548.84   34.70
   3   3  -3 1561.24   36.70
  -3  -3   3 1520.25   35.10
  -3  -3   3 1550.54   32.70
  -3  -3   3 1578.64   35.70
   2   3  -3  379.96    7.50
   2   3  -3  367.96    9.20
   2   3  -3  374.46   15.20
   2   3  -3  381.56   15.10
   2   3  -3  368.96   14.00
  -2  -3   3  387.06   13.70
  -2  -3   3  386.46   13.80
  -2  -3   3  376.36   13.60
   1   3  -3  214.08    5.20
   1   3  -3  191.18    9.60
   1   3  -3  221.08   11.30
  -1  -3   3  211.98    8.80
  -1  -3   3  202.28   10.10
   0   3  -3 2337.37   44.90
   0   3  -3 2282.77   35.90
   0   3  -3 2299.87   39.70
   0  -3   3 2252.07   48.40
   0  -3   3 2311.57   46.40
   0  -3   3 2300.07   40.00
   0  -3   3 2273.27   35.70
  -1   3  -3  117.29    7.30
  -1   3  -3  105.99    4.20
   1  -3   3  107.09    7.70
   1  -3   3  114.09    5.10
   1  -3   3  117.19    4.40
  -2   3  -3  208.58   10.60
  -2   3  -3  219.88   10.00
  -2   3  -3  204.98    9.70
   2  -3   3  212.88   10.00
   2  -3   3  242.38   11.90
  -3   3  -3 2121.79   44.30
  -3   3  -3 2131.09   43.80
  -3   3  -3 2080.19   41.60
   3  -3   3 2096.99   45.70
   3  -3   3 2044.80   35.70
  -4   3  -3 1287.17   32.30
  -4   3  -3 1292.57   33.10
   4  -3   3 1263.07   21.80
   4  -3   3 1298.97   21.10
   4  -3   3 1305.27   33.80
  -5   3  -3  955.20   29.00
  -5   3  -3  950.60   27.70
   5  -3   3  972.20   28.20
   5  -3   3  948.61   19.00
   5  -3   3  970.40   28.80
  -6   3  -3   61.59    8.60
  -6   3  -3   54.49    8.60
   6  -3   3   81.59    9.90
   6  -3   3   76.19    9.70
   6  -3   3   59.69   10.00
  -7   3  -3 2286.17   56.19
  -7   3  -3 2218.98   51.39
   7  -3   3 2240.98   51.59
   7  -3   3 2211.98   52.59
   7  -3   3 2274.07   59.69
  -8   3  -3  171.68   12.40
  -8   3  -3  160.48   16.50
   8  -3   3  136.19   11.10
   8  -3   3  129.19   11.60
   8  -3   3  140.59   17.00
  -9   3  -3  169.78   13.00
  -9   3  -3  142.09   16.00
   9  -3   3  163.98   13.70
   9  -3   3  164.68   19.70
 -10   3  -3  136.59   16.70
  10  -3   3  155.78   16.90
  10  -3   3  148.59   20.50
  11   2  -3   -8.50    4.20
  11   2  -3   -2.10    4.90
 -11  -2   3   -3.10    4.60
  10   2  -3  241.68   20.50
  10   2  -3  255.27   20.40
 -10  -2   3  271.57   19.60
 -10  -2   3  265.37   19.50
   9   2  -3  723.83   31.90
   9   2  -3  712.73   32.80
  -9  -2   3  687.23   29.90
  -9  -2   3  704.23   30.40
  -9  -2   3  719.93   24.90
   8   2  -3  257.97   17.80
   8   2  -3  225.98   17.10
  -8  -2   3  227.68   15.60
  -8  -2   3  221.78   11.60
  -8  -2   3  254.37   16.70
   7   2  -3  517.15   18.50
   7   2  -3  457.35   22.10
   7   2  -3  522.15   24.70
  -7  -2   3  514.55   22.40
  -7  -2   3  514.85   16.60
  -7  -2   3  526.45   23.30
   6   2  -3   -0.90    1.70
   6   2  -3    3.40    3.50
   6   2  -3    1.10    3.00
  -6  -2   3    0.30    1.30
  -6  -2   3   -4.80    2.30
  -6  -2   3   -0.50    2.40
  -6  -2   3    1.80    1.90
   5   2  -3 2213.88   52.39
   5   2  -3 2219.18   45.50
   5   2  -3 2235.78   49.90
  -5  -2   3 2174.98   48.70
  -5  -2   3 2230.48   39.50
  -5  -2   3 2223.18   50.29
  -5  -2   3 2191.18   40.30
   4   2  -3  113.99    9.20
   4   2  -3  114.89    8.80
   4   2  -3  107.59    7.30
  -4  -2   3  119.29    4.80
  -4  -2   3  117.79    8.30
  -4  -2   3  104.29    8.30
  -4  -2   3  125.59    6.60
   3   2  -3 1256.67   32.20
   3   2  -3 1267.47   30.60
   3   2  -3 1194.18   28.50
  -3  -2   3 1278.87   30.50
  -3  -2   3 1235.68   29.10
  -3  -2   3 1270.17   26.90
   2   2  -3 1831.72   38.40
   2   2  -3 1830.72   39.60
   2   2  -3 1862.71   37.40
   2   2  -3 1828.92   31.80
  -2  -2   3 1792.52   36.00
  -2  -2   3 1866.41   37.70
  -2  -2   3 1839.52   36.60
   1   2  -3  588.84   17.60
   1   2  -3  588.94   17.50
   1   2  -3  580.34   10.20
   1   2  -3  588.34   10.10
   1   2  -3  575.84   10.10
  -1  -2   3  593.34   16.80
  -1  -2   3  565.24   17.40
  -1  -2   3  594.74   15.80
   0   2  -3 1133.39   22.90
   0   2  -3 1203.08   26.00
   0   2  -3 1184.08   21.50
   0  -2   3 1181.28   26.40
   0  -2   3 1167.88   23.40
   0  -2   3 1230.48   27.20
  -1   2  -3   45.90    4.90
  -1   2  -3   43.20    5.00
  -1   2  -3   49.30    3.80
  -1   2  -3   42.40    2.80
   1  -2   3   45.90    2.70
   1  -2   3   47.10    5.60
   1  -2   3   48.50    3.10
  -2   2  -3 2314.97   42.30
  -2   2  -3 2268.37   44.10
  -2   2  -3 2314.97   42.60
   2  -2   3 2238.38   40.00
   2  -2   3 2265.97   45.20
   2  -2   3 2301.57   36.70
  -3   2  -3 2053.99   38.70
  -3   2  -3 2060.69   41.70
   3  -2   3 2116.29   34.60
   3  -2   3 1997.10   33.30
   3  -2   3 2029.00   42.40
  -4   2  -3  837.42   23.00
  -4   2  -3  789.12   19.30
  -4   2  -3  812.02   23.50
   4  -2   3  807.32   14.80
   4  -2   3  801.72   23.10
   4  -2   3  800.82   21.60
   4  -2   3  802.62   16.80
  -5   2  -3  720.63   23.60
  -5   2  -3  739.93   22.60
   5  -2   3  752.82   22.70
   5  -2   3  735.83   21.60
   5  -2   3  737.13   19.40
  -6   2  -3   -0.80    2.10
  -6   2  -3    1.00    2.60
   6  -2   3    3.00    3.10
   6  -2   3   -0.20    1.80
   6  -2   3    0.30    1.60
  -7   2  -3 1416.96   40.40
  -7   2  -3 1469.45   38.00
  -7   2  -3 1485.25   30.30
   7  -2   3 1495.05   36.90
   7  -2   3 1510.55   38.30
   7  -2   3 1513.95   44.60
  -8   2  -3 1688.93   46.50
  -8   2  -3 1671.43   42.70
   8  -2   3 1587.34   39.60
   8  -2   3 1705.03   50.79
   8  -2   3 1608.24   42.60
  -9   2  -3  296.87   17.00
  -9   2  -3  324.47   19.70
   9  -2   3  311.17   21.40
   9  -2   3  307.77   17.70
 -10   2  -3  359.06   22.10
  10  -2   3  339.47   24.30
  10  -2   3  382.56   21.10
 -11   2  -3   38.10    9.60
  11  -2   3   39.60   11.40
  11  -2   3   39.30    9.10
  11   1  -3  116.59   17.70
  11   1  -3  121.09   18.10
 -11  -1   3  122.49   16.80
  10   1  -3   17.40    6.90
  10   1  -3    4.60    5.90
 -10  -1   3   24.20    7.60
 -10  -1   3   28.20    7.70
   9   1  -3  333.37   22.20
   9   1  -3  388.46   23.10
  -9  -1   3  385.96   21.90
  -9  -1   3  388.56   17.60
  -9  -1   3  402.56   22.30
   8   1  -3   34.30    8.40
   8   1  -3   19.90    6.60
  -8  -1   3   16.20    5.50
  -8  -1   3   26.90    5.50
  -8  -1   3   20.30    6.00
   7   1  -3 1908.21   49.60
   7   1  -3 1854.21   51.39
  -7  -1   3 1908.51   48.80
  -7  -1   3 1824.52   40.40
  -7  -1   3 1907.51   48.10
   6   1  -3 1132.39   33.70
   6   1  -3 1109.39   35.30
   6   1  -3 1195.68   30.00
  -6  -1   3 1164.28   27.10
  -6  -1   3 1047.50   30.50
  -6  -1   3 1123.29   32.60
   5   1  -3  696.43   21.00
   5   1  -3  679.63   23.40
   5   1  -3  728.23   25.50
   5   1  -3  677.63   20.00
  -5  -1   3  633.64   17.70
  -5  -1   3  707.33   22.80
  -5  -1   3  675.53   17.60
  -5  -1   3  705.03   23.70
   4   1  -3 1145.99   29.60
   4   1  -3 1152.28   26.90
   4   1  -3 1144.39   31.50
   4   1  -3 1112.69   27.60
  -4  -1   3 1094.79   28.30
  -4  -1   3 1093.39   22.40
  -4  -1   3 1108.39   29.60
   3   1  -3 2159.28   45.60
   3   1  -3 2074.49   42.10
   3   1  -3 2122.99   41.20
  -3  -1   3 2131.09   41.90
  -3  -1   3 2054.59   34.70
  -3  -1   3 2116.29   43.50
   2   1  -3 3846.62   62.29
   2   1  -3 3874.61   66.19
   2   1  -3 4034.70   69.29
   2   1  -3 3845.32   66.69
   2   1  -3 3880.91   67.49
  -2  -1   3 3828.32   64.99
  -2  -1   3 3715.93   66.89
   1   1  -3 1626.94   33.10
   1   1  -3 1572.34   31.80
   1   1  -3 1598.24   26.50
   1   1  -3 1606.54   31.70
   1   1  -3 1539.35   32.50
  -1  -1   3 1685.03   33.10
  -1  -1   3 1564.94   31.40
  -1  -1   3 1571.84   29.40
   0   1  -3   29.40    4.10
   0   1  -3   15.50    3.00
   0   1  -3   37.10    3.80
   0   1  -3   38.00    3.50
   0   1  -3   29.50    3.70
   0   1  -3   31.60    2.00
   0  -1   3   30.30    3.50
   0  -1   3   27.10    3.40
  -1   1  -3   18.60    2.80
  -1   1  -3   22.50    2.70
  -1   1  -3   23.70    3.50
  -1   1  -3   23.40    2.60
   1  -1   3   20.40    3.40
   1  -1   3   21.70    2.70
   1  -1   3   31.60    2.80
   1  -1   3   22.90    2.60
  -2   1  -3  154.78    6.50
  -2   1  -3  149.39    6.80
  -2   1  -3  149.88    7.30
   2  -1   3  142.99    7.50
   2  -1   3  149.88    7.60
   2  -1   3  158.98    5.80
   2  -1   3  150.88    5.30
  -3   1  -3 5592.44   88.49
  -3   1  -3 5674.33   92.79
  -3   1  -3 5613.94   92.79
   3  -1   3 5572.64   89.49
   3  -1   3 5775.92   93.29
  -4   1  -3  408.86   11.10
  -4   1  -3  400.46   14.70
  -4   1  -3  413.96   14.60
   4  -1   3  413.06   11.50
   4  -1   3  396.66   12.30
   4  -1   3  402.46    9.20
   4  -1   3  421.06   14.30
   4  -1   3  411.26   11.50
  -5   1  -3 1155.88   30.50
  -5   1  -3 1179.48   23.40
  -5   1  -3 1225.38   29.70
   5  -1   3 1183.88   23.20
   5  -1   3 1193.48   28.40
   5  -1   3 1239.58   27.40
  -6   1  -3 1673.33   30.90
  -6   1  -3 1731.53   39.40
  -6   1  -3 1768.62   42.00
   6  -1   3 1708.73   37.20
   6  -1   3 1689.43   43.90
   6  -1   3 1701.23   37.40
   6  -1   3 1683.83   29.60
  -7   1  -3  462.15   19.90
  -7   1  -3  405.66   10.90
  -7   1  -3  395.96   17.10
   7  -1   3  445.06   17.10
   7  -1   3  393.66   20.20
   7  -1   3  436.96   15.90
  -8   1  -3 1004.50   30.70
  -8   1  -3  991.30   33.10
   8  -1   3  999.20   36.30
   8  -1   3 1006.50   26.70
   8  -1   3 1010.50   30.20
  -9   1  -3   25.50    7.30
   9  -1   3   27.60    6.10
   9  -1   3   23.80    8.00
 -10   1  -3 1048.40   37.70
  10  -1   3  987.50   34.10
  10  -1   3 1006.20   41.20
 -11   1  -3  242.28   18.80
  11  -1   3  257.27   17.60
  11  -1   3  204.88   23.10
  11   0  -3  302.47   23.80
  11   0  -3  349.17   25.30
 -11   0   3  334.67   23.10
  10   0  -3    5.30    6.10
  10   0  -3   -2.30    4.00
 -10   0   3    4.50    3.80
 -10   0   3   -1.30    3.00
 -10   0   3    7.30    4.90
   9   0  -3  135.79   17.00
   9   0  -3  145.19   16.90
  -9   0   3  138.39   15.30
  -9   0   3  124.29   12.70
  -9   0   3  159.18   17.20
   8   0  -3  117.29   14.70
   8   0  -3  116.99   15.30
   8   0  -3  106.89    8.60
  -8   0   3   78.79   11.30
  -8   0   3  111.89   13.00
  -8   0   3   96.19   10.50
   7   0  -3  831.62   24.20
   7   0  -3  778.12   30.70
   7   0  -3  808.82   29.90
  -7   0   3  836.82   29.00
  -7   0   3  766.12   24.10
  -7   0   3  815.32   29.00
   6   0  -3 2090.79   50.19
   6   0  -3 2090.69   52.29
   6   0  -3 2055.69   43.90
  -6   0   3 2084.09   48.60
  -6   0   3 2019.60   48.70
  -6   0   3 2066.99   43.50
   5   0  -3  129.79   10.60
   5   0  -3  133.39    9.90
   5   0  -3  139.59    8.70
  -5   0   3  138.99    7.90
  -5   0   3  133.99   10.10
  -5   0   3  134.19    9.50
   4   0  -3 2337.77   50.79
   4   0  -3 2314.07   45.80
   4   0  -3 2335.77   48.50
  -4   0   3 2268.27   46.80
  -4   0   3 2291.17   42.40
  -4   0   3 2318.87   48.50
   3   0  -3    9.60    2.60
   3   0  -3    3.30    2.20
   3   0  -3    9.70    2.90
   3   0  -3   11.50    3.00
  -3   0   3    8.40    3.30
  -3   0   3    9.90    3.00
  -3   0   3    6.10    2.20
  -3   0   3    7.60    2.30
   2   0  -3 4737.53   78.49
   2   0  -3 4654.03   77.29
   2   0  -3 4776.62   77.39
   2   0  -3 4545.15   79.99
   2   0  -3 4623.14   75.89
  -2   0   3 4752.42   76.29
  -2   0   3 4664.73   76.29
  -2   0   3 4639.54   78.89
   1   0  -3 2836.72   47.40
   1   0  -3 2849.22   47.40
   1   0  -3 2932.01   51.39
   1   0  -3 2783.72   49.00
   1   0  -3 3032.20   51.79
  -1   0   3 2897.71   50.79
  -1   0   3 2864.51   47.50
  -1   0   3 2818.92   49.10
  -1   0   3 2898.31   47.60
  -1   0   3 3027.70   51.69
   0   0  -3 3757.32   61.99
   0   0  -3 3755.92   61.89
   0   0  -3 3775.52   62.59
   0   0  -3 3829.52   60.69
   0   0  -3 3918.61   63.99
   0   0  -3 3792.92   62.09
   0   0   3 3902.01   62.19
   0   0   3 3845.12   62.39
   0   0   3 3770.12   61.69
  -1   0  -3 1475.05   26.30
  -1   0  -3 1369.86   27.40
  -1   0  -3 1425.16   26.80
  -1   0  -3 1418.56   26.70
  -1   0  -3 1406.16   25.40
   1   0   3 1392.56   27.40
   1   0   3 1434.46   24.80
   1   0   3 1454.95   26.80
   1   0   3 1467.45   26.30
   1   0   3 1441.96   26.30
   1   0   3 1439.16   25.50
   1   0   3 1403.16   24.30
  -2   0  -3  879.11   19.50
  -2   0  -3  876.11   17.60
  -2   0  -3  864.31   17.60
  -2   0  -3  886.31   19.10
  -2   0  -3  850.61   18.30
   2   0   3  906.31   17.50
   2   0   3  882.91   17.50
   2   0   3  865.41   18.40
   2   0   3  844.62   15.80
  -3   0  -3  166.38    6.30
  -3   0  -3  169.68    5.70
  -3   0  -3  175.38    6.10
  -3   0  -3  182.38    8.10
  -3   0  -3  173.28    7.90
   3   0   3  177.98    7.70
   3   0   3  171.18    5.80
   3   0   3  168.38    5.00
   3   0   3  171.58    6.10
  -4   0  -3   11.40    1.70
  -4   0  -3   12.50    1.90
  -4   0  -3   18.40    3.40
  -4   0  -3    9.10    2.30
  -4   0  -3   10.00    3.00
   4   0   3   12.70    2.10
   4   0   3    9.80    1.70
   4   0   3   12.40    2.70
   4   0   3   12.60    2.00
   4   0   3    8.40    2.70
  -5   0  -3  438.16   15.50
  -5   0  -3  417.36    9.40
  -5   0  -3  434.66   10.70
  -5   0  -3  446.76   14.70
   5   0   3  453.15   13.10
   5   0   3  438.16   13.70
  -6   0  -3 4024.60   63.59
  -6   0  -3 3903.31   75.09
  -6   0  -3 3931.51   73.29
  -6   0  -3 4002.10   60.59
  -6   0  -3 4104.39   72.99
   6   0   3 4006.80   68.69
   6   0   3 4012.90   70.09
   6   0   3 3969.30   78.49
  -7   0  -3  246.08    7.90
  -7   0  -3  229.38   12.80
  -7   0  -3  247.68   14.00
  -7   0  -3  267.47   13.50
   7   0   3  235.38   15.10
   7   0   3  241.68   11.90
   7   0   3  237.18   10.20
  -8   0  -3  677.43   24.20
  -8   0  -3  672.73   25.60
  -8   0  -3  652.73   19.50
   8   0   3  676.43   18.70
   8   0   3  734.13   29.30
   8   0   3  678.93   22.90
  -9   0  -3   11.80    5.10
  -9   0  -3    7.90    4.40
   9   0   3   17.60    6.50
   9   0   3   15.50    4.70
 -10   0  -3 1601.34   46.10
 -10   0  -3 1596.74   47.70
  10   0   3 1698.53   53.89
  10   0   3 1657.23   45.20
 -11   0  -3  771.82   32.80
  11   0   3  779.82   30.60
  11   0   3  694.43   35.10
 -12   0  -3   26.30    8.40
  12   0   3   21.80    7.60
  12   0   3   13.00    7.70
  10  -1  -3  258.57   21.10
  10  -1  -3  286.27   22.10
 -10   1   3  315.47   18.80
 -10   1   3  300.67   19.50
   9  -1  -3  129.89   15.90
   9  -1  -3  166.68   19.50
  -9   1   3  171.88   14.20
  -9   1   3  168.08   12.90
  -9   1   3  162.08   17.70
   8  -1  -3  121.49   14.80
   8  -1  -3  175.18   18.90
  -8   1   3  162.28   13.60
  -8   1   3  159.68   11.70
  -8   1   3  150.38   12.90
   7  -1  -3   71.29    8.20
   7  -1  -3   79.19   12.00
   7  -1  -3   60.39    9.50
  -7   1   3   55.89    8.70
  -7   1   3   73.69   10.40
  -7   1   3   80.59    9.50
   6  -1  -3 2603.84   58.19
   6  -1  -3 2486.75   60.09
   6  -1  -3 2556.84   51.59
  -6   1   3 2523.85   56.39
  -6   1   3 2560.04   52.89
  -6   1   3 2561.84   56.29
   5  -1  -3   28.30    5.80
   5  -1  -3   38.30    5.60
   5  -1  -3   21.50    5.50
  -5   1   3   23.70    4.60
  -5   1   3   25.30    4.90
  -5   1   3   34.90    6.10
   4  -1  -3 2756.12   54.99
   4  -1  -3 2781.62   52.69
   4  -1  -3 2736.53   57.89
  -4   1   3 2772.52   55.59
  -4   1   3 2769.92   55.09
  -4   1   3 2753.62   54.39
   3  -1  -3 4710.93   82.19
   3  -1  -3 4536.85   78.09
   3  -1  -3 4548.45   77.79
  -3   1   3 4572.24   77.99
  -3   1   3 4531.95   79.09
  -3   1   3 4358.46   78.79
   2  -1  -3 1714.03   37.30
   2  -1  -3 1778.92   35.70
   2  -1  -3 1810.42   34.60
  -2   1   3 1830.42   35.80
  -2   1   3 1792.62   34.40
  -2   1   3 1766.32   36.10
   1  -1  -3 1108.19   24.60
   1  -1  -3 1198.48   25.50
   1  -1  -3 1118.09   21.80
   1  -1  -3 1101.59   23.30
  -1   1   3 1090.29   22.00
  -1   1   3 1149.08   23.90
  -1   1   3 1131.29   23.40
  -1   1   3 1097.79   24.40
  -1   1   3 1137.19   25.00
  -1   1   3 1100.89   21.90
   0  -1  -3   46.00    2.60
   0  -1  -3   47.20    3.10
   0  -1  -3   41.40    3.40
   0  -1  -3   43.90    3.60
   0  -1  -3   44.20    3.50
   0  -1  -3   35.20    3.60
   0  -1  -3   45.80    2.40
   0  -1  -3   53.29    3.80
   0   1   3   47.90    4.60
   0   1   3   47.90    3.00
   0   1   3   53.89    4.00
   0   1   3   44.50    3.50
   0   1   3   47.20    4.40
   0   1   3   40.40    4.50
  -2  -1  -3 1302.67   25.60
  -2  -1  -3 1295.47   24.60
  -2  -1  -3 1310.17   23.50
  -2  -1  -3 1296.67   25.30
  -2  -1  -3 1275.97   24.30
  -2  -1  -3 1302.97   22.00
   2   1   3 1328.57   24.30
   2   1   3 1355.46   24.70
   2   1   3 1334.27   23.50
  -3  -1  -3   13.20    2.80
  -3  -1  -3   14.60    2.30
  -3  -1  -3   13.60    2.10
  -3  -1  -3   15.80    2.90
  -3  -1  -3   13.80    1.70
  -3  -1  -3   13.80    1.90
   3   1   3   19.00    2.40
   3   1   3   15.00    1.70
   3   1   3   17.50    2.70
   3   1   3   13.90    1.90
   3   1   3   13.70    1.20
   3   1   3   13.60    2.70
  -4  -1  -3 3315.47   51.59
  -4  -1  -3 3320.47   54.49
  -4  -1  -3 3365.96   51.29
  -4  -1  -3 3293.27   59.39
  -4  -1  -3 3329.97   56.79
  -4  -1  -3 3373.86   59.19
   4   1   3 3319.47   55.89
   4   1   3 3331.47   60.49
   4   1   3 3313.87   53.29
  -5  -1  -3  531.25   13.40
  -5  -1  -3  542.55   17.20
  -5  -1  -3  498.95   17.20
  -5  -1  -3  548.15   16.30
   5   1   3  520.05   14.00
   5   1   3  538.95   18.70
   5   1   3  523.75   13.80
  -6  -1  -3 1445.66   35.20
  -6  -1  -3 1458.15   33.60
  -6  -1  -3 1460.45   28.10
   6   1   3 1408.96   28.10
   6   1   3 1426.06   37.20
   6   1   3 1427.06   30.90
  -7  -1  -3 2038.50   37.40
  -7  -1  -3 2071.19   45.50
  -7  -1  -3 2026.80   46.70
   7   1   3 1989.10   49.70
   7   1   3 2024.40   42.70
   7   1   3 1998.70   36.90
  -8  -1  -3  516.55   14.30
  -8  -1  -3  485.05   20.90
  -8  -1  -3  490.05   20.20
   8   1   3  508.45   23.50
   8   1   3  467.55   12.80
   8   1   3  492.35   18.70
  -9  -1  -3  392.16   19.40
  -9  -1  -3  419.86   20.40
   9   1   3  385.16   21.80
   9   1   3  392.56   18.30
 -10  -1  -3   -0.20    3.20
 -10  -1  -3   -1.20    2.80
  10   1   3   -0.40    3.30
  10   1   3    0.70    2.80
 -11  -1  -3  876.61   33.90
 -11  -1  -3  929.81   35.20
  11   1   3  877.41   38.80
  11   1   3  887.41   32.70
 -12  -1  -3   -1.90    4.10
 -12  -1  -3    4.90    4.90
  12   1   3    2.20    3.60
  12   1   3   -2.20    4.60
  10  -2  -3    3.30    5.70
  10  -2  -3    7.10    6.50
 -10   2   3   12.30    5.80
 -10   2   3    7.70    4.60
   9  -2  -3    9.40    5.50
   9  -2  -3   18.70    7.40
  -9   2   3    4.20    4.20
  -9   2   3    3.60    3.90
   8  -2  -3 1317.67   44.80
   8  -2  -3 1304.47   42.50
  -8   2   3 1305.67   39.10
  -8   2   3 1195.18   37.20
   7  -2  -3  542.65   19.50
   7  -2  -3  554.44   26.20
   7  -2  -3  527.35   24.20
  -7   2   3  532.15   21.90
  -7   2   3  539.65   22.50
   6  -2  -3    1.10    3.30
   6  -2  -3   -0.60    1.80
   6  -2  -3   -0.10    2.60
  -6   2   3   11.50    4.40
  -6   2   3    1.20    2.50
   5  -2  -3 1396.86   36.70
   5  -2  -3 1395.26   39.20
   5  -2  -3 1397.06   33.40
  -5   2   3 1392.96   37.80
  -5   2   3 1376.26   35.20
  -5   2   3 1362.46   35.60
   4  -2  -3 2374.46   49.60
   4  -2  -3 2369.46   47.40
   4  -2  -3 2410.56   45.80
   4  -2  -3 2326.17   39.40
   4  -2  -3 2229.58   51.79
  -4   2   3 2399.46   49.00
  -4   2   3 2354.46   51.19
   3  -2  -3 4478.35   76.19
   3  -2  -3 4600.74   78.19
   3  -2  -3 4527.35   68.19
   3  -2  -3 4464.75   82.29
   3  -2  -3 4472.45   77.89
  -3   2   3 4382.96   80.09
  -3   2   3 4465.25   78.39
   2  -2  -3  547.75   16.60
   2  -2  -3  560.24   15.90
   2  -2  -3  554.84   15.20
   2  -2  -3  587.24   18.60
  -2   2   3  535.45   16.40
  -2   2   3  557.24   16.60
   1  -2  -3 4431.26   74.19
   1  -2  -3 4463.45   70.69
   1  -2  -3 4642.34   75.79
   1  -2  -3 4570.74   72.09
   1  -2  -3 4360.86   76.39
  -1   2   3 4492.25   81.39
  -1   2   3 4513.95   75.99
  -1   2   3 4450.15   70.89
  -1   2   3 4523.25   74.79
   0  -2  -3  693.23   17.00
   0  -2  -3  662.93   11.90
   0  -2  -3  662.93   17.00
   0  -2  -3  652.33   15.10
   0  -2  -3  640.44   16.70
   0  -2  -3  645.54   17.20
   0   2   3  681.63   16.50
   0   2   3  653.73   17.30
   0   2   3  669.83   12.10
   0   2   3  673.23   17.10
   0   2   3  651.03   11.70
  -1  -2  -3 2541.85   44.80
  -1  -2  -3 2532.15   44.40
  -1  -2  -3 2647.24   43.80
   1   2   3 2598.94   44.60
   1   2   3 2516.55   44.90
   1   2   3 2444.96   44.10
   1   2   3 2584.14   41.30
  -2  -2  -3 2382.06   40.70
  -2  -2  -3 2306.47   40.80
   2   2   3 2342.07   42.00
   2   2   3 2380.46   38.70
   2   2   3 2362.06   42.40
  -3  -2  -3  543.75   13.30
  -3  -2  -3  537.85   13.60
  -3  -2  -3  551.34   11.60
  -3  -2  -3  529.05   14.90
  -3  -2  -3  523.15   12.60
   3   2   3  541.25   11.40
   3   2   3  501.35   13.80
  -4  -2  -3 1274.57   26.60
  -4  -2  -3 1246.98   22.60
  -4  -2  -3 1260.47   28.20
  -4  -2  -3 1259.67   25.60
   4   2   3 1265.17   20.60
   4   2   3 1269.37   24.30
   4   2   3 1234.48   28.20
  -5  -2  -3 1659.23   35.90
  -5  -2  -3 1622.14   26.00
  -5  -2  -3 1623.94   34.40
  -5  -2  -3 1573.44   31.30
   5   2   3 1652.73   37.10
   5   2   3 1596.14   31.70
  -6  -2  -3  938.21   26.30
  -6  -2  -3  940.41   25.30
  -6  -2  -3  915.11   21.50
   6   2   3  931.61   23.40
   6   2   3  964.40   28.20
   6   2   3  929.31   18.90
  -7  -2  -3   54.09    7.40
  -7  -2  -3   67.89    8.30
  -7  -2  -3   76.79    5.70
   7   2   3   64.69    8.70
   7   2   3   66.59    7.50
   7   2   3   77.89    3.90
  -8  -2  -3  297.67   15.30
  -8  -2  -3  310.57   11.80
  -8  -2  -3  309.47   16.10
   8   2   3  293.67   17.40
   8   2   3  317.17   14.70
  -9  -2  -3 3181.08   69.89
  -9  -2  -3 3246.78   59.19
  -9  -2  -3 3233.78   69.79
   9   2   3 3276.47   75.79
   9   2   3 3335.67   68.09
 -10  -2  -3   66.09   10.10
 -10  -2  -3   75.29   11.30
  10   2   3  106.89   12.30
  10   2   3   79.09   12.80
 -11  -2  -3   80.99   11.80
 -11  -2  -3   67.99   11.10
  11   2   3   78.39   13.50
  11   2   3   82.59   11.70
 -12  -2  -3  224.18   17.80
 -12  -2  -3  201.68   17.20
  12   2   3  223.68   24.90
  12   2   3  203.88   16.30
  10  -3  -3   75.19   13.70
  10  -3  -3   83.09   14.70
 -10   3   3   77.09   15.60
 -10   3   3   78.09   12.80
   9  -3  -3    9.50    5.80
   9  -3  -3   -0.10    4.50
  -9   3   3   -0.10    3.90
  -9   3   3    9.90    4.90
   8  -3  -3  397.96   22.60
   8  -3  -3  321.47   21.80
  -8   3   3  353.26   19.60
  -8   3   3  343.17   18.50
   7  -3  -3  798.92   31.40
   7  -3  -3  887.51   26.20
   7  -3  -3  897.51   34.60
   7  -3  -3  868.81   26.80
  -7   3   3  821.12   28.30
  -7   3   3  878.91   30.40
   6  -3  -3   35.00    7.90
   6  -3  -3   30.60    5.80
   6  -3  -3   35.00    7.30
   6  -3  -3   16.10    4.40
  -6   3   3   30.10    6.20
   5  -3  -3 2242.28   47.30
   5  -3  -3 2286.17   51.39
   5  -3  -3 2341.17   55.69
   5  -3  -3 2181.88   47.70
  -5   3   3 2174.88   53.29
  -5   3   3 2156.28   48.20
   4  -3  -3   17.90    4.20
   4  -3  -3   19.50    4.40
   4  -3  -3   21.70    2.70
   4  -3  -3   20.00    4.20
   4  -3  -3   16.50    4.80
  -4   3   3    9.10    4.00
  -4   3   3   20.00    4.60
   3  -3  -3 5975.70  105.89
   3  -3  -3 6016.90  100.29
   3  -3  -3 5988.70  100.89
   3  -3  -3 5949.20   99.79
  -3   3   3 6015.10  104.59
  -3   3   3 5758.52   99.39
   2  -3  -3 1362.96   30.60
   2  -3  -3 1385.36   26.80
   2  -3  -3 1310.97   33.10
   2  -3  -3 1365.76   31.20
   2  -3  -3 1298.07   28.20
  -2   3   3 1340.57   32.70
  -2   3   3 1352.46   29.90
   1  -3  -3 2775.12   47.20
   1  -3  -3 2784.32   54.29
   1  -3  -3 2878.61   48.10
   1  -3  -3 2852.01   52.69
   1  -3  -3 2840.52   52.09
  -1   3   3 2740.83   53.49
  -1   3   3 2878.21   51.09
   0  -3  -3 3620.94   55.59
   0  -3  -3 3704.13   63.79
   0  -3  -3 3607.64   63.09
   0  -3  -3 3675.23   59.99
   0  -3  -3 3704.43   64.69
   0   3   3 3580.24   64.39
   0   3   3 3606.34   61.69
   1   3   3  420.16   12.50
  -2  -3  -3  908.41   16.90
  -2  -3  -3  940.61   20.90
  -2  -3  -3  925.91   20.40
   2   3   3  926.41   16.80
   2   3   3  937.51   22.20
  -3  -3  -3  208.38    7.50
  -3  -3  -3  210.98    8.40
   3   3   3  215.08    7.80
   3   3   3  208.98    8.00
  -4  -3  -3 4142.49   71.39
  -4  -3  -3 4049.09   68.89
  -4  -3  -3 4231.68   70.79
   4   3   3 4118.09   70.69
   4   3   3 4071.09   66.49
  -5  -3  -3 1292.37   30.60
  -5  -3  -3 1354.66   28.60
  -5  -3  -3 1316.57   30.40
   5   3   3 1301.87   31.40
   5   3   3 1314.07   24.70
  -6  -3  -3  208.38   11.20
  -6  -3  -3  227.08    9.90
  -6  -3  -3  211.18   11.10
  -6  -3  -3  209.98    6.30
   6   3   3  212.78    6.50
   6   3   3  202.88   10.10
   6   3   3  187.18   11.40
  -7  -3  -3 1035.60   29.40
  -7  -3  -3 1022.70   25.30
  -7  -3  -3  993.20   28.80
   7   3   3 1047.80   27.80
   7   3   3 1012.90   31.40
  -8  -3  -3   40.50    7.30
  -8  -3  -3   34.20    6.40
  -8  -3  -3   38.70    5.60
   8   3   3   28.30    6.20
   8   3   3   45.00    7.00
  -9  -3  -3  179.08   13.50
  -9  -3  -3  191.48   13.40
  -9  -3  -3  171.28    9.90
   9   3   3  186.88   12.50
   9   3   3  176.18   14.50
 -10  -3  -3 1113.19   28.70
 -10  -3  -3 1134.29   36.20
 -10  -3  -3 1114.39   36.70
  10   3   3 1062.89   34.40
  10   3   3 1129.39   40.30
 -11  -3  -3  158.08   16.40
 -11  -3  -3  184.98   15.30
  11   3   3  165.48   13.70
  11   3   3  176.38   19.60
 -12  -3  -3  143.09   17.00
 -12  -3  -3  174.98   19.30
  12   3   3  155.58   19.90
  12   3   3  159.28   14.60
   9  -4  -3  206.78   18.10
   9  -4  -3  233.78   20.40
  -9   4   3  213.48   17.50
   8  -4  -3   -1.40    3.60
   8  -4  -3    0.90    4.10
  -8   4   3   -5.20    2.90
  -8   4   3    1.10    2.90
   7  -4  -3  289.67   15.50
   7  -4  -3  252.87   18.70
   7  -4  -3  283.87   18.10
   7  -4  -3  289.47   15.50
  -7   4   3  270.27   15.40
  -7   4   3  280.47   17.80
   6  -4  -3    6.80    3.40
   6  -4  -3   11.30    5.00
   6  -4  -3   14.00    4.30
   6  -4  -3    7.90    4.50
  -6   4   3   11.30    5.80
  -6   4   3    8.60    4.00
   5  -4  -3 2608.64   54.89
   5  -4  -3 2561.84   62.09
   5  -4  -3 2540.35   54.49
   5  -4  -3 2451.65   56.29
  -5   4   3 2528.55   53.09
  -5   4   3 2555.14   60.79
   4  -4  -3 1132.39   30.70
   4  -4  -3 1110.49   30.80
   4  -4  -3 1110.89   35.00
   4  -4  -3 1159.28   31.10
  -4   4   3 1112.29   29.10
  -4   4   3 1151.88   34.60
   3  -4  -3   87.89    7.50
   3  -4  -3   92.59    7.30
   3  -4  -3   97.09    9.80
   3  -4  -3   76.49    9.60
  -3   4   3   84.49    7.00
  -3   4   3   70.69    9.10
  -3   4   3   77.19    3.70
   2  -4  -3  327.97   14.00
   2  -4  -3  358.66   11.00
   2  -4  -3  351.36   14.40
   2  -4  -3  333.87   15.80
   2  -4  -3  345.47   12.30
  -2   4   3  343.57   15.60
  -2   4   3  331.07   12.80
  -2   4   3  338.47    7.90
   1  -4  -3 4321.07   68.79
   1  -4  -3 4207.58   68.29
   1  -4  -3 4303.27   74.99
   1  -4  -3 3989.20   76.79
  -1   4   3 4131.79   76.39
  -1   4   3 4090.19   71.19
   0  -4  -3 5356.66   93.19
   0  -4  -3 5588.74   88.79
   0  -4  -3 5731.33   95.99
   0   4   3 5634.44   90.69
   0   4   3 5468.45   95.09
  -1  -4  -3  725.43   13.70
  -1  -4  -3  751.42   18.20
   1   4   3  769.72   21.60
   1   4   3  748.63   18.70
  -2  -4  -3 1585.44   33.10
  -2  -4  -3 1642.04   32.50
  -2  -4  -3 1637.74   28.10
   2   4   3 1650.43   35.10
   2   4   3 1618.94   28.00
  -3  -4  -3  564.34   14.40
  -3  -4  -3  583.94   16.00
  -3  -4  -3  596.74   16.40
   3   4   3  590.14   14.30
   3   4   3  605.04   18.20
  -4  -4  -3 2202.88   43.70
  -4  -4  -3 2199.68   42.50
   4   4   3 2219.68   41.80
   4   4   3 2156.18   44.60
  -5  -4  -3  988.00   26.00
  -5  -4  -3  922.61   23.80
   5   4   3  920.41   20.10
   5   4   3  967.60   26.30
   5   4   3  966.90   25.20
  -6  -4  -3   23.10    4.60
  -6  -4  -3   36.10    6.10
  -6  -4  -3   26.00    4.60
   6   4   3   19.00    4.50
   6   4   3   24.50    2.70
   6   4   3   21.80    2.70
  -7  -4  -3 1497.75   37.60
  -7  -4  -3 1414.76   36.20
  -7  -4  -3 1415.86   33.60
   7   4   3 1458.15   38.60
  -8  -4  -3  208.78   13.70
  -8  -4  -3  226.68   13.40
  -8  -4  -3  237.18   12.00
   8   4   3  230.78   13.30
   8   4   3  220.68   14.50
  -9  -4  -3   -0.80    2.90
  -9  -4  -3    4.00    2.90
  -9  -4  -3    8.30    4.60
   9   4   3   -0.20    3.00
   9   4   3    4.30    3.10
 -10  -4  -3  694.93   27.20
 -10  -4  -3  698.43   28.60
 -10  -4  -3  690.03   22.80
  10   4   3  726.23   27.80
  10   4   3  670.73   30.10
 -11  -4  -3   25.20    6.90
 -11  -4  -3   21.80    6.90
 -11  -4  -3    5.50    3.70
  11   4   3   16.60    6.80
  11   4   3    2.30    4.00
 -12  -4  -3  685.23   31.70
 -12  -4  -3  731.73   30.80
  12   4   3  694.73   30.60
  12   4   3  700.13   35.00
   9  -5  -3  443.96   27.00
   9  -5  -3  467.15   29.40
  -9   5   3  433.16   25.80
   8  -5  -3   -1.30    3.90
   8  -5  -3    2.90    4.70
  -8   5   3    2.40    4.30
   7  -5  -3   52.39    8.80
   7  -5  -3   44.90    8.20
   7  -5  -3   46.50   10.50
   7  -5  -3   62.69   11.00
  -7   5   3   57.09    8.70
   6  -5  -3  395.96   19.10
   6  -5  -3  373.76   22.70
   6  -5  -3  411.56   21.00
   6  -5  -3  406.26   19.00
  -6   5   3  439.66   23.90
  -6   5   3  426.16   17.80
   5  -5  -3 1365.36   38.50
   5  -5  -3 1364.16   43.20
   5  -5  -3 1366.36   38.00
   5  -5  -3 1328.87   36.90
  -5   5   3 1387.86   34.40
  -5   5   3 1326.77   42.00
   4  -5  -3 2361.76   53.79
   4  -5  -3 2492.75   60.09
   4  -5  -3 2327.07   52.89
   4  -5  -3 2365.26   52.39
  -4   5   3 2370.96   41.20
  -4   5   3 2501.25   58.59
  -4   5   3 2378.66   49.10
   3  -5  -3   45.20    7.10
   3  -5  -3   34.30    6.10
   3  -5  -3   40.20    4.50
   3  -5  -3   38.80    6.00
   3  -5  -3   28.20    6.30
  -3   5   3   42.10    8.10
  -3   5   3   42.60    6.00
  -3   5   3   41.30    3.20
   2  -5  -3 2977.90   62.19
   2  -5  -3 3107.29   57.49
   2  -5  -3 3227.48   54.29
   2  -5  -3 3214.88   67.09
  -2   5   3 3145.99   57.89
  -2   5   3 3089.99   64.89
  -2   5   3 3071.19   50.99
   1  -5  -3    5.70    2.10
   1  -5  -3    9.70    3.60
   1  -5  -3    7.90    2.40
   1  -5  -3    4.20    3.10
  -1   5   3   13.10    3.20
  -1   5   3    5.10    3.50
   0  -5  -3 1674.13   39.10
   0  -5  -3 1779.32   34.50
   0   5   3 1760.62   40.80
   0   5   3 1779.42   35.70
  -1  -5  -3 1073.79   27.80
  -1  -5  -3 1071.49   21.30
  -1  -5  -3 1167.88   25.50
   1   5   3 1098.79   25.40
   1   5   3 1112.09   29.20
  -2  -5  -3  680.23   18.50
  -2  -5  -3  661.33   15.20
  -2  -5  -3  686.43   20.10
   2   5   3  700.73   21.50
  -3  -5  -3 1142.29   24.10
  -3  -5  -3 1132.19   26.90
  -3  -5  -3 1137.99   26.90
   3   5   3 1135.79   23.90
   3   5   3 1151.48   29.20
  -4  -5  -3  179.88    8.80
  -4  -5  -3  195.88    9.90
   4   5   3  182.28   10.60
   4   5   3  172.78    8.40
  -5  -5  -3 1700.73   39.40
  -5  -5  -3 1654.63   36.90
   5   5   3 1672.93   39.30
   5   5   3 1671.83   36.40
  -6  -5  -3  134.49    9.90
  -6  -5  -3   86.19    8.50
   6   5   3  105.49    8.40
   6   5   3   96.69   10.10
   6   5   3   84.89    5.30
  -7  -5  -3   67.19    9.30
  -7  -5  -3   49.90    7.00
   7   5   3   55.59    4.00
   7   5   3   50.99    7.90
  -8  -5  -3 1950.30   48.90
  -8  -5  -3 1914.61   44.20
   8   5   3 2012.80   50.19
  -9  -5  -3   17.70    4.90
  -9  -5  -3   20.50    5.60
  -9  -5  -3   20.50    5.80
   9   5   3   22.20    7.20
 -10  -5  -3   52.69    9.10
 -10  -5  -3   52.49    9.60
 -10  -5  -3   47.60    8.10
  10   5   3   62.49   10.70
 -11  -5  -3  562.14   27.10
 -11  -5  -3  529.35   24.70
 -11  -5  -3  551.34   21.90
  11   5   3  574.44   29.20
 -12  -5  -3  824.32   35.50
 -12  -5  -3  846.92   33.30
  12   5   3  897.21   38.90
   8  -6  -3  211.58   21.90
   8  -6  -3  200.18   22.70
  -8   6   3  186.08   20.00
   7  -6  -3  615.44   26.50
   7  -6  -3  601.54   32.00
   7  -6  -3  530.35   36.30
   7  -6  -3  683.33   30.00
   6  -6  -3  108.49   15.30
   6  -6  -3  105.09   12.60
   6  -6  -3   92.99   12.20
   6  -6  -3  117.19   13.60
  -6   6   3   94.79   14.70
   5  -6  -3  127.29   16.00
   5  -6  -3  132.59   11.40
   5  -6  -3  142.59   14.50
   5  -6  -3  150.58   12.40
  -5   6   3  151.88   17.20
  -5   6   3  134.89    9.50
   4  -6  -3 1263.27   35.20
   4  -6  -3 1200.78   35.80
   4  -6  -3 1235.48   37.00
   4  -6  -3 1258.17   41.40
  -4   6   3 1215.78   30.50
  -4   6   3 1226.08   39.40
   3  -6  -3  945.01   34.10
   3  -6  -3 1012.70   28.50
   3  -6  -3  997.30   31.70
   3  -6  -3  968.00   22.30
  -3   6   3  987.90   21.40
  -3   6   3  976.90   25.70
  -3   6   3  951.40   32.90
   2  -6  -3  357.36   14.50
   2  -6  -3  391.56   12.70
   2  -6  -3  426.56   20.70
   2  -6  -3  385.76   18.20
  -2   6   3  384.06   19.10
  -2   6   3  391.66   11.80
  -2   6   3  405.36   14.80
   1  -6  -3 4929.61   92.49
   1  -6  -3 4924.71   82.79
   1  -6  -3 5104.79   97.09
  -1   6   3 4917.51   84.79
  -1   6   3 5122.49   94.49
   0  -6  -3 1345.87   29.30
   0  -6  -3 1296.37   34.60
   0   6   3 1349.16   36.20
   0   6   3 1328.57   29.90
  -1  -6  -3   64.19    8.00
  -1  -6  -3   55.09    6.00
  -1  -6  -3   47.30    5.50
   1   6   3   82.29    9.90
   1   6   3   61.19    6.50
  -2  -6  -3    8.60    3.50
  -2  -6  -3    8.30    2.90
  -2  -6  -3    9.00    3.20
   2   6   3   11.90    4.30
  -3  -6  -3 7812.92  127.09
  -3  -6  -3 7632.94  125.59
   3   6   3 7668.23  121.59
   3   6   3 7609.24  129.39
  -4  -6  -3  117.09    8.10
  -4  -6  -3  131.29    8.80
   4   6   3  127.19    8.00
   4   6   3  138.59    9.80
  -5  -6  -3  104.59    8.80
  -5  -6  -3  108.69    7.30
  -5  -6  -3   91.69    9.00
   5   6   3  108.09   11.10
   5   6   3   98.79    7.90
  -6  -6  -3  129.59   10.20
  -6  -6  -3  115.99    8.80
   6   6   3   81.99    9.30
   6   6   3  138.49    9.80
  -7  -6  -3  126.69   10.90
  -7  -6  -3  158.48   10.80
   7   6   3  160.28    8.10
   7   6   3  169.38   12.30
   7   6   3  153.78   11.20
  -8  -6  -3  303.67   15.60
  -8  -6  -3  324.87   18.20
   8   6   3  304.57   17.10
   8   6   3  323.87   17.80
  -9  -6  -3  336.27   19.30
  -9  -6  -3  298.37   15.80
   9   6   3  310.17   18.60
 -10  -6  -3  157.38   14.60
 -10  -6  -3  142.09   15.80
  10   6   3  114.79   14.50
 -11  -6  -3  546.35   27.70
 -11  -6  -3  537.05   23.20
  11   6   3  579.24   29.10
 -12  -6  -3    2.50    4.00
 -12  -6  -3    4.40    4.80
  12   6   3   -2.00    5.40
   7  -7  -3   50.19   10.50
   7  -7  -3   54.29   12.80
   7  -7  -3   63.69   11.70
   6  -7  -3  718.83   30.30
   6  -7  -3  751.62   30.70
   6  -7  -3  755.62   35.60
   6  -7  -3  698.63   28.80
  -6   7   3  724.13   33.80
   5  -7  -3  220.68   18.50
   5  -7  -3  230.48   15.70
   5  -7  -3  244.08   15.80
   5  -7  -3  237.38   16.90
  -5   7   3  252.67   18.70
   4  -7  -3  180.08   13.70
   4  -7  -3  150.68   12.00
   4  -7  -3  195.48   14.80
   4  -7  -3  175.08   15.70
  -4   7   3  148.49   16.20
   3  -7  -3  433.56   23.70
   3  -7  -3  386.06   20.50
   3  -7  -3  421.56   13.60
   3  -7  -3  445.16   18.50
  -3   7   3  433.56   13.70
  -3   7   3  426.16   15.50
  -3   7   3  420.36   22.00
   2  -7  -3  731.93   19.40
   2  -7  -3  704.73   22.60
   2  -7  -3  731.73   30.00
   2  -7  -3  715.73   27.30
  -2   7   3  710.33   27.80
  -2   7   3  745.33   21.10
  -2   7   3  692.03   19.00
   1  -7  -3 1283.47   37.60
   1  -7  -3 1283.27   40.00
   1  -7  -3 1296.27   29.40
  -1   7   3 1381.36   39.30
  -1   7   3 1277.97   30.30
   0  -7  -3  450.55   20.10
   0  -7  -3  432.96   15.10
   0   7   3  414.66   14.90
   0   7   3  404.66   19.40
  -1  -7  -3 1177.88   29.10
  -1  -7  -3 1254.57   34.60
   1   7   3 1166.08   34.30
   1   7   3 1185.48   28.50
  -2  -7  -3    9.20    3.00
  -2  -7  -3    1.10    2.80
   2   7   3   -1.80    2.80
  -3  -7  -3  302.27   13.90
  -3  -7  -3  340.07   15.60
   3   7   3  356.06   17.10
  -4  -7  -3 1616.94   38.80
  -4  -7  -3 1669.33   38.90
   4   7   3 1671.53   41.60
   4   7   3 1639.24   36.30
  -5  -7  -3  626.84   20.10
  -5  -7  -3  633.84   21.90
   5   7   3  618.54   23.20
   5   7   3  618.94   20.30
  -6  -7  -3  635.54   19.50
  -6  -7  -3  671.03   25.60
  -6  -7  -3  660.73   23.30
   6   7   3  661.63   24.70
   6   7   3  655.53   22.40
  -7  -7  -3  180.58   13.70
  -7  -7  -3  184.28   12.30
   7   7   3  196.68   13.70
   7   7   3  194.78   10.00
   7   7   3  162.98   11.90
  -8  -7  -3   63.09    9.20
  -8  -7  -3   51.99    9.00
   8   7   3   59.79    7.80
   8   7   3   69.99   10.30
   8   7   3   61.39    9.40
  -9  -7  -3   80.99   10.70
  -9  -7  -3   68.09   10.90
   9   7   3   79.09   12.00
   9   7   3   58.69    9.70
 -10  -7  -3   54.99   10.30
 -10  -7  -3   40.30    8.30
  10   7   3   51.19   10.00
  10   7   3   52.29    9.90
 -11  -7  -3  398.86   24.40
 -11  -7  -3  357.16   19.80
  11   7   3  380.46   23.30
  11   7   3  379.06   23.30
   6  -8  -3  417.36   23.80
   6  -8  -3  413.86   23.20
   6  -8  -3  454.65   25.30
   6  -8  -3  391.36   27.00
  -6   8   3  431.66   27.20
   5  -8  -3   28.80    7.30
   5  -8  -3   34.90    9.60
   5  -8  -3   33.70    8.20
   5  -8  -3   30.50    8.70
  -5   8   3   29.20    8.70
   4  -8  -3   16.80    5.70
   4  -8  -3   20.20    7.20
   4  -8  -3   19.90    6.20
   4  -8  -3   17.20    6.80
  -4   8   3    8.10    5.70
   3  -8  -3  569.54   28.90
   3  -8  -3  636.74   23.70
   3  -8  -3  594.74   27.40
  -3   8   3  586.44   27.50
   2  -8  -3   43.80    9.00
   2  -8  -3    3.70    3.10
   2  -8  -3    1.00    3.10
   2  -8  -3    2.70    2.20
  -2   8   3   -1.80    3.00
  -2   8   3    6.80    2.90
  -2   8   3    1.10    2.00
   1  -8  -3  152.38   13.10
   1  -8  -3  156.38   14.20
   1  -8  -3  145.59    8.70
  -1   8   3  149.88   15.90
  -1   8   3  143.79    9.00
   0  -8  -3  776.82   22.60
   0  -8  -3  815.72   29.70
   0   8   3  764.92   28.40
   0   8   3  777.02   22.20
  -1  -8  -3 2035.20   51.29
  -1  -8  -3 2017.20   44.40
   1   8   3 2126.69   51.99
   1   8   3 2095.19   43.50
  -2  -8  -3 1591.54   41.80
  -2  -8  -3 1533.45   36.70
   2   8   3 1475.25   41.50
  -3  -8  -3    4.70    3.00
  -3  -8  -3    9.10    4.00
   3   8   3    4.70    4.30
  -4  -8  -3  812.32   26.00
  -4  -8  -3  829.42   26.70
   4   8   3  805.12   24.10
   4   8   3  801.52   28.30
  -5  -8  -3  207.38   12.70
  -5  -8  -3  201.48   12.20
   5   8   3  183.88   13.10
   5   8   3  196.78   11.90
  -6  -8  -3  674.83   27.20
  -6  -8  -3  695.93   25.10
  -6  -8  -3  685.53   22.00
   6   8   3  673.53   26.10
   6   8   3  660.53   23.40
  -7  -8  -3  227.68   16.10
  -7  -8  -3  196.98   13.40
  -7  -8  -3  225.88   11.40
   7   8   3  235.98   12.50
   7   8   3  234.28   14.30
   7   8   3  226.88   15.50
  -8  -8  -3    6.90    4.70
  -8  -8  -3   12.10    5.30
   8   8   3   11.40    3.90
   8   8   3    8.30    5.00
   8   8   3    1.80    3.70
  -9  -8  -3  214.48   15.00
  -9  -8  -3  185.58   16.00
   9   8   3  196.68   15.20
   9   8   3  179.58   18.30
 -10  -8  -3    1.80    4.30
 -10  -8  -3    0.60    3.90
  10   8   3   -3.60    3.60
  10   8   3    4.60    4.60
 -11  -8  -3  398.96   25.00
 -11  -8  -3  359.36   20.70
  11   8   3  340.27   22.60
  11   8   3  386.06   23.90
   5  -9  -3  120.49   15.90
   5  -9  -3  119.99   18.40
   5  -9  -3  140.09   17.60
  -5   9   3  145.49   19.40
   4  -9  -3   66.29   11.40
   4  -9  -3   66.09   11.90
   4  -9  -3   74.59   13.90
  -4   9   3  104.39   15.50
   3  -9  -3  430.46   24.80
   3  -9  -3  462.05   21.20
   3  -9  -3  460.65   27.50
  -3   9   3  418.46   24.20
   2  -9  -3  797.52   26.80
   2  -9  -3  790.02   32.80
   2  -9  -3  766.72   35.10
  -2   9   3  760.62   31.80
   1  -9  -3   78.49    8.40
   1  -9  -3   90.39   13.10
   1  -9  -3   78.69   12.80
  -1   9   3   85.39   12.80
   0  -9  -3   71.29    8.20
   0  -9  -3   68.09   10.60
   0   9   3   71.59   11.40
   0   9   3   75.79    8.20
  -1  -9  -3    1.80    3.20
  -1  -9  -3   -2.70    2.30
   1   9   3    4.80    4.90
   1   9   3    5.40    3.10
  -2  -9  -3 2240.98   55.79
  -2  -9  -3 2246.68   49.60
   2   9   3 2211.68   47.80
   2   9   3 2239.18   55.79
  -3  -9  -3   23.60    6.10
  -3  -9  -3   45.80    7.20
   3   9   3   24.20    6.70
  -4  -9  -3  260.27   15.50
  -4  -9  -3  256.67   14.70
   4   9   3  258.77   16.70
  -5  -9  -3  613.94   23.50
  -5  -9  -3  620.04   24.00
   5   9   3  595.14   22.10
   5   9   3  590.14   25.40
  -6  -9  -3  573.04   21.60
  -6  -9  -3  530.85   22.80
   6   9   3  515.45   21.50
   6   9   3  549.95   24.40
  -7  -9  -3  169.98   13.10
  -7  -9  -3  181.68   15.40
  -7  -9  -3  153.68   12.60
   7   9   3  167.18   13.00
   7   9   3  193.38   14.90
   7   9   3  160.88   11.20
  -8  -9  -3   15.50    5.40
  -8  -9  -3   11.70    6.00
   8   9   3    7.50    4.50
   8   9   3    8.90    5.40
   8   9   3    7.50    4.10
  -9  -9  -3  293.67   18.30
  -9  -9  -3  267.27   19.70
   9   9   3  248.58   17.50
   9   9   3  282.67   19.30
 -10  -9  -3  113.39   14.20
 -10  -9  -3  101.19   15.40
  10   9   3  121.69   16.20
  10   9   3  146.79   16.70
   4 -10  -3    9.10    6.50
   4 -10  -3   15.60    8.10
   4 -10  -3    7.10    5.70
  -4  10   3    3.30    5.80
   3 -10  -3  175.38   19.80
   3 -10  -3  187.78   22.80
  -3  10   3  189.48   20.80
   2 -10  -3  234.98   19.00
   2 -10  -3  202.18   23.60
  -2  10   3  225.98   18.00
   1 -10  -3   17.40    6.70
   1 -10  -3   19.20    8.30
  -1  10   3   21.20    7.80
   0 -10  -3  745.43   24.30
   0 -10  -3  731.43   31.90
   0  10   3  733.13   31.00
  -1 -10  -3   47.40    9.90
  -1 -10  -3   44.20    7.60
   1  10   3   30.00    8.20
  -2 -10  -3  372.86   17.70
  -2 -10  -3  380.96   21.70
   2  10   3  349.17   20.80
   2  10   3  368.26   16.00
  -3 -10  -3  534.95   25.20
  -3 -10  -3  570.74   22.70
   3  10   3  567.04   26.20
  -4 -10  -3  642.34   25.00
  -4 -10  -3  721.13   28.20
   4  10   3  660.73   28.20
  -5 -10  -3  234.28   15.90
  -5 -10  -3  253.77   15.90
   5  10   3  248.48   17.50
  -6 -10  -3   37.20    8.00
  -6 -10  -3   25.00    6.60
   6  10   3   29.00    8.10
   6  10   3   27.40    6.60
  -7 -10  -3  389.16   20.90
  -7 -10  -3  417.96   24.60
   7  10   3  461.75   23.60
   7  10   3  366.06   19.60
   7  10   3  429.86   20.00
  -8 -10  -3   24.80    7.60
  -8 -10  -3    5.50    5.70
   8  10   3   18.10    6.40
   8  10   3   28.60    8.50
   8  10   3   20.10    7.50
  -9 -10  -3  128.29   15.60
  -9 -10  -3   93.49   14.90
   9  10   3  120.49   15.10
   9  10   3  109.29   14.90
 -10 -10  -3  422.26   24.00
 -10 -10  -3  483.25   29.00
  10  10   3  453.45   26.10
  10  10   3  475.25   25.90
   2 -11  -3  133.79   18.50
   2 -11  -3  172.68   22.60
  -2  11   3  138.79   17.50
   1 -11  -3   12.20    7.50
   1 -11  -3   16.50    8.70
  -1  11   3   12.10    6.60
   0 -11  -3  388.96   24.80
   0  11   3  395.96   23.60
  -1 -11  -3  644.94   31.00
  -1 -11  -3  629.54   23.80
   1  11   3  629.64   29.20
  -2 -11  -3    5.30    4.20
  -2 -11  -3   -0.50    4.60
   2  11   3    3.10    5.60
  -3 -11  -3  309.07   17.30
  -3 -11  -3  342.47   21.50
   3  11   3  292.17   20.00
  -4 -11  -3   30.00    7.80
  -4 -11  -3   25.90    7.00
   4  11   3   37.80    9.80
  -5 -11  -3  781.02   30.90
  -5 -11  -3  697.23   28.30
   5  11   3  830.52   33.20
  -6 -11  -3  106.69   13.10
  -6 -11  -3   89.89   12.60
   6  11   3   92.09   13.50
  -7 -11  -3   58.89   11.00
  -7 -11  -3   48.90   11.80
   7  11   3   49.80   10.70
   7  11   3   58.49   10.00
  -8 -11  -3  107.39   16.30
  -8 -11  -3  133.59   15.70
   8  11   3  162.78   18.60
   0 -12  -3  123.09   19.80
   0 -12  -3  138.39   18.50
   0  12   3  141.29   17.50
  -1 -12  -3  415.06   26.60
   1  12   3  406.06   24.70
  -2 -12  -3   24.90    7.00
  -2 -12  -3   34.90    9.50
   2  12   3   24.40    8.80
  -3 -12  -3  229.78   16.00
  -3 -12  -3  241.08   19.40
   3  12   3  244.18   19.30
  -4 -12  -3   57.19    9.80
  -4 -12  -3   65.99   12.40
   4  12   3   68.29   12.50
  -5 -12  -3  377.66   22.80
  -5 -12  -3  360.76   20.90
   5  12   3  375.76   23.90
  -6 -12  -3  173.78   18.00
  -6 -12  -3  173.08   18.30
   6  12   3  138.19   17.20
  -7 -12  -3   52.49   12.30
  -7 -12  -3   62.89   11.60
   7  12   3   67.49   13.30
   7  12   3   67.09   11.40
   5  10  -4  190.28   19.80
  -5 -10   4  244.78   20.30
  -5 -10   4  163.18   27.30
   4  10  -4   36.50    9.30
  -4 -10   4   57.89   12.20
  -4 -10   4   48.30   10.70
   3  10  -4  189.58   19.90
  -3 -10   4  173.88   19.20
   2  10  -4   -0.10    4.10
  -2 -10   4   -1.40    4.90
   1  10  -4   11.30    7.30
  -1 -10   4   12.00    7.30
   0  10  -4   89.19   14.00
   0  10  -4   96.09   15.30
   0 -10   4  106.29   16.10
  -1  10  -4    2.40    5.50
  -1  10  -4   -3.20    4.30
   1 -10   4   -4.90    4.60
  -2  10  -4  361.16   22.90
  -2  10  -4  357.56   24.80
  -2  10  -4  410.06   24.40
   2 -10   4  361.46   26.10
   7   9  -4  288.57   23.20
   7   9  -4  294.77   20.10
  -7  -9   4  298.77   22.30
   6   9  -4    0.70    4.90
   6   9  -4    8.20    7.00
  -6  -9   4    4.60    4.70
   5   9  -4  321.57   20.70
  -5  -9   4  347.27   22.30
  -5  -9   4  316.47   19.20
   4   9  -4   23.50    7.40
  -4  -9   4    2.00    4.50
  -4  -9   4   14.60    6.50
   3   9  -4  348.57   20.80
  -3  -9   4  280.57   19.40
   2   9  -4  325.37   20.50
  -2  -9   4  340.27   22.00
   1   9  -4   -0.70    3.50
  -1  -9   4   -1.20    3.90
   0   9  -4    8.10    5.40
   0  -9   4    2.50    5.10
  -1   9  -4   65.69   11.50
  -1   9  -4   67.99   12.10
   1  -9   4   66.99   12.70
  -2   9  -4  246.38   18.20
  -2   9  -4  269.07   17.30
  -2   9  -4  270.37   18.80
   2  -9   4  253.37   20.20
  -3   9  -4  278.97   19.10
  -3   9  -4  278.77   19.50
  -3   9  -4  286.57   18.80
   3  -9   4  305.57   23.40
  -4   9  -4    0.20    5.00
  -4   9  -4   -2.20    4.60
  -4   9  -4   13.70    6.20
   4  -9   4    5.40    6.60
   8   8  -4   10.00    6.80
   8   8  -4   12.60    7.00
  -8  -8   4   26.80    8.60
   7   8  -4  734.93   30.60
   7   8  -4  756.62   35.10
  -7  -8   4  720.33   33.30
   6   8  -4  215.08   16.40
   6   8  -4  247.28   20.00
  -6  -8   4  227.18   18.10
   5   8  -4  137.79   15.40
   5   8  -4  147.29   17.60
  -5  -8   4  127.39   15.10
  -5  -8   4  142.99   15.00
   4   8  -4   75.79   11.40
  -4  -8   4  102.89   13.70
  -4  -8   4   83.39   11.40
   3   8  -4  343.07   19.70
  -3  -8   4  339.57   19.70
   2   8  -4  456.45   23.00
  -2  -8   4  484.75   24.10
   1   8  -4   79.19   12.00
  -1  -8   4   74.29   11.60
   0   8  -4   77.49   11.20
   0  -8   4   89.39   13.30
  -1   8  -4   79.19   11.40
  -1   8  -4   50.09    9.60
   1  -8   4   57.49   10.90
  -2   8  -4    7.80    5.00
  -2   8  -4    0.80    4.10
   2  -8   4    2.50    5.10
  -3   8  -4  657.43   28.40
  -3   8  -4  646.14   27.80
  -3   8  -4  673.83   27.20
   3  -8   4  634.44   30.90
  -4   8  -4   -3.30    4.10
  -4   8  -4    2.00    4.50
  -4   8  -4    2.70    4.40
   4  -8   4   -0.10    4.70
  -5   8  -4  284.07   19.50
  -5   8  -4  224.78   16.60
  -5   8  -4  247.98   18.00
   5  -8   4  250.17   20.70
   5  -8   4  222.38   19.80
   9   7  -4  152.08   18.90
  -9  -7   4  202.68   22.30
   8   7  -4   93.19   13.10
   8   7  -4   52.69   11.20
  -8  -7   4   92.49   14.90
   7   7  -4  282.97   20.90
   7   7  -4  259.07   17.40
  -7  -7   4  255.37   18.90
   6   7  -4  911.91   32.60
   6   7  -4  866.21   35.20
  -6  -7   4  842.32   33.30
   5   7  -4  354.76   21.40
   5   7  -4  356.26   19.30
  -5  -7   4  345.67   17.60
  -5  -7   4  338.27   20.00
   4   7  -4  172.08   13.70
   4   7  -4  198.08   16.00
  -4  -7   4  209.78   15.00
  -4  -7   4  194.58   13.70
   3   7  -4    2.40    3.70
  -3  -7   4    7.10    4.10
   2   7  -4  465.65   21.60
  -2  -7   4  445.96   21.50
   1   7  -4    7.80    4.40
  -1  -7   4   -4.70    2.30
   0   7  -4    1.90    3.40
   0  -7   4   12.90    5.50
  -1   7  -4  663.53   26.10
  -1   7  -4  631.74   25.70
   1  -7   4  607.14   27.20
  -2   7  -4   64.69    9.60
  -2   7  -4   74.09   10.80
   2  -7   4   66.99   10.90
  -3   7  -4  100.39   11.50
  -3   7  -4  119.49   13.50
  -3   7  -4   93.79   11.70
   3  -7   4   99.19   14.40
  -4   7  -4   69.99   10.40
  -4   7  -4   68.59   10.10
  -4   7  -4   71.99   11.40
   4  -7   4   57.19   10.90
  -5   7  -4  238.98   17.20
  -5   7  -4  248.38   17.20
  -5   7  -4  266.67   16.70
   5  -7   4  283.87   20.10
   5  -7   4  235.68   18.50
  -6   7  -4  421.56   21.10
  -6   7  -4  374.16   22.60
  -6   7  -4  380.16   21.60
   6  -7   4  394.86   24.50
   6  -7   4  395.56   24.20
  -7   7  -4    4.40    5.40
  -7   7  -4   -2.30    4.00
   7  -7   4   -0.90    3.70
   7  -7   4   -0.40    5.40
   7  -7   4   -3.10    4.90
   9   6  -4  260.57   21.50
  -9  -6   4  247.08   19.50
   8   6  -4  380.36   20.10
   8   6  -4  331.97   22.60
  -8  -6   4  384.26   23.10
   7   6  -4    0.90    3.70
   7   6  -4    4.30    5.50
  -7  -6   4    2.10    4.20
   6   6  -4  556.84   23.40
   6   6  -4  516.65   25.60
  -6  -6   4  531.95   24.10
  -6  -6   4  507.05   19.30
  -6  -6   4  472.25   23.70
   5   6  -4   70.39   11.30
   5   6  -4   52.49    8.30
  -5  -6   4   79.79   10.40
  -5  -6   4   83.39   10.00
  -5  -6   4   61.49    9.50
   4   6  -4 1651.63   43.30
   4   6  -4 1546.85   45.10
  -4  -6   4 1562.94   42.90
  -4  -6   4 1542.95   40.30
  -4  -6   4 1554.34   40.50
   3   6  -4  908.01   30.40
   3   6  -4  923.61   32.70
  -3  -6   4 1020.20   31.10
  -3  -6   4  990.00   28.20
  -3  -6   4  940.81   30.50
   2   6  -4   86.69   10.20
   2   6  -4   79.09    7.40
  -2  -6   4  100.29   11.60
   1   6  -4  126.79   12.80
   1   6  -4  109.49    5.00
  -1  -6   4  102.69   11.90
   0   6  -4  173.48   12.10
   0   6  -4  191.78    7.30
   0  -6   4  177.38   13.60
  -1   6  -4  705.33   25.50
   1  -6   4  752.92   28.60
  -2   6  -4  473.45   20.50
  -2   6  -4  511.15   19.70
  -2   6  -4  530.05   22.50
   2  -6   4  493.85   23.40
  -3   6  -4   10.90    4.30
  -3   6  -4    5.70    3.80
  -3   6  -4    8.90    3.80
   3  -6   4    6.90    4.70
  -4   6  -4  477.85   22.10
  -4   6  -4  481.35   21.70
  -4   6  -4  504.55   21.20
   4  -6   4  460.25   23.60
  -5   6  -4   39.80    8.40
  -5   6  -4   36.80    7.30
  -5   6  -4   29.30    7.50
   5  -6   4   30.70    7.80
   5  -6   4   33.50    8.70
  -6   6  -4  395.56   21.20
  -6   6  -4  483.55   24.40
  -6   6  -4  455.15   20.40
   6  -6   4  485.95   25.10
   6  -6   4  433.36   23.70
  -7   6  -4  294.07   18.70
  -7   6  -4  305.27   20.30
  -7   6  -4  298.97   31.50
   7  -6   4  313.17   20.40
   7  -6   4  296.97   20.40
   7  -6   4  295.87   22.80
  -8   6  -4  269.27   18.30
  -8   6  -4  283.07   20.50
   8  -6   4  270.37   20.20
   8  -6   4  263.97   20.10
   8  -6   4  270.97   23.00
  10   5  -4   73.29   13.40
  10   5  -4   59.89   13.60
 -10  -5   4   87.59   14.50
   9   5  -4   10.10    6.40
   9   5  -4  -12.60    4.50
  -9  -5   4    4.00    4.80
   8   5  -4  995.50   32.50
   8   5  -4 1033.80   41.40
   8   5  -4 1023.60   38.70
  -8  -5   4 1001.80   37.60
  -8  -5   4  934.21   36.20
   7   5  -4  107.39   13.60
   7   5  -4  123.99   13.20
   7   5  -4  108.59   14.80
  -7  -5   4  162.08   17.30
  -7  -5   4  129.89   14.80
   6   5  -4  190.88   15.20
   6   5  -4  207.58   13.60
   6   5  -4  208.28   16.30
  -6  -5   4  210.88   14.80
  -6  -5   4  221.28   11.50
  -6  -5   4  218.38   15.10
   5   5  -4  164.28   13.50
   5   5  -4  166.28    8.80
   5   5  -4  163.98   12.00
  -5  -5   4  198.78   13.60
  -5  -5   4  163.88   12.60
  -5  -5   4  183.38   10.90
   4   5  -4 1142.49   33.10
   4   5  -4 1143.19   24.60
   4   5  -4 1024.20   33.90
  -4  -5   4 1093.49   32.00
  -4  -5   4 1122.19   30.70
  -4  -5   4 1126.69   33.50
   3   5  -4  304.07    9.50
   3   5  -4  311.07   17.50
   3   5  -4  316.87   15.90
  -3  -5   4  301.47   14.50
  -3  -5   4  307.47   15.00
  -3  -5   4  275.27   14.80
   2   5  -4   11.70    2.10
   2   5  -4    6.40    4.60
   2   5  -4   21.90    5.40
  -2  -5   4    5.30    2.90
  -2  -5   4   15.40    4.60
   1   5  -4  798.82   25.70
  -1  -5   4  771.32   20.70
  -1  -5   4  769.32   26.00
   0   5  -4   15.10    4.40
   0   5  -4   11.90    1.90
   0  -5   4   10.80    2.40
   0  -5   4    7.40    3.80
  -1   5  -4  212.38    6.40
  -1   5  -4  222.48   12.70
   1  -5   4  216.58    9.00
   1  -5   4  242.48   14.70
  -2   5  -4  845.32   27.80
  -2   5  -4  884.41   25.50
  -2   5  -4  852.91   26.60
   2  -5   4  875.11   29.90
  -3   5  -4   97.59   11.20
  -3   5  -4  112.49    9.30
  -3   5  -4   88.39    9.60
   3  -5   4   84.29   10.90
  -4   5  -4  453.15   20.00
  -4   5  -4  471.05   19.00
  -4   5  -4  443.86   20.20
   4  -5   4  442.36   21.50
  -5   5  -4  156.68   12.20
  -5   5  -4  132.39   10.10
  -5   5  -4  129.49   13.40
   5  -5   4  144.39   15.50
   5  -5   4  130.69   11.70
  -6   5  -4  261.67   17.20
  -6   5  -4  254.47   16.00
  -6   5  -4  265.97   14.30
   6  -5   4  234.78   16.70
   6  -5   4  258.77   16.90
  -7   5  -4  288.47   15.10
  -7   5  -4  294.57   17.80
  -7   5  -4  317.07   19.80
   7  -5   4  283.07   18.20
   7  -5   4  257.37   20.30
   7  -5   4  294.17   18.90
  -8   5  -4   40.60    8.80
  -8   5  -4   31.30    8.50
   8  -5   4   35.30    8.80
   8  -5   4   47.90   10.00
   8  -5   4   25.60    9.40
  -9   5  -4  976.60   39.60
  -9   5  -4  941.91   35.10
   9  -5   4  959.90   41.00
   9  -5   4  971.60   43.90
   9  -5   4  970.00   37.60
  10   4  -4  232.38   20.20
  10   4  -4  240.68   21.60
 -10  -4   4  221.78   18.60
   9   4  -4    9.10    5.70
   9   4  -4   18.80    8.00
  -9  -4   4   26.90    8.10
  -9  -4   4   24.80    7.50
   8   4  -4  198.38   19.80
   8   4  -4  207.78   18.20
   8   4  -4  196.78   13.20
  -8  -4   4  188.98   15.90
  -8  -4   4  191.88   15.70
   7   4  -4  497.25   24.40
   7   4  -4  510.65   26.50
   7   4  -4  471.65   20.40
  -7  -4   4  486.95   23.30
  -7  -4   4  494.85   23.90
   6   4  -4  673.93   23.90
   6   4  -4  659.13   27.00
   6   4  -4  650.93   28.70
  -6  -4   4  673.83   19.60
  -6  -4   4  635.84   25.30
  -6  -4   4  621.34   25.80
   5   4  -4 1652.53   44.50
   5   4  -4 1681.43   41.40
   5   4  -4 1633.74   46.80
  -5  -4   4 1726.63   44.40
  -5  -4   4 1627.44   36.90
  -5  -4   4 1696.03   43.30
   4   4  -4  286.17   14.80
   4   4  -4  334.67   18.20
   4   4  -4  295.57   16.40
  -4  -4   4  293.97   15.30
  -4  -4   4  308.87   13.70
  -4  -4   4  325.07   15.60
   3   4  -4 1726.63   31.70
   3   4  -4 1723.93   43.10
   3   4  -4 1701.93   40.70
   3   4  -4 1729.03   31.10
  -3  -4   4 1712.83   39.40
  -3  -4   4 1708.63   40.20
  -3  -4   4 1695.43   40.10
   2   4  -4    6.00    1.30
   2   4  -4    4.60    3.70
   2   4  -4    4.90    2.70
   2   4  -4    4.50    1.10
   2   4  -4    5.20    1.40
  -2  -4   4    6.50    2.90
  -2  -4   4   11.80    3.40
  -2  -4   4    5.00    2.70
   1   4  -4 1413.26   34.40
  -1  -4   4 1349.47   34.70
  -1  -4   4 1334.37   30.10
   0   4  -4 2386.66   42.60
   0  -4   4 2320.77   42.50
   0  -4   4 2295.57   51.09
  -1   4  -4   25.20    3.00
  -1   4  -4   16.40    3.50
  -1   4  -4   20.30    4.80
   1  -4   4   25.50    5.60
   1  -4   4   20.90    2.70
   1  -4   4   31.70    3.30
  -2   4  -4   10.00    4.30
  -2   4  -4   17.40    4.50
  -2   4  -4   20.10    4.30
   2  -4   4    9.40    3.80
  -3   4  -4  106.29    8.30
  -3   4  -4  118.79    9.70
  -3   4  -4   83.89    8.80
   3  -4   4   90.89   10.30
  -4   4  -4  896.51   28.40
  -4   4  -4  915.61   26.00
  -4   4  -4  912.81   28.00
   4  -4   4  924.71   30.30
  -5   4  -4  992.00   27.40
  -5   4  -4  984.50   31.20
  -5   4  -4  981.00   30.70
   5  -4   4  999.20   32.50
   5  -4   4  973.70   30.70
  -6   4  -4  166.78   12.40
  -6   4  -4  146.59   12.20
  -6   4  -4  138.49    9.50
   6  -4   4  156.08   12.60
   6  -4   4  128.89   11.10
  -7   4  -4  843.12   31.70
  -7   4  -4  834.32   24.80
  -7   4  -4  820.52   29.30
   7  -4   4  760.82   33.80
   7  -4   4  823.62   30.50
   7  -4   4  795.82   29.20
  -8   4  -4   -2.50    3.00
  -8   4  -4   -3.80    3.20
   8  -4   4    6.80    4.00
   8  -4   4   -4.20    2.90
   8  -4   4    3.10    4.90
  -9   4  -4  406.06   21.90
  -9   4  -4  474.15   25.80
   9  -4   4  450.25   23.10
   9  -4   4  439.16   23.60
   9  -4   4  446.86   28.40
  10   3  -4   80.39   14.40
  10   3  -4   74.89   14.30
 -10  -3   4   71.09   12.80
 -10  -3   4   88.39   15.00
   9   3  -4  391.06   25.30
   9   3  -4  389.56   23.90
  -9  -3   4  422.86   23.50
  -9  -3   4  404.86   24.00
   8   3  -4   48.70   10.20
   8   3  -4   52.59    8.40
   8   3  -4   54.19   11.60
  -8  -3   4   41.70    8.40
  -8  -3   4   38.60    8.60
   7   3  -4  220.68   13.30
   7   3  -4  208.18   16.60
   7   3  -4  232.08   16.60
  -7  -3   4  199.78   14.40
  -7  -3   4  207.88   15.20
   6   3  -4    4.10    3.80
   6   3  -4   -0.70    2.50
   6   3  -4    3.40    4.20
  -6  -3   4    7.00    2.40
  -6  -3   4    1.90    3.40
  -6  -3   4   10.10    4.10
   5   3  -4 1841.92   42.80
   5   3  -4 1868.61   46.30
   5   3  -4 1823.62   48.80
  -5  -3   4 1792.02   37.80
  -5  -3   4 1835.92   46.20
  -5  -3   4 1816.42   44.20
   4   3  -4  159.68   10.40
   4   3  -4  183.48   12.70
   4   3  -4  160.18   12.00
  -4  -3   4  170.68    9.30
  -4  -3   4  189.28   12.10
  -4  -3   4  178.48   11.00
   3   3  -4  267.57    9.20
   3   3  -4  302.17   14.90
   3   3  -4  294.57   13.60
   3   3  -4  304.37   15.60
  -3  -3   4  281.17   13.60
  -3  -3   4  284.17   12.90
  -3  -3   4  289.67   12.40
   2   3  -4 1125.39   19.80
   2   3  -4 1130.19   20.20
   2   3  -4 1117.49   29.00
   2   3  -4 1099.39   30.40
   2   3  -4 1079.69   30.30
  -2  -3   4 1156.48   28.50
  -2  -3   4 1106.89   27.50
  -2  -3   4 1159.88   28.60
   1   3  -4 1887.31   40.90
   1   3  -4 1890.11   30.80
   1   3  -4 1822.02   42.20
  -1  -3   4 1928.11   41.50
  -1  -3   4 1873.91   38.10
   0   3  -4 1832.12   39.70
   0   3  -4 1868.11   33.30
   0  -3   4 1932.01   35.90
   0  -3   4 1810.52   41.00
  -1   3  -4  784.82   17.20
  -1   3  -4  817.92   22.70
  -1   3  -4  812.72   19.50
  -1   3  -4  850.51   23.70
   1  -3   4  776.92   22.00
   1  -3   4  815.22   17.70
   1  -3   4  825.82   24.70
   1  -3   4  799.32   15.40
  -2   3  -4 2088.89   42.80
  -2   3  -4 2091.49   41.40
  -2   3  -4 2091.89   45.00
   2  -3   4 2064.59   37.70
   2  -3   4 2122.09   46.60
   2  -3   4 2056.39   34.60
  -3   3  -4    4.00    2.50
  -3   3  -4    9.80    3.50
  -3   3  -4    5.00    2.60
   3  -3   4    2.40    2.80
   3  -3   4    8.60    1.40
  -4   3  -4   67.59    7.10
  -4   3  -4   70.99    8.40
  -4   3  -4   86.49    9.40
   4  -3   4   86.19    3.30
   4  -3   4   88.69    4.90
   4  -3   4   60.99    8.20
  -5   3  -4 1472.05   37.50
  -5   3  -4 1412.66   32.60
  -5   3  -4 1421.96   37.70
   5  -3   4 1439.16   36.00
   5  -3   4 1443.46   25.00
   5  -3   4 1392.96   37.90
  -6   3  -4    2.70    2.80
  -6   3  -4    5.50    2.70
  -6   3  -4    9.70    4.50
   6  -3   4    8.20    3.80
   6  -3   4    4.50    2.60
  -7   3  -4  238.98   14.70
  -7   3  -4  272.27   16.70
  -7   3  -4  280.07   12.10
   7  -3   4  265.77   14.90
   7  -3   4  239.68   17.60
   7  -3   4  254.57   15.30
  -8   3  -4  902.61   33.80
  -8   3  -4  961.40   32.10
   8  -3   4 1008.00   39.20
   8  -3   4  952.90   31.20
   8  -3   4  887.61   30.60
  -9   3  -4  174.68   17.90
  -9   3  -4  174.18   13.90
   9  -3   4  168.88   13.40
   9  -3   4  186.18   21.80
   9  -3   4  186.78   15.20
 -10   3  -4  478.55   24.20
 -10   3  -4  550.54   28.60
  10  -3   4  512.65   31.20
  10  -3   4  527.35   24.90
  10   2  -4  344.57   23.40
  10   2  -4  349.87   25.10
 -10  -2   4  310.77   21.40
 -10  -2   4  342.77   22.40
   9   2  -4  324.37   21.40
   9   2  -4  319.07   22.80
  -9  -2   4  311.67   20.00
  -9  -2   4  275.87   19.50
   8   2  -4  138.99   15.80
   8   2  -4  112.39   15.60
  -8  -2   4   80.39   11.90
  -8  -2   4  128.09   15.00
   7   2  -4  639.74   28.70
   7   2  -4  634.94   26.60
   7   2  -4  613.94   22.20
  -7  -2   4  620.24   25.50
  -7  -2   4  624.74   17.90
  -7  -2   4  635.84   27.00
   6   2  -4  389.56   19.50
   6   2  -4  407.66   21.50
   6   2  -4  421.36   17.20
  -6  -2   4  425.96   13.80
  -6  -2   4  409.76   19.00
  -6  -2   4  410.86   20.30
  -6  -2   4  424.66   12.60
   5   2  -4  661.43   24.10
   5   2  -4  670.53   26.30
   5   2  -4  639.64   21.30
  -5  -2   4  672.63   23.30
  -5  -2   4  658.63   14.80
  -5  -2   4  665.13   18.70
  -5  -2   4  656.43   24.30
   4   2  -4 2708.83   54.79
   4   2  -4 2739.23   60.39
   4   2  -4 2765.72   57.29
  -4  -2   4 2759.02   57.79
  -4  -2   4 2672.63   55.29
  -4  -2   4 2799.12   51.69
  -4  -2   4 2760.22   42.90
   3   2  -4  197.38   10.50
   3   2  -4  181.08   11.10
   3   2  -4  186.18   11.60
  -3  -2   4  160.38   10.20
  -3  -2   4  190.78   10.00
  -3  -2   4  205.38    9.80
   2   2  -4 4096.49   77.09
   2   2  -4 4178.78   74.69
   2   2  -4 4247.67   66.49
   2   2  -4 4302.17   76.29
  -2  -2   4 4212.98   74.09
  -2  -2   4 4250.87   72.49
  -2  -2   4 4252.17   75.09
   1   2  -4  251.27   11.80
   1   2  -4  218.28   10.50
   1   2  -4  242.88   11.50
  -1  -2   4  251.97   11.30
  -1  -2   4  256.37   10.70
  -1  -2   4  245.38    9.50
   0   2  -4  864.21   22.70
   0   2  -4  896.31   17.20
   0  -2   4  878.21   20.70
   0  -2   4  888.91   23.90
   0  -2   4  888.61   23.10
  -1   2  -4  130.99    6.10
  -1   2  -4  135.49    5.90
  -1   2  -4  123.69    7.90
  -1   2  -4  143.39    7.90
   1  -2   4  134.79    8.40
   1  -2   4  141.89    6.30
   1  -2   4  130.39    4.10
   1  -2   4  137.19    7.40
  -2   2  -4 1152.38   26.30
  -2   2  -4 1109.99   25.30
  -2   2  -4 1138.99   27.90
   2  -2   4 1157.38   22.10
   2  -2   4 1123.29   28.90
   2  -2   4 1162.88   22.70
  -3   2  -4 2246.48   44.60
  -3   2  -4 2249.38   46.00
  -3   2  -4 2240.48   42.90
   3  -2   4 2200.78   46.90
   3  -2   4 2202.88   37.40
  -4   2  -4   87.09    8.90
  -4   2  -4   92.49    9.10
  -4   2  -4   78.79    5.80
   4  -2   4   94.89    9.70
   4  -2   4   74.39    4.10
   4  -2   4   81.79    4.20
  -5   2  -4  288.27   14.40
  -5   2  -4  300.37   11.20
  -5   2  -4  289.87   14.10
   5  -2   4  299.37    7.80
   5  -2   4  297.87   12.50
   5  -2   4  292.07   14.10
   5  -2   4  310.37   11.20
  -6   2  -4  419.06   18.00
  -6   2  -4  442.56   19.30
  -6   2  -4  410.56   13.40
   6  -2   4  387.26   17.10
   6  -2   4  413.86   15.90
  -7   2  -4  619.84   23.30
  -7   2  -4  664.73   25.60
  -7   2  -4  632.64   17.30
   7  -2   4  663.23   28.20
   7  -2   4  625.44   22.60
   7  -2   4  602.94   21.30
  -8   2  -4  945.11   33.50
  -8   2  -4  873.71   30.20
   8  -2   4  968.50   29.40
   8  -2   4  991.30   37.30
   8  -2   4  948.91   29.40
  -9   2  -4   81.99   12.00
  -9   2  -4   84.39   11.30
   9  -2   4   88.89   11.00
   9  -2   4   68.69   12.60
 -10   2  -4  449.16   24.70
  10  -2   4  417.66   21.20
  10  -2   4  499.75   29.20
 -11   2  -4    7.70    6.70
  11  -2   4   16.60    7.50
  11  -2   4    9.70    5.10
  10   1  -4   90.89   14.70
  10   1  -4  127.39   18.70
 -10  -1   4  107.59   15.50
 -10  -1   4   91.49   14.10
   9   1  -4   82.59   13.80
   9   1  -4   77.19   12.20
  -9  -1   4   56.39   10.10
  -9  -1   4  117.79   15.80
   8   1  -4  216.98   17.70
   8   1  -4  259.47   18.10
  -8  -1   4  275.47   13.30
  -8  -1   4  232.58   16.20
  -8  -1   4  295.77   18.80
   7   1  -4  318.77   19.90
   7   1  -4  304.77   18.20
  -7  -1   4  280.47   16.60
  -7  -1   4  300.47   12.80
  -7  -1   4  290.57   17.90
   6   1  -4  829.52   28.40
   6   1  -4  803.82   25.50
   6   1  -4  769.42   24.30
   6   1  -4  745.03   29.60
  -6  -1   4  783.12   28.20
  -6  -1   4  795.52   20.60
  -6  -1   4  763.22   26.50
   5   1  -4    0.80    3.10
   5   1  -4    1.90    3.20
   5   1  -4    1.50    2.60
   5   1  -4    0.40    2.10
  -5  -1   4   -0.80    1.20
  -5  -1   4    1.50    2.30
  -5  -1   4    2.80    3.20
   4   1  -4 2349.36   49.00
   4   1  -4 2221.88   52.19
   4   1  -4 2235.88   47.00
   4   1  -4 2385.16   49.99
  -4  -1   4 2337.67   39.40
  -4  -1   4 2355.06   48.30
  -4  -1   4 2258.97   50.39
   3   1  -4   13.80    3.70
   3   1  -4   17.20    4.30
   3   1  -4   20.10    4.50
   3   1  -4   28.20    5.00
  -3  -1   4   19.50    3.80
  -3  -1   4   18.90    1.90
  -3  -1   4   15.70    4.00
   2   1  -4 4273.57   73.39
   2   1  -4 4222.08   74.89
   2   1  -4 4176.48   67.49
   2   1  -4 3969.70   75.09
   2   1  -4 4193.18   73.19
  -2  -1   4 4163.98   73.99
  -2  -1   4 4165.58   70.29
   1   1  -4 3304.17   60.19
   1   1  -4 3312.27   59.29
   1   1  -4 3271.37   59.09
   1   1  -4 3276.47   60.69
   1   1  -4 3257.77   51.79
  -1  -1   4 3259.57   60.19
  -1  -1   4 3344.87   58.99
  -1  -1   4 3291.77   55.19
   0   1  -4 1544.05   25.60
   0   1  -4 1510.55   31.70
   0   1  -4 1563.64   32.80
   0   1  -4 1531.25   33.40
   0   1  -4 1444.76   30.80
   0  -1   4 1522.95   30.50
   0  -1   4 1486.15   31.30
   0  -1   4 1515.25   25.70
   0  -1   4 1531.45   27.20
   0  -1   4 1469.05   23.60
  -1   1  -4 1458.55   30.00
  -1   1  -4 1435.66   26.70
  -1   1  -4 1439.76   27.80
  -1   1  -4 1420.56   30.20
   1  -1   4 1416.46   28.60
   1  -1   4 1414.46   26.80
   1  -1   4 1472.15   28.10
   1  -1   4 1432.06   31.80
   1  -1   4 1425.86   23.80
  -2   1  -4  102.89    6.70
  -2   1  -4   97.29    5.70
  -2   1  -4  102.49    6.00
   2  -1   4  104.69    5.10
   2  -1   4  100.89    6.90
   2  -1   4  106.49    5.20
  -3   1  -4 4380.66   74.79
  -3   1  -4 4446.85   76.29
  -3   1  -4 4325.87   72.09
   3  -1   4 4359.66   69.89
   3  -1   4 4364.96   76.59
  -4   1  -4  181.88    7.70
  -4   1  -4  199.88   10.30
  -4   1  -4  185.08   10.00
   4  -1   4  188.48    7.60
   4  -1   4  162.38    9.40
   4  -1   4  169.58    7.10
  -5   1  -4  163.28   10.20
  -5   1  -4  162.98    9.90
  -5   1  -4  173.88    7.30
   5  -1   4  159.78    5.90
   5  -1   4  148.69    9.30
   5  -1   4  178.98    8.00
  -6   1  -4  440.36   12.30
  -6   1  -4  448.06   18.00
  -6   1  -4  415.36   18.10
   6  -1   4  440.96   12.20
   6  -1   4  452.85   20.50
   6  -1   4  454.05   15.10
   6  -1   4  447.46   16.70
  -7   1  -4   94.39    5.10
  -7   1  -4   97.79   10.40
  -7   1  -4  100.79   11.80
   7  -1   4  105.19    7.60
   7  -1   4   80.19   11.20
   7  -1   4  100.49    8.30
  -8   1  -4  599.44   25.10
  -8   1  -4  596.14   23.30
   8  -1   4  598.64   20.60
   8  -1   4  598.44   21.10
   8  -1   4  585.34   27.10
  -9   1  -4  282.77   16.60
  -9   1  -4  284.87   18.00
   9  -1   4  309.57   20.90
   9  -1   4  275.67   15.10
 -10   1  -4  395.76   22.70
  10  -1   4  389.86   25.50
  10  -1   4  416.76   19.90
 -11   1  -4  526.15   28.10
  11  -1   4  553.64   24.80
  11  -1   4  584.24   33.00
  10   0  -4  229.78   19.40
  10   0  -4  223.88   25.00
 -10   0   4  183.58   19.70
 -10   0   4  243.08   18.50
   9   0  -4  116.79   16.20
   9   0  -4  113.79   15.00
  -9   0   4   99.49   14.10
  -9   0   4  106.59   11.40
  -9   0   4   93.59   13.60
   8   0  -4   49.10    7.90
   8   0  -4   45.80    9.60
   8   0  -4   50.79   10.60
  -8   0   4   46.80    9.20
  -8   0   4   45.70    7.10
  -8   0   4   44.00    9.10
   7   0  -4   18.20    6.10
   7   0  -4   16.50    4.60
   7   0  -4    4.70    4.30
  -7   0   4   20.50    4.80
  -7   0   4    6.70    4.20
  -7   0   4    8.90    4.30
   6   0  -4 2764.72   64.49
   6   0  -4 2648.44   55.69
   6   0  -4 2660.03   59.89
  -6   0   4 2714.93   60.79
  -6   0   4 2662.33   52.09
  -6   0   4 2560.84   58.19
   5   0  -4  295.77   13.90
   5   0  -4  301.27   16.90
   5   0  -4  306.87   15.50
  -5   0   4  294.27   15.50
  -5   0   4  305.77   14.80
  -5   0   4  289.07   11.40
   4   0  -4  660.13   21.40
   4   0  -4  546.95   22.10
   4   0  -4  650.73   20.90
   4   0  -4  620.74   19.60
  -4   0   4  671.83   22.60
  -4   0   4  649.43   16.50
  -4   0   4  643.14   20.40
   3   0  -4 2106.49   42.30
   3   0  -4 2034.30   41.60
   3   0  -4 1725.83   43.60
   3   0  -4 2086.59   43.10
  -3   0   4 2084.99   41.10
  -3   0   4 2002.00   40.60
  -3   0   4 2120.49   44.50
   2   0  -4 2102.39   43.30
   2   0  -4 2031.40   39.90
   2   0  -4 1975.50   41.60
   2   0  -4 1960.90   40.40
  -2   0   4 2067.79   42.00
  -2   0   4 2043.40   38.30
  -2   0   4 1985.40   38.20
   1   0  -4 2817.22   50.09
   1   0  -4 2791.52   47.40
   1   0  -4 2940.41   51.99
   1   0  -4 2958.40   52.79
   1   0  -4 2755.62   52.59
  -1   0   4 2764.32   47.30
  -1   0   4 2805.52   51.89
  -1   0   4 2792.32   47.50
  -1   0   4 2760.62   52.19
   0   0  -4   81.69    5.50
   0   0  -4   83.39    4.80
   0   0  -4   69.49    3.60
   0   0  -4   69.59    5.20
   0   0  -4   73.59    5.00
   0   0  -4   76.49    5.80
   0   0   4   73.59    3.30
   0   0   4   81.89    4.20
   0   0   4   66.99    5.60
   0   0   4   79.19    5.20
   0   0   4   77.49    3.60
  -1   0  -4 6527.75  101.89
  -1   0  -4 6504.85  101.09
  -1   0  -4 6322.17  103.09
  -1   0  -4 6416.06   98.59
   1   0   4 6338.47   98.59
   1   0   4 6326.77  104.79
  -2   0  -4    3.40    1.60
  -2   0  -4    3.80    1.80
  -2   0  -4    3.80    1.60
  -2   0  -4    6.90    2.20
   2   0   4    5.00    0.90
   2   0   4    4.30    1.10
   2   0   4    4.10    1.50
  -3   0  -4 1651.03   30.90
  -3   0  -4 1693.23   34.10
  -3   0  -4 1681.33   34.60
  -3   0  -4 1670.83   31.00
   3   0   4 1669.23   34.10
   3   0   4 1716.53   35.20
   3   0   4 1658.73   29.60
  -4   0  -4 3587.44   64.19
  -4   0  -4 3564.84   57.39
  -4   0  -4 3521.15   57.89
  -4   0  -4 3532.75   63.89
   4   0   4 3479.75   55.39
   4   0   4 3508.15   62.99
   4   0   4 3512.75   58.29
  -5   0  -4 1011.40   19.90
  -5   0  -4 1017.80   21.00
  -5   0  -4 1015.90   24.10
  -5   0  -4 1039.20   27.20
  -5   0  -4 1038.80   27.70
   5   0   4 1081.09   29.70
   5   0   4 1062.39   25.60
   5   0   4 1013.60   20.20
   5   0   4 1037.60   21.20
  -6   0  -4  350.96    8.70
  -6   0  -4  358.66   14.00
  -6   0  -4  362.86   16.20
  -6   0  -4  367.76   15.70
  -6   0  -4  344.17   10.10
   6   0   4  354.86   11.90
   6   0   4  344.37   13.40
   6   0   4  345.77   16.90
  -7   0  -4  790.12   17.50
  -7   0  -4  781.22   26.70
  -7   0  -4  784.12   24.20
  -7   0  -4  840.02   26.30
   7   0   4  815.52   22.50
   7   0   4  790.22   28.80
   7   0   4  795.02   21.80
  -8   0  -4  363.36   18.60
  -8   0  -4  377.46   17.20
  -8   0  -4  403.66   18.50
   8   0   4  373.06   14.30
   8   0   4  344.77   20.00
   8   0   4  377.26   15.40
  -9   0  -4   58.69    9.70
   9   0   4   64.09   11.90
   9   0   4   61.69    8.30
 -10   0  -4    5.80    4.70
  10   0   4   -2.30    2.20
  10   0   4    3.00    4.80
 -11   0  -4 1216.18   43.10
  11   0   4 1283.17   48.60
  11   0   4 1200.88   37.70
  10  -1  -4   61.99   13.40
  10  -1  -4   50.59   12.00
 -10   1   4   47.90   10.30
   9  -1  -4   -1.40    4.50
   9  -1  -4   -1.00    4.20
  -9   1   4    1.40    2.90
  -9   1   4    4.60    4.30
  -9   1   4    0.90    3.80
   8  -1  -4  397.86   24.10
   8  -1  -4  424.96   23.00
   8  -1  -4  410.26   20.50
  -8   1   4  411.86   22.10
  -8   1   4  422.76   21.90
  -8   1   4  415.06   18.90
   7  -1  -4   10.40    5.00
   7  -1  -4   23.40    5.40
   7  -1  -4   11.40    5.10
  -7   1   4    2.60    3.30
  -7   1   4   10.60    3.90
  -7   1   4   12.50    5.40
   6  -1  -4  440.36   22.00
   6  -1  -4  428.86   17.70
   6  -1  -4  418.26   19.90
  -6   1   4  424.06   19.90
  -6   1   4  427.96   17.00
  -6   1   4  456.95   19.90
   5  -1  -4 1467.25   38.40
   5  -1  -4 1553.04   42.40
   5  -1  -4 1468.25   36.10
  -5   1   4 1491.35   37.60
  -5   1   4 1492.55   34.00
  -5   1   4 1468.75   38.90
   4  -1  -4 1221.48   31.70
   4  -1  -4 1247.08   31.20
   4  -1  -4 1242.78   35.10
  -4   1   4 1271.77   31.60
  -4   1   4 1229.88   32.90
  -4   1   4 1206.58   32.10
   3  -1  -4 2315.97   45.60
   3  -1  -4 2316.67   50.09
   3  -1  -4 2305.27   47.10
  -3   1   4 2241.78   45.20
  -3   1   4 2303.97   48.00
  -3   1   4 2300.27   46.80
   2  -1  -4   10.50    3.10
   2  -1  -4   13.50    2.90
   2  -1  -4   11.10    3.10
  -2   1   4    7.00    2.30
  -2   1   4    6.70    2.50
  -2   1   4    8.60    3.20
   1  -1  -4 4645.84   75.09
   1  -1  -4 4751.72   78.59
   1  -1  -4 4739.73   79.89
   1  -1  -4 4579.54   79.59
  -1   1   4 4684.63   77.09
  -1   1   4 4666.13   75.69
  -1   1   4 4567.34   79.59
  -1   1   4 4670.43   74.49
   0  -1  -4   34.90    2.70
   0  -1  -4   22.50    3.60
   0  -1  -4   31.30    4.00
   0  -1  -4   29.40    3.50
   0  -1  -4   27.00    3.60
   0  -1  -4   31.30    3.40
   0  -1  -4   30.10    2.20
   0   1   4   32.50    4.30
   0   1   4   34.70    3.50
   0   1   4   23.80    3.30
   0   1   4   26.90    3.50
  -1  -1  -4 2076.19   35.40
  -1  -1  -4 2001.60   37.10
  -1  -1  -4 2063.79   36.00
  -1  -1  -4 2110.99   39.20
  -1  -1  -4 1974.90   35.60
  -1  -1  -4 2091.29   37.80
   1   1   4 1992.60   35.70
   1   1   4 2028.90   36.50
   1   1   4 2024.70   36.00
   1   1   4 2057.29   35.70
   1   1   4 2075.99   36.00
   1   1   4 2027.50   38.00
  -2  -1  -4 8050.89  124.89
  -3  -1  -4 1362.56   29.30
  -3  -1  -4 1371.36   24.70
  -3  -1  -4 1407.76   29.50
  -3  -1  -4 1400.56   26.00
  -3  -1  -4 1404.16   27.40
  -3  -1  -4 1452.25   27.50
   3   1   4 1418.06   27.30
   3   1   4 1393.36   25.90
   3   1   4 1446.56   25.20
  -4  -1  -4  114.89    7.10
  -4  -1  -4  104.89    4.90
  -4  -1  -4  102.59    5.40
  -4  -1  -4   93.79    4.10
  -4  -1  -4  107.19    7.10
  -4  -1  -4  104.79    5.50
   4   1   4  100.69    4.80
   4   1   4  104.39    4.20
   4   1   4  101.49    3.20
   4   1   4  101.59    7.00
  -5  -1  -4    0.60    1.10
  -5  -1  -4    3.60    2.40
  -5  -1  -4    3.60    2.00
  -5  -1  -4    1.00    1.90
   5   1   4    3.40    1.80
   5   1   4    2.30    1.10
   5   1   4    6.40    2.60
   5   1   4    3.80    1.10
  -6  -1  -4 4079.89   75.99
  -6  -1  -4 4160.18   73.19
  -6  -1  -4 4113.39   68.19
  -6  -1  -4 4056.59   76.99
   6   1   4 4112.09   68.59
   6   1   4 4227.78   80.09
   6   1   4 4195.88   70.89
  -7  -1  -4   10.00    2.50
  -7  -1  -4    9.60    3.40
  -7  -1  -4    3.50    3.00
   7   1   4    9.70    3.90
   7   1   4    7.40    2.50
   7   1   4    7.90    2.50
  -8  -1  -4  170.68   11.60
  -8  -1  -4  191.08    8.20
  -8  -1  -4  175.38   12.80
   8   1   4  188.48    8.80
   8   1   4  172.78   13.80
   8   1   4  169.68    9.90
  -9  -1  -4 1258.57   36.00
  -9  -1  -4 1203.48   37.50
   9   1   4 1161.18   40.40
   9   1   4 1210.98   32.50
 -10  -1  -4   42.20    8.50
 -10  -1  -4   38.80    8.10
  10   1   4   26.40    6.10
  10   1   4   28.90    8.40
 -11  -1  -4  104.39   14.20
 -11  -1  -4  149.49   16.40
  11   1   4  109.29   12.50
  11   1   4  129.89   17.70
 -12  -1  -4  782.32   34.40
  12   1   4  759.62   30.10
  12   1   4  746.63   37.80
  10  -2  -4  342.07   25.50
  10  -2  -4  355.26   24.60
 -10   2   4  353.66   22.30
 -10   2   4  347.47   20.60
   9  -2  -4   65.19   13.00
   9  -2  -4   62.29   12.10
  -9   2   4   65.79   10.60
  -9   2   4   65.29   11.00
   8  -2  -4  373.26   23.40
   8  -2  -4  349.07   21.20
  -8   2   4  342.07   19.90
  -8   2   4  373.36   18.90
   7  -2  -4  866.41   34.80
   7  -2  -4  885.91   32.10
   7  -2  -4  857.01   27.30
  -7   2   4  862.41   30.70
  -7   2   4  862.91   28.70
   6  -2  -4  780.42   30.90
   6  -2  -4  848.52   26.30
   6  -2  -4  819.32   28.80
  -6   2   4  830.22   28.50
  -6   2   4  799.32   25.90
   5  -2  -4   96.99   11.50
   5  -2  -4  103.69    8.50
   5  -2  -4   83.89    9.60
  -5   2   4  112.69   11.50
  -5   2   4   91.99   10.70
  -5   2   4  101.59   10.50
   4  -2  -4   88.79    7.60
   4  -2  -4   62.79    7.50
   4  -2  -4   74.79    3.70
   4  -2  -4   86.09   10.50
  -4   2   4   70.59    8.80
  -4   2   4   81.99    9.60
  -4   2   4   91.99    7.60
   3  -2  -4 5341.57   78.79
   3  -2  -4 5410.76   92.29
   3  -2  -4 5176.48   95.39
   3  -2  -4 5345.56   89.89
  -3   2   4 5143.09   91.99
  -3   2   4 5204.58   92.99
   2  -2  -4  576.14   18.40
   2  -2  -4  535.75   18.90
   2  -2  -4  573.04   16.00
  -2   2   4  574.04   18.50
  -2   2   4  605.84   18.70
   1  -2  -4   22.80    4.20
   1  -2  -4   23.20    1.10
   1  -2  -4   23.20    4.20
   1  -2  -4   13.10    2.30
  -1   2   4   19.90    3.70
  -1   2   4   33.60    4.90
  -1   2   4   21.80    2.90
   0  -2  -4 4824.92   77.89
   0  -2  -4 4695.33   78.69
   0  -2  -4 4674.13   70.09
   0  -2  -4 4489.65   72.39
   0  -2  -4 4611.64   75.29
   0   2   4 4635.84   77.59
   0   2   4 4463.45   77.09
   0   2   4 4646.44   71.09
   0   2   4 4497.05   77.59
  -1  -2  -4 3898.01   60.79
  -1  -2  -4 3941.21   63.09
  -1  -2  -4 3893.91   63.69
  -1  -2  -4 3836.42   65.69
   1   2   4 3824.12   65.09
   1   2   4 3708.73   63.39
   1   2   4 3899.01   65.19
   1   2   4 3639.54   60.29
   1   2   4 3755.42   58.49
  -2  -2  -4    0.00    0.40
  -3  -2  -4   69.09    5.50
  -3  -2  -4   65.29    4.90
  -3  -2  -4   62.59    2.60
  -3  -2  -4   55.49    4.20
  -3  -2  -4   71.99    2.70
  -3  -2  -4   69.39    4.70
  -3  -2  -4   65.39    3.80
   3   2   4   67.49    4.40
   3   2   4   62.19    4.30
   3   2   4   70.79    5.20
  -4  -2  -4 1578.84   30.60
  -4  -2  -4 1555.84   33.60
  -4  -2  -4 1589.94   31.20
  -4  -2  -4 1591.34   24.70
  -4  -2  -4 1611.44   34.50
  -4  -2  -4 1588.54   29.40
   4   2   4 1616.04   33.60
   4   2   4 1577.44   27.40
  -5  -2  -4  180.98    8.10
  -5  -2  -4  183.28    8.70
  -5  -2  -4  188.38    6.10
   5   2   4  180.28    4.20
   5   2   4  198.88   10.50
   5   2   4  178.38    6.70
  -6  -2  -4  728.33   23.30
  -6  -2  -4  760.72   19.30
  -6  -2  -4  766.02   21.60
   6   2   4  797.22   18.90
   6   2   4  763.42   24.70
   6   2   4  784.42   18.90
  -7  -2  -4  361.06   16.60
  -7  -2  -4  370.86   12.70
  -7  -2  -4  357.56   15.20
   7   2   4  361.96   11.40
   7   2   4  361.26   13.20
   7   2   4  347.57   17.50
  -8  -2  -4  262.07   10.80
  -8  -2  -4  262.87   14.10
  -8  -2  -4  242.28   14.50
   8   2   4  232.38   11.60
   8   2   4  265.37    9.10
   8   2   4  258.77   16.10
  -9  -2  -4  137.79    8.40
  -9  -2  -4  152.68   12.70
  -9  -2  -4  144.19   11.50
   9   2   4  126.89   15.00
   9   2   4  148.39   10.20
 -10  -2  -4  479.05   23.40
 -10  -2  -4  482.65   22.60
  10   2   4  542.85   27.30
  10   2   4  534.45   21.40
 -11  -2  -4   53.59   10.00
 -11  -2  -4   70.09   11.40
  11   2   4   51.69    8.60
  11   2   4   56.39   11.80
 -12  -2  -4  284.97   19.70
 -12  -2  -4  242.58   18.60
  12   2   4  278.97   22.60
  12   2   4  278.27   17.60
   9  -3  -4   -1.40    4.90
   9  -3  -4   -3.90    4.60
  -9   3   4    0.60    4.00
  -9   3   4   -0.70    3.60
   8  -3  -4  188.48   17.50
   8  -3  -4  184.68   15.90
  -8   3   4  209.68   15.10
  -8   3   4  167.78   14.10
   7  -3  -4  957.50   30.10
   7  -3  -4  958.70   34.10
   7  -3  -4  979.00   37.80
  -7   3   4  984.80   32.50
  -7   3   4 1005.90   33.00
   6  -3  -4    1.90    3.10
   6  -3  -4    4.80    3.90
   6  -3  -4    5.20    4.30
  -6   3   4    4.10    3.90
  -6   3   4    3.50    3.70
   5  -3  -4  550.84   21.30
   5  -3  -4  495.65   23.20
   5  -3  -4  495.95   19.70
  -5   3   4  506.95   20.60
   4  -3  -4  115.29    8.90
   4  -3  -4  116.29   10.30
   4  -3  -4  125.99    9.30
   4  -3  -4  105.29    8.20
  -4   3   4  128.39    9.90
  -4   3   4  114.59   12.00
   3  -3  -4  987.50   25.80
   3  -3  -4 1020.80   26.90
   3  -3  -4 1044.80   28.30
   3  -3  -4 1050.49   31.30
  -3   3   4 1056.19   30.20
  -3   3   4 1059.69   28.40
   2  -3  -4 1000.00   26.00
   2  -3  -4 1031.50   29.00
   2  -3  -4 1036.70   23.60
   2  -3  -4 1010.20   27.10
  -2   3   4 1052.09   26.90
  -2   3   4 1044.20   28.60
   1  -3  -4  621.94   14.40
   1  -3  -4  639.44   20.20
   1  -3  -4  619.34   18.40
   1  -3  -4  607.64   19.10
   1  -3  -4  615.84   16.30
  -1   3   4  622.84   18.50
  -1   3   4  624.24   14.50
   0  -3  -4 2882.61   43.40
   0  -3  -4 2839.92   49.70
   0  -3  -4 2731.83   52.69
   0  -3  -4 2909.11   53.49
   0   3   4 2837.42   43.50
   0   3   4 2761.32   51.59
   0   3   4 2729.53   53.29
  -1  -3  -4  814.12   19.50
  -1  -3  -4  833.02   21.60
  -1  -3  -4  857.41   20.90
   1   3   4  849.61   20.90
   1   3   4  842.62   22.10
   1   3   4  811.92   16.70
  -2  -3  -4 2467.55   45.70
  -2  -3  -4 2456.25   44.20
  -2  -3  -4 2467.65   43.70
   2   3   4 2396.26   46.30
   2   3   4 2395.86   38.30
  -3  -3  -4  880.61   20.80
  -3  -3  -4  873.81   20.70
   3   3   4  885.51   18.70
   3   3   4  844.62   22.10
  -4  -3  -4 5035.00   82.99
  -4  -3  -4 5064.89   81.59
  -4  -3  -4 5057.19   85.89
  -4  -3  -4 5065.09   83.49
   4   3   4 4908.01   86.19
   4   3   4 5165.08   83.89
  -5  -3  -4  920.41   19.90
  -5  -3  -4  929.41   25.30
  -5  -3  -4  941.31   23.40
  -5  -3  -4  943.21   22.80
   5   3   4  929.21   17.50
   5   3   4  951.40   25.00
  -6  -3  -4   14.90    4.20
  -6  -3  -4   12.70    2.00
  -6  -3  -4   12.00    3.10
  -6  -3  -4   13.30    3.60
   6   3   4   14.80    4.10
   6   3   4   14.60    2.60
  -7  -3  -4 1300.67   33.50
  -7  -3  -4 1321.27   30.30
  -7  -3  -4 1331.37   35.00
   7   3   4 1395.36   37.30
   7   3   4 1321.57   25.80
   7   3   4 1272.97   30.40
   7   3   4 1301.67   25.40
  -8  -3  -4  316.07   13.10
  -8  -3  -4  307.17   15.40
  -8  -3  -4  301.07   16.00
   8   3   4  329.37   17.90
   8   3   4  317.37   14.00
  -9  -3  -4    4.60    3.20
  -9  -3  -4   -1.30    2.60
  -9  -3  -4   -0.80    2.20
   9   3   4    9.40    3.70
   9   3   4    2.00    3.60
 -10  -3  -4 1953.40   42.40
 -10  -3  -4 1974.40   51.49
 -10  -3  -4 1958.00   52.09
  10   3   4 2007.20   56.79
  10   3   4 2001.60   48.30
 -11  -3  -4    3.20    3.80
 -11  -3  -4   -2.80    3.30
  11   3   4    0.20    2.90
  11   3   4   -3.70    3.40
 -12  -3  -4  126.59   15.90
 -12  -3  -4  105.89   14.90
  12   3   4  109.99   13.80
  12   3   4  143.39   19.40
   9  -4  -4  448.96   29.20
   9  -4  -4  504.35   27.80
  -9   4   4  465.55   25.10
  -9   4   4  497.65   26.60
   8  -4  -4  608.74   28.80
   8  -4  -4  608.44   31.90
  -8   4   4  601.44   26.10
  -8   4   4  598.94   27.50
   7  -4  -4  262.17   15.30
   7  -4  -4  205.98   15.80
   7  -4  -4  234.18   18.80
  -7   4   4  245.58   15.40
  -7   4   4  227.48   16.20
   6  -4  -4  233.58   17.40
   6  -4  -4  280.67   15.30
   6  -4  -4  287.17   15.10
   6  -4  -4  245.98   16.00
  -6   4   4  257.77   15.10
  -6   4   4  249.97   17.70
   5  -4  -4 2172.68   50.79
   5  -4  -4 2075.29   49.40
   5  -4  -4 2157.08   48.90
   5  -4  -4 2147.89   56.69
  -5   4   4 2122.19   54.99
  -5   4   4 2136.99   49.20
   4  -4  -4   -0.10    2.20
   4  -4  -4    0.70    2.20
   4  -4  -4    2.90    3.30
   4  -4  -4    2.30    2.90
  -4   4   4    2.30    2.90
  -4   4   4    2.80    3.50
   3  -4  -4  993.70   26.00
   3  -4  -4  950.10   28.20
   3  -4  -4  982.30   31.40
   3  -4  -4  999.50   28.30
  -3   4   4  983.10   30.80
  -3   4   4 1012.60   27.90
   2  -4  -4 4496.15   85.49
   2  -4  -4 4413.76   75.69
   2  -4  -4 4458.95   82.09
   2  -4  -4 4540.25   81.59
   2  -4  -4 4541.35   75.39
  -2   4   4 4529.95   84.89
  -2   4   4 4471.15   79.99
   1  -4  -4   60.99    7.20
   1  -4  -4   40.60    6.20
   1  -4  -4   65.29    8.00
   1  -4  -4   52.89    3.80
   1  -4  -4   63.59    5.90
  -1   4   4   33.80    5.90
  -1   4   4   88.89    6.90
   0  -4  -4  814.02   14.90
   0  -4  -4  830.02   20.00
   0  -4  -4  796.72   23.60
   0  -4  -4  755.72   22.10
   0   4   4  767.02   21.00
   0   4   4  834.92   24.20
  -1  -4  -4 9999.00  153.78
  -1  -4  -4 9444.55  152.08
  -1  -4  -4 9546.15  153.08
   1   4   4 9415.56  154.58
  -2  -4  -4 2258.47   42.70
  -2  -4  -4 2213.18   43.70
   2   4   4 2309.97   46.20
  -3  -4  -4  615.34   17.30
  -3  -4  -4  610.34   13.90
   3   4   4  625.14   14.00
   3   4   4  641.84   19.40
  -4  -4  -4  894.31   22.60
  -4  -4  -4  905.71   22.90
   4   4   4  878.81   24.70
   4   4   4  935.81   21.40
  -5  -4  -4 2769.02   53.49
  -5  -4  -4 2790.32   49.70
  -5  -4  -4 2742.83   52.29
   5   4   4 2772.22   55.79
   5   4   4 2814.32   53.09
  -6  -4  -4  505.95   18.10
  -6  -4  -4  516.65   18.90
  -6  -4  -4  515.25   14.10
  -6  -4  -4  524.15   17.00
   6   4   4  496.25   18.40
  -7  -4  -4    7.90    2.00
  -7  -4  -4    4.20    3.90
  -7  -4  -4    2.00    2.10
  -7  -4  -4    6.20    2.90
   7   4   4    5.50    3.30
  -8  -4  -4  105.69   11.00
  -8  -4  -4  119.29   10.00
  -8  -4  -4  121.29    8.50
   8   4   4   89.69   10.90
  -9  -4  -4   17.70    5.90
  -9  -4  -4   31.70    5.60
  -9  -4  -4   21.40    5.80
   9   4   4   35.00    7.80
 -10  -4  -4  461.35   18.40
 -10  -4  -4  454.45   22.30
 -10  -4  -4  508.95   23.60
  10   4   4  471.15   20.60
  10   4   4  475.55   24.70
 -11  -4  -4  209.88   16.00
 -11  -4  -4  192.18   12.50
 -11  -4  -4  228.38   16.60
  11   4   4  232.48   18.60
  11   4   4  231.18   15.20
 -12  -4  -4  368.46   22.40
 -12  -4  -4  376.06   22.30
  12   4   4  414.06   21.50
  12   4   4  366.36   25.10
   8  -5  -4   91.19   14.20
   8  -5  -4   94.69   15.90
  -8   5   4   98.69   14.90
   7  -5  -4  280.87   16.80
   7  -5  -4  293.47   19.30
   7  -5  -4  295.97   17.40
   7  -5  -4  321.97   22.70
  -7   5   4  310.77   17.30
   6  -5  -4    1.60    3.20
   6  -5  -4    1.80    3.70
   6  -5  -4    3.50    4.50
   6  -5  -4   -1.10    3.00
  -6   5   4   -3.10    3.20
  -6   5   4    3.60    3.70
   5  -5  -4  183.48   13.00
   5  -5  -4  186.18   12.90
   5  -5  -4  205.88   13.60
   5  -5  -4  209.08   16.20
  -5   5   4  135.79   15.30
  -5   5   4  197.08   12.60
   4  -5  -4  903.11   27.50
   4  -5  -4  906.01   33.20
   4  -5  -4  911.91   29.30
   4  -5  -4  862.51   28.60
  -4   5   4  912.51   32.40
  -4   5   4  919.81   27.30
   3  -5  -4   78.49    7.00
   3  -5  -4   87.39   10.10
   3  -5  -4   62.59    9.40
   3  -5  -4   82.59    9.70
  -3   5   4   82.59    9.30
  -3   5   4   82.99   10.90
   2  -5  -4   70.49    5.60
   2  -5  -4   42.70    6.60
   2  -5  -4   55.19    7.50
   2  -5  -4   62.09    6.40
   2  -5  -4   55.19    8.50
  -2   5   4   57.89    9.30
  -2   5   4   65.89    7.70
  -2   5   4   66.19    2.60
   1  -5  -4 1412.36   35.40
   1  -5  -4 1341.17   35.10
   1  -5  -4 1435.06   28.40
   1  -5  -4 1368.36   37.30
   1  -5  -4 1413.06   29.90
  -1   5   4 1428.46   37.30
  -1   5   4 1399.06   32.80
   0  -5  -4 1557.84   28.00
   0  -5  -4 1567.64   32.80
   0  -5  -4 1575.64   39.30
   0  -5  -4 1577.44   37.40
   0   5   4 1554.14   39.00
   0   5   4 1647.44   35.00
  -1  -5  -4 1332.57   32.30
  -1  -5  -4 1306.67   21.80
  -1  -5  -4 1308.67   28.90
   1   5   4 1332.97   30.20
   1   5   4 1296.37   33.60
  -2  -5  -4  429.66   14.40
  -2  -5  -4  419.66    9.30
  -2  -5  -4  426.46   15.70
  -3  -5  -4 6207.98  104.09
  -3  -5  -4 6479.55  104.09
  -3  -5  -4 6219.58   97.09
   3   5   4 6163.08  107.29
  -4  -5  -4   10.40    3.00
   4   5   4    8.70    2.40
   4   5   4   11.70    3.90
  -5  -5  -4  959.20   25.30
  -5  -5  -4  967.30   26.50
   5   5   4  950.40   27.70
   5   5   4  912.61   23.70
  -6  -5  -4  549.35   20.30
  -6  -5  -4  618.64   19.80
   6   5   4  606.04   20.20
   6   5   4  582.34   21.70
  -7  -5  -4  896.01   27.80
  -7  -5  -4  920.71   25.80
   7   5   4  859.71   27.30
   7   5   4  844.82   18.10
   7   5   4  857.51   28.70
  -8  -5  -4  801.82   27.20
  -8  -5  -4  794.62   24.60
  -8  -5  -4  760.42   20.40
   8   5   4  791.32   28.00
  -9  -5  -4  246.88   13.60
  -9  -5  -4  279.57   16.70
  -9  -5  -4  244.48   15.10
   9   5   4  254.97   16.60
 -10  -5  -4   48.60    9.30
 -10  -5  -4   46.40    9.00
 -10  -5  -4   60.49    8.40
  10   5   4   56.99   10.50
 -11  -5  -4  219.78   16.70
 -11  -5  -4  229.28   16.60
 -11  -5  -4  235.38   14.20
  11   5   4  205.88   17.50
 -12  -5  -4   52.89   10.40
 -12  -5  -4   53.69   10.70
  12   5   4   49.30   11.50
   8  -6  -4  211.68   24.40
   8  -6  -4  177.28   19.00
  -8   6   4  214.08   22.10
   7  -6  -4  178.38   18.50
   7  -6  -4  184.58   21.80
   7  -6  -4  175.78   18.50
   7  -6  -4  176.58   14.30
  -7   6   4  157.48   19.40
   6  -6  -4  164.38   19.70
   6  -6  -4  191.88   14.80
   6  -6  -4  211.28   15.10
   6  -6  -4  186.78   14.80
  -6   6   4  187.78   12.90
  -6   6   4  194.08   20.90
   5  -6  -4   59.89    9.20
   5  -6  -4   40.50    7.50
   5  -6  -4   61.39   11.50
   5  -6  -4   44.60    8.50
  -5   6   4   30.70    8.10
  -5   6   4   53.19    8.00
   4  -6  -4  604.14   24.70
   4  -6  -4  599.34   28.00
   4  -6  -4  609.34   24.70
   4  -6  -4  607.34   22.60
  -4   6   4  614.14   27.30
  -4   6   4  576.74   21.00
   3  -6  -4  571.64   23.30
   3  -6  -4  578.24   16.90
   3  -6  -4  600.14   20.30
   3  -6  -4  565.94   25.80
   3  -6  -4  521.05   22.10
  -3   6   4  580.64   25.60
  -3   6   4  550.94   19.90
   2  -6  -4   32.70    7.20
   2  -6  -4   26.10    4.50
   2  -6  -4   39.20    7.40
   2  -6  -4   37.30    4.90
   2  -6  -4   26.30    5.90
  -2   6   4   34.30    7.90
  -2   6   4   34.20    3.30
  -2   6   4   31.10    5.90
   1  -6  -4 1720.63   34.50
   1  -6  -4 1671.23   42.60
   1  -6  -4 1812.32   46.50
   1  -6  -4 1710.43   35.70
  -1   6   4 1682.83   38.30
  -1   6   4 1725.83   44.60
   0  -6  -4  262.07    9.10
   0  -6  -4  235.08   14.30
   0  -6  -4  237.98   13.50
   0  -6  -4  270.07    9.00
   0  -6  -4  243.58   10.80
   0   6   4  263.77   12.00
   0   6   4  256.17   15.10
  -1  -6  -4 1505.65   33.70
  -1  -6  -4 1545.85   27.80
   1   6   4 1610.54   40.50
   1   6   4 1534.45   34.80
  -2  -6  -4  218.58   10.50
  -2  -6  -4  206.58    7.10
   2   6   4  180.38   12.00
  -3  -6  -4 2025.80   42.80
  -3  -6  -4 2085.29   44.30
  -3  -6  -4 2006.80   36.80
   3   6   4 2018.90   36.80
   3   6   4 2025.30   46.60
  -4  -6  -4 2562.94   51.29
  -4  -6  -4 2511.95   50.49
   4   6   4 2573.84   46.40
   4   6   4 2519.05   54.49
  -5  -6  -4  102.69    8.00
   5   6   4  106.19   11.40
   5   6   4  102.99    7.40
  -6  -6  -4  102.89   10.10
  -6  -6  -4   88.19    9.80
   6   6   4  114.59   11.70
   6   6   4  107.99    8.40
  -7  -6  -4    2.30    3.10
  -7  -6  -4    3.10    2.90
   7   6   4    5.40    3.50
   7   6   4    3.00    3.30
  -8  -6  -4 1391.56   39.80
  -8  -6  -4 1327.97   36.00
   8   6   4 1362.56   38.50
   8   6   4 1444.46   41.20
  -9  -6  -4  330.27   16.50
  -9  -6  -4  339.17   19.00
   9   6   4  339.07   19.60
   9   6   4  376.06   19.70
 -10  -6  -4    1.00    3.40
 -10  -6  -4   -1.20    3.20
  10   6   4   -3.70    3.20
 -11  -6  -4  249.78   18.30
 -11  -6  -4  247.88   15.30
  11   6   4  236.38   18.40
 -12  -6  -4   40.00    8.00
 -12  -6  -4   20.80    7.70
  12   6   4   51.09   11.40
   7  -7  -4   80.09   12.40
   7  -7  -4   83.19   13.20
   7  -7  -4  103.39   16.80
  -7   7   4   84.19   14.90
   6  -7  -4  469.35   28.90
   6  -7  -4  492.15   24.10
   6  -7  -4  482.25   24.60
   6  -7  -4  457.25   23.80
  -6   7   4  490.65   28.20
   5  -7  -4   16.70    5.70
   5  -7  -4    6.30    4.40
   5  -7  -4    9.70    5.50
   5  -7  -4   29.20    7.10
  -5   7   4   21.40    7.40
   4  -7  -4   51.59    9.50
   4  -7  -4   57.09    8.90
   4  -7  -4   51.79    9.10
   4  -7  -4   50.29   10.00
  -4   7   4   60.29    8.30
  -4   7   4   46.00    9.40
   3  -7  -4  117.09    7.60
   3  -7  -4  117.59    9.20
   3  -7  -4  103.19   12.20
   3  -7  -4  131.59   14.30
   3  -7  -4  117.19   14.80
  -3   7   4  136.59   15.30
  -3   7   4  117.79    9.20
   2  -7  -4  231.48   15.10
   2  -7  -4  226.18   11.40
   2  -7  -4  203.28   10.00
   2  -7  -4  219.48   16.30
  -2   7   4  213.38    8.20
  -2   7   4  219.28   15.70
  -2   7   4  209.88   11.80
   1  -7  -4  882.11   22.80
   1  -7  -4  881.11   30.20
   1  -7  -4  870.71   23.30
   1  -7  -4  927.81   33.10
  -1   7   4  881.81   31.60
  -1   7   4  851.91   25.00
   0  -7  -4 1337.57   39.60
   0  -7  -4 1293.37   30.60
   0  -7  -4 1241.98   36.50
   0   7   4 1337.77   32.20
   0   7   4 1297.67   38.30
  -1  -7  -4  736.83   25.90
  -1  -7  -4  747.13   19.00
  -1  -7  -4  787.52   22.40
   1   7   4  785.22   27.80
   1   7   4  772.02   22.70
  -2  -7  -4 1025.20   30.50
  -2  -7  -4 1003.20   22.00
  -2  -7  -4 1059.19   27.70
   2   7   4 1041.10   27.50
   2   7   4 1063.29   32.50
  -3  -7  -4  189.68   10.80
  -3  -7  -4  202.58   12.20
   3   7   4  210.58   13.70
  -4  -7  -4 2906.41   58.29
  -4  -7  -4 2899.71   58.59
   4   7   4 2904.21   62.39
   4   7   4 2871.11   52.99
  -5  -7  -4   20.20    4.50
  -5  -7  -4   12.90    4.30
   5   7   4   17.70    5.20
   5   7   4   14.50    4.20
  -6  -7  -4 1032.90   32.60
  -6  -7  -4 1146.29   31.70
   6   7   4 1073.99   33.60
   6   7   4 1060.69   28.60
  -7  -7  -4  188.08   13.60
  -7  -7  -4  193.68   12.40
   7   7   4  174.28   11.80
   7   7   4  206.18   14.40
  -8  -7  -4  279.77   15.40
  -8  -7  -4  274.77   17.00
   8   7   4  258.07   15.40
   8   7   4  299.67   17.70
  -9  -7  -4  359.06   18.30
  -9  -7  -4  394.66   21.20
   9   7   4  354.66   20.30
   9   7   4  348.97   19.10
 -10  -7  -4    8.30    5.10
 -10  -7  -4    6.80    4.80
  10   7   4    7.40    4.70
  10   7   4   11.10    5.60
 -11  -7  -4  333.77   18.90
 -11  -7  -4  358.76   22.70
  11   7   4  375.76   22.70
  11   7   4  413.66   24.30
 -12  -7  -4  165.38   16.30
 -12  -7  -4  151.88   18.60
  12   7   4  188.28   20.40
  12   7   4  167.38   20.10
   6  -8  -4  441.36   24.20
   6  -8  -4  389.76   23.50
   6  -8  -4  375.66   27.40
  -6   8   4  398.56   26.90
   5  -8  -4  627.64   28.70
   5  -8  -4  652.83   30.00
   5  -8  -4  657.73   34.20
  -5   8   4  672.93   33.20
   4  -8  -4    1.40    4.70
   4  -8  -4   -3.70    3.60
   4  -8  -4    2.90    4.00
   4  -8  -4    4.20    3.90
  -4   8   4   -1.20    4.00
   3  -8  -4   39.80    9.00
   3  -8  -4   32.00    6.20
   3  -8  -4   45.70   10.10
   3  -8  -4   41.30    8.80
  -3   8   4   32.80    8.40
   2  -8  -4  102.79    7.60
   2  -8  -4  102.49   12.90
   2  -8  -4   97.59   13.70
   2  -8  -4  106.59    8.70
  -2   8   4   86.79   12.50
  -2   8   4  118.19    9.20
   1  -8  -4  415.96   15.60
   1  -8  -4  429.76   15.90
   1  -8  -4  457.15   24.30
   1  -8  -4  404.76   21.20
  -1   8   4  446.86   17.10
  -1   8   4  386.76   21.70
   0  -8  -4  449.16   21.70
   0  -8  -4  441.26   22.80
   0  -8  -4  443.66   16.60
   0   8   4  453.15   17.20
   0   8   4  447.76   22.20
  -1  -8  -4   45.00    6.70
  -1  -8  -4   46.30    8.60
   1   8   4   52.79    7.50
   1   8   4   52.49    9.50
  -2  -8  -4 1991.20   44.50
  -2  -8  -4 1937.41   48.90
   2   8   4 1995.90   50.99
   2   8   4 1998.70   44.20
  -3  -8  -4    3.50    3.50
  -3  -8  -4    1.80    2.30
   3   8   4    3.70    4.70
  -4  -8  -4  404.16   17.60
  -4  -8  -4  432.96   18.80
   4   8   4  389.26   20.00
  -5  -8  -4  667.93   22.90
  -5  -8  -4  628.24   23.00
   5   8   4  640.44   20.50
   5   8   4  645.44   25.70
  -6  -8  -4 1246.48   38.00
  -6  -8  -4 1259.27   35.60
  -6  -8  -4 1280.47   32.70
   6   8   4 1245.28   38.10
   6   8   4 1215.58   32.30
  -7  -8  -4  803.92   30.20
  -7  -8  -4  765.32   27.20
   7   8   4  740.93   29.00
   7   8   4  761.32   25.40
  -8  -8  -4   47.50    9.40
  -8  -8  -4   49.10    8.60
   8   8   4   51.09    8.90
   8   8   4   39.90    8.50
  -9  -8  -4  225.28   16.80
  -9  -8  -4  242.78   15.80
   9   8   4  227.98   15.90
   9   8   4  230.88   17.00
 -10  -8  -4   20.60    6.80
 -10  -8  -4   20.50    7.30
  10   8   4   11.10    6.40
  10   8   4    9.20    5.10
 -11  -8  -4  271.87   17.80
 -11  -8  -4  251.57   19.80
  11   8   4  240.78   19.60
  11   8   4  258.47   19.30
   5  -9  -4   97.19   14.60
   5  -9  -4  107.99   17.80
   5  -9  -4   76.89   12.80
  -5   9   4  110.79   16.60
   4  -9  -4   -1.60    4.50
   4  -9  -4   -2.10    4.50
   4  -9  -4    2.70    3.80
  -4   9   4    0.40    4.80
   3  -9  -4  455.75   24.70
   3  -9  -4  482.25   25.80
   3  -9  -4  460.25   27.70
  -3   9   4  450.95   26.00
   2  -9  -4  304.87   20.00
   2  -9  -4  264.87   20.40
  -2   9   4  328.37   21.20
   1  -9  -4    0.70    2.60
   1  -9  -4   -2.30    2.80
   1  -9  -4    0.20    3.90
  -1   9   4   -0.50    4.10
  -1   9   4    0.80    2.70
   0  -9  -4  389.76   16.20
   0  -9  -4  429.36   24.00
   0  -9  -4  410.56   21.90
   0   9   4  453.75   23.50
   0   9   4  414.96   17.00
  -1  -9  -4    1.20    3.80
  -1  -9  -4    0.00    2.40
   1   9   4    4.90    5.00
   1   9   4    0.50    2.80
  -2  -9  -4  921.61   28.30
  -2  -9  -4  950.30   33.20
   2   9   4  990.10   34.40
   2   9   4  964.50   28.00
  -3  -9  -4 1254.27   38.00
  -3  -9  -4 1222.48   34.40
   3   9   4 1260.57   39.60
  -4  -9  -4  137.39   11.70
  -4  -9  -4  137.29   10.80
   4   9   4  146.99   15.60
  -5  -9  -4  193.38   13.00
  -5  -9  -4  168.88   12.60
   5   9   4  202.88   11.70
   5   9   4  198.78   15.20
  -6  -9  -4   55.79    8.50
  -6  -9  -4   59.89    9.20
   6   9   4   50.39    8.00
   6   9   4   56.29    9.80
  -7  -9  -4 1655.23   44.70
  -7  -9  -4 1659.23   39.40
  -7  -9  -4 1652.53   48.60
   7   9   4 1594.04   41.30
   7   9   4 1489.85   45.90
  -8  -9  -4    7.50    5.70
  -8  -9  -4   13.40    6.00
   8   9   4    3.80    4.00
   8   9   4   15.20    6.50
  -9  -9  -4   95.99   14.10
  -9  -9  -4  121.49   14.50
   9   9   4   79.99   13.10
   9   9   4   90.39   12.30
 -10  -9  -4  237.48   16.90
 -10  -9  -4  215.08   18.20
  10   9   4  216.18   18.20
  10   9   4  215.88   17.40
 -11  -9  -4  148.69   16.70
 -11  -9  -4  122.09   17.30
  11   9   4  154.38   18.50
  11   9   4  152.28   18.70
   4 -10  -4    7.20    5.90
   4 -10  -4    0.40    5.60
   4 -10  -4   -3.80    5.30
  -4  10   4   -2.50    4.50
   3 -10  -4  195.78   21.20
   3 -10  -4  202.08   23.70
   3 -10  -4  205.08   17.80
  -3  10   4  157.08   19.00
   2 -10  -4  469.15   28.80
   2 -10  -4  512.25   27.80
  -2  10   4  454.95   26.30
   1 -10  -4   17.50    7.10
   1 -10  -4   32.10   10.30
  -1  10   4   28.60    8.60
   0 -10  -4    6.90    5.40
   0 -10  -4   -2.60    4.00
   0 -10  -4   10.10    4.10
   0  10   4    6.90    6.00
  -1 -10  -4  215.98   16.90
  -1 -10  -4  175.88   11.90
   1  10   4  206.78   16.80
   1  10   4  180.98   11.70
  -2 -10  -4  220.48   16.70
  -2 -10  -4  251.07   14.30
   2  10   4  223.08   13.20
   2  10   4  207.18   16.90
  -3 -10  -4  779.72   30.70
  -3 -10  -4  733.63   26.70
   3  10   4  766.32   25.90
   3  10   4  793.62   32.20
  -4 -10  -4   -0.20    3.50
  -4 -10  -4    1.90    4.20
   4  10   4    3.10    5.30
  -5 -10  -4 1076.29   34.80
  -5 -10  -4 1045.10   33.80
   5  10   4 1067.69   37.90
  -6 -10  -4   65.59    9.80
  -6 -10  -4   52.59    9.00
   6  10   4   60.49   10.80
  -7 -10  -4  113.69   15.30
  -7 -10  -4   76.49   11.10
   7  10   4  100.89   14.00
  -8 -10  -4  157.58   18.80
  -8 -10  -4  178.98   17.60
   8  10   4  162.18   18.30
  -9 -10  -4  251.87   18.00
  -9 -10  -4  255.67   20.00
   9  10   4  253.07   19.50
 -10 -10  -4  101.09   15.80
 -10 -10  -4  134.69   15.80
  10  10   4  111.49   16.40
   2 -11  -4  138.99   19.90
   2 -11  -4  163.38   20.00
  -2  11   4  153.38   18.60
   1 -11  -4   64.99   13.20
   1 -11  -4   77.99   15.10
  -1  11   4   79.89   14.00
   0 -11  -4  286.67   23.30
   0 -11  -4  312.17   22.10
   0 -11  -4  282.87   17.30
   0  11   4  288.27   21.30
  -1 -11  -4  217.98   14.00
  -1 -11  -4  227.28   18.50
   1  11   4  241.78   18.80
  -2 -11  -4   56.99   11.50
  -2 -11  -4   45.80    8.00
   2  11   4   54.69   11.40
  -3 -11  -4  134.99   13.80
  -3 -11  -4  186.18   16.10
   3  11   4  174.98   18.70
   3  11   4  173.68   12.30
  -4 -11  -4    1.40    3.40
  -4 -11  -4   -2.90    3.70
   4  11   4   -3.70    5.60
  -5 -11  -4  463.45   23.70
  -5 -11  -4  498.15   23.30
   5  11   4  487.65   26.20
  -6 -11  -4  599.34   26.30
  -6 -11  -4  600.74   26.20
   6  11   4  582.24   29.00
  -7 -11  -4    2.80    5.20
  -7 -11  -4   10.10    5.00
   7  11   4    7.00    6.20
  -8 -11  -4  115.49   16.60
  -8 -11  -4  113.59   14.30
   8  11   4  101.29   15.60
  -9 -11  -4   14.30    6.80
  -9 -11  -4   37.30   10.50
   9  11   4   21.40    8.60
   0 -12  -4   15.60    9.20
   0 -12  -4    8.00    6.80
   0  12   4   28.80    9.70
  -1 -12  -4  250.77   17.50
  -1 -12  -4  234.68   20.10
   1  12   4  275.07   21.30
  -2 -12  -4  195.88   14.60
  -2 -12  -4  226.28   19.50
   2  12   4  240.88   19.80
  -3 -12  -4  122.39   13.80
  -3 -12  -4  142.29   17.50
   3  12   4  116.19   16.20
  -4 -12  -4  133.99   16.60
  -4 -12  -4  111.99   14.00
   4  12   4  119.19   16.60
  -5 -12  -4   38.40    9.60
  -5 -12  -4   35.10    8.50
   5  12   4   20.50    8.80
  -6 -12  -4  363.66   21.60
  -6 -12  -4  379.26   21.80
   6  12   4  333.27   23.30
  -7 -12  -4    0.20    4.60
  -7 -12  -4    3.30    6.50
   7  12   4    0.90    6.20
   3  10  -5  112.39   16.40
  -3 -10   5   68.69   12.10
  -3 -10   5   92.29   14.90
   2  10  -5   13.70    7.50
  -2 -10   5   33.70    9.80
   1  10  -5  101.59   15.00
  -1 -10   5  101.79   15.60
   0  10  -5  134.19   17.60
   0  10  -5  149.19   18.40
   0 -10   5  140.79   19.20
   6   9  -5   20.80    7.70
   6   9  -5   13.30    8.00
  -6  -9   5   17.00    7.50
   5   9  -5   85.39   13.50
  -5  -9   5   96.19   15.60
  -5  -9   5   72.19   13.50
   4   9  -5  380.86   23.40
  -4  -9   5  310.27   21.30
  -4  -9   5  343.27   21.70
   3   9  -5   95.59   13.90
  -3  -9   5   92.99   14.00
  -3  -9   5  108.79   14.60
   2   9  -5   56.89   10.40
  -2  -9   5   88.49   14.30
   1   9  -5   46.90    9.90
  -1  -9   5   65.09   12.20
   0   9  -5  211.48   17.20
   0   9  -5  207.28   16.90
   0  -9   5  221.18   23.00
  -1   9  -5    2.30    4.90
  -1   9  -5   -2.00    4.00
   1  -9   5   -7.90    4.20
  -2   9  -5  215.58   17.80
  -2   9  -5  218.88   21.40
   2  -9   5  229.88   24.70
  -3   9  -5  277.07   18.20
  -3   9  -5  303.37   21.10
  -3   9  -5  299.67   20.70
   3  -9   5  323.37   24.00
   7   8  -5  115.89   15.20
   7   8  -5  173.78   21.10
  -7  -8   5  127.09   16.60
   6   8  -5  331.47   21.00
   6   8  -5  316.47   22.90
  -6  -8   5  304.07   21.10
   5   8  -5   15.30    6.40
   5   8  -5    8.60    6.00
  -5  -8   5   14.60    5.80
  -5  -8   5    6.20    5.40
   4   8  -5  163.48   17.70
  -4  -8   5  118.69   14.90
  -4  -8   5  139.49   15.50
   3   8  -5   29.70    8.30
  -3  -8   5   20.10    6.90
  -3  -8   5   20.80    7.00
   2   8  -5  961.70   35.40
  -2  -8   5  943.01   36.10
   1   8  -5  217.18   16.30
  -1  -8   5  204.38   20.70
   0   8  -5    1.70    4.10
   0  -8   5    0.60    3.40
  -1   8  -5   50.59    9.90
  -1   8  -5   43.90    7.50
  -1   8  -5   47.40   10.00
   1  -8   5   18.50    7.60
  -2   8  -5   89.59   12.30
  -2   8  -5  120.09   15.40
  -2   8  -5  106.89   12.20
   2  -8   5   98.69   14.70
  -3   8  -5  194.38   18.70
  -3   8  -5  170.18   18.40
  -3   8  -5  180.88   14.00
   3  -8   5  188.38   20.70
  -4   8  -5  142.39   16.10
  -4   8  -5  136.39   15.80
  -4   8  -5  133.19   16.50
   4  -8   5  157.38   19.00
  -5   8  -5   15.20    6.00
  -5   8  -5   27.20    8.10
  -5   8  -5   30.40    8.20
   5  -8   5   14.50    7.20
   5  -8   5   18.10    8.00
   8   7  -5   32.50    9.80
   8   7  -5   19.90    7.90
  -8  -7   5   14.20    7.60
   7   7  -5  109.09   15.70
   7   7  -5  177.48   18.10
  -7  -7   5  196.08   20.00
   6   7  -5  646.64   28.10
   6   7  -5  612.24   30.70
  -6  -7   5  651.83   29.60
   5   7  -5   79.79   11.80
   5   7  -5   60.29   11.30
  -5  -7   5   86.59   12.40
  -5  -7   5   80.49   11.20
   4   7  -5   85.09   12.90
   4   7  -5   95.89   12.40
  -4  -7   5  100.59   12.40
  -4  -7   5   92.69   11.70
   3   7  -5  123.29   14.20
  -3  -7   5  141.09   14.60
  -3  -7   5  157.08   13.30
   2   7  -5  239.18   16.40
  -2  -7   5  223.08   16.00
   1   7  -5  619.04   26.30
  -1  -7   5  624.74   27.40
   0   7  -5   72.39    8.20
   0   7  -5   79.59   11.20
   0  -7   5   72.49   11.30
  -1   7  -5  709.23   28.40
  -1   7  -5  762.52   24.30
  -1   7  -5  732.13   29.20
   1  -7   5  696.33   30.40
  -2   7  -5  109.89   14.10
  -2   7  -5   90.39   10.80
  -2   7  -5   75.39   11.00
   2  -7   5  106.19   14.80
  -3   7  -5  136.39   13.60
  -3   7  -5  153.18   16.60
  -3   7  -5  152.18   15.50
   3  -7   5  142.89   17.70
  -4   7  -5   21.20    6.50
  -4   7  -5   17.10    6.00
  -4   7  -5   23.70    6.90
   4  -7   5   43.80   10.40
  -5   7  -5   14.80    6.40
  -5   7  -5    9.90    6.00
  -5   7  -5   10.00    5.20
   5  -7   5   13.90    6.60
  -6   7  -5  308.17   20.80
  -6   7  -5  332.87   21.20
  -6   7  -5  315.07   18.70
   6  -7   5  309.57   22.20
   6  -7   5  352.26   22.70
   9   6  -5   -6.20    5.10
  -9  -6   5   -3.10    3.80
   8   6  -5  114.39   14.40
   8   6  -5  152.78   19.30
  -8  -6   5  140.89   16.90
   7   6  -5   -0.30    5.20
   7   6  -5   -1.00    3.90
  -7  -6   5    1.70    3.80
  -7  -6   5    4.00    4.60
   6   6  -5  136.19   16.60
   6   6  -5  117.59   13.50
  -6  -6   5  105.19   13.00
  -6  -6   5  141.99   16.00
   5   6  -5  352.56   21.30
   5   6  -5  364.26   19.80
  -5  -6   5  370.66   20.10
  -5  -6   5  386.26   19.90
  -5  -6   5  357.56   17.70
   4   6  -5  468.25   24.20
   4   6  -5  457.55   21.70
  -4  -6   5  469.65   20.90
  -4  -6   5  470.25   20.80
  -4  -6   5  460.55   21.70
   3   6  -5  604.64   25.20
   3   6  -5  608.04   27.10
  -3  -6   5  634.74   22.90
  -3  -6   5  644.34   25.30
  -3  -6   5  632.44   24.80
   2   6  -5   39.00    7.60
  -2  -6   5   34.20    5.80
  -2  -6   5   40.50    8.00
   1   6  -5  599.44   24.20
   1   6  -5  583.84   16.40
  -1  -6   5  602.34   18.50
  -1  -6   5  607.74   25.40
   0   6  -5   38.10    5.30
   0   6  -5   51.99    8.70
   0  -6   5   41.80    8.30
  -1   6  -5  700.63   26.90
  -1   6  -5  715.13   26.80
  -1   6  -5  706.43   22.00
   1  -6   5  682.03   28.30
  -2   6  -5  682.13   27.20
  -2   6  -5  719.03   26.70
  -2   6  -5  691.93   23.50
   2  -6   5  703.43   29.40
  -3   6  -5    6.30    3.30
  -3   6  -5    3.40    3.00
  -3   6  -5    1.30    3.50
   3  -6   5   -1.80    2.80
  -4   6  -5   35.50    7.70
  -4   6  -5   18.50    5.90
  -4   6  -5   16.00    5.50
   4  -6   5   18.10    6.10
  -5   6  -5   41.10    7.80
  -5   6  -5   32.90    8.20
  -5   6  -5   28.60    7.50
   5  -6   5   34.80    8.90
  -6   6  -5  675.63   29.40
  -6   6  -5  652.13   28.70
  -6   6  -5  688.63   26.10
   6  -6   5  647.44   30.70
   6  -6   5  639.14   29.00
  -7   6  -5  309.47   20.60
  -7   6  -5  357.66   21.50
   7  -6   5  304.27   20.20
   7  -6   5  336.47   22.30
   9   5  -5   91.59   15.00
   9   5  -5   73.49   14.20
  -9  -5   5   98.59   14.70
  -9  -5   5  125.69   16.90
   8   5  -5  282.07   21.90
   8   5  -5  253.87   20.10
   8   5  -5  243.88   16.50
  -8  -5   5  285.67   19.80
  -8  -5   5  265.17   19.20
   7   5  -5  469.85   26.90
   7   5  -5  498.65   23.10
   7   5  -5  510.15   26.80
  -7  -5   5  492.95   25.40
  -7  -5   5  546.05   25.80
   6   5  -5   65.19   10.10
   6   5  -5   71.59   12.60
   6   5  -5   56.79   10.90
  -6  -5   5   71.29   11.20
  -6  -5   5   63.79   10.20
  -6  -5   5   65.99    8.50
   5   5  -5  126.09   13.60
   5   5  -5  116.79   14.30
  -5  -5   5  146.39   12.30
  -5  -5   5  117.79    9.80
  -5  -5   5  138.49   11.60
   4   5  -5    1.10    2.60
   4   5  -5   -2.20    3.40
  -4  -5   5   -1.30    2.50
  -4  -5   5    2.90    2.90
  -4  -5   5    6.50    3.40
   3   5  -5 2520.85   59.89
   3   5  -5 2568.34   57.69
  -3  -5   5 2477.75   55.19
  -3  -5   5 2433.56   54.19
  -3  -5   5 2444.16   55.59
   2   5  -5  237.98   14.70
   2   5  -5  216.98   15.50
  -2  -5   5  242.28   14.60
  -2  -5   5  245.88   13.50
  -2  -5   5  236.18   12.50
   1   5  -5  107.99   11.30
   1   5  -5  145.69    6.50
  -1  -5   5  125.79    8.40
  -1  -5   5  127.59   13.20
   0   5  -5 1423.86   30.20
   0   5  -5 1364.76   37.50
   0  -5   5 1441.26   40.40
   0  -5   5 1438.46   30.40
  -1   5  -5 1103.09   27.50
  -1   5  -5 1124.99   33.00
  -1   5  -5 1148.89   33.90
   1  -5   5 1121.69   22.70
   1  -5   5 1156.48   35.90
  -2   5  -5  500.75   21.80
  -2   5  -5  524.65   21.00
  -2   5  -5  492.25   18.10
   2  -5   5  507.45   23.00
  -3   5  -5   92.79   10.20
  -3   5  -5   82.89   10.60
  -3   5  -5  100.59   11.10
   3  -5   5  100.69   12.90
  -4   5  -5  971.70   29.90
  -4   5  -5  943.11   32.20
  -4   5  -5  989.20   30.80
   4  -5   5  960.70   34.30
  -5   5  -5  110.89   12.40
  -5   5  -5  129.29   10.40
  -5   5  -5  153.98   15.90
   5  -5   5  143.09   15.70
  -6   5  -5   83.59   10.20
  -6   5  -5   62.09   10.20
  -6   5  -5   79.79   11.60
   6  -5   5   51.19    9.10
   6  -5   5   66.89   11.10
  -7   5  -5  172.58   17.50
  -7   5  -5  197.68   25.00
  -7   5  -5  189.38   15.60
   7  -5   5  185.58   16.00
   7  -5   5  182.78   14.30
  -8   5  -5    8.60    5.10
  -8   5  -5    3.20    5.10
   8  -5   5   -0.10    3.40
   8  -5   5    3.80    4.90
   8  -5   5   -1.50    5.60
   9   4  -5   14.80    8.10
   9   4  -5   20.20    9.00
  -9  -4   5   23.20    8.20
  -9  -4   5   24.60    8.40
   8   4  -5  332.07   18.20
   8   4  -5  324.17   23.10
   8   4  -5  332.07   22.40
  -8  -4   5  319.57   20.30
  -8  -4   5  332.37   21.70
   7   4  -5  333.27   17.80
   7   4  -5  349.37   22.70
   7   4  -5  338.27   21.10
  -7  -4   5  340.07   19.80
  -7  -4   5  338.37   20.80
   6   4  -5  199.98   16.60
   6   4  -5  193.18   13.40
   6   4  -5  198.38   15.50
  -6  -4   5  182.88   10.70
  -6  -4   5  204.18   15.20
  -6  -4   5  191.98   14.00
   5   4  -5  304.97   16.40
   5   4  -5  300.27   18.00
   5   4  -5  322.57   19.50
  -5  -4   5  310.57   16.80
  -5  -4   5  299.17   14.10
  -5  -4   5  305.47   17.60
   4   4  -5   12.20    5.00
   4   4  -5   21.70    5.50
   4   4  -5   22.90    6.90
  -4  -4   5   10.50    4.40
  -4  -4   5   17.00    5.40
  -4  -4   5   16.70    4.50
   3   4  -5  619.64   13.50
   3   4  -5  612.04   22.90
   3   4  -5  640.14   24.90
  -3  -4   5  634.84   22.60
  -3  -4   5  632.74   22.10
  -3  -4   5  594.64   21.70
   2   4  -5 1243.08   36.30
   2   4  -5 1318.17   35.20
  -2  -4   5 1270.97   34.70
  -2  -4   5 1267.17   32.40
  -2  -4   5 1289.47   32.70
   1   4  -5  498.25   11.60
   1   4  -5  492.85   19.70
  -1  -4   5  501.05   17.10
  -1  -4   5  537.05   20.90
   0   4  -5 1518.65   38.80
   0   4  -5 1634.24   31.20
   0  -4   5 1652.63   33.70
   0  -4   5 1562.34   40.90
  -1   4  -5  219.98   13.30
  -1   4  -5  216.08    9.80
  -1   4  -5  238.58   13.00
   1  -4   5  209.58   13.40
   1  -4   5  221.38    8.70
  -2   4  -5 1373.56   31.80
  -2   4  -5 1298.77   35.90
  -2   4  -5 1431.46   35.30
   2  -4   5 1335.27   24.20
   2  -4   5 1233.58   27.00
   2  -4   5 1327.57   37.60
  -3   4  -5   76.19    8.20
  -3   4  -5   87.99   10.40
  -3   4  -5   85.89    9.30
   3  -4   5   82.39   10.40
  -4   4  -5  825.42   26.70
  -4   4  -5  855.91   25.90
  -4   4  -5  804.32   27.90
   4  -4   5  845.32   30.00
  -5   4  -5 1691.43   39.70
  -5   4  -5 1625.54   43.80
  -5   4  -5 1579.84   42.60
   5  -4   5 1650.13   45.70
  -6   4  -5   18.10    5.60
  -6   4  -5   18.80    5.90
  -6   4  -5   10.20    4.00
   6  -4   5   24.50    6.20
   6  -4   5   20.70    6.60
  -7   4  -5   19.00    5.90
  -7   4  -5   18.10    6.50
  -7   4  -5   34.00    6.10
   7  -4   5   10.10    5.20
   7  -4   5   21.90    6.10
  -8   4  -5   91.99   12.40
  -8   4  -5   79.39   12.00
   8  -4   5   77.39   10.80
   8  -4   5   89.79   15.10
   8  -4   5   79.99   12.10
  -9   4  -5  427.26   23.00
  -9   4  -5  420.86   25.00
   9  -4   5  413.06   21.60
   9  -4   5  406.26   22.60
   9  -4   5  413.26   28.00
  10   3  -5  137.59   20.10
  10   3  -5  145.99   19.60
 -10  -3   5  142.79   18.50
 -10  -3   5  185.78   21.10
   9   3  -5  263.77   21.80
   9   3  -5  235.18   19.80
  -9  -3   5  232.58   19.40
  -9  -3   5  206.28   17.20
   8   3  -5    2.40    4.80
   8   3  -5   -5.00    4.60
   8   3  -5    0.00    3.20
  -8  -3   5   -3.40    3.50
  -8  -3   5    0.70    3.50
   7   3  -5  396.86   23.60
   7   3  -5  431.46   23.10
   7   3  -5  438.66   19.80
  -7  -3   5  401.46   22.40
  -7  -3   5  418.06   21.20
   6   3  -5   58.39   11.10
   6   3  -5   47.30    8.00
   6   3  -5   38.00    8.20
  -6  -3   5   38.00    8.30
  -6  -3   5   31.40    7.10
  -6  -3   5   41.00    5.90
   5   3  -5 1002.80   32.90
   5   3  -5  976.90   30.40
   5   3  -5 1076.09   36.10
  -5  -3   5 1002.40   31.00
  -5  -3   5 1025.40   27.20
  -5  -3   5  978.00   32.60
   4   3  -5 2133.49   50.49
   4   3  -5 2103.89   52.69
   4   3  -5 2085.39   48.00
  -4  -3   5 2027.40   44.40
  -4  -3   5 2044.70   47.00
  -4  -3   5 2002.10   48.80
   3   3  -5   11.10    2.50
   3   3  -5   11.60    4.00
   3   3  -5   12.50    4.40
   3   3  -5    5.20    4.00
  -3  -3   5   14.00    4.00
  -3  -3   5    9.30    3.40
  -3  -3   5   13.50    4.70
   2   3  -5  891.11   28.10
   2   3  -5  899.21   27.00
   2   3  -5  930.21   28.60
  -2  -3   5  921.61   24.90
  -2  -3   5  930.61   26.70
  -2  -3   5  904.51   26.10
   1   3  -5   16.70    4.90
   1   3  -5   22.30    1.70
   1   3  -5   33.10    5.70
  -1  -3   5   23.00    4.50
  -1  -3   5   23.60    5.00
  -1  -3   5   24.20    4.20
   0   3  -5 3065.89   60.79
   0   3  -5 3056.09   50.99
   0  -3   5 3130.59   56.29
   0  -3   5 3098.09   62.59
  -1   3  -5 1577.74   31.50
  -1   3  -5 1560.44   36.80
   1  -3   5 1619.24   39.60
   1  -3   5 1567.44   31.40
   1  -3   5 1549.74   36.40
  -2   3  -5  496.95   16.00
  -2   3  -5  494.75   17.80
  -2   3  -5  505.75   19.30
   2  -3   5  499.55   12.60
   2  -3   5  539.05   20.80
   2  -3   5  484.65   16.90
   2  -3   5  535.95   13.40
  -3   3  -5 1336.57   32.40
  -3   3  -5 1296.77   34.70
  -3   3  -5 1321.87   32.10
   3  -3   5 1341.57   24.50
   3  -3   5 1313.77   36.30
  -4   3  -5  400.96   17.80
  -4   3  -5  371.66   15.00
  -4   3  -5  353.96   15.90
   4  -3   5  370.76   17.90
   4  -3   5  379.36    9.40
  -5   3  -5  480.95   20.00
  -5   3  -5  486.75   20.40
  -5   3  -5  479.15   17.10
   5  -3   5  474.15   20.70
   5  -3   5  419.76   13.10
  -6   3  -5   68.99    7.50
  -6   3  -5   63.79    9.60
  -6   3  -5   67.99    9.80
   6  -3   5   76.09   10.30
   6  -3   5   67.89    8.70
  -7   3  -5  278.97   12.60
  -7   3  -5  245.68   15.70
  -7   3  -5  247.38   16.00
   7  -3   5  293.27   19.60
   7  -3   5  274.17   16.50
   7  -3   5  265.57   14.40
  -8   3  -5   91.29   12.20
  -8   3  -5  111.09   13.50
   8  -3   5  100.19   11.90
   8  -3   5  109.19   15.90
   8  -3   5   89.99   11.90
  -9   3  -5   39.00    8.60
  -9   3  -5   48.60   10.40
   9  -3   5   49.30    8.60
   9  -3   5   48.90    9.10
   9  -3   5   46.50   10.50
 -10   3  -5  239.08   19.00
 -10   3  -5  265.27   18.60
  10  -3   5  251.97   16.40
  10  -3   5  277.37   23.40
  10   2  -5  133.79   18.00
  10   2  -5  124.69   19.30
 -10  -2   5  150.58   19.70
 -10  -2   5  131.29   16.90
   9   2  -5  613.94   32.90
   9   2  -5  616.74   30.00
  -9  -2   5  560.54   27.90
  -9  -2   5  564.04   29.10
   8   2  -5  184.78   15.70
   8   2  -5  188.38   21.10
  -8  -2   5  166.28   18.10
  -8  -2   5  156.68   16.90
   7   2  -5   20.70    5.30
   7   2  -5   24.10    7.70
   7   2  -5   24.70    8.00
  -7  -2   5   20.70    6.30
  -7  -2   5   31.70    8.20
   6   2  -5    2.70    4.40
   6   2  -5   10.00    4.30
   6   2  -5   10.40    4.80
  -6  -2   5    6.40    4.10
  -6  -2   5    7.10    3.00
  -6  -2   5    2.80    3.20
   5   2  -5  592.94   21.70
   5   2  -5  596.64   25.90
   5   2  -5  632.74   24.50
  -5  -2   5  604.34   22.60
  -5  -2   5  567.84   18.80
  -5  -2   5  583.84   12.20
  -5  -2   5  587.54   24.00
   4   2  -5 1811.62   43.80
   4   2  -5 1774.02   42.00
   4   2  -5 1651.53   45.50
  -4  -2   5 1760.82   41.30
  -4  -2   5 1811.42   44.50
  -4  -2   5 1811.92   39.50
   3   2  -5  307.07   15.30
   3   2  -5  292.47   14.00
   3   2  -5  297.07   15.60
  -3  -2   5  269.87   14.10
  -3  -2   5  302.67   13.10
  -3  -2   5  279.57   12.90
   2   2  -5  659.43   21.90
   2   2  -5  614.74   20.60
   2   2  -5  636.94   13.90
   2   2  -5  619.34   21.80
  -2  -2   5  644.14   20.60
  -2  -2   5  624.94   20.70
  -2  -2   5  626.94   18.50
   1   2  -5 1340.37   33.20
   1   2  -5 1366.76   32.80
   1   2  -5 1316.37   33.40
  -1  -2   5 1303.67   28.50
  -1  -2   5 1341.17   33.10
  -1  -2   5 1380.96   31.70
   0   2  -5 3199.08   51.39
   0   2  -5 3247.88   61.09
   0  -2   5 3217.08   62.49
   0  -2   5 3190.78   60.59
   0  -2   5 3220.68   57.89
  -1   2  -5 2153.68   44.40
  -1   2  -5 2177.18   45.00
  -1   2  -5 2170.78   38.90
   1  -2   5 2179.18   43.40
   1  -2   5 2175.18   47.00
   1  -2   5 2109.09   40.40
  -2   2  -5   85.09    6.80
  -2   2  -5   82.29    5.90
  -2   2  -5  104.19    7.90
   2  -2   5   93.79    4.60
   2  -2   5   94.09    5.60
   2  -2   5   86.29    9.20
   2  -2   5   85.49    6.10
  -3   2  -5 4721.03   85.29
  -3   2  -5 4791.52   82.19
  -3   2  -5 4791.42   81.99
   3  -2   5 4719.53   76.09
   3  -2   5 4718.03   86.89
  -4   2  -5   37.50    5.30
  -4   2  -5   40.50    6.90
  -4   2  -5   37.60    5.90
   4  -2   5   44.90    3.70
   4  -2   5   34.40    6.40
  -5   2  -5  221.98   10.20
  -5   2  -5  189.98   12.30
  -5   2  -5  226.18   12.90
   5  -2   5  192.28    9.90
   5  -2   5  219.38   12.90
   5  -2   5  209.98    8.00
  -6   2  -5  202.48    9.70
  -6   2  -5  189.08   12.40
  -6   2  -5  168.08   12.30
   6  -2   5  193.38   10.20
   6  -2   5  194.38   12.50
  -7   2  -5  563.34   22.90
  -7   2  -5  567.14   23.90
  -7   2  -5  581.54   17.10
   7  -2   5  556.94   26.50
   7  -2   5  562.74   22.50
   7  -2   5  569.04   19.60
  -8   2  -5  537.75   23.40
  -8   2  -5  499.75   24.00
   8  -2   5  503.35   19.40
   8  -2   5  512.65   21.70
   8  -2   5  540.95   27.60
  -9   2  -5  456.95   22.70
  -9   2  -5  487.65   24.90
   9  -2   5  490.05   21.50
   9  -2   5  498.95   28.00
   9  -2   5  464.65   19.70
 -10   2  -5   83.69   13.30
 -10   2  -5   98.09   13.40
  10  -2   5   82.99   11.00
  10  -2   5   61.59   13.20
  10   1  -5   40.70   11.70
  10   1  -5   36.20   10.90
 -10  -1   5   37.30   10.00
 -10  -1   5   44.50   10.30
   9   1  -5  637.04   30.70
   9   1  -5  703.03   35.10
  -9  -1   5  706.73   32.60
  -9  -1   5  712.33   31.30
   8   1  -5  181.88   15.30
   8   1  -5  193.88   21.40
  -8  -1   5  171.38   18.70
  -8  -1   5  174.58   14.30
   7   1  -5  106.99   13.50
   7   1  -5  125.09   15.90
  -7  -1   5   91.29   12.50
  -7  -1   5  107.89   13.00
   6   1  -5 1645.34   42.80
   6   1  -5 1662.53   48.70
   6   1  -5 1676.13   41.70
   6   1  -5 1679.83   45.20
  -6  -1   5 1680.33   33.70
  -6  -1   5 1693.03   46.50
  -6  -1   5 1658.73   43.50
   5   1  -5    4.40    3.40
   5   1  -5    3.70    3.60
   5   1  -5    1.20    3.10
   5   1  -5    6.80    3.20
  -5  -1   5    0.60    3.40
  -5  -1   5    4.50    1.80
  -5  -1   5   14.60    4.60
   4   1  -5  283.17   14.60
   4   1  -5  280.07   14.00
   4   1  -5  292.97   16.40
   4   1  -5  286.67   14.70
  -4  -1   5  286.77   13.50
  -4  -1   5  296.47   15.80
  -4  -1   5  286.57    8.00
   3   1  -5  554.54   21.10
   3   1  -5  486.05   18.40
   3   1  -5  521.95   19.60
   3   1  -5  500.05   18.20
  -3  -1   5  529.65   17.40
  -3  -1   5  495.75    9.50
  -3  -1   5  501.25   19.50
   2   1  -5  896.91   26.20
   2   1  -5  870.81   24.80
   2   1  -5  941.01   25.30
   2   1  -5  851.61   19.50
   2   1  -5  851.81   25.90
  -2  -1   5  918.71   25.70
  -2  -1   5  892.71   22.10
   1   1  -5 2250.87   47.50
   1   1  -5 2349.96   38.90
   1   1  -5 2433.06   48.10
   1   1  -5 2394.56   49.60
   1   1  -5 2403.26   47.80
  -1  -1   5 2374.96   42.60
  -1  -1   5 2336.97   38.90
  -1  -1   5 2425.16   47.60
  -1  -1   5 2326.47   36.00
   0   1  -5 1384.36   31.60
   0   1  -5 1397.16   30.70
   0  -1   5 1382.36   31.00
   0  -1   5 1360.26   22.50
   0  -1   5 1369.56   24.30
   0  -1   5 1338.67   30.10
   0  -1   5 1342.37   25.70
  -1   1  -5 5033.70   80.19
  -1   1  -5 5013.40   85.59
  -1   1  -5 4998.80   85.59
   1  -1   5 5233.48   83.99
   1  -1   5 4937.01   88.19
   1  -1   5 5130.69   83.89
  -2   1  -5  182.48    9.00
  -2   1  -5  193.88    8.40
  -2   1  -5  191.78    9.80
   2  -1   5  193.28    8.30
   2  -1   5  198.28    8.00
   2  -1   5  188.48   10.50
  -3   1  -5 2041.40   40.20
  -3   1  -5 2072.89   41.30
  -3   1  -5 2028.60   43.10
   3  -1   5 2135.89   45.00
   3  -1   5 1980.80   36.70
   3  -1   5 2090.09   38.20
  -4   1  -5 4366.56   75.19
  -4   1  -5 4512.95   81.19
  -4   1  -5 4508.15   79.59
   4  -1   5 4464.55   73.49
   4  -1   5 4532.05   81.69
  -5   1  -5 1873.01   43.00
  -5   1  -5 1898.51   36.90
  -5   1  -5 1898.51   43.60
   5  -1   5 1966.00   43.60
   5  -1   5 1864.81   35.90
  -6   1  -5   89.59   10.20
  -6   1  -5   89.39    5.70
  -6   1  -5   94.99   10.20
   6  -1   5  101.39    8.40
   6  -1   5   84.49    5.80
  -7   1  -5  103.09   11.40
  -7   1  -5  148.99   11.10
  -7   1  -5  120.09    6.40
   7  -1   5  113.89    9.40
   7  -1   5  126.49   14.60
   7  -1   5  130.49    7.90
  -8   1  -5 1144.09   36.70
  -8   1  -5 1132.79   35.10
   8  -1   5 1131.49   32.00
   8  -1   5 1107.09   29.10
   8  -1   5 1146.49   39.90
  -9   1  -5    0.60    3.30
  -9   1  -5   13.20    5.70
   9  -1   5    2.50    3.80
   9  -1   5    5.70    3.00
   9  -1   5    5.40    3.80
 -10   1  -5   98.79   13.90
  10  -1   5   84.39   10.20
  10  -1   5   68.19   12.60
 -11   1  -5  827.12   36.10
  11  -1   5  788.62   28.30
  11  -1   5  925.71   42.20
  10   0  -5   71.49   13.70
  10   0  -5   45.30   11.60
 -10   0   5   49.30   11.00
 -10   0   5   40.50   10.30
   9   0  -5   -1.50    4.70
   9   0  -5   -0.30    4.50
  -9   0   5   -3.50    3.60
  -9   0   5    2.60    4.60
   8   0  -5  710.73   33.40
   8   0  -5  715.93   26.80
   8   0  -5  718.03   30.70
  -8   0   5  780.02   30.80
  -8   0   5  789.42   32.50
   7   0  -5 1485.85   47.90
   7   0  -5 1586.54   41.00
   7   0  -5 1466.75   43.40
  -7   0   5 1485.25   44.90
  -7   0   5 1463.15   34.90
  -7   0   5 1441.76   42.30
   6   0  -5  194.98   13.60
   6   0  -5  209.08   15.80
   6   0  -5  219.78   13.60
  -6   0   5  208.08   10.30
  -6   0   5  201.88   14.50
  -6   0   5  227.78   13.90
   5   0  -5 1480.95   38.30
   5   0  -5 1390.96   42.00
   5   0  -5 1466.25   38.70
  -5   0   5 1530.25   38.30
  -5   0   5 1519.95   41.30
  -5   0   5 1487.55   31.30
   4   0  -5  692.83   23.10
   4   0  -5  689.23   23.50
   4   0  -5  650.13   25.20
   4   0  -5  704.33   22.60
  -4   0   5  708.33   17.20
  -4   0   5  747.03   25.50
  -4   0   5  690.23   22.10
   3   0  -5   58.39    8.00
   3   0  -5   71.59    8.20
   3   0  -5   50.49    6.60
   3   0  -5   66.09    8.20
  -3   0   5   52.39    6.30
  -3   0   5   68.69    8.50
  -3   0   5   60.39    6.70
   2   0  -5   14.10    3.80
   2   0  -5   12.60    3.50
   2   0  -5   19.90    4.20
   2   0  -5   15.20    3.80
  -2   0   5   19.40    4.60
  -2   0   5   13.60    2.80
  -2   0   5    9.60    2.70
   1   0  -5 9402.46  150.78
   1   0  -5 9578.24  151.78
   1   0  -5 9686.93  153.38
  -1   0   5 9197.28  150.98
   0   0  -5 1553.54   32.50
   0   0  -5 1547.15   33.50
   0   0  -5 1551.24   32.80
   0   0  -5 1499.25   27.40
   0   0  -5 1570.44   35.10
   0   0  -5 1507.95   30.60
   0   0   5 1507.25   32.50
   0   0   5 1536.05   28.30
   0   0   5 1572.34   26.80
   0   0   5 1495.95   27.20
   0   0   5 1556.04   33.30
  -1   0  -5 2197.18   44.20
  -1   0  -5 2178.28   38.50
  -1   0  -5 2162.28   42.50
  -1   0  -5 2196.18   39.60
  -1   0  -5 2241.68   41.50
   1   0   5 2213.88   40.40
   1   0   5 2189.98   41.90
   1   0   5 2176.78   37.80
  -2   0  -5 1301.77   26.70
  -2   0  -5 1316.37   28.00
  -2   0  -5 1292.47   28.60
  -2   0  -5 1271.37   28.90
   2   0   5 1194.28   24.10
   2   0   5 1276.67   24.80
   2   0   5 1271.17   27.10
  -3   0  -5 1433.26   29.60
  -3   0  -5 1479.45   31.20
  -3   0  -5 1400.96   32.00
  -3   0  -5 1461.65   31.20
   3   0   5 1411.66   24.70
   3   0   5 1426.66   25.30
   3   0   5 1463.85   29.60
  -4   0  -5 1577.94   35.20
  -4   0  -5 1552.64   30.80
  -4   0  -5 1565.14   31.00
  -4   0  -5 1590.94   36.00
   4   0   5 1570.54   26.10
   4   0   5 1585.84   35.80
  -5   0  -5  191.28    8.00
  -5   0  -5  184.78   10.90
  -5   0  -5  201.48   11.30
  -5   0  -5  189.58    7.60
   5   0   5  212.08   10.80
   5   0   5  186.68    6.10
  -6   0  -5 1267.07   33.40
  -6   0  -5 1232.28   33.50
  -6   0  -5 1222.08   24.00
  -6   0  -5 1273.07   25.80
   6   0   5 1255.97   36.00
   6   0   5 1240.48   24.40
   6   0   5 1203.38   30.90
   6   0   5 1228.18   24.80
  -7   0  -5  254.37    7.30
  -7   0  -5  270.07   15.10
  -7   0  -5  283.27   15.10
  -7   0  -5  254.77    9.20
   7   0   5  260.37   16.20
   7   0   5  242.68   12.50
   7   0   5  256.57   10.10
  -8   0  -5   11.80    4.70
  -8   0  -5    8.80    4.50
   8   0   5    6.80    4.10
   8   0   5   10.80    3.00
   8   0   5    9.70    3.40
  -9   0  -5  453.45   22.70
   9   0   5  439.96   24.60
   9   0   5  451.75   17.20
 -10   0  -5   55.69   10.30
  10   0   5   58.79    8.10
  10   0   5   72.19   12.50
 -11   0  -5  248.28   18.90
  11   0   5  240.48   14.50
  11   0   5  253.47   21.50
  10  -1  -5  635.44   32.40
  10  -1  -5  595.44   34.30
 -10   1   5  612.44   30.90
   9  -1  -5    3.60    5.30
   9  -1  -5   13.00    6.70
  -9   1   5   15.00    6.70
  -9   1   5    7.10    5.70
   8  -1  -5  606.54   28.20
   8  -1  -5  647.34   24.90
   8  -1  -5  596.64   30.60
  -8   1   5  616.54   27.80
  -8   1   5  646.14   23.50
  -8   1   5  659.93   29.50
   7  -1  -5   41.20    9.60
   7  -1  -5   29.20    6.80
   7  -1  -5   16.80    5.80
  -7   1   5   29.00    7.20
  -7   1   5   27.20    5.50
  -7   1   5   15.80    5.80
   6  -1  -5 1108.89   34.50
   6  -1  -5 1068.99   37.80
   6  -1  -5 1073.69   32.30
  -6   1   5 1115.09   29.50
  -6   1   5 1133.79   34.20
  -6   1   5 1140.79   36.10
   5  -1  -5  303.87   15.30
   5  -1  -5  311.17   18.10
   5  -1  -5  323.07   16.10
  -5   1   5  285.17   14.90
   4  -1  -5    2.40    3.10
   4  -1  -5    2.30    3.10
   4  -1  -5    3.60    2.40
  -4   1   5    2.00    2.00
  -4   1   5    2.00    2.70
  -4   1   5    3.20    4.20
   3  -1  -5 1153.18   32.30
   3  -1  -5 1024.00   29.20
   3  -1  -5 1067.39   27.30
  -3   1   5 1092.19   28.30
  -3   1   5 1089.29   27.30
  -3   1   5 1071.09   30.40
   2  -1  -5  136.59    9.00
   2  -1  -5  126.69    8.30
   2  -1  -5  130.29    9.20
   2  -1  -5  123.19    7.70
  -2   1   5  142.79    7.40
  -2   1   5  119.69    8.90
  -2   1   5  124.39    7.80
   1  -1  -5    1.50    2.00
   1  -1  -5    3.40    2.00
   1  -1  -5   -0.30    1.80
   1  -1  -5    2.00    2.00
   1  -1  -5    4.40    1.50
  -1   1   5    7.20    2.80
  -1   1   5    3.90    1.60
  -1   1   5    2.80    2.10
   0  -1  -5 3040.90   48.60
   0  -1  -5 3059.09   57.49
   0  -1  -5 3001.60   50.79
   0  -1  -5 3056.39   55.69
   0  -1  -5 2982.60   52.09
   0  -1  -5 3011.00   52.59
   0  -1  -5 3146.29   55.09
   0   1   5 2955.40   51.89
   0   1   5 3060.59   56.29
   0   1   5 3080.29   53.29
   0   1   5 3051.99   55.39
  -1  -1  -5 1476.75   29.00
  -1  -1  -5 1482.05   28.80
  -1  -1  -5 1487.65   31.20
  -1  -1  -5 1511.85   28.40
  -1  -1  -5 1498.85   32.70
   1   1   5 1476.55   29.40
   1   1   5 1480.85   29.50
   1   1   5 1427.86   28.80
   1   1   5 1447.46   31.30
  -2  -1  -5 8310.87  129.29
  -2  -1  -5 8354.26  131.29
  -2  -1  -5 8070.19  129.19
  -2  -1  -5 8150.68  129.19
  -2  -1  -5 8357.36  128.89
  -3  -1  -5   95.89    5.60
  -3  -1  -5   91.39    5.90
  -3  -1  -5  104.39    6.70
  -3  -1  -5  107.09    6.40
   3   1   5  106.59    6.50
   3   1   5  101.19    3.10
   3   1   5  106.49    6.20
  -4  -1  -5 1479.95   32.90
  -4  -1  -5 1440.66   26.80
  -4  -1  -5 1411.36   32.40
  -4  -1  -5 1453.75   29.40
  -4  -1  -5 1435.36   29.20
  -4  -1  -5 1411.76   27.60
  -5  -1  -5  210.08    8.80
  -5  -1  -5  227.18   11.50
  -5  -1  -5  238.48    9.30
  -5  -1  -5  232.18    7.40
   5   1   5  231.78    8.20
   5   1   5  208.48   11.60
   5   1   5  228.98   10.70
  -6  -1  -5 2483.85   45.50
  -6  -1  -5 2497.15   48.10
  -6  -1  -5 2569.34   53.19
   6   1   5 2528.35   49.20
   6   1   5 2445.26   54.89
   6   1   5 2524.75   41.90
  -7  -1  -5  383.66   18.00
  -7  -1  -5  380.66   12.50
  -7  -1  -5  393.06   17.50
  -7  -1  -5  372.06   15.10
   7   1   5  402.06   12.20
   7   1   5  416.66   15.10
   7   1   5  425.16   19.90
  -8  -1  -5  368.16   16.30
  -8  -1  -5  373.96   12.30
  -8  -1  -5  384.26   18.90
   8   1   5  365.56   20.00
   8   1   5  359.26   13.10
   8   1   5  351.06   13.90
  -9  -1  -5  285.47   15.60
  -9  -1  -5  275.17   17.30
   9   1   5  305.97   19.70
   9   1   5  274.87   12.80
 -10  -1  -5   -0.60    3.20
 -10  -1  -5   -0.40    3.50
  10   1   5    1.30    2.00
  10   1   5   -0.60    4.00
 -11  -1  -5  134.29   16.00
  11   1   5  112.49   10.10
  11   1   5  118.99   16.80
 -12  -1  -5  677.73   32.20
  12   1   5  615.74   34.40
  12   1   5  621.04   24.80
   9  -2  -5   -1.40    4.80
   9  -2  -5    3.40    4.80
  -9   2   5    8.20    5.70
  -9   2   5    3.00    3.70
   8  -2  -5  376.86   22.10
   8  -2  -5  375.56   24.30
  -8   2   5  333.47   17.90
  -8   2   5  376.46   21.90
   7  -2  -5  939.61   30.50
   7  -2  -5  919.11   33.40
   7  -2  -5  895.41   36.40
  -7   2   5  923.21   33.40
  -7   2   5  869.41   29.00
   6  -2  -5  776.62   28.40
   6  -2  -5  767.02   31.80
   6  -2  -5  818.72   27.40
  -6   2   5  777.22   25.20
  -6   2   5  753.92   28.80
   5  -2  -5   57.99    9.80
   5  -2  -5   65.89    8.90
   5  -2  -5   63.19    8.90
  -5   2   5   45.70    7.90
  -5   2   5   70.89   10.30
   4  -2  -5  103.89    8.80
   4  -2  -5  119.59    4.40
   4  -2  -5  141.49   11.50
   4  -2  -5  106.99    8.80
  -4   2   5   93.29   10.60
  -4   2   5   97.99   10.50
   3  -2  -5 3138.19   64.79
   3  -2  -5 3020.70   61.59
   3  -2  -5 3093.79   57.99
   3  -2  -5 3110.09   47.20
  -3   2   5 3084.59   62.49
  -3   2   5 3030.20   61.39
   2  -2  -5  957.80   27.30
   2  -2  -5 1023.00   16.80
   2  -2  -5  998.10   23.50
   2  -2  -5  975.40   28.40
  -2   2   5 1038.30   27.20
  -2   2   5 1011.70   27.70
   1  -2  -5  855.51   19.10
   1  -2  -5  828.82   15.30
   1  -2  -5  821.72   23.60
   1  -2  -5  846.22   24.20
  -1   2   5  872.51   24.10
  -1   2   5  851.91   23.20
  -1   2   5  855.91   19.70
   0  -2  -5 4030.60   68.99
   0  -2  -5 3888.81   62.79
   0  -2  -5 3991.80   67.49
   0  -2  -5 3985.40   70.89
   0  -2  -5 3904.71   61.39
   0   2   5 3813.82   68.39
   0   2   5 3860.01   62.59
   0   2   5 3873.31   69.49
   0   2   5 3831.72   68.79
  -1  -2  -5   80.49    5.50
  -1  -2  -5   81.69    5.20
  -1  -2  -5   84.59    6.50
  -1  -2  -5   79.29    3.40
  -1  -2  -5   75.89    4.40
   1   2   5   75.29    5.90
   1   2   5   76.59    5.40
   1   2   5   68.19    5.70
   1   2   5   80.29    4.20
   1   2   5   74.19    4.80
  -2  -2  -5 3770.62   64.39
  -2  -2  -5 3796.62   66.19
  -2  -2  -5 3674.83   62.89
   2   2   5 3781.82   65.09
   2   2   5 3851.61   65.99
   2   2   5 3669.53   61.59
  -3  -2  -5  531.35    9.20
  -3  -2  -5  513.45   14.90
  -3  -2  -5  510.55   11.30
  -3  -2  -5  494.75   15.20
  -3  -2  -5  513.95   15.30
  -3  -2  -5  520.15   15.90
   3   2   5  512.85   15.70
  -4  -2  -5  837.42   20.60
  -4  -2  -5  848.42   20.00
  -4  -2  -5  831.12   18.20
  -4  -2  -5  833.42   22.70
  -4  -2  -5  833.92   22.30
   4   2   5  826.92   22.30
   4   2   5  839.62   21.80
  -5  -2  -5 1340.77   32.80
  -5  -2  -5 1394.96   33.70
  -5  -2  -5 1448.06   29.30
  -5  -2  -5 1455.55   30.10
  -5  -2  -5 1400.86   27.60
   5   2   5 1436.86   33.70
   5   2   5 1384.66   25.00
  -6  -2  -5  283.87   13.90
  -6  -2  -5  244.98   10.90
  -6  -2  -5  263.77   13.30
  -6  -2  -5  257.57   10.50
  -6  -2  -5  254.57    7.70
   6   2   5  255.87   11.00
   6   2   5  250.57   13.40
  -7  -2  -5 1400.46   33.40
  -7  -2  -5 1338.37   36.50
  -7  -2  -5 1414.96   30.50
   7   2   5 1380.16   28.30
   7   2   5 1392.56   38.30
   7   2   5 1353.46   30.20
  -8  -2  -5  101.79    8.50
  -8  -2  -5   88.29    6.60
  -8  -2  -5   98.79   11.30
   8   2   5  112.29   13.40
   8   2   5  101.29    6.80
   8   2   5  108.99    6.90
  -9  -2  -5  764.82   28.90
  -9  -2  -5  778.12   26.60
  -9  -2  -5  783.22   21.10
   9   2   5  776.72   22.70
   9   2   5  747.03   30.80
 -10  -2  -5  491.85   23.80
 -10  -2  -5  449.56   21.10
  10   2   5  454.15   25.10
  10   2   5  427.76   17.60
 -11  -2  -5   56.39    9.60
 -11  -2  -5   77.39   12.80
  11   2   5   51.39    7.90
  11   2   5   52.49   11.40
 -12  -2  -5  139.89   16.20
 -12  -2  -5  138.69   17.60
  12   2   5  165.38   21.00
  12   2   5  142.89   11.80
   9  -3  -5  222.18   24.60
   9  -3  -5  212.18   18.50
  -9   3   5  240.88   18.10
  -9   3   5  233.28   16.80
   8  -3  -5  731.23   31.30
   8  -3  -5  686.03   34.00
  -8   3   5  724.43   30.50
  -8   3   5  722.43   28.60
   7  -3  -5  915.31   33.50
   7  -3  -5  947.91   31.30
   7  -3  -5  990.20   39.10
  -7   3   5  919.71   31.30
  -7   3   5  934.71   33.70
   6  -3  -5   72.19   10.00
   6  -3  -5   79.09   12.00
   6  -3  -5   83.29   10.40
  -6   3   5   86.99   12.60
  -6   3   5   91.39   11.60
   5  -3  -5  640.54   27.40
   5  -3  -5  587.24   23.00
   5  -3  -5  613.94   23.10
  -5   3   5  634.24   24.70
  -5   3   5  604.44   25.50
   4  -3  -5   63.19    7.80
   4  -3  -5   74.69   10.30
   4  -3  -5   74.79    9.30
  -4   3   5   57.89    8.90
  -4   3   5   55.99    8.40
   3  -3  -5   14.20    4.60
   3  -3  -5   18.60    4.80
   3  -3  -5   12.60    3.50
  -3   3   5    8.20    4.10
  -3   3   5   16.60    5.00
   2  -3  -5 2506.65   46.10
   2  -3  -5 2572.24   54.99
   2  -3  -5 2445.66   52.49
  -2   3   5 2483.85   52.99
  -2   3   5 2518.75   52.29
   1  -3  -5   32.20    5.40
   1  -3  -5   37.10    3.70
   1  -3  -5   30.50    5.30
   1  -3  -5   38.50    5.00
  -1   3   5   44.90    6.40
  -1   3   5   37.80    4.00
  -1   3   5   33.90    5.90
   0  -3  -5  367.56   12.80
   0  -3  -5  381.16   14.30
   0  -3  -5  364.96    8.80
   0   3   5  380.36    9.00
   0   3   5  385.16   14.40
   0   3   5  369.96   14.90
   0   3   5  372.16    8.50
  -1  -3  -5 4325.97   76.49
  -1  -3  -5 4361.06   73.29
  -1  -3  -5 4313.77   73.99
   1   3   5 4284.87   68.19
   1   3   5 4364.16   75.59
   1   3   5 4234.28   76.29
  -2  -3  -5 2365.36   42.30
  -2  -3  -5 2324.87   43.80
  -2  -3  -5 2399.66   46.10
   2   3   5 2269.77   45.50
   2   3   5 2256.57   45.00
   2   3   5 2296.27   37.20
  -3  -3  -5 2206.98   42.30
  -3  -3  -5 2216.08   43.00
   3   3   5 2243.38   44.60
   3   3   5 2146.59   38.60
  -4  -3  -5    8.70    2.10
  -4  -3  -5    8.00    2.80
  -4  -3  -5   10.70    2.60
  -4  -3  -5    6.20    1.40
   4   3   5   16.30    3.80
   4   3   5    5.10    1.90
  -5  -3  -5 4097.29   75.29
  -5  -3  -5 4127.19   68.59
  -5  -3  -5 4053.19   69.99
  -5  -3  -5 4107.59   71.19
   5   3   5 4199.48   69.79
   5   3   5 4025.90   75.29
   5   3   5 4144.49   73.49
  -6  -3  -5  442.26   14.90
  -6  -3  -5  430.76   11.80
  -6  -3  -5  435.76   17.60
  -6  -3  -5  423.86   15.10
   6   3   5  413.36   17.00
   6   3   5  429.06    8.80
  -7  -3  -5  132.39    8.40
  -7  -3  -5  141.79    9.30
  -7  -3  -5  139.49   10.50
   7   3   5  135.69    7.50
   7   3   5  124.39   10.10
  -8  -3  -5  169.68   12.30
  -8  -3  -5  167.18   11.20
  -8  -3  -5  178.58    9.80
   8   3   5  153.78   12.40
   8   3   5  172.58    8.00
  -9  -3  -5  455.05   16.50
  -9  -3  -5  453.45   21.60
  -9  -3  -5  467.25   20.20
   9   3   5  496.85   24.00
   9   3   5  489.05   17.50
 -10  -3  -5  749.33   29.60
 -10  -3  -5  653.03   26.10
 -10  -3  -5  702.23   21.60
  10   3   5  697.33   23.50
  10   3   5  679.33   30.60
 -11  -3  -5  162.48   13.80
 -11  -3  -5  162.08   17.50
  11   3   5  138.29   17.30
  11   3   5  176.18   12.20
 -12  -3  -5   96.69   13.40
 -12  -3  -5   97.09   13.90
  12   3   5  116.29   12.90
  12   3   5  126.79   18.80
   9  -4  -5  364.46   26.90
   9  -4  -5  301.07   21.80
  -9   4   5  340.07   21.60
  -9   4   5  309.27   20.30
   8  -4  -5   -0.50    4.50
   8  -4  -5   -0.60    4.00
  -8   4   5   -5.00    3.50
  -8   4   5   -3.10    2.80
   7  -4  -5  758.22   30.50
   7  -4  -5  748.83   34.70
   7  -4  -5  742.63   28.20
  -7   4   5  728.63   29.30
   6  -4  -5   12.00    4.90
   6  -4  -5    8.50    4.10
   6  -4  -5   11.80    5.90
  -6   4   5   16.20    6.60
  -6   4   5   15.80    5.90
   5  -4  -5  359.16   21.00
   5  -4  -5  334.87   17.40
   5  -4  -5  354.56   17.10
  -5   4   5  344.47   18.20
  -5   4   5  358.56   20.20
   4  -4  -5  601.44   23.10
   4  -4  -5  587.44   20.70
   4  -4  -5  589.34   25.70
  -4   4   5  572.94   24.50
  -4   4   5  608.24   23.10
   3  -4  -5    2.70    2.10
   3  -4  -5   -1.80    2.40
   3  -4  -5    0.80    2.20
   3  -4  -5    1.80    2.80
  -3   4   5   -1.90    2.10
  -3   4   5   -2.80    3.40
   2  -4  -5  212.48   12.40
   2  -4  -5  182.78    8.70
   2  -4  -5  177.58   12.10
   2  -4  -5  193.18   11.50
  -2   4   5  191.98   11.40
  -2   4   5  186.88   13.00
   1  -4  -5  728.83   22.70
   1  -4  -5  723.63   16.40
   1  -4  -5  740.73   23.60
   1  -4  -5  727.63   24.20
   1  -4  -5  701.03   19.50
  -1   4   5  700.13   22.10
  -1   4   5  701.73   23.80
   0  -4  -5 1433.26   31.30
   0  -4  -5 1439.96   23.50
   0  -4  -5 1487.05   35.60
   0  -4  -5 1458.65   35.20
   0   4   5 1451.05   24.30
   0   4   5 1474.65   36.30
   0   4   5 1455.25   33.90
  -1  -4  -5 1725.83   35.80
  -1  -4  -5 1821.02   39.80
  -1  -4  -5 1719.23   38.20
   1   4   5 1754.62   40.00
   1   4   5 1796.42   38.30
   1   4   5 1715.33   31.00
  -2  -4  -5  290.57   11.50
  -2  -4  -5  294.87   12.90
  -2  -4  -5  328.87   12.50
   2   4   5  305.17   12.70
   2   4   5  321.77   14.00
  -3  -4  -5 3187.08   59.69
  -3  -4  -5 3340.47   58.89
  -3  -4  -5 3199.08   56.99
   3   4   5 3188.78   51.59
   3   4   5 3225.48   61.69
  -4  -4  -5   12.30    2.80
  -4  -4  -5    7.20    2.60
  -4  -4  -5   12.60    3.20
   4   4   5    9.40    3.30
   4   4   5   10.30    2.40
  -5  -4  -5 1405.16   31.30
  -5  -4  -5 1372.36   31.60
  -5  -4  -5 1380.76   29.90
   5   4   5 1351.16   34.40
   5   4   5 1392.06   31.40
  -6  -4  -5 2658.93   47.50
  -6  -4  -5 2535.15   50.99
  -6  -4  -5 2644.84   51.99
   6   4   5 2684.63   56.49
   6   4   5 2646.14   53.79
   6   4   5 2524.55   45.10
  -7  -4  -5  999.40   28.00
  -7  -4  -5 1040.10   30.60
  -7  -4  -5  960.10   26.10
  -7  -4  -5  984.90   21.00
   7   4   5  931.01   29.20
  -8  -4  -5 1078.79   28.50
  -8  -4  -5 1083.99   33.20
  -8  -4  -5 1070.89   31.30
   8   4   5 1085.29   23.50
   8   4   5 1039.70   33.50
  -9  -4  -5    9.70    4.40
  -9  -4  -5   11.30    3.70
  -9  -4  -5    3.50    3.80
   9   4   5   13.70    5.20
 -10  -4  -5 1156.28   36.10
 -10  -4  -5 1097.39   36.90
 -10  -4  -5 1118.69   30.60
  10   4   5 1148.59   39.80
 -11  -4  -5   11.80    5.60
 -11  -4  -5   25.40    7.10
  11   4   5   30.10    9.00
 -12  -4  -5   20.80    7.00
 -12  -4  -5   22.60    7.80
  12   4   5   21.50    8.50
   8  -5  -5  187.08   19.40
   8  -5  -5  210.88   24.80
  -8   5   5  185.08   20.60
  -8   5   5  225.58   17.70
   7  -5  -5  124.69   14.60
   7  -5  -5  132.39   17.90
   7  -5  -5  151.88   13.40
  -7   5   5  166.98   14.10
   6  -5  -5  248.78   16.30
   6  -5  -5  296.07   17.40
   6  -5  -5  268.87   20.40
  -6   5   5  276.47   20.00
  -6   5   5  254.87   15.90
   5  -5  -5  278.77   15.70
   5  -5  -5  287.17   16.70
   5  -5  -5  273.57   19.30
   5  -5  -5  276.07   15.80
  -5   5   5  262.67   15.80
  -5   5   5  268.37   18.50
   4  -5  -5 1507.85   40.00
   4  -5  -5 1448.66   45.10
   4  -5  -5 1463.15   37.00
   4  -5  -5 1390.86   40.10
  -4   5   5 1524.45   44.70
  -4   5   5 1437.96   38.90
   3  -5  -5  767.72   26.90
   3  -5  -5  776.52   26.40
   3  -5  -5  775.82   29.40
   3  -5  -5  813.22   23.20
  -3   5   5  743.03   28.60
  -3   5   5  742.43   25.40
   2  -5  -5    3.20    2.90
   2  -5  -5    2.80    2.00
   2  -5  -5    4.80    2.50
   2  -5  -5    2.50    2.80
   2  -5  -5    4.20    3.00
  -2   5   5   13.50    4.50
  -2   5   5    3.50    4.50
   1  -5  -5  372.96   16.90
   1  -5  -5  322.47   15.40
   1  -5  -5  344.07   17.10
   1  -5  -5  358.66   13.30
   1  -5  -5  356.26   10.70
  -1   5   5  380.76   18.30
  -1   5   5  371.46   15.70
   0  -5  -5  106.49    8.70
   0  -5  -5  101.59    8.90
   0  -5  -5   93.09    8.20
   0  -5  -5  103.29    3.70
   0  -5  -5  103.89    7.00
   0   5   5  104.59    8.00
   0   5   5   90.29   10.00
   0   5   5  104.19    4.20
  -1  -5  -5 3131.39   57.29
  -1  -5  -5 3065.39   61.89
  -1  -5  -5 3050.49   60.59
  -1  -5  -5 3101.39   61.99
   1   5   5 3119.79   63.29
   1   5   5 3179.38   59.79
  -2  -5  -5  979.20   24.60
  -2  -5  -5 1002.30   27.20
  -2  -5  -5  933.51   26.00
  -2  -5  -5  925.41   26.10
   2   5   5  987.20   26.10
   2   5   5  935.01   27.90
  -3  -5  -5  444.36   15.70
  -3  -5  -5  443.86   16.60
   3   5   5  462.35   10.00
   3   5   5  464.65   18.10
  -4  -5  -5 2371.86   48.10
  -4  -5  -5 2439.66   48.70
   4   5   5 2411.36   51.49
   4   5   5 2415.56   42.40
  -5  -5  -5  349.37   14.30
  -5  -5  -5  321.07   13.70
  -5  -5  -5  360.66   13.80
   5   5   5  326.97   12.40
   5   5   5  350.56   16.20
  -6  -5  -5 1119.99   27.00
  -6  -5  -5 1131.69   29.70
  -6  -5  -5 1158.28   30.30
   6   5   5 1156.98   33.10
   6   5   5 1134.09   29.20
  -7  -5  -5   37.50    6.60
  -7  -5  -5   32.30    5.70
  -7  -5  -5   41.60    5.30
   7   5   5   32.00    6.10
   7   5   5   35.70    7.10
  -8  -5  -5 1612.74   41.60
  -8  -5  -5 1654.63   39.60
   8   5   5 1655.23   45.00
   8   5   5 1623.34   43.10
  -9  -5  -5   93.09   11.80
  -9  -5  -5   91.59   11.50
  -9  -5  -5   89.79    9.70
   9   5   5  101.99   12.80
 -10  -5  -5  140.39   10.70
 -10  -5  -5  153.58   13.10
 -10  -5  -5  138.29   15.10
  10   5   5  150.98   16.50
 -11  -5  -5  107.09   11.70
 -11  -5  -5  104.29   14.00
 -11  -5  -5   92.99   13.00
  11   5   5   95.99   14.20
 -12  -5  -5  160.68   18.60
 -12  -5  -5  173.98   18.50
  12   5   5  164.88   19.60
   7  -6  -5    7.00    5.00
   7  -6  -5    7.60    5.50
   7  -6  -5   -0.70    4.70
  -7   6   5    4.20    5.10
   6  -6  -5  463.65   27.60
   6  -6  -5  493.25   23.10
   6  -6  -5  488.75   23.20
   6  -6  -5  461.25   23.30
  -6   6   5  503.85   22.50
  -6   6   5  481.75   27.50
   5  -6  -5    3.70    3.60
   5  -6  -5    8.00    4.60
   5  -6  -5    1.00    3.10
   5  -6  -5    3.50    4.80
  -5   6   5    8.80    4.40
  -5   6   5    1.20    3.50
   4  -6  -5  619.04   22.40
   4  -6  -5  568.44   24.70
   4  -6  -5  606.44   28.40
   4  -6  -5  623.54   25.30
  -4   6   5  561.24   26.90
  -4   6   5  580.84   22.80
   3  -6  -5  197.08   11.00
   3  -6  -5  199.38   14.00
   3  -6  -5  190.98   15.30
   3  -6  -5  194.78   13.80
  -3   6   5  190.98   12.40
  -3   6   5  211.38   15.80
   2  -6  -5  336.17   12.90
   2  -6  -5  331.47   18.80
   2  -6  -5  337.77   17.60
   2  -6  -5  311.97   17.10
   2  -6  -5  339.67   13.30
  -2   6   5  325.17   15.70
  -2   6   5  332.07   19.20
   1  -6  -5  669.13   26.10
   1  -6  -5  643.74   24.20
   1  -6  -5  599.54   23.20
   1  -6  -5  621.94   19.10
   1  -6  -5  646.54   16.40
  -1   6   5  617.74   21.50
  -1   6   5  622.44   12.60
  -1   6   5  658.23   26.00
   0  -6  -5  439.36   19.00
   0  -6  -5  436.66   10.60
   0  -6  -5  421.06   18.60
   0  -6  -5  472.75   20.60
   0  -6  -5  429.36   15.40
   0  -6  -5  415.96   10.40
   0   6   5  449.26   17.20
   0   6   5  426.86   20.10
  -1  -6  -5 1050.39   31.10
  -1  -6  -5  978.50   25.60
  -1  -6  -5  984.30   29.20
   1   6   5  994.50   31.30
   1   6   5  954.70   26.90
  -2  -6  -5  647.24   19.80
  -2  -6  -5  658.83   22.10
   2   6   5  619.94   20.50
   2   6   5  594.34   23.20
  -3  -6  -5  231.98    6.70
  -3  -6  -5  233.48   11.60
  -3  -6  -5  212.18   11.90
   3   6   5  238.48   14.20
  -4  -6  -5 2889.11   50.39
   4   6   5 3028.60   62.49
   4   6   5 2929.51   50.19
  -5  -6  -5   23.60    5.10
   5   6   5   18.00    5.50
   5   6   5   26.40    4.30
  -6  -6  -5 1713.63   40.00
  -6  -6  -5 1663.93   40.40
   6   6   5 1608.34   36.60
   6   6   5 1595.94   42.40
  -7  -6  -5  320.37   15.40
  -7  -6  -5  311.77   15.80
  -7  -6  -5  302.27   13.00
   7   6   5  312.17   17.20
   7   6   5  284.67   14.30
  -8  -6  -5  751.82   25.60
  -8  -6  -5  772.02   27.60
  -8  -6  -5  851.21   22.20
   8   6   5  813.52   27.50
   8   6   5  786.92   29.50
  -9  -6  -5 1072.99   34.80
  -9  -6  -5 1098.39   32.50
   9   6   5 1132.49   37.80
   9   6   5 1071.79   35.40
 -10  -6  -5   38.10    7.60
 -10  -6  -5   49.20    9.30
  10   6   5   31.90    8.50
  10   6   5   43.60    9.30
 -11  -6  -5  211.88   14.30
 -11  -6  -5  244.08   17.40
  11   6   5  233.78   18.50
  11   6   5  204.68   21.10
 -12  -6  -5    6.80    5.00
 -12  -6  -5    5.50    6.10
  12   6   5   -5.50    4.20
   7  -7  -5   33.20   10.30
   7  -7  -5   18.90    7.00
  -7   7   5   20.10    8.50
   6  -7  -5  488.75   24.80
   6  -7  -5  494.05   30.00
   6  -7  -5  478.75   24.90
  -6   7   5  482.15   29.00
   5  -7  -5 1012.90   36.40
   5  -7  -5  968.10   32.90
   5  -7  -5 1037.30   42.30
   5  -7  -5 1049.59   36.90
  -5   7   5 1000.80   40.20
  -5   7   5  988.00   34.00
   4  -7  -5    6.50    3.80
   4  -7  -5    4.10    4.90
   4  -7  -5    5.70    3.60
   4  -7  -5    3.50    4.20
  -4   7   5    0.20    2.80
  -4   7   5    1.30    4.40
   3  -7  -5  277.87   17.40
   3  -7  -5  301.47   20.10
   3  -7  -5  315.47   14.70
   3  -7  -5  383.96   20.40
  -3   7   5  319.37   20.20
  -3   7   5  337.37   16.50
   2  -7  -5   37.70    7.60
   2  -7  -5   24.70    6.90
   2  -7  -5   48.70    6.20
   2  -7  -5   38.10    5.80
   2  -7  -5   23.90    6.60
  -2   7   5   58.79    8.70
  -2   7   5   36.60    8.50
   1  -7  -5 1133.09   35.30
   1  -7  -5 1138.29   25.80
   1  -7  -5 1131.89   28.60
   1  -7  -5 1210.88   38.70
   1  -7  -5 1095.99   35.00
  -1   7   5 1151.38   37.70
  -1   7   5 1153.48   31.60
  -1   7   5 1115.09   22.50
   0  -7  -5  682.93   27.40
   0  -7  -5  685.63   21.10
   0  -7  -5  697.13   25.90
   0  -7  -5  690.03   16.30
   0   7   5  725.13   23.30
   0   7   5  710.93   27.90
  -1  -7  -5   16.00    5.30
  -1  -7  -5   16.30    5.70
  -1  -7  -5   20.90    2.50
  -1  -7  -5   12.50    3.70
   1   7   5   20.20    4.80
   1   7   5   16.80    6.30
  -2  -7  -5  341.37   16.90
  -2  -7  -5  356.66   14.90
  -2  -7  -5  355.76    8.70
   2   7   5  365.86   15.70
   2   7   5  361.66   19.00
  -3  -7  -5   27.50    3.20
  -3  -7  -5   24.60    5.80
  -3  -7  -5   30.60    5.50
   3   7   5   22.10    6.40
  -4  -7  -5 1032.90   29.30
  -4  -7  -5 1063.49   29.90
   4   7   5 1070.39   33.10
   4   7   5 1060.79   23.20
  -5  -7  -5 1643.24   40.20
   5   7   5 1678.23   44.10
   5   7   5 1608.44   34.10
  -6  -7  -5  457.45   19.20
  -6  -7  -5  449.16   19.80
   6   7   5  472.45   21.40
   6   7   5  466.15   16.70
  -7  -7  -5  438.86   19.00
  -7  -7  -5  377.16   18.80
   7   7   5  368.36   19.70
   7   7   5  384.36   16.60
  -8  -7  -5   66.89    9.20
  -8  -7  -5   63.59    9.70
   8   7   5   69.39    9.40
   8   7   5   80.39   11.50
  -9  -7  -5  969.50   31.60
  -9  -7  -5  963.80   34.00
   9   7   5  946.81   35.40
   9   7   5 1027.60   33.30
 -10  -7  -5   12.20    5.40
 -10  -7  -5   18.80    6.50
  10   7   5   11.30    5.80
  10   7   5   19.40    6.40
 -11  -7  -5  236.58   18.00
 -11  -7  -5  240.58   16.10
  11   7   5  254.07   19.00
  11   7   5  221.38   17.90
 -12  -7  -5  146.49   17.70
 -12  -7  -5  164.28   16.40
  12   7   5  142.89   18.00
  12   7   5  138.09   18.50
   6  -8  -5  410.46   28.90
   6  -8  -5  466.15   25.60
   6  -8  -5  424.56   24.80
  -6   8   5  432.86   28.10
   5  -8  -5  473.35   25.70
   5  -8  -5  453.05   24.70
   5  -8  -5  482.35   29.30
  -5   8   5  450.45   27.80
   4  -8  -5   -0.20    3.70
   4  -8  -5    7.10    4.50
   4  -8  -5    7.40    5.60
  -4   8   5   13.90    6.40
   3  -8  -5  775.62   31.50
   3  -8  -5  787.62   31.60
   3  -8  -5  840.92   35.80
  -3   8   5  743.43   25.70
  -3   8   5  775.52   33.90
   2  -8  -5    4.80    4.30
   2  -8  -5    2.00    2.50
   2  -8  -5    3.10    3.90
   2  -8  -5   -2.30    2.70
  -2   8   5   -0.40    3.10
  -2   8   5    4.50    4.90
   1  -8  -5  156.18   16.00
   1  -8  -5  164.18    9.90
   1  -8  -5  158.28   14.40
   1  -8  -5  148.49   13.00
  -1   8   5  152.88   16.50
  -1   8   5  130.59   10.30
   0  -8  -5 1082.99   35.90
   0  -8  -5 1132.59   29.70
   0  -8  -5 1165.48   39.40
   0   8   5 1168.88   31.80
   0   8   5 1079.99   37.10
  -1  -8  -5   -1.10    2.80
  -1  -8  -5    3.60    4.00
  -1  -8  -5    4.50    2.90
   1   8   5   -0.40    2.30
   1   8   5   11.60    5.90
  -2  -8  -5  550.94   23.10
  -2  -8  -5  510.05   19.40
   2   8   5  527.45   24.40
   2   8   5  550.94   20.30
  -3  -8  -5  654.63   24.80
  -3  -8  -5  653.83   22.50
   3   8   5  634.34   26.60
  -4  -8  -5  833.62   27.00
  -4  -8  -5  902.11   28.80
   4   8   5  858.51   31.10
  -5  -8  -5  247.58   14.20
  -5  -8  -5  261.57   14.20
   5   8   5  244.38   11.10
   5   8   5  261.67   16.60
  -6  -8  -5    1.20    3.30
  -6  -8  -5   -0.70    3.00
   6   8   5    2.10    2.70
   6   8   5    2.20    4.00
  -7  -8  -5 1539.95   43.90
  -7  -8  -5 1554.44   41.80
   7   8   5 1562.84   45.30
   7   8   5 1575.44   38.40
  -8  -8  -5   25.50    6.40
  -8  -8  -5   31.30    7.70
   8   8   5   33.30    7.10
   8   8   5   38.00    8.20
  -9  -8  -5   87.99   12.70
  -9  -8  -5   81.59   11.10
   9   8   5   68.79   12.00
   9   8   5   85.09   11.30
 -10  -8  -5  409.66   23.20
 -10  -8  -5  381.56   20.60
  10   8   5  419.86   24.30
  10   8   5  410.46   22.00
 -11  -8  -5  371.46   20.90
 -11  -8  -5  338.07   22.30
  11   8   5  374.96   22.70
  11   8   5  367.66   23.50
   5  -9  -5  728.63   38.20
   5  -9  -5  603.54   31.20
   5  -9  -5  726.83   33.00
  -5   9   5  715.63   36.60
   4  -9  -5   91.89   14.50
   4  -9  -5   60.39   12.30
   4  -9  -5   62.49   13.90
  -4   9   5   59.49   12.90
   3  -9  -5  149.59   17.60
   3  -9  -5  116.39   16.70
   3  -9  -5  154.28   17.90
  -3   9   5  147.79   17.90
   2  -9  -5  790.42   33.10
   2  -9  -5  818.42   33.20
   2  -9  -5  777.62   35.70
  -2   9   5  774.22   33.90
   1  -9  -5  107.49   10.20
   1  -9  -5   90.79   14.20
   1  -9  -5   79.89   11.60
  -1   9   5   81.29    9.80
  -1   9   5   75.69   12.30
   0  -9  -5   23.80    7.80
   0  -9  -5   21.60    7.90
   0  -9  -5   19.80    5.00
   0   9   5   15.40    7.40
   0   9   5   20.40    5.70
  -1  -9  -5    5.50    3.30
  -1  -9  -5    3.90    4.20
  -1  -9  -5    5.90    4.60
   1   9   5    1.10    5.10
   1   9   5    7.10    3.80
  -2  -9  -5  688.03   27.80
  -2  -9  -5  639.14   23.20
   2   9   5  698.83   24.10
   2   9   5  687.53   29.10
  -3  -9  -5  450.45   19.20
  -3  -9  -5  433.66   21.20
   3   9   5  413.96   18.80
   3   9   5  443.16   23.10
  -4  -9  -5  161.98   11.80
  -4  -9  -5  163.88   12.90
   4   9   5  144.29   15.50
  -5  -9  -5  502.35   21.70
  -5  -9  -5  512.05   21.70
   5   9   5  483.45   24.20
  -6  -9  -5   -0.80    2.90
  -6  -9  -5    1.30    2.80
   6   9   5   -1.80    2.40
   6   9   5    2.90    3.80
  -7  -9  -5  410.16   20.30
  -7  -9  -5  431.46   22.30
   7   9   5  347.27   20.90
   7   9   5  378.96   17.00
  -8  -9  -5  764.72   29.20
  -8  -9  -5  778.62   31.70
   8   9   5  737.13   26.40
   8   9   5  773.02   32.10
  -9  -9  -5  149.29   15.70
  -9  -9  -5  138.69   16.60
   9   9   5  182.28   14.10
   9   9   5  173.28   19.10
 -10  -9  -5  105.99   15.30
 -10  -9  -5   89.79   12.50
  10   9   5   75.39   11.90
  10   9   5   93.89   14.80
 -11  -9  -5   -1.10    4.50
 -11  -9  -5    7.30    4.90
  11   9   5   -8.30    4.50
  11   9   5   -3.80    4.40
   4 -10  -5  242.58   20.50
   4 -10  -5  200.08   24.30
   4 -10  -5  210.28   22.50
  -4  10   5  223.88   24.40
   3 -10  -5  265.07   20.40
   3 -10  -5  229.98   19.30
   3 -10  -5  180.88   22.00
  -3  10   5  195.58   21.90
   2 -10  -5  415.56   27.40
   2 -10  -5  494.65   27.10
   2 -10  -5  419.26   25.40
  -2  10   5  454.35   26.90
   1 -10  -5  222.98   14.50
   1 -10  -5  205.18   17.80
   1 -10  -5  219.08   19.40
  -1  10   5  270.77   20.60
   0 -10  -5  243.08   13.60
   0 -10  -5  266.67   19.40
   0 -10  -5  257.57   20.60
   0  10   5  245.68   19.00
  -1 -10  -5  124.49   15.00
  -1 -10  -5  133.99   17.10
  -1 -10  -5  151.28   11.00
   1  10   5  185.08   19.60
   1  10   5  137.99   10.80
  -2 -10  -5  109.39   11.60
  -2 -10  -5  105.99   14.10
   2  10   5  113.79   11.80
   2  10   5  114.09   14.90
  -3 -10  -5  448.56   23.10
  -3 -10  -5  459.95   20.40
   3  10   5  498.05   20.70
   3  10   5  478.65   25.60
  -4 -10  -5   41.80    8.70
  -4 -10  -5   27.30    6.60
   4  10   5   31.30    8.80
  -5 -10  -5  165.08   13.80
  -5 -10  -5  173.28   16.70
   5  10   5  154.68   17.00
  -6 -10  -5   73.49   10.50
  -6 -10  -5   64.19    9.60
   6  10   5   84.89   12.90
  -7 -10  -5    2.50    4.60
  -7 -10  -5   -2.00    3.20
   7  10   5   -0.90    4.20
  -8 -10  -5  541.05   25.40
  -8 -10  -5  488.05   26.20
   8  10   5  560.94   27.90
  -9 -10  -5    8.20    5.90
  -9 -10  -5   -0.10    4.50
   9  10   5   11.70    6.70
 -10 -10  -5  431.86   23.90
 -10 -10  -5  465.05   27.20
  10  10   5  436.16   26.50
   2 -11  -5  154.78   19.50
   2 -11  -5  137.29   18.40
   2 -11  -5  127.19   19.30
  -2  11   5  130.79   17.80
   1 -11  -5  187.98   23.60
   1 -11  -5  166.08   19.80
  -1  11   5  192.18   21.90
   0 -11  -5  165.38   19.40
   0 -11  -5  117.09   18.40
   0 -11  -5  175.28   12.40
   0  11   5  164.98   19.10
  -1 -11  -5  179.48   21.40
  -1 -11  -5  216.68   18.60
  -1 -11  -5  197.18   13.30
   1  11   5  175.68   19.30
  -2 -11  -5    3.30    4.60
  -2 -11  -5   -0.50    3.20
   2  11   5    5.70    4.30
   2  11   5    4.40    5.80
  -3 -11  -5   92.89   12.10
  -3 -11  -5  104.99   14.60
   3  11   5   94.79   11.40
   3  11   5   79.49   12.70
  -4 -11  -5  124.89   14.90
  -4 -11  -5  101.39   12.40
   4  11   5  111.29   15.50
   4  11   5  107.49   12.80
  -5 -11  -5   40.10    8.40
  -5 -11  -5   36.70    8.90
   5  11   5   48.60   10.80
  -6 -11  -5  308.17   19.10
  -6 -11  -5  293.77   18.30
   6  11   5  344.97   22.80
  -7 -11  -5  104.19   15.20
  -7 -11  -5  113.99   14.20
   7  11   5  105.69   16.00
  -8 -11  -5  107.79   14.70
  -8 -11  -5  116.79   17.10
   8  11   5  114.79   15.90
  -9 -11  -5   55.29   12.10
  -9 -11  -5   49.00   10.20
   9  11   5   31.20   10.10
   0 -12  -5    2.20    6.20
   0 -12  -5   12.80    7.80
   0  12   5    1.90    6.90
  -1 -12  -5  663.53   26.00
  -1 -12  -5  653.83   33.50
  -1 -12  -5  666.63   36.50
   1  12   5  648.94   33.30
  -2 -12  -5   26.40    7.00
  -2 -12  -5   23.40    8.50
   2  12   5   22.00    8.70
  -3 -12  -5    1.90    4.10
  -3 -12  -5    3.00    5.40
   3  12   5   -5.10    4.90
  -4 -12  -5   34.90    9.30
  -4 -12  -5   16.30    5.70
   4  12   5   33.60   12.20
   4  12   5   32.50   10.50
  -5 -12  -5   61.19   10.60
  -5 -12  -5   70.29   12.60
   5  12   5   71.19   13.60
   5  12   5   82.79   11.50
  -6 -12  -5  124.19   15.80
  -6 -12  -5  105.89   13.80
   6  12   5  105.99   16.60
  -7 -12  -5  262.77   21.10
  -7 -12  -5  303.87   20.50
   7  12   5  328.17   23.90
   4   9  -6  105.59   15.90
  -4  -9   6  102.99   15.20
  -4  -9   6   92.29   14.50
   3   9  -6   30.50    9.10
  -3  -9   6   52.59   11.10
  -3  -9   6   31.50    9.30
   2   9  -6  438.66   25.90
  -2  -9   6  395.36   25.10
   1   9  -6   52.29   11.30
  -1  -9   6   50.99   11.80
   0   9  -6   85.19   14.30
   0   9  -6   89.29   14.50
   0  -9   6   72.39   14.10
  -1   9  -6  176.08   20.00
  -1   9  -6  196.68   21.00
   1  -9   6  204.98   23.60
  -2   9  -6  141.89   18.50
  -2   9  -6  161.18   19.00
   2  -9   6  125.39   19.10
   6   8  -6  251.77   19.60
   6   8  -6  237.78   20.70
  -6  -8   6  194.78   20.50
   5   8  -6   46.80   10.50
   5   8  -6   29.90    9.10
  -5  -8   6   53.29   10.60
  -5  -8   6   51.09   10.70
   4   8  -6   29.30    8.50
  -4  -8   6   17.80    7.10
  -4  -8   6   32.80    8.40
   3   8  -6   72.59   12.90
  -3  -8   6   75.79   12.30
  -3  -8   6   55.99   10.20
   2   8  -6  213.68   20.90
  -2  -8   6  233.18   18.40
   1   8  -6  541.05   26.90
  -1  -8   6  519.55   27.50
   0   8  -6    2.30    4.50
   0   8  -6    4.50    4.50
   0  -8   6    1.10    4.90
  -1   8  -6  201.78   20.10
  -1   8  -6  189.08   18.70
   1  -8   6  188.68   20.50
  -2   8  -6    5.90    5.60
  -2   8  -6    7.10    5.40
   2  -8   6    8.70    6.70
  -3   8  -6  446.26   22.40
  -3   8  -6  488.45   25.30
  -3   8  -6  472.85   25.80
   3  -8   6  464.95   28.30
  -4   8  -6  160.18   18.30
  -4   8  -6  170.68   18.60
  -4   8  -6  157.38   16.40
   4  -8   6  161.68   20.80
   7   7  -6   46.90   10.20
   7   7  -6   24.50    8.90
  -7  -7   6   65.89   12.30
   6   7  -6  166.88   19.80
   6   7  -6  135.89   16.50
  -6  -7   6  146.39   17.00
   5   7  -6  269.17   18.70
   5   7  -6  257.37   20.10
  -5  -7   6  285.67   17.80
  -5  -7   6  258.97   18.20
  -5  -7   6  237.28   16.30
   4   7  -6  149.79   18.10
   4   7  -6  119.19   14.70
  -4  -7   6  105.79   13.70
  -4  -7   6  137.59   14.40
  -4  -7   6  158.98   17.00
   3   7  -6   93.99   13.30
  -3  -7   6   72.19   11.20
  -3  -7   6  100.39   13.50
   2   7  -6    2.80    5.00
  -2  -7   6   10.60    5.70
  -2  -7   6   -1.70    2.80
   1   7  -6 1138.59   38.70
  -1  -7   6 1131.29   40.10
   0   7  -6   48.30    9.10
   0  -7   6   45.90   10.30
  -1   7  -6  133.69   14.80
  -1   7  -6  162.08   17.00
   1  -7   6  158.18   17.60
  -2   7  -6  240.18   16.60
  -2   7  -6  262.47   14.70
  -2   7  -6  243.68   17.50
   2  -7   6  250.87   19.40
  -3   7  -6  351.36   20.10
  -3   7  -6  362.66   18.40
  -3   7  -6  346.07   20.80
   3  -7   6  342.07   22.80
  -4   7  -6  164.48   13.50
  -4   7  -6  149.99   16.80
  -4   7  -6  141.39   15.30
   4  -7   6  151.28   19.10
  -5   7  -6   13.50    6.90
  -5   7  -6   20.40    6.50
  -5   7  -6   11.50    5.60
   5  -7   6    6.00    6.10
  -6   7  -6  326.77   20.90
  -6   7  -6  325.37   19.50
  -6   7  -6  269.67   19.80
   6  -7   6  253.17   21.00
   6  -7   6  254.07   19.70
   8   6  -6   83.59   13.30
   8   6  -6   41.20   11.60
  -8  -6   6   52.89   11.50
  -8  -6   6   50.19   11.10
   7   6  -6   46.10   10.30
   7   6  -6   36.80    9.80
  -7  -6   6   35.30    9.30
  -7  -6   6   27.40    7.90
   6   6  -6  163.28   19.70
   6   6  -6  168.38   17.40
  -6  -6   6  145.69   16.80
  -6  -6   6  149.59   16.60
   5   6  -6  135.59   16.80
   5   6  -6  113.49   14.60
  -5  -6   6  124.19   14.70
  -5  -6   6  119.99   13.00
  -5  -6   6  118.49   13.90
   4   6  -6   49.90    9.60
   4   6  -6   21.80    8.20
  -4  -6   6   32.70    7.40
  -4  -6   6   27.00    7.00
  -4  -6   6   31.10    7.40
   3   6  -6  693.03   28.30
  -3  -6   6  691.13   27.50
  -3  -6   6  666.93   25.90
  -3  -6   6  674.73   24.80
   2   6  -6   52.39    9.50
  -2  -6   6   63.79    8.70
  -2  -6   6   63.99   10.70
  -2  -6   6   65.69    9.70
   1   6  -6  203.08   14.70
  -1  -6   6  192.98   15.00
  -1  -6   6  192.28   10.70
   0   6  -6  886.61   31.60
   0  -6   6  834.42   32.30
  -1   6  -6  869.61   24.60
  -1   6  -6  855.51   31.40
  -1   6  -6  822.22   30.10
   1  -6   6  827.02   33.00
  -2   6  -6  690.23   23.20
  -2   6  -6  694.33   27.30
  -2   6  -6  674.63   28.00
   2  -6   6  703.93   30.50
  -3   6  -6  129.09   10.70
  -3   6  -6  132.99   13.80
  -3   6  -6  126.89   14.80
   3  -6   6  128.49   16.30
  -4   6  -6  610.94   27.40
  -4   6  -6  647.04   26.30
  -4   6  -6  644.04   25.70
   4  -6   6  670.83   30.70
  -5   6  -6   16.50    5.90
  -5   6  -6   15.70    5.70
  -5   6  -6   -4.50    3.10
   5  -6   6    6.20    5.30
  -6   6  -6   69.69   12.40
  -6   6  -6   63.99   10.10
  -6   6  -6   92.79   13.00
   6  -6   6   79.09   12.40
   6  -6   6   67.89   12.60
  -7   6  -6  320.77   21.40
  -7   6  -6  346.17   21.90
   7  -6   6  308.87   20.20
   7  -6   6  375.46   24.40
   8   5  -6  352.76   25.30
   8   5  -6  312.37   19.60
   8   5  -6  315.07   23.30
  -8  -5   6  333.47   22.90
  -8  -5   6  334.87   21.90
   7   5  -6  176.88   17.80
   7   5  -6  157.48   19.60
   7   5  -6  159.88   18.70
  -7  -5   6  178.98   15.40
  -7  -5   6  160.78   18.90
   6   5  -6   -3.50    4.90
   6   5  -6    2.20    4.70
   6   5  -6    2.70    2.90
  -6  -5   6    5.20    3.90
  -6  -5   6    3.10    3.80
   5   5  -6  195.18   14.80
   5   5  -6  214.58   17.20
  -5  -5   6  235.48   16.20
  -5  -5   6  208.98   14.70
  -5  -5   6  222.68   13.90
   4   5  -6   49.30    9.20
   4   5  -6   43.10    9.00
  -4  -5   6   48.60    8.60
  -4  -5   6   48.30    8.50
  -4  -5   6   52.99    8.60
   3   5  -6  321.67   18.20
   3   5  -6  301.47   19.10
  -3  -5   6  301.47   16.00
  -3  -5   6  296.27   16.80
  -3  -5   6  304.87   16.40
   2   5  -6 1392.76   40.40
  -2  -5   6 1429.36   36.80
  -2  -5   6 1407.16   40.60
  -2  -5   6 1432.46   37.60
   1   5  -6    4.00    3.90
  -1  -5   6    7.60    4.20
  -1  -5   6    6.10    3.00
   0   5  -6  255.57   10.00
   0   5  -6  260.67   15.80
   0  -5   6  248.88   11.30
   0  -5   6  262.77   16.60
  -1   5  -6   10.90    3.20
  -1   5  -6    5.70    4.00
  -1   5  -6   11.50    4.90
   1  -5   6   22.20    3.70
   1  -5   6    4.40    4.30
  -2   5  -6 2843.92   62.29
  -2   5  -6 2828.82   64.19
  -2   5  -6 2810.32   56.19
   2  -5   6 2706.53   65.89
  -3   5  -6   10.60    4.90
  -3   5  -6   18.30    5.10
  -3   5  -6   19.90    6.00
   3  -5   6   16.10    6.00
  -4   5  -6  200.28   14.70
  -4   5  -6  222.68   14.00
  -4   5  -6  232.88   14.30
   4  -5   6  208.38   16.10
  -5   5  -6  364.46   18.10
  -5   5  -6  397.36   19.80
  -5   5  -6  341.57   19.80
   5  -5   6  354.96   21.50
  -6   5  -6  547.65   22.20
  -6   5  -6  528.25   24.50
  -6   5  -6  540.35   25.70
   6  -5   6  579.14   28.00
   6  -5   6  501.15   23.70
  -7   5  -6   74.69   12.20
  -7   5  -6   87.59   13.50
   7  -5   6   83.19   13.70
   7  -5   6   79.79   11.70
  -8   5  -6   92.39   14.60
  -8   5  -6   63.79   12.00
   8  -5   6   72.79   12.70
   8  -5   6   61.99   13.40
   8  -5   6   69.29   11.50
   9   4  -6    7.30    6.80
   9   4  -6   11.70    7.50
  -9  -4   6   35.00   10.80
  -9  -4   6   20.60    7.80
   8   4  -6  114.99   18.00
   8   4  -6  163.08   19.50
   8   4  -6  129.39   15.10
  -8  -4   6  153.68   18.90
  -8  -4   6  152.78   17.70
   7   4  -6  685.33   31.60
   7   4  -6  695.53   33.80
   7   4  -6  664.43   27.30
  -7  -4   6  681.33   29.10
  -7  -4   6  627.74   29.80
   6   4  -6   -6.50    3.30
   6   4  -6    3.80    4.10
   6   4  -6    0.00    3.50
  -6  -4   6    3.40    3.60
  -6  -4   6    4.10    4.10
  -6  -4   6    0.00    2.40
   5   4  -6   75.09   10.40
   5   4  -6   82.59   12.10
   5   4  -6   79.49   12.60
  -5  -4   6   66.09    8.90
  -5  -4   6   79.99   11.60
  -5  -4   6   83.99   10.70
   4   4  -6  263.37   17.30
   4   4  -6  238.18   15.10
   4   4  -6  265.67   17.60
  -4  -4   6  262.67   15.90
  -4  -4   6  262.87   14.90
  -4  -4   6  256.37   14.20
   3   4  -6   82.89   10.60
   3   4  -6   73.69   10.60
  -3  -4   6   62.99    9.10
  -3  -4   6   76.99    9.50
  -3  -4   6   80.19    9.40
   2   4  -6 1414.26   39.80
   2   4  -6 1520.45   42.70
  -2  -4   6 1530.75   40.40
  -2  -4   6 1520.75   36.90
  -2  -4   6 1492.85   37.80
   1   4  -6   15.30    4.90
   1   4  -6   22.40    2.10
  -1  -4   6   10.50    3.80
  -1  -4   6   16.30    4.00
  -1  -4   6   14.30    4.90
   0   4  -6 1019.60   21.50
   0   4  -6  964.60   30.40
   0  -4   6  990.80   25.60
   0  -4   6 1002.20   32.40
  -1   4  -6  805.62   26.70
  -1   4  -6  771.22   20.20
  -1   4  -6  825.22   27.50
   1  -4   6  798.42   20.50
   1  -4   6  752.92   28.00
  -2   4  -6 1085.29   33.30
  -2   4  -6 1080.49   31.80
  -2   4  -6 1127.69   27.90
   2  -4   6 1118.79   35.50
   2  -4   6 1067.49   23.10
  -3   4  -6  579.94   23.60
  -3   4  -6  588.94   20.40
  -3   4  -6  607.24   22.20
   3  -4   6  611.34   25.40
  -4   4  -6   30.30    6.20
  -4   4  -6   24.10    5.50
  -4   4  -6   39.70    8.10
   4  -4   6   19.00    5.70
  -5   4  -6  721.63   28.00
  -5   4  -6  696.63   26.00
  -5   4  -6  744.73   24.70
   5  -4   6  704.83   29.00
  -6   4  -6   32.00    7.80
  -6   4  -6   37.30    7.00
  -6   4  -6   28.60    7.10
   6  -4   6   28.20    6.30
   6  -4   6   31.20    7.70
  -7   4  -6  107.49   13.30
  -7   4  -6  140.09   15.90
   7  -4   6  129.69   15.20
   7  -4   6  123.79   10.70
  -8   4  -6   21.00    7.50
  -8   4  -6   19.70    6.60
   8  -4   6   11.00    6.00
   8  -4   6   17.80    5.50
   8  -4   6   33.20    8.90
  -9   4  -6  112.69   16.20
  -9   4  -6   92.79   13.60
   9  -4   6  111.69   14.80
   9  -4   6   89.49   11.90
   9  -4   6  104.49   17.60
   9   3  -6  286.37   21.70
   9   3  -6  245.08   22.30
  -9  -3   6  255.37   20.80
  -9  -3   6  263.37   20.10
   8   3  -6    4.40    6.00
   8   3  -6   -2.80    4.80
   8   3  -6   -2.10    3.90
  -8  -3   6   -4.50    3.40
  -8  -3   6    1.60    4.40
   7   3  -6  566.44   27.30
   7   3  -6  527.85   23.60
   7   3  -6  526.55   28.70
  -7  -3   6  573.14   25.60
  -7  -3   6  551.14   27.50
   6   3  -6    1.90    4.50
   6   3  -6    3.40    4.30
   6   3  -6    3.60    3.50
  -6  -3   6    2.30    2.60
  -6  -3   6   -2.10    2.60
  -6  -3   6    0.50    3.00
   5   3  -6  411.36   21.00
   5   3  -6  419.36   22.60
   5   3  -6  432.06   20.10
  -5  -3   6  437.96   17.70
  -5  -3   6  415.86   19.40
  -5  -3   6  417.36   21.40
   4   3  -6  347.97   19.50
   4   3  -6  346.47   18.90
   4   3  -6  328.97   17.10
  -4  -3   6  337.37   15.90
  -4  -3   6  344.27   16.30
  -4  -3   6  346.27   18.30
   3   3  -6   39.70    8.10
   3   3  -6   32.60    7.70
   3   3  -6   31.80    6.40
  -3  -3   6   26.30    6.60
  -3  -3   6   27.90    5.80
  -3  -3   6   38.40    6.30
   2   3  -6   49.90    8.20
   2   3  -6   55.79    8.40
   2   3  -6   52.49    7.80
  -2  -3   6   48.10    7.40
  -2  -3   6   57.69    8.00
  -2  -3   6   64.29    7.50
   1   3  -6  628.44   22.80
  -1  -3   6  647.84   21.20
  -1  -3   6  636.64   23.20
  -1  -3   6  650.23   19.30
   0   3  -6 2256.27   39.10
   0   3  -6 2323.57   50.89
   0  -3   6 2296.37   46.40
   0  -3   6 2285.37   52.09
  -1   3  -6 1630.64   39.10
  -1   3  -6 1577.14   31.50
  -1   3  -6 1531.75   38.70
   1  -3   6 1552.14   40.90
   1  -3   6 1522.05   33.10
  -2   3  -6  179.58   11.20
  -2   3  -6  172.78    9.10
  -2   3  -6  153.08   11.00
   2  -3   6  172.98    8.10
   2  -3   6  163.28   12.00
   2  -3   6  160.78    5.70
   2  -3   6  140.39    9.30
  -3   3  -6 2453.15   49.90
  -3   3  -6 2483.65   52.29
  -3   3  -6 2447.35   54.89
   3  -3   6 2440.06   56.79
   3  -3   6 2424.56   43.40
  -4   3  -6 1260.67   32.50
  -4   3  -6 1213.58   32.70
  -4   3  -6 1284.77   36.40
   4  -3   6 1272.17   37.70
   4  -3   6 1220.88   24.20
  -5   3  -6  765.72   26.00
  -5   3  -6  731.73   26.90
  -5   3  -6  752.12   23.50
   5  -3   6  737.43   27.80
  -6   3  -6 1281.97   38.40
  -6   3  -6 1401.56   34.40
  -6   3  -6 1327.27   39.80
   6  -3   6 1429.06   35.70
   6  -3   6 1420.06   41.70
  -7   3  -6  330.27   19.20
  -7   3  -6  349.27   17.00
  -7   3  -6  379.36   20.20
   7  -3   6  357.26   19.80
   7  -3   6  355.06   16.20
  -8   3  -6   16.70    5.70
  -8   3  -6   18.10    6.40
   8  -3   6   28.30    7.30
   8  -3   6   24.30    5.90
   8  -3   6   21.90    7.70
  -9   3  -6   80.79   13.00
  -9   3  -6   72.59   11.90
   9  -3   6   56.59   12.40
   9  -3   6   72.59    9.70
   9  -3   6   83.09   12.70
 -10   3  -6  410.06   23.80
 -10   3  -6  381.26   24.70
  10  -3   6  347.17   26.10
   9   2  -6 1679.83   53.99
   9   2  -6 1793.42   60.79
  -9  -2   6 1684.33   52.49
  -9  -2   6 1711.63   55.89
   8   2  -6   22.30    8.70
   8   2  -6   11.60    6.60
  -8  -2   6   10.30    5.60
  -8  -2   6   16.30    7.00
   7   2  -6    4.40    4.80
   7   2  -6    9.50    4.80
   7   2  -6    1.00    4.80
  -7  -2   6    3.40    3.50
  -7  -2   6    9.40    5.50
   6   2  -6 1158.28   41.30
   6   2  -6 1201.48   38.40
   6   2  -6 1113.09   34.50
  -6  -2   6 1170.98   30.70
  -6  -2   6 1088.89   34.90
  -6  -2   6 1115.99   38.20
   5   2  -6  597.94   24.60
   5   2  -6  602.64   23.10
   5   2  -6  508.65   25.00
  -5  -2   6  489.85   23.10
  -5  -2   6  573.94   22.30
  -5  -2   6  566.14   20.20
   4   2  -6  130.39   11.90
   4   2  -6  111.19   11.70
   4   2  -6  125.59   13.20
  -4  -2   6  122.49   13.40
  -4  -2   6  115.29    9.20
  -4  -2   6   96.79    8.30
   3   2  -6 1427.26   39.60
   3   2  -6 1432.06   38.10
   3   2  -6 1378.06   36.80
  -3  -2   6 1390.46   35.50
  -3  -2   6 1328.57   37.00
  -3  -2   6 1397.16   33.90
   2   2  -6  432.76   18.80
   2   2  -6  455.85   10.90
   2   2  -6  440.76   19.00
   2   2  -6  449.95   18.40
  -2  -2   6  430.16   18.10
  -2  -2   6  440.46   18.00
  -2  -2   6  442.46   15.60
   1   2  -6  591.44   20.90
   1   2  -6  580.94   21.50
   1   2  -6  560.74   20.50
  -1  -2   6  583.64   16.80
  -1  -2   6  558.94   19.50
  -1  -2   6  555.64   20.70
   0   2  -6  122.69    5.20
   0   2  -6  138.89    9.60
   0  -2   6  131.59    6.80
   0  -2   6  140.29    8.90
  -1   2  -6 2185.88   47.30
  -1   2  -6 2220.08   40.10
  -1   2  -6 2190.58   47.30
   1  -2   6 2254.37   50.19
   1  -2   6 2268.67   44.00
   1  -2   6 2185.38   45.80
  -2   2  -6  476.15   15.00
  -2   2  -6  509.55   18.00
  -2   2  -6  484.35   18.50
   2  -2   6  473.45   10.90
   2  -2   6  473.35   14.80
   2  -2   6  473.55   19.40
   2  -2   6  491.15   16.20
   2  -2   6  486.85   11.40
  -3   2  -6  587.84   21.10
  -3   2  -6  570.14   18.30
  -3   2  -6  565.54   19.00
   3  -2   6  574.84   15.90
   3  -2   6  562.64   17.00
   3  -2   6  574.94   22.00
  -4   2  -6  666.13   20.50
  -4   2  -6  642.14   21.30
  -4   2  -6  641.84   23.20
   4  -2   6  648.14   16.80
   4  -2   6  621.24   23.60
  -5   2  -6  251.47   13.90
  -5   2  -6  248.38   14.40
  -5   2  -6  239.28   11.60
   5  -2   6  243.58    9.40
   5  -2   6  277.57   15.40
  -6   2  -6  627.74   19.30
  -6   2  -6  606.14   23.60
  -6   2  -6  569.44   23.40
   6  -2   6  646.24   19.30
   6  -2   6  599.24   16.50
   6  -2   6  617.74   24.30
  -7   2  -6   18.00    5.90
  -7   2  -6   -1.40    2.10
  -7   2  -6   -0.10    3.50
   7  -2   6    2.00    3.30
   7  -2   6    2.50    2.10
  -8   2  -6  994.80   34.40
  -8   2  -6 1041.50   35.90
   8  -2   6 1025.80   33.70
   8  -2   6  996.50   27.70
   8  -2   6 1080.29   40.80
  -9   2  -6   13.20    6.00
  -9   2  -6    7.20    5.10
   9  -2   6   10.90    5.30
   9  -2   6    9.90    3.60
   9  -2   6    1.70    5.00
 -10   2  -6   16.20    7.90
 -10   2  -6   16.40    7.10
  10  -2   6   19.60    8.60
  10  -2   6   22.60    6.50
   9   1  -6  367.66   26.30
   9   1  -6  427.06   25.90
  -9  -1   6  405.06   24.20
  -9  -1   6  434.36   26.60
   8   1  -6  757.82   32.60
   8   1  -6  770.72   36.50
  -8  -1   6  786.92   31.90
  -8  -1   6  821.02   35.00
   7   1  -6  324.17   21.80
   7   1  -6  297.07   19.00
  -7  -1   6  256.17   18.40
  -7  -1   6  324.77   18.50
   6   1  -6   76.19   10.80
   6   1  -6   98.09   11.60
   6   1  -6  103.19   14.30
   6   1  -6   88.29   11.90
  -6  -1   6   93.19   11.20
  -6  -1   6   73.29   11.90
   5   1  -6   -3.90    1.80
   5   1  -6   -0.70    2.30
   5   1  -6   -0.50    3.00
   5   1  -6    3.00    4.10
  -5  -1   6   -0.20    2.40
  -5  -1   6    6.40    4.80
   4   1  -6 1252.27   36.00
   4   1  -6 1250.77   38.20
   4   1  -6 1246.38   34.30
   4   1  -6 1224.78   34.60
  -4  -1   6 1215.68   20.90
  -4  -1   6 1196.88   36.00
  -4  -1   6 1226.78   32.40
   3   1  -6   13.10    4.30
   3   1  -6    7.30    4.30
   3   1  -6   12.90    4.30
   3   1  -6   13.30    4.40
  -3  -1   6   19.40    5.50
  -3  -1   6    8.40    2.80
   2   1  -6   25.10    3.80
   2   1  -6   15.50    4.40
   2   1  -6   31.90    5.80
   2   1  -6   30.60    5.90
   2   1  -6   23.70    5.50
  -2  -1   6   20.80    3.70
  -2  -1   6   17.00    4.60
   1   1  -6 3079.29   50.49
   1   1  -6 3249.87   62.09
   1   1  -6 3113.49   61.89
   1   1  -6 3165.28   64.19
   1   1  -6 3215.18   62.29
  -1  -1   6 3094.29   61.29
  -1  -1   6 3105.79   47.90
  -1  -1   6 3226.08   55.09
  -1  -1   6 3127.79   50.99
   0   1  -6  312.87   13.90
   0   1  -6  299.47   14.70
   0   1  -6  316.47   12.90
   0   1  -6  371.26   14.10
   0  -1   6  312.37    8.70
   0  -1   6  309.57   13.30
   0  -1   6  300.87   13.20
   0  -1   6  318.57    9.60
   0  -1   6  318.67    7.50
  -1   1  -6  646.84   15.60
  -1   1  -6  629.24   19.70
  -1   1  -6  656.93   20.30
  -1   1  -6  626.24   21.40
   1  -1   6  620.74   18.50
   1  -1   6  632.04   18.80
   1  -1   6  611.84   13.50
   1  -1   6  614.54   12.80
  -2   1  -6  510.85   15.00
  -2   1  -6  481.35   16.70
  -2   1  -6  479.65   17.30
   2  -1   6  485.45   15.40
   2  -1   6  484.25   18.80
   2  -1   6  490.55   12.10
   2  -1   6  495.15   14.80
  -3   1  -6 1604.24   34.50
  -3   1  -6 1541.05   34.50
  -3   1  -6 1597.34   37.40
   3  -1   6 1600.04   32.80
   3  -1   6 1547.55   31.00
   3  -1   6 1547.65   38.60
  -4   1  -6 3376.06   63.79
  -4   1  -6 3416.16   61.49
  -4   1  -6 3320.67   65.99
   4  -1   6 3296.97   66.79
   4  -1   6 3359.06   56.29
   4  -1   6 3388.66   59.19
  -5   1  -6   65.69    8.20
  -5   1  -6   62.19    6.70
  -5   1  -6   58.09    8.00
   5  -1   6   49.70    7.40
   5  -1   6   62.49    6.20
   5  -1   6   60.59    4.40
  -6   1  -6  423.66   19.00
  -6   1  -6  384.36   17.90
  -6   1  -6  427.06   14.00
   6  -1   6  408.86   12.50
   6  -1   6  427.76   14.30
   6  -1   6  419.56   18.50
  -7   1  -6  128.09   13.10
  -7   1  -6  113.19    7.00
  -7   1  -6  139.89   14.10
   7  -1   6  118.89   14.00
   7  -1   6  109.39    6.70
   7  -1   6  115.09   11.90
  -8   1  -6  858.61   30.90
  -8   1  -6  888.91   32.10
   8  -1   6  897.21   23.40
   8  -1   6  861.61   34.90
   8  -1   6  900.51   29.20
  -9   1  -6  852.11   31.70
  -9   1  -6  760.92   31.30
   9  -1   6  821.52   23.50
   9  -1   6  799.52   27.80
   9  -1   6  818.02   35.70
 -10   1  -6    4.50    4.30
 -10   1  -6    1.10    3.30
  10  -1   6    0.10    2.40
  10  -1   6    3.90    4.50
 -11   1  -6  151.38   18.90
  11  -1   6   92.69   17.00
   9   0  -6   23.80    8.90
   9   0  -6   11.60    7.00
  -9   0   6   20.10    7.00
  -9   0   6   29.90    9.10
   8   0  -6 1337.57   49.10
   8   0  -6 1336.67   43.90
   8   0  -6 1297.87   40.00
  -8   0   6 1285.07   45.40
  -8   0   6 1351.76   43.30
   7   0  -6    1.30    3.30
   7   0  -6    3.60    4.80
   7   0  -6    7.90    6.00
  -7   0   6   -0.90    4.00
  -7   0   6    7.90    4.30
   6   0  -6  277.37   16.90
   6   0  -6  302.17   16.90
   6   0  -6  287.47   19.10
  -6   0   6  270.17   17.90
  -6   0   6  282.97   11.90
  -6   0   6  282.17   16.40
   5   0  -6  768.52   26.90
   5   0  -6  764.92   27.20
   5   0  -6  760.42   30.20
  -5   0   6  742.73   28.50
  -5   0   6  727.93   18.90
  -5   0   6  752.22   25.50
   4   0  -6  114.49   10.10
   4   0  -6  120.59   10.30
   4   0  -6   98.99   10.60
   4   0  -6  121.09   13.60
  -4   0   6  111.59    5.80
  -4   0   6   95.49   11.10
  -4   0   6  107.29    8.50
   3   0  -6  181.88   11.20
   3   0  -6  168.48   12.10
   3   0  -6  174.18   12.00
  -3   0   6  187.18   10.00
  -3   0   6  181.28    9.90
   2   0  -6   50.39    6.60
   2   0  -6   47.00    7.00
   2   0  -6   47.20    6.70
   2   0  -6   41.40    6.50
  -2   0   6   48.80    5.50
  -2   0   6   51.19    5.60
  -2   0   6   30.90    5.80
   1   0  -6 1079.79   25.70
   1   0  -6 1196.18   31.80
   1   0  -6 1127.69   28.20
   1   0  -6 1081.69   29.20
   1   0  -6 1171.68   29.90
  -1   0   6 1126.09   21.10
  -1   0   6 1154.78   24.30
  -1   0   6 1129.49   23.80
  -1   0   6 1150.98   30.10
   0   0  -6 1662.43   38.90
   0   0  -6 1624.04   29.80
   0   0  -6 1551.94   35.20
   0   0  -6 1672.13   34.10
   0   0  -6 1704.13   37.70
   0   0   6 1694.93   37.40
   0   0   6 1672.43   28.90
   0   0   6 1579.94   35.90
   0   0   6 1638.74   29.70
   0   0   6 1641.94   30.70
  -1   0  -6  112.79    6.50
  -1   0  -6  113.99    7.80
  -1   0  -6  108.59    8.20
  -1   0  -6   95.49    6.80
   1   0   6  109.19    6.70
   1   0   6  115.09    7.70
   1   0   6  107.39    5.70
  -2   0  -6  343.17   13.30
  -2   0  -6  334.77   13.00
  -2   0  -6  325.17   11.50
  -2   0  -6  318.37   13.50
   2   0   6  324.87   10.30
   2   0   6  316.17   10.50
   2   0   6  350.66   12.90
  -3   0  -6  122.19    7.50
  -3   0  -6  122.69    8.20
  -3   0  -6  129.79    7.80
  -3   0  -6  120.39    8.20
   3   0   6  113.79    3.90
   3   0   6  128.39    6.70
   3   0   6  123.29    5.20
   3   0   6  130.89    7.50
  -4   0  -6 3043.30   58.89
  -4   0  -6 3123.59   60.79
  -4   0  -6 3120.29   55.99
   4   0   6 3066.29   48.40
   4   0   6 3129.99   61.79
   4   0   6 3127.69   56.19
  -5   0  -6  865.01   26.30
  -5   0  -6  934.21   26.40
  -5   0  -6  850.81   21.00
   5   0   6  879.21   15.30
   5   0   6  868.81   22.50
   5   0   6  859.51   26.10
  -6   0  -6  269.07    9.80
  -6   0  -6  258.77   14.30
  -6   0  -6  274.47   14.70
   6   0   6  262.67    7.30
   6   0   6  268.77   13.70
  -7   0  -6 1446.06   39.40
  -7   0  -6 1376.66   28.60
  -7   0  -6 1482.25   40.20
   7   0   6 1473.05   37.30
   7   0   6 1448.85   42.70
   7   0   6 1471.95   27.60
  -8   0  -6  442.26   21.30
  -8   0  -6  431.66   20.80
   8   0   6  491.95   24.50
   8   0   6  460.35   13.90
   8   0   6  481.35   19.20
  -9   0  -6  596.54   25.70
  -9   0  -6  579.64   26.10
   9   0   6  598.64   22.30
   9   0   6  633.04   29.90
   9   0   6  573.64   17.70
 -10   0  -6    7.10    5.70
  10   0   6    0.80    4.00
  10   0   6   -0.60    1.90
 -11   0  -6  436.66   25.50
  11   0   6  441.56   28.50
   9  -1  -6   93.29   16.60
   9  -1  -6   61.29   12.10
  -9   1   6   70.69   13.20
   8  -1  -6  189.98   14.40
   8  -1  -6  170.58   19.80
   8  -1  -6  176.48   15.50
  -8   1   6  167.28   17.80
  -8   1   6  187.68   20.50
   7  -1  -6   32.70    7.50
   7  -1  -6   58.69   11.20
   7  -1  -6   43.40    8.50
  -7   1   6   39.50    9.30
  -7   1   6   50.49    7.10
  -7   1   6   51.09    9.30
   6  -1  -6 1231.98   37.00
   6  -1  -6 1145.39   41.00
   6  -1  -6 1210.28   36.60
  -6   1   6 1208.18   36.40
  -6   1   6 1217.28   39.70
  -6   1   6 1192.88   30.50
   5  -1  -6  872.31   29.20
   5  -1  -6  922.21   33.60
   5  -1  -6  892.41   28.60
  -5   1   6  809.52   27.20
  -5   1   6  858.41   31.10
  -5   1   6  887.81   23.60
   4  -1  -6   77.29    9.10
   4  -1  -6  104.59   11.40
   4  -1  -6   99.49   11.80
  -4   1   6   96.99    8.20
  -4   1   6   94.59   10.40
  -4   1   6  106.69   12.50
   3  -1  -6  964.60   30.80
   3  -1  -6  983.40   26.90
   3  -1  -6  991.80   29.90
  -3   1   6  976.00   27.20
  -3   1   6  982.90   30.40
  -3   1   6  996.70   26.10
   2  -1  -6   72.39    8.50
   2  -1  -6   74.49    8.20
   2  -1  -6   65.89    8.60
   2  -1  -6   70.49    7.20
  -2   1   6   82.99    6.00
  -2   1   6   73.59    8.80
  -2   1   6   75.09    7.70
   1  -1  -6  320.67   10.30
   1  -1  -6  330.37   14.10
   1  -1  -6  315.37   14.00
   1  -1  -6  325.27   12.50
  -1   1   6  336.37   14.80
  -1   1   6  322.47   12.30
  -1   1   6  322.57   10.50
   0  -1  -6 2207.68   37.60
   0  -1  -6 2265.47   40.90
   0  -1  -6 2226.78   46.00
   0  -1  -6 2261.07   44.90
   0  -1  -6 2253.17   47.90
   0  -1  -6 2302.17   43.30
   0   1   6 2249.18   46.50
   0   1   6 2170.58   45.10
   0   1   6 2242.78   42.50
  -1  -1  -6    2.10    1.80
  -1  -1  -6    1.20    1.70
  -1  -1  -6    2.30    1.60
  -1  -1  -6    7.10    2.90
   1   1   6    6.90    2.90
   1   1   6    9.20    2.50
   1   1   6    6.10    2.40
  -2  -1  -6 1240.08   28.50
  -2  -1  -6 1270.17   28.10
  -2  -1  -6 1177.78   23.40
  -2  -1  -6 1191.38   29.70
   2   1   6 1274.47   26.90
   2   1   6 1216.68   28.70
   2   1   6 1247.28   25.20
  -3  -1  -6 1372.16   31.50
  -3  -1  -6 1376.36   30.80
  -3  -1  -6 1346.97   31.40
  -3  -1  -6 1377.06   30.10
  -3  -1  -6 1370.26   29.90
   3   1   6 1387.56   29.60
   3   1   6 1375.46   24.40
   3   1   6 1429.76   31.30
  -4  -1  -6  572.14   18.80
  -4  -1  -6  559.94   15.80
  -4  -1  -6  553.34   17.00
  -4  -1  -6  552.04   18.20
  -4  -1  -6  579.04   16.70
   4   1   6  557.34   12.60
   4   1   6  558.94   17.50
   4   1   6  555.34   17.30
  -5  -1  -6 1495.25   35.70
  -5  -1  -6 1428.36   28.60
  -5  -1  -6 1441.76   31.00
  -5  -1  -6 1357.46   34.50
   5   1   6 1451.45   34.90
  -6  -1  -6  240.58   10.10
  -6  -1  -6  244.78   13.50
  -6  -1  -6  242.68   13.40
  -6  -1  -6  231.18   10.10
  -6  -1  -6  227.58    8.00
   6   1   6  252.47   12.50
   6   1   6  207.98   13.10
  -7  -1  -6 3184.38   65.99
  -7  -1  -6 3216.48   66.69
  -7  -1  -6 3071.59   56.09
  -7  -1  -6 3162.28   59.19
   7   1   6 3074.39   68.39
   7   1   6 3142.39   61.49
   7   1   6 3050.49   49.50
  -8  -1  -6  194.78   13.60
  -8  -1  -6  206.78    9.60
  -8  -1  -6  216.78   12.10
  -8  -1  -6  215.08   14.70
   8   1   6  203.68    8.00
   8   1   6  253.07   16.90
   8   1   6  210.18   11.80
  -9  -1  -6  422.46   21.60
   9   1   6  372.46   22.00
   9   1   6  422.66   13.80
 -10  -1  -6   58.69   10.60
  10   1   6   58.19    6.80
  10   1   6   62.79   12.20
 -11  -1  -6  566.44   28.30
  11   1   6  512.35   29.60
   9  -2  -6  577.64   33.40
   9  -2  -6  600.54   30.20
  -9   2   6  621.44   31.30
   8  -2  -6  122.49   15.30
   8  -2  -6  132.89   18.90
  -8   2   6  144.79   18.00
  -8   2   6  137.89   22.10
   7  -2  -6  449.46   26.30
   7  -2  -6  472.35   23.50
   7  -2  -6  483.35   22.40
  -7   2   6  469.05   20.00
  -7   2   6  456.35   24.30
   6  -2  -6    3.30    4.10
   6  -2  -6    4.00    3.70
   6  -2  -6    1.10    3.60
  -6   2   6    3.00    3.20
  -6   2   6    6.00    4.40
   5  -2  -6 1160.68   33.30
   5  -2  -6 1105.99   34.20
   5  -2  -6 1124.99   38.40
  -5   2   6 1175.78   35.70
  -5   2   6 1092.69   35.80
   4  -2  -6   37.70    7.60
   4  -2  -6   33.10    6.30
   4  -2  -6   50.39    7.30
  -4   2   6   38.40    7.10
  -4   2   6   43.20    8.00
   3  -2  -6  140.29    9.20
   3  -2  -6  134.49    4.60
   3  -2  -6  137.49   10.50
   3  -2  -6  128.19   10.80
  -3   2   6  134.69   11.00
  -3   2   6  141.89   10.30
   2  -2  -6 1608.24   26.80
   2  -2  -6 1626.94   39.90
   2  -2  -6 1472.15   39.20
   2  -2  -6 1619.44   34.00
  -2   2   6 1567.84   37.30
  -2   2   6 1629.64   39.80
   1  -2  -6   65.49    7.80
   1  -2  -6   87.09    5.90
   1  -2  -6   85.59    4.10
   1  -2  -6   91.89    7.70
  -1   2   6   89.89    8.90
  -1   2   6   99.59    8.30
   0  -2  -6  170.28   10.40
   0  -2  -6  181.68    9.70
   0  -2  -6  182.48    6.80
   0  -2  -6  180.08    7.80
   0   2   6  188.38   10.60
   0   2   6  184.88    7.60
   0   2   6  169.08    9.60
   0   2   6  189.38   10.00
  -1  -2  -6  470.95   15.60
  -1  -2  -6  466.65   10.10
  -1  -2  -6  480.65   14.80
  -1  -2  -6  478.95   13.20
  -1  -2  -6  483.45   17.50
   1   2   6  488.75   16.90
   1   2   6  474.35   12.70
   1   2   6  477.75   15.90
   1   2   6  477.35   15.20
  -2  -2  -6 2766.02   51.69
  -2  -2  -6 2779.52   53.99
  -2  -2  -6 2872.41   50.29
   2   2   6 2780.02   51.79
   2   2   6 2833.72   53.69
   2   2   6 2710.43   48.20
   2   2   6 2710.43   49.00
  -3  -2  -6 3013.70   55.29
  -3  -2  -6 3023.60   56.79
  -3  -2  -6 3068.59   46.60
  -3  -2  -6 2978.50   46.20
  -3  -2  -6 3018.70   55.49
   3   2   6 3030.20   55.99
   3   2   6 3077.59   57.09
  -4  -2  -6  840.12   17.00
  -4  -2  -6  839.42   23.60
  -4  -2  -6  861.11   22.10
  -4  -2  -6  831.82   21.70
  -4  -2  -6  832.82   23.20
   4   2   6  837.72   23.00
  -5  -2  -6 1835.52   36.30
  -5  -2  -6 1819.62   37.30
  -5  -2  -6 1843.52   34.30
  -5  -2  -6 1754.92   40.70
  -5  -2  -6 1867.61   41.20
   5   2   6 1795.12   40.50
  -6  -2  -6   11.20    2.90
  -6  -2  -6    6.50    3.70
  -6  -2  -6   10.70    4.20
  -6  -2  -6    6.30    2.60
  -6  -2  -6   11.10    2.70
   6   2   6   16.70    2.40
   6   2   6   12.30    3.70
  -7  -2  -6 1678.33   36.80
  -7  -2  -6 1650.83   42.20
  -7  -2  -6 1667.53   35.60
  -7  -2  -6 1689.13   42.70
   7   2   6 1751.32   44.40
   7   2   6 1593.44   37.20
  -8  -2  -6 1448.96   32.40
  -8  -2  -6 1471.25   35.80
  -8  -2  -6 1420.46   40.50
   8   2   6 1429.36   33.80
   8   2   6 1470.55   42.50
  -9  -2  -6  679.23   19.90
  -9  -2  -6  687.83   23.90
  -9  -2  -6  694.93   27.60
   9   2   6  627.54   28.50
   9   2   6  673.93   18.30
 -10  -2  -6  285.57   18.70
 -10  -2  -6  297.97   16.60
  10   2   6  270.07   12.10
  10   2   6  307.17   20.50
 -11  -2  -6   -3.60    2.90
 -11  -2  -6    0.70    4.30
  11   2   6    0.50    2.40
  11   2   6   -0.20    3.40
 -12  -2  -6  249.18   19.60
 -12  -2  -6  289.77   18.90
  12   2   6  263.57   22.00
   9  -3  -6  130.59   19.70
  -9   3   6  110.89   16.00
   8  -3  -6   -0.90    4.40
   8  -3  -6   -6.90    3.70
  -8   3   6    4.30    5.30
  -8   3   6    0.40    3.70
   7  -3  -6 1061.69   35.30
   7  -3  -6 1059.39   42.20
   7  -3  -6 1077.29   36.60
  -7   3   6 1066.29   34.00
  -7   3   6 1058.39   38.20
   6  -3  -6  392.66   23.40
   6  -3  -6  399.56   19.70
   6  -3  -6  370.46   19.40
  -6   3   6  387.96   21.70
  -6   3   6  375.06   20.90
   5  -3  -6  228.38   14.60
   5  -3  -6  185.88   12.50
   5  -3  -6  197.98   15.90
  -5   3   6  225.48   15.60
  -5   3   6  211.18   15.00
   4  -3  -6  715.93   28.30
   4  -3  -6  663.03   22.40
   4  -3  -6  667.53   25.20
  -4   3   6  705.33   26.50
  -4   3   6  680.93   26.10
   3  -3  -6  891.51   30.50
   3  -3  -6  915.21   24.60
   3  -3  -6  896.71   28.90
  -3   3   6  898.71   29.10
  -3   3   6  893.11   29.20
   2  -3  -6 2196.88   50.09
   2  -3  -6 2117.19   50.49
   2  -3  -6 2200.68   42.30
  -2   3   6 2182.48   49.50
  -2   3   6 2310.67   50.49
   1  -3  -6  941.11   27.70
   1  -3  -6  907.21   20.20
   1  -3  -6  950.80   27.70
  -1   3   6  893.21   20.80
  -1   3   6  879.41   26.50
  -1   3   6  919.01   27.20
   0  -3  -6  518.35   18.10
   0  -3  -6  539.45   19.50
   0  -3  -6  501.55   16.60
   0  -3  -6  519.85   12.60
   0   3   6  534.85   18.90
   0   3   6  535.35   18.80
   0   3   6  521.65   12.60
  -1  -3  -6   13.40    3.50
  -1  -3  -6   10.60    3.10
  -1  -3  -6   10.30    2.20
  -1  -3  -6   15.00    4.10
   1   3   6   19.50    3.90
   1   3   6   21.70    2.40
   1   3   6    6.30    3.00
   1   3   6   48.90    6.40
  -2  -3  -6   -0.10    1.30
  -2  -3  -6    1.20    1.30
  -2  -3  -6   -0.80    1.40
  -2  -3  -6    1.50    1.90
   2   3   6    0.30    1.10
   2   3   6   -0.70    1.90
   2   3   6    6.70    2.70
  -3  -3  -6 3500.85   54.39
  -3  -3  -6 3426.16   59.99
  -3  -3  -6 3480.95   62.59
  -3  -3  -6 3319.57   60.49
  -3  -3  -6 2870.61   54.39
   3   3   6 3311.37   62.39
   3   3   6 3451.15   56.39
   3   3   6 3468.25   63.29
  -4  -3  -6  185.78    9.80
  -4  -3  -6  183.28    7.10
  -4  -3  -6  169.08    9.10
  -4  -3  -6  181.18    4.90
   4   3   6  185.68    8.60
   4   3   6  180.08   10.10
  -5  -3  -6  914.41   23.70
  -5  -3  -6  907.11   22.60
  -5  -3  -6  871.11   20.80
  -5  -3  -6  915.61   26.40
   5   3   6  892.71   24.30
   5   3   6  884.11   25.80
  -6  -3  -6 2290.97   42.30
  -6  -3  -6 2259.17   45.70
  -6  -3  -6 2287.07   44.50
  -6  -3  -6 2306.37   50.69
   6   3   6 2318.47   49.60
   6   3   6 2240.28   40.00
  -7  -3  -6 1108.99   32.70
  -7  -3  -6 1105.89   28.10
  -7  -3  -6 1074.49   21.90
  -7  -3  -6 1070.19   27.30
   7   3   6 1099.59   32.70
  -8  -3  -6 1001.00   28.30
  -8  -3  -6 1031.20   26.70
  -8  -3  -6 1021.70   32.60
   8   3   6  976.60   32.90
   8   3   6 1003.90   25.50
  -9  -3  -6   57.59    7.20
  -9  -3  -6   57.79    8.70
  -9  -3  -6   41.20    8.10
   9   3   6   35.80    7.90
 -10  -3  -6 1389.26   39.10
 -10  -3  -6 1385.86   33.50
 -10  -3  -6 1400.16   43.40
  10   3   6 1313.87   44.60
 -11  -3  -6   29.50    8.20
 -11  -3  -6   31.00    7.90
  11   3   6   46.90   10.40
 -12  -3  -6   79.19   11.80
 -12  -3  -6   49.70   11.20
  12   3   6   58.99   12.60
   8  -4  -6   51.19   12.30
   8  -4  -6   53.69   11.20
  -8   4   6   64.29   10.90
  -8   4   6   72.89   12.70
   7  -4  -6  440.46   23.00
   7  -4  -6  469.55   23.20
   7  -4  -6  467.25   28.10
  -7   4   6  472.65   24.60
   6  -4  -6 1205.48   44.50
   6  -4  -6 1261.07   39.30
   6  -4  -6 1251.87   38.30
  -6   4   6 1276.07   43.50
  -6   4   6 1308.27   40.80
   5  -4  -6   35.10    8.10
   5  -4  -6   50.19    8.00
   5  -4  -6   45.20    8.40
  -5   4   6   30.40    7.80
  -5   4   6   39.00    8.40
   4  -4  -6  601.54   24.50
   4  -4  -6  585.84   21.00
   4  -4  -6  612.34   27.00
  -4   4   6  592.14   25.60
  -4   4   6  612.14   24.80
   3  -4  -6   33.90    5.40
   3  -4  -6   37.50    7.70
   3  -4  -6   38.10    7.20
  -3   4   6   32.30    7.20
  -3   4   6   42.60    7.90
   2  -4  -6 1056.49   33.10
   2  -4  -6 1059.19   24.60
   2  -4  -6 1048.00   31.80
  -2   4   6 1093.09   31.70
  -2   4   6 1076.69   32.80
   1  -4  -6  490.95   19.80
   1  -4  -6  488.95   12.70
   1  -4  -6  458.15   16.40
   1  -4  -6  522.15   20.60
  -1   4   6  493.65   20.10
  -1   4   6  500.05   19.30
   0  -4  -6  530.65   17.40
   0  -4  -6  548.35   11.00
   0  -4  -6  545.65   19.70
   0  -4  -6  525.65   20.00
   0   4   6  537.45   20.50
   0   4   6  518.25   19.30
   0   4   6  547.05   11.00
  -1  -4  -6 3359.26   65.49
  -1  -4  -6 3283.07   61.09
  -1  -4  -6 3233.08   62.69
   1   4   6 3433.86   65.89
   1   4   6 3357.76   55.79
   1   4   6 3315.57   63.79
  -2  -4  -6  492.25   16.00
  -2  -4  -6  473.85   17.80
   2   4   6  509.75   18.80
   2   4   6  491.45   17.60
  -3  -4  -6  110.59    7.60
  -3  -4  -6  118.19    6.80
  -3  -4  -6  120.39    8.40
   3   4   6  119.29    8.90
   3   4   6  105.99    4.50
   3   4   6  112.19    8.20
  -4  -4  -6  725.73   18.40
  -4  -4  -6  715.93   20.90
  -4  -4  -6  712.03   21.10
   4   4   6  729.33   23.10
   4   4   6  704.73   17.60
  -5  -4  -6 1032.60   26.70
  -5  -4  -6  997.60   20.80
  -5  -4  -6 1035.70   25.70
  -5  -4  -6 1003.00   24.30
   5   4   6 1030.80   25.40
   5   4   6 1045.20   29.40
  -6  -4  -6 1879.71   38.50
  -6  -4  -6 1967.90   40.60
  -6  -4  -6 1932.31   41.70
   6   4   6 1982.70   43.00
   6   4   6 1914.81   45.80
  -7  -4  -6  754.72   18.80
  -7  -4  -6  742.43   26.20
  -7  -4  -6  786.32   23.30
  -7  -4  -6  759.82   22.80
   7   4   6  755.92   26.80
   7   4   6  756.42   25.40
  -8  -4  -6  962.60   28.30
  -8  -4  -6  920.81   31.20
  -8  -4  -6  984.60   27.20
   8   4   6  978.40   24.60
   8   4   6  981.80   31.60
  -9  -4  -6    0.00    2.40
  -9  -4  -6   -2.60    3.10
  -9  -4  -6    5.90    3.70
   9   4   6    5.40    4.30
 -10  -4  -6  604.54   24.70
 -10  -4  -6  685.53   22.70
 -10  -4  -6  706.03   29.10
  10   4   6  654.93   29.40
 -11  -4  -6  556.64   27.00
 -11  -4  -6  540.95   24.50
  11   4   6  592.94   29.50
 -12  -4  -6  108.89   14.20
 -12  -4  -6  140.79   18.10
  12   4   6  146.79   19.50
   8  -5  -6  362.96   25.00
   8  -5  -6  431.66   29.40
  -8   5   6  420.16   23.90
  -8   5   6  429.26   24.40
   7  -5  -6    1.30    3.90
   7  -5  -6   -2.90    3.90
   7  -5  -6   -1.70    4.20
  -7   5   6   -0.40    4.30
   6  -5  -6  617.14   31.60
   6  -5  -6  613.14   25.50
   6  -5  -6  585.34   26.40
  -6   5   6  609.24   30.20
  -6   5   6  645.24   27.30
   5  -5  -6   90.39   12.40
   5  -5  -6   59.59    8.90
   5  -5  -6   77.69   13.10
  -5   5   6   97.49   14.10
  -5   5   6   86.59   12.30
   4  -5  -6 1961.70   44.60
   4  -5  -6 1819.22   53.69
   4  -5  -6 1984.30   50.99
  -4   5   6 1880.31   52.79
  -4   5   6 2015.20   50.09
   3  -5  -6  726.83   21.50
   3  -5  -6  708.23   29.10
   3  -5  -6  675.33   26.20
  -3   5   6  701.03   26.00
  -3   5   6  728.73   28.80
   2  -5  -6  245.28   15.00
   2  -5  -6  257.47   10.50
   2  -5  -6  249.38   15.80
  -2   5   6  240.18   15.80
  -2   5   6  263.17   15.00
   1  -5  -6  547.65   13.40
   1  -5  -6  524.85   21.60
   1  -5  -6  542.85   22.50
   1  -5  -6  537.85   18.00
  -1   5   6  546.65   20.80
  -1   5   6  566.94   23.10
   0  -5  -6  501.25   17.20
   0  -5  -6  499.35   20.30
   0  -5  -6  559.84   21.20
   0   5   6  514.25   10.50
   0   5   6  504.65   21.60
   0   5   6  528.35   19.70
  -1  -5  -6 1343.77   34.40
  -1  -5  -6 1267.47   30.90
  -1  -5  -6 1349.16   35.50
   1   5   6 1340.27   33.90
   1   5   6 1368.76   36.90
  -2  -5  -6  781.12   25.00
  -2  -5  -6  853.01   24.40
  -2  -5  -6  809.22   23.00
   2   5   6  794.62   24.30
   2   5   6  841.02   26.70
  -3  -5  -6   48.40    6.20
  -3  -5  -6   50.09    6.90
  -3  -5  -6   54.09    6.80
   3   5   6   60.69    8.40
   3   5   6   39.90    6.10
  -4  -5  -6  650.23   20.70
  -4  -5  -6  695.23   21.70
  -4  -5  -6  664.33   19.30
   4   5   6  695.33   23.60
   4   5   6  661.23   15.30
  -5  -5  -6   75.09    8.30
  -5  -5  -6   78.69    6.50
  -5  -5  -6   80.09    7.00
   5   5   6   74.49    9.60
   5   5   6   67.49    5.60
  -6  -5  -6 2613.54   52.89
  -6  -5  -6 2655.13   51.59
  -6  -5  -6 2688.63   54.49
   6   5   6 2603.54   52.29
   6   5   6 2719.03   58.89
  -7  -5  -6  724.03   23.50
  -7  -5  -6  781.42   20.80
  -7  -5  -6  734.33   23.70
   7   5   6  799.42   28.00
   7   5   6  750.32   24.50
  -8  -5  -6  580.94   21.80
  -8  -5  -6  629.74   21.70
   8   5   6  573.94   24.70
   8   5   6  577.04   23.10
  -9  -5  -6  662.73   23.00
  -9  -5  -6  645.54   24.70
   9   5   6  638.84   26.40
   9   5   6  672.93   28.20
 -10  -5  -6   93.79   10.60
 -10  -5  -6   86.09   12.00
 -10  -5  -6   99.69   12.30
  10   5   6   92.39   12.60
 -11  -5  -6  496.35   20.50
 -11  -5  -6  489.15   25.30
 -11  -5  -6  506.85   23.90
  11   5   6  454.65   25.40
 -12  -5  -6   -2.20    4.60
 -12  -5  -6    2.50    5.10
  12   5   6   -3.10    4.40
   7  -6  -6  167.68   18.20
   7  -6  -6  144.79   20.00
  -7   6   6  210.48   23.80
   6  -6  -6  186.08   15.50
   6  -6  -6  213.78   19.30
  -6   6   6  216.48   18.70
  -6   6   6  192.08   15.20
   5  -6  -6  307.87   19.00
   5  -6  -6  307.77   16.80
   5  -6  -6  332.97   22.80
  -5   6   6  291.77   20.80
  -5   6   6  330.27   18.90
   4  -6  -6  539.15   27.90
   4  -6  -6  569.74   21.00
   4  -6  -6  528.65   23.90
   4  -6  -6  578.04   25.60
  -4   6   6  540.35   27.20
  -4   6   6  565.24   24.00
   3  -6  -6 1127.59   35.50
   3  -6  -6 1111.09   36.60
   3  -6  -6 1175.58   29.40
   3  -6  -6 1195.98   40.40
  -3   6   6 1176.38   35.20
  -3   6   6 1111.29   39.00
   2  -6  -6  154.88   13.50
   2  -6  -6  161.18   12.40
   2  -6  -6  158.98    9.70
   2  -6  -6  161.08   12.70
   2  -6  -6  153.68    8.20
  -2   6   6  115.49   13.80
  -2   6   6  147.79   11.70
   1  -6  -6 1420.26   40.40
   1  -6  -6 1456.75   34.80
   1  -6  -6 1474.65   39.90
   1  -6  -6 1441.16   41.70
   1  -6  -6 1474.05   27.90
  -1   6   6 1500.35   38.50
  -1   6   6 1436.16   42.10
   0  -6  -6  125.79   10.30
   0  -6  -6  135.79    8.90
   0  -6  -6  121.89   10.60
   0  -6  -6  123.39   10.50
   0   6   6  128.99   14.00
   0   6   6  130.09   10.10
  -1  -6  -6  341.07   16.80
  -1  -6  -6  341.57   14.50
  -1  -6  -6  362.26   17.40
  -1  -6  -6  376.16   17.30
   1   6   6  348.97   18.50
   1   6   6  368.36   16.30
  -2  -6  -6  993.60   29.50
  -2  -6  -6  968.20   29.90
  -2  -6  -6 1011.90   27.00
   2   6   6 1029.90   32.30
   2   6   6  952.50   28.10
  -3  -6  -6  497.35   19.00
  -3  -6  -6  498.65   19.70
   3   6   6  490.65   19.20
  -4  -6  -6  320.57   14.30
  -4  -6  -6  328.27   15.30
   4   6   6  327.27   16.80
   4   6   6  327.07    9.00
  -5  -6  -6 1285.47   33.20
  -5  -6  -6 1298.17   33.40
   5   6   6 1274.37   27.00
   5   6   6 1291.97   36.50
  -6  -6  -6   16.40    4.30
  -6  -6  -6   15.70    4.30
  -6  -6  -6   11.80    4.40
   6   6   6   15.80    5.30
   6   6   6   16.00    3.90
  -7  -6  -6   56.59    7.30
  -7  -6  -6   54.99    7.70
  -7  -6  -6   62.29    8.50
   7   6   6   51.59    7.30
   7   6   6   64.29    9.40
  -8  -6  -6   49.99    7.80
  -8  -6  -6   59.09    6.80
  -8  -6  -6   53.89    8.30
   8   6   6   41.10    8.30
   8   6   6   54.29    8.10
  -9  -6  -6 2047.90   51.09
  -9  -6  -6 2058.89   48.80
   9   6   6 2033.00   51.59
   9   6   6 2047.00   55.29
 -10  -6  -6   67.89    9.40
 -10  -6  -6   67.69   10.80
  10   6   6   65.49   11.40
  10   6   6   58.29   10.40
 -11  -6  -6  216.98   14.40
 -11  -6  -6  201.58   15.60
  11   6   6  240.38   18.10
  11   6   6  207.38   17.80
 -12  -6  -6   34.80    9.10
 -12  -6  -6   37.20    7.80
  12   6   6   47.30   10.80
  12   6   6   28.10    9.10
   6  -7  -6  234.88   21.20
   6  -7  -6  198.38   16.80
  -6   7   6  226.88   23.90
   5  -7  -6  270.37   19.00
   5  -7  -6  273.87   18.40
   5  -7  -6  299.77   22.60
  -5   7   6  251.47   20.00
  -5   7   6  287.57   17.60
   4  -7  -6    4.70    5.40
   4  -7  -6    4.80    4.40
   4  -7  -6    2.80    4.10
  -4   7   6    3.70    5.40
  -4   7   6    4.10    4.40
   3  -7  -6 1806.12   51.09
   3  -7  -6 1822.92   50.39
   3  -7  -6 1986.00   56.99
  -3   7   6 1839.02   47.40
  -3   7   6 1844.72   54.39
   2  -7  -6    2.10    3.60
   2  -7  -6    2.80    2.70
   2  -7  -6    3.90    4.40
   2  -7  -6    2.10    3.50
  -2   7   6    9.00    4.40
  -2   7   6    3.20    5.30
   1  -7  -6  704.63   28.90
   1  -7  -6  708.33   28.00
   1  -7  -6  703.93   27.30
   1  -7  -6  691.43   22.00
  -1   7   6  684.93   29.20
  -1   7   6  690.13   24.70
   0  -7  -6 1185.38   37.10
   0  -7  -6 1217.98   38.80
   0  -7  -6 1266.57   31.70
   0   7   6 1250.07   34.40
   0   7   6 1247.88   39.40
  -1  -7  -6  256.97   15.80
  -1  -7  -6  263.77   16.00
  -1  -7  -6  230.28   14.50
  -1  -7  -6  261.67   13.00
   1   7   6  249.68   13.80
   1   7   6  252.77   16.60
  -2  -7  -6   62.39    8.90
  -2  -7  -6   68.39    9.30
  -2  -7  -6   84.39   10.80
  -2  -7  -6   87.19    9.20
   2   7   6   71.39    9.00
   2   7   6   77.59   10.80
  -3  -7  -6   14.40    4.10
  -3  -7  -6   19.90    5.30
  -3  -7  -6   16.20    5.40
   3   7   6   16.30    5.00
   3   7   6   26.20    6.80
  -4  -7  -6 1668.13   40.80
  -4  -7  -6 1730.13   43.20
   4   7   6 1787.72   46.40
  -5  -7  -6  644.94   23.10
  -5  -7  -6  624.14   22.50
   5   7   6  629.04   16.60
   5   7   6  615.64   25.00
  -6  -7  -6  173.58   11.80
  -6  -7  -6  191.08   12.40
  -6  -7  -6  179.48   11.50
   6   7   6  182.58    9.60
   6   7   6  173.78   13.30
  -7  -7  -6 1034.80   31.20
  -7  -7  -6  989.60   31.40
  -7  -7  -6 1028.60   29.30
   7   7   6  993.80   34.20
   7   7   6 1015.50   27.70
  -8  -7  -6    1.20    3.30
  -8  -7  -6    1.10    3.30
  -8  -7  -6    5.40    2.90
   8   7   6    0.70    3.00
   8   7   6    4.20    4.10
  -9  -7  -6  392.96   20.20
  -9  -7  -6  333.27   17.90
   9   7   6  330.37   17.90
   9   7   6  328.17   20.50
 -10  -7  -6  887.61   30.80
 -10  -7  -6  905.41   33.40
  10   7   6  943.21   36.80
  10   7   6  925.71   33.20
 -11  -7  -6  167.68   18.00
 -11  -7  -6  109.09   12.80
  11   7   6  170.28   19.60
  11   7   6  146.79   16.70
 -12  -7  -6  164.48   16.60
 -12  -7  -6  184.98   19.70
  12   7   6  165.68   19.20
   5  -8  -6 1001.70   38.60
   5  -8  -6 1015.70   39.50
   5  -8  -6 1049.70   45.30
  -5   8   6 1126.89   45.20
   4  -8  -6  383.96   22.70
   4  -8  -6  366.36   24.80
   4  -8  -6  306.27   20.30
  -4   8   6  352.96   23.90
   3  -8  -6    1.20    3.70
   3  -8  -6    0.30    4.10
   3  -8  -6   14.00    5.60
  -3   8   6    2.40    3.90
  -3   8   6   -2.80    3.80
   2  -8  -6  642.64   28.40
   2  -8  -6  666.53   29.10
   2  -8  -6  624.14   30.10
   2  -8  -6  665.53   21.80
  -2   8   6  627.84   24.50
  -2   8   6  618.54   29.90
   1  -8  -6  570.24   25.90
   1  -8  -6  571.54   26.20
   1  -8  -6  522.45   26.60
   1  -8  -6  549.95   19.90
  -1   8   6  587.24   27.80
  -1   8   6  564.74   22.50
   0  -8  -6  990.30   28.30
   0  -8  -6 1009.60   36.40
   0  -8  -6  998.80   35.00
   0  -8  -6 1010.10   34.90
   0   8   6 1037.80   36.80
   0   8   6 1013.00   31.00
  -1  -8  -6   91.49    9.80
  -1  -8  -6   70.59   10.90
  -1  -8  -6   87.69   11.50
  -1  -8  -6   96.49   12.70
   1   8   6   82.79   11.90
   1   8   6   68.39    9.00
  -2  -8  -6  664.43   27.30
  -2  -8  -6  673.83   22.90
   2   8   6  643.44   27.80
   2   8   6  687.63   24.40
  -3  -8  -6    8.90    3.60
  -3  -8  -6    0.70    3.50
   3   8   6    8.60    4.10
   3   8   6   -0.80    4.50
  -4  -8  -6    1.00    3.20
  -4  -8  -6    3.10    3.00
   4   8   6    7.50    5.10
  -5  -8  -6   95.39   10.90
   5   8   6   99.19   12.90
  -6  -8  -6   32.10    7.10
  -6  -8  -6   23.80    6.00
   6   8   6   29.50    5.00
   6   8   6   28.90    7.40
  -7  -8  -6  209.48   14.50
  -7  -8  -6  211.28   14.10
   7   8   6  181.48   11.20
   7   8   6  204.28   15.40
  -8  -8  -6 1017.60   30.00
  -8  -8  -6  929.41   31.80
  -8  -8  -6  916.91   32.90
   8   8   6  966.10   29.10
   8   8   6  967.00   36.00
  -9  -8  -6   80.59   11.00
  -9  -8  -6  107.59   13.40
   9   8   6  110.49   12.60
   9   8   6   95.29   13.30
 -10  -8  -6  239.58   17.40
 -10  -8  -6  192.68   15.00
  10   8   6  216.68   18.10
  10   8   6  187.68   14.80
 -11  -8  -6   21.00    7.30
 -11  -8  -6   14.70    6.30
  11   8   6    1.60    5.30
  11   8   6    7.40    6.00
   4  -9  -6  550.64   28.70
   4  -9  -6  498.95   27.60
   4  -9  -6  536.45   31.80
  -4   9   6  546.35   31.10
   3  -9  -6   12.00    6.50
   3  -9  -6   10.10    6.10
   3  -9  -6   18.10    7.30
  -3   9   6    5.20    6.70
   2  -9  -6  720.53   32.10
   2  -9  -6  725.13   34.40
   2  -9  -6  721.43   32.10
  -2   9   6  759.22   34.40
  -2   9   6  730.43   26.70
   1  -9  -6   32.70    8.30
   1  -9  -6   29.00    8.30
   1  -9  -6   25.30    5.80
   1  -9  -6   56.29   11.20
  -1   9   6   45.90    8.20
  -1   9   6   41.30   10.60
   0  -9  -6 1119.59   38.80
   0  -9  -6 1099.59   31.10
   0  -9  -6 1098.59   38.80
   0  -9  -6 1065.19   40.20
   0   9   6 1107.69   33.30
   0   9   6 1150.48   40.90
  -1  -9  -6   51.89    7.60
  -1  -9  -6   56.69   10.00
  -1  -9  -6   47.90    9.90
   1   9   6   73.59    9.70
   1   9   6   43.40    9.60
  -2  -9  -6  211.98   13.00
  -2  -9  -6  206.18   15.50
  -2  -9  -6  187.68   15.30
   2   9   6  204.68   16.80
   2   9   6  220.58   13.90
  -3  -9  -6  815.52   30.20
  -3  -9  -6  804.02   26.80
   3   9   6  792.92   27.40
   3   9   6  783.12   32.00
  -4  -9  -6    0.40    3.10
  -4  -9  -6    9.50    4.20
   4   9   6    2.60    4.90
   4   9   6    1.90    2.90
  -5  -9  -6   -0.50    2.70
  -5  -9  -6    2.50    3.70
   5   9   6   -2.50    3.70
  -6  -9  -6  252.97   15.60
   6   9   6  278.47   18.90
  -7  -9  -6  285.67   17.50
  -7  -9  -6  287.87   18.20
   7   9   6  309.17   20.20
  -8  -9  -6  656.23   27.20
  -8  -9  -6  677.83   28.90
   8   9   6  640.54   29.80
  -9  -9  -6  266.37   18.50
  -9  -9  -6  266.57   17.70
   9   9   6  218.58   18.20
 -10  -9  -6  289.47   19.10
 -10  -9  -6  331.57   21.10
  10   9   6  309.17   21.90
 -11  -9  -6    9.30    6.40
 -11  -9  -6    5.30    5.40
  11   9   6    5.40    6.80
   3 -10  -6    1.70    5.80
   3 -10  -6    7.10    6.20
   3 -10  -6   11.00    7.40
  -3  10   6   -0.60    5.70
   2 -10  -6  473.95   26.80
   2 -10  -6  470.35   27.20
   2 -10  -6  479.05   29.10
  -2  10   6  485.85   28.50
   1 -10  -6  609.44   30.50
   1 -10  -6  618.74   30.50
   1 -10  -6  665.83   34.00
   1 -10  -6  652.53   23.70
  -1  10   6  625.04   31.60
   0 -10  -6  130.89   10.40
   0 -10  -6  179.08   19.40
   0 -10  -6  113.39   14.40
   0 -10  -6  133.99   17.20
   0  10   6  176.98   13.20
   0  10   6  155.48   19.10
  -1 -10  -6   86.99   14.50
  -1 -10  -6   78.99   12.80
  -1 -10  -6   70.59    9.20
   1  10   6   68.69   12.60
   1  10   6   85.69   11.00
  -2 -10  -6  102.29   13.90
  -2 -10  -6  108.29   11.60
  -2 -10  -6   84.99   13.60
   2  10   6  118.69   12.70
   2  10   6  130.99   17.00
  -3 -10  -6  641.54   28.20
  -3 -10  -6  602.04   23.90
   3  10   6  549.74   28.10
   3  10   6  622.94   24.60
  -4 -10  -6   59.29    9.60
  -4 -10  -6   61.59   10.60
   4  10   6   54.59   11.50
   4  10   6   46.70    8.50
  -5 -10  -6    6.50    4.70
  -5 -10  -6    6.40    4.20
   5  10   6    5.30    5.90
  -6 -10  -6  230.98   15.80
   6  10   6  224.68   18.40
  -7 -10  -6    0.40    4.00
  -7 -10  -6   -3.20    2.70
   7  10   6    1.40    4.60
  -8 -10  -6  238.18   17.00
  -8 -10  -6  228.28   17.70
   8  10   6  222.88   18.20
  -9 -10  -6  150.08   17.70
  -9 -10  -6  162.18   17.30
   9  10   6  173.78   19.80
 -10 -10  -6  273.47   19.10
 -10 -10  -6  307.07   21.70
  10  10   6  305.27   22.70
   2 -11  -6  248.28   22.70
   2 -11  -6  249.38   21.20
   2 -11  -6  244.68   20.70
  -2  11   6  230.28   24.90
   1 -11  -6  718.73   37.70
   1 -11  -6  720.03   34.80
   1 -11  -6  684.83   34.20
  -1  11   6  716.33   35.60
   0 -11  -6   33.60    9.00
   0 -11  -6   30.40    9.10
   0 -11  -6   29.00    9.50
   0 -11  -6   26.00    6.50
   0  11   6   17.50    8.70
  -1 -11  -6  667.73   25.20
  -1 -11  -6  613.84   30.90
  -1 -11  -6  666.73   34.10
   1  11   6  651.73   32.40
  -2 -11  -6    6.50    5.70
  -2 -11  -6    8.20    5.90
  -2 -11  -6    6.60    4.20
   2  11   6   14.60    8.00
   2  11   6   18.30    6.00
  -3 -11  -6   21.70    7.40
  -3 -11  -6   22.10    5.90
   3  11   6   21.10    6.40
   3  11   6   13.10    6.90
  -4 -11  -6  256.37   18.50
  -4 -11  -6  301.17   17.70
   4  11   6  298.97   17.60
   4  11   6  299.37   22.20
  -5 -11  -6  197.18   15.70
  -5 -11  -6  188.78   14.70
   5  11   6  173.68   13.90
   5  11   6  171.98   19.60
  -6 -11  -6   61.09   10.70
  -6 -11  -6   60.09   10.50
   6  11   6   40.30   10.50
  -7 -11  -6  743.73   33.10
  -7 -11  -6  701.53   29.90
   7  11   6  743.63   34.70
  -8 -11  -6  322.27   22.40
  -8 -11  -6  350.76   21.50
   8  11   6  369.16   24.70
  -9 -11  -6    4.50    5.80
  -9 -11  -6    0.80    5.50
   9  11   6    5.80    6.30
  -1 -12  -6  125.29   19.30
  -1 -12  -6  145.69   14.90
  -1 -12  -6  124.09   16.80
   1  12   6  107.29   16.60
  -2 -12  -6  617.64   34.00
  -2 -12  -6  593.84   25.30
  -2 -12  -6  600.24   31.30
   2  12   6  579.64   31.80
  -3 -12  -6   13.20    6.80
  -3 -12  -6    5.60    4.80
   3  12   6   17.40    9.30
  -4 -12  -6   38.10    9.80
  -4 -12  -6   47.00    9.50
   4  12   6   48.40   12.00
   4  12   6   61.09   10.80
  -5 -12  -6    6.70    4.20
  -5 -12  -6    6.40    6.20
   5  12   6    4.70    7.10
   5  12   6    5.40    4.60
  -6 -12  -6  268.07   18.70
  -6 -12  -6  282.57   19.00
   6  12   6  284.37   22.80
  -7 -12  -6  129.49   17.20
  -7 -12  -6  134.49   15.90
   7  12   6  153.88   20.20
   4   8  -7  170.68   19.40
  -4  -8   7  145.59   17.70
  -4  -8   7  115.79   15.50
   3   8  -7   50.19   11.30
  -3  -8   7   35.40    8.60
  -3  -8   7   35.10    9.90
   2   8  -7    4.60    5.70
  -2  -8   7   10.60    5.70
  -2  -8   7   -6.40    3.80
   1   8  -7  709.53   32.70
  -1  -8   7  651.23   32.50
   0   8  -7   21.70    7.80
   0   8  -7   13.10    7.10
   0  -8   7   17.70    8.00
  -1   8  -7   29.30    9.10
  -1   8  -7   41.80   10.50
   1  -8   7   32.40   10.00
  -2   8  -7  111.79   15.50
  -2   8  -7  100.99   14.50
   2  -8   7  131.79   18.70
  -3   8  -7  397.46   24.60
  -3   8  -7  402.56   24.20
   3  -8   7  413.56   27.30
   6   7  -7  343.37   22.80
   6   7  -7  371.96   26.00
  -6  -7   7  401.36   23.70
  -6  -7   7  363.36   22.30
   5   7  -7   73.09   12.50
   5   7  -7   87.99   14.60
  -5  -7   7   74.39   11.70
  -5  -7   7   84.79   13.00
  -5  -7   7  107.49   15.50
   4   7  -7   99.49   14.40
  -4  -7   7   82.59   12.70
  -4  -7   7  100.99   12.70
  -4  -7   7  125.39   14.90
   3   7  -7  100.29   14.30
  -3  -7   7   86.59   12.10
  -3  -7   7  104.89   14.80
   2   7  -7   53.29   10.60
  -2  -7   7   40.00    8.30
  -2  -7   7   53.29   10.60
   1   7  -7  145.69   16.90
  -1  -7   7  169.68   18.60
   0   7  -7 1074.19   38.80
   0   7  -7 1036.50   38.20
   0  -7   7 1115.59   41.50
  -1   7  -7  324.87   20.70
  -1   7  -7  301.27   20.20
   1  -7   7  294.47   21.70
  -2   7  -7  101.39   14.30
  -2   7  -7   84.99   12.70
   2  -7   7   66.19   12.00
  -3   7  -7    9.10    6.30
  -3   7  -7   10.30    5.60
   3  -7   7   17.20    7.60
  -4   7  -7  678.13   29.70
  -4   7  -7  649.54   30.70
  -4   7  -7  661.33   27.20
   4  -7   7  698.83   34.50
  -5   7  -7    9.10    5.20
  -5   7  -7    7.20    5.50
  -5   7  -7    3.60    5.60
   5  -7   7    3.90    5.50
   7   6  -7    5.90    7.30
   7   6  -7    9.30    5.60
  -7  -6   7    8.70    5.10
  -7  -6   7    5.90    5.40
   6   6  -7  110.09   14.70
   6   6  -7   81.49   14.20
  -6  -6   7  115.59   14.60
  -6  -6   7  109.49   14.90
   5   6  -7  439.66   24.10
   5   6  -7  386.36   25.00
  -5  -6   7  430.86   22.70
  -5  -6   7  426.16   22.80
  -5  -6   7  397.56   21.00
   4   6  -7    5.70    4.60
   4   6  -7    3.90    6.00
  -4  -6   7    0.30    3.90
  -4  -6   7    9.40    4.80
  -4  -6   7    9.10    5.10
   3   6  -7  249.38   17.80
  -3  -6   7  291.77   16.70
  -3  -6   7  279.97   18.30
  -3  -6   7  230.98   15.40
   2   6  -7  136.69   15.70
  -2  -6   7  133.99   11.40
  -2  -6   7  131.99   10.50
  -2  -6   7  125.59   14.60
   1   6  -7   39.20    8.50
  -1  -6   7   36.20    7.10
  -1  -6   7   30.60    8.30
   0   6  -7  255.67   17.40
   0   6  -7  223.48   16.50
   0  -6   7  240.88   17.80
  -1   6  -7   30.20    7.90
  -1   6  -7   29.30    7.60
   1  -6   7   64.69   11.70
  -2   6  -7  574.14   26.00
  -2   6  -7  567.04   26.50
  -2   6  -7  617.04   23.40
   2  -6   7  523.85   27.60
  -3   6  -7  209.58   16.20
  -3   6  -7  251.47   16.80
  -3   6  -7  237.78   14.20
   3  -6   7  232.08   18.60
  -4   6  -7   92.09   13.60
  -4   6  -7   75.89   10.40
  -4   6  -7   79.19   11.50
   4  -6   7  104.79   15.50
  -5   6  -7  214.58   15.80
  -5   6  -7  213.98   21.40
  -5   6  -7  210.98   15.40
   5  -6   7  198.18   21.20
  -6   6  -7  294.07   19.40
  -6   6  -7  311.27   18.50
  -6   6  -7  307.97   21.30
   6  -6   7  310.27   22.60
   6  -6   7  282.07   18.90
   8   5  -7  139.59   19.30
   8   5  -7  132.69   18.50
   8   5  -7  173.18   18.90
  -8  -5   7  133.19   18.40
  -8  -5   7  121.39   16.60
   7   5  -7  397.96   25.50
   7   5  -7  426.36   23.60
   7   5  -7  392.16   26.20
  -7  -5   7  433.66   25.30
  -7  -5   7  401.96   23.40
   6   5  -7    2.60    6.70
   6   5  -7   15.40    6.50
  -6  -5   7    0.40    4.30
  -6  -5   7    5.50    5.00
   5   5  -7   27.90    8.00
   5   5  -7   25.30    7.60
  -5  -5   7   25.50    6.90
  -5  -5   7   35.00    8.60
  -5  -5   7   28.30    7.00
   4   5  -7    2.30    4.80
   4   5  -7   -2.00    2.80
  -4  -5   7    0.40    3.40
  -4  -5   7    0.30    3.20
  -4  -5   7    6.70    4.10
   3   5  -7  239.28   16.40
   3   5  -7  246.18   18.20
  -3  -5   7  213.48   14.60
  -3  -5   7  227.28   15.60
  -3  -5   7  225.78   14.20
   2   5  -7  877.41   32.00
  -2  -5   7  894.81   28.40
  -2  -5   7  848.72   31.80
  -2  -5   7  869.41   28.50
   1   5  -7   -1.00    3.30
  -1  -5   7   -1.70    2.80
  -1  -5   7    5.90    3.40
  -1  -5   7    2.40    2.60
   0   5  -7  116.59   12.90
   0   5  -7  118.09   13.20
   0  -5   7  131.99    8.90
   0  -5   7  104.79   13.10
  -1   5  -7  236.28   16.10
  -1   5  -7  218.18   15.30
  -1   5  -7  239.78   10.90
   1  -5   7  224.78   16.60
  -2   5  -7 1207.78   38.50
  -2   5  -7 1184.48   30.50
  -2   5  -7 1231.58   37.60
   2  -5   7 1111.19   39.30
  -3   5  -7  282.27   14.50
  -3   5  -7  298.97   17.40
  -3   5  -7  253.27   17.30
   3  -5   7  268.57   18.80
  -4   5  -7  118.09   12.10
  -4   5  -7  125.59   15.40
  -4   5  -7  122.99   13.30
   4  -5   7  114.69   15.60
  -5   5  -7  531.55   23.40
  -5   5  -7  558.04   23.60
  -5   5  -7  518.35   25.80
   5  -5   7  514.15   27.20
  -6   5  -7   10.10    5.60
  -6   5  -7    8.70    5.20
  -6   5  -7   15.40    6.10
   6  -5   7   18.70    6.20
   6  -5   7   28.50    8.60
  -7   5  -7  289.97   20.30
  -7   5  -7  248.78   18.40
   7  -5   7  220.58   15.70
   7  -5   7  251.97   19.80
   8   4  -7   -4.30    5.70
   8   4  -7    7.90    5.00
   8   4  -7    3.60    5.90
  -8  -4   7    1.10    4.50
  -8  -4   7    5.40    5.40
   7   4  -7 1167.08   46.20
   7   4  -7 1196.28   40.30
   7   4  -7 1189.18   43.80
  -7  -4   7 1166.88   40.00
  -7  -4   7 1116.99   42.50
   6   4  -7   19.80    7.50
   6   4  -7    9.10    6.30
   6   4  -7   15.30    6.10
  -6  -4   7   14.70    6.40
  -6  -4   7   15.60    6.00
   5   4  -7    6.70    4.90
   5   4  -7    8.00    4.50
   5   4  -7    4.00    4.90
  -5  -4   7    9.20    5.60
  -5  -4   7    9.60    4.20
  -5  -4   7    8.80    4.70
   4   4  -7  234.58   15.90
   4   4  -7  255.37   18.00
   4   4  -7  236.38   17.20
  -4  -4   7  258.37   15.20
  -4  -4   7  262.17   15.60
  -4  -4   7  263.57   16.90
   3   4  -7  196.28   14.50
   3   4  -7  196.08   15.60
  -3  -4   7  207.68   14.10
  -3  -4   7  210.18   14.30
  -3  -4   7  202.18   12.80
   2   4  -7  545.85   25.10
   2   4  -7  544.05   23.70
  -2  -4   7  606.84   21.20
  -2  -4   7  583.74   24.30
  -2  -4   7  590.94   22.60
   1   4  -7   19.00    5.60
  -1  -4   7   19.30    5.60
  -1  -4   7   32.50    6.30
  -1  -4   7   31.60    5.50
   0   4  -7   97.79   11.50
   0   4  -7  116.99   12.40
   0  -4   7  116.69    8.60
   0  -4   7  100.29   12.30
  -1   4  -7  263.17   15.50
  -1   4  -7  293.37   16.40
  -1   4  -7  301.07   11.40
   1  -4   7  303.77   12.70
   1  -4   7  308.57   18.20
  -2   4  -7   26.60    6.80
  -2   4  -7   15.20    3.80
  -2   4  -7    9.70    4.30
   2  -4   7   17.60    3.70
   2  -4   7   18.10    6.60
  -3   4  -7  344.27   17.50
  -3   4  -7  365.66   15.80
  -3   4  -7  347.07   18.80
   3  -4   7  325.87   19.60
  -4   4  -7   29.00    7.40
  -4   4  -7   33.40    7.10
  -4   4  -7   31.30    6.40
   4  -4   7   25.00    6.70
  -5   4  -7 1145.99   34.90
  -5   4  -7 1203.78   34.70
  -5   4  -7 1108.99   37.50
   5  -4   7 1178.48   40.00
  -6   4  -7  834.92   28.00
  -6   4  -7  823.72   32.40
  -6   4  -7  865.11   31.00
   6  -4   7  815.32   27.90
   6  -4   7  833.42   33.60
  -7   4  -7  177.08   14.80
  -7   4  -7  205.58   16.20
   7  -4   7  197.68   13.20
   7  -4   7  193.68   16.80
  -8   4  -7  223.68   17.60
  -8   4  -7  207.28   20.80
   8  -4   7  201.78   20.60
   8  -4   7  177.98   12.90
   8  -4   7  222.38   24.60
   8   3  -7   16.60    7.90
   8   3  -7   -0.70    5.40
   8   3  -7    2.80    4.70
  -8  -3   7   -1.20    4.00
  -8  -3   7    3.60    5.20
   7   3  -7  178.98   20.10
   7   3  -7  158.48   17.90
   7   3  -7  177.38   17.40
  -7  -3   7  186.68   20.50
  -7  -3   7  182.28   15.50
   6   3  -7  653.53   29.40
   6   3  -7  594.04   26.30
   6   3  -7  685.93   32.00
  -6  -3   7  621.04   26.00
  -6  -3   7  666.73   29.80
  -6  -3   7  621.44   33.50
   5   3  -7  208.98   14.80
   5   3  -7  234.88   17.90
   5   3  -7  213.88   16.60
  -5  -3   7  253.57   17.30
  -5  -3   7  252.37   15.40
  -5  -3   7  245.18   14.20
   4   3  -7  250.37   17.40
   4   3  -7  215.68   15.80
   4   3  -7  234.38   15.30
  -4  -3   7  218.18   13.70
  -4  -3   7  215.68   13.40
  -4  -3   7  212.28   15.30
   3   3  -7  205.88   15.10
   3   3  -7  183.98   13.20
   3   3  -7  196.18   14.70
  -3  -3   7  189.78   13.10
  -3  -3   7  199.78   12.00
  -3  -3   7  205.18   14.00
   2   3  -7  773.82   27.60
   2   3  -7  737.93   27.70
   2   3  -7  733.73   26.80
  -2  -3   7  723.33   22.50
  -2  -3   7  707.13   26.10
  -2  -3   7  743.23   25.80
   1   3  -7   69.49    9.30
  -1  -3   7   65.19    8.60
  -1  -3   7   70.89    7.50
  -1  -3   7   81.89   10.90
   0   3  -7   90.89    4.80
   0   3  -7  107.39   11.60
   0   3  -7   96.79   10.20
   0  -3   7   97.39    6.90
   0  -3   7  100.39    8.50
   0  -3   7   77.99   10.00
  -1   3  -7 1162.48   33.70
  -1   3  -7 1156.98   33.40
  -1   3  -7 1161.18   25.30
   1  -3   7 1162.28   28.80
   1  -3   7 1128.99   35.20
  -2   3  -7  315.87   16.60
  -2   3  -7  343.87   16.50
  -2   3  -7  343.17   13.10
   2  -3   7  314.47   17.70
   2  -3   7  317.67   12.50
  -3   3  -7   68.59    9.10
  -3   3  -7   62.99    9.30
  -3   3  -7   64.39    7.70
   3  -3   7   71.09   10.50
   3  -3   7   66.49    5.50
  -4   3  -7  429.96   18.10
  -4   3  -7  430.86   17.80
  -4   3  -7  377.86   19.20
   4  -3   7  408.56   20.80
  -5   3  -7  158.58   12.90
  -5   3  -7  155.88   11.00
  -5   3  -7  151.78   11.60
   5  -3   7  164.78   13.60
  -6   3  -7 1205.68   32.50
  -6   3  -7 1171.68   38.10
  -6   3  -7 1143.39   35.70
   6  -3   7 1235.28   32.20
   6  -3   7 1159.58   38.70
  -7   3  -7   47.80    9.60
  -7   3  -7   39.20    8.30
   7  -3   7   41.80    6.60
   7  -3   7   61.79   11.00
  -8   3  -7  589.04   27.20
  -8   3  -7  534.55   26.40
   8  -3   7  515.65   29.70
   8  -3   7  509.65   19.70
   8  -3   7  580.94   26.90
  -9   3  -7   -3.60    4.40
  -9   3  -7   -5.10    3.80
   9  -3   7    5.00    5.90
   9  -3   7    7.00    5.10
   9   2  -7  359.16   26.80
   9   2  -7  329.67   23.70
  -9  -2   7  324.97   21.90
  -9  -2   7  330.47   24.60
   8   2  -7  370.46   25.90
   8   2  -7  299.57   22.00
  -8  -2   7  325.17   20.80
  -8  -2   7  331.47   23.20
   7   2  -7    0.60    4.10
   7   2  -7    2.20    4.40
   7   2  -7   -5.10    4.60
  -7  -2   7    1.70    4.70
  -7  -2   7   -2.00    3.20
   6   2  -7  179.68   15.00
   6   2  -7  181.68   13.90
   6   2  -7  191.68   16.80
  -6  -2   7  165.38   11.40
  -6  -2   7  176.58   18.50
  -6  -2   7  185.78   13.80
   5   2  -7   40.10    9.10
   5   2  -7   42.50    8.80
   5   2  -7   41.90    8.30
  -5  -2   7   50.29    9.60
  -5  -2   7   36.90    6.80
  -5  -2   7   40.60    7.50
   4   2  -7 1404.76   39.70
   4   2  -7 1421.96   40.70
   4   2  -7 1357.16   42.50
  -4  -2   7 1332.47   40.60
  -4  -2   7 1402.46   37.40
  -4  -2   7 1375.76   36.40
   3   2  -7  436.16   20.00
   3   2  -7  454.65   20.70
   3   2  -7  449.86   21.50
  -3  -2   7  413.16   18.60
  -3  -2   7  415.56   20.00
  -3  -2   7  441.56   17.20
   2   2  -7   16.60    5.70
   2   2  -7   16.10    4.80
   2   2  -7   10.10    4.20
  -2  -2   7   20.00    4.30
  -2  -2   7   10.00    4.60
  -2  -2   7   13.70    4.80
   1   2  -7  427.86   18.50
   1   2  -7  418.56   19.40
   1   2  -7  427.36   18.80
  -1  -2   7  449.66   18.40
  -1  -2   7  438.56   14.60
  -1  -2   7  444.76   19.50
   0   2  -7  360.16   15.90
   0   2  -7  391.26   17.30
   0  -2   7  327.27   14.90
   0  -2   7  344.97   17.20
   0  -2   7  348.67   11.80
  -1   2  -7  163.08   11.00
  -1   2  -7  193.08   11.90
  -1   2  -7  178.18    7.80
   1  -2   7  178.88    7.60
   1  -2   7  185.28   10.90
   1  -2   7  189.78   12.70
   1  -2   7  182.88   10.30
  -2   2  -7  828.42   25.60
  -2   2  -7  830.82   26.30
  -2   2  -7  841.42   21.60
   2  -2   7  781.52   23.30
   2  -2   7  826.12   22.50
   2  -2   7  828.12   15.50
   2  -2   7  820.62   15.50
   2  -2   7  850.21   28.60
  -3   2  -7  445.66   16.40
  -3   2  -7  458.95   19.60
  -3   2  -7  499.45   18.80
   3  -2   7  455.85   20.30
   3  -2   7  463.05   15.40
   3  -2   7  442.46   12.20
  -4   2  -7  905.71   26.40
  -4   2  -7  913.91   26.50
  -4   2  -7  883.51   29.20
   4  -2   7  887.21   22.30
   4  -2   7  870.81   30.10
  -5   2  -7  334.07   17.50
  -5   2  -7  329.77   16.20
  -5   2  -7  344.77   15.00
   5  -2   7  332.27   12.10
   5  -2   7  348.87   18.50
  -6   2  -7 2183.58   52.19
  -6   2  -7 2147.69   46.30
  -6   2  -7 2166.98   54.09
   6  -2   7 2210.08   43.80
   6  -2   7 2189.88   54.79
  -7   2  -7   48.70    9.30
  -7   2  -7   61.49   10.20
   7  -2   7   52.59    6.30
   7  -2   7   64.69   10.10
  -8   2  -7  590.54   26.50
  -8   2  -7  554.04   25.60
   8  -2   7  573.24   25.40
   8  -2   7  553.74   29.20
   8  -2   7  524.85   17.50
  -9   2  -7  815.92   33.10
  -9   2  -7  857.31   34.40
   9  -2   7  855.91   32.10
   9  -2   7  844.22   38.70
 -10   2  -7  159.88   18.20
 -10   2  -7  156.48   17.90
  10  -2   7  166.08   22.10
   9   1  -7   84.49   15.50
   9   1  -7   83.79   14.30
  -9  -1   7  100.29   14.80
  -9  -1   7   74.79   14.30
   8   1  -7  745.43   36.60
   8   1  -7  643.64   30.60
  -8  -1   7  678.73   30.00
   7   1  -7  292.27   21.60
   7   1  -7  249.78   18.60
  -7  -1   7  287.27   18.00
  -7  -1   7  267.37   19.50
   6   1  -7  352.76   20.10
   6   1  -7  344.17   22.40
   6   1  -7  365.06   19.60
   6   1  -7  348.37   20.30
  -6  -1   7  361.96   21.70
  -6  -1   7  345.27   18.50
   5   1  -7  275.07   18.80
   5   1  -7  254.77   16.30
   5   1  -7  238.48   16.20
   5   1  -7  262.27   15.90
  -5  -1   7  298.77   18.70
  -5  -1   7  271.17   15.30
   4   1  -7  437.66   20.50
   4   1  -7  472.35   23.10
   4   1  -7  436.96   21.40
   4   1  -7  441.56   20.10
  -4  -1   7  452.75   18.30
  -4  -1   7  444.56   21.70
   3   1  -7 1432.06   40.70
   3   1  -7 1439.66   38.50
   3   1  -7 1424.16   38.60
   3   1  -7 1368.86   40.40
  -3  -1   7 1434.46   40.20
  -3  -1   7 1452.05   34.40
   2   1  -7   24.00    5.50
   2   1  -7   29.20    6.00
   2   1  -7   35.50    6.70
   2   1  -7   27.30    6.20
  -2  -1   7   31.50    6.90
  -2  -1   7   35.20    5.00
   1   1  -7  368.56   16.80
   1   1  -7  362.96   16.40
   1   1  -7  406.96   18.90
   1   1  -7  363.26    9.60
  -1  -1   7  369.46   16.70
  -1  -1   7  375.16   12.40
   0   1  -7  243.98   12.30
   0   1  -7  263.07   14.80
   0   1  -7  237.78   13.00
   0   1  -7  233.88   11.90
   0  -1   7  231.68   12.50
   0  -1   7  234.38    7.70
   0  -1   7  248.28    6.60
   0  -1   7  241.38    8.50
  -1   1  -7  124.89    9.00
  -1   1  -7  130.59    6.60
  -1   1  -7  109.89    8.90
   1  -1   7  134.69    5.00
   1  -1   7  123.29    8.30
   1  -1   7  116.49    8.50
   1  -1   7  125.09    5.00
  -2   1  -7  539.75   19.50
  -2   1  -7  558.14   19.60
  -2   1  -7  565.44   16.40
   2  -1   7  557.64   11.80
   2  -1   7  573.74   18.30
   2  -1   7  552.64   21.70
   2  -1   7  552.04   13.40
   2  -1   7  560.84   17.30
  -3   1  -7  245.38   13.20
  -3   1  -7  220.88   11.70
  -3   1  -7  198.48   10.30
   3  -1   7  221.58    7.00
   3  -1   7  227.98   10.80
   3  -1   7  214.98    8.50
   3  -1   7  228.68    9.60
   3  -1   7  219.68   13.40
  -4   1  -7 1071.99   28.90
  -4   1  -7 1064.99   31.20
  -4   1  -7 1098.59   28.50
   4  -1   7 1120.39   26.60
   4  -1   7 1131.29   33.20
   4  -1   7 1075.49   23.50
  -5   1  -7  736.73   24.20
  -5   1  -7  716.33   25.60
  -5   1  -7  718.63   21.50
   5  -1   7  697.43   16.90
   5  -1   7  765.92   20.80
   5  -1   7  718.33   26.00
  -6   1  -7  351.26   13.70
  -6   1  -7  312.47   16.70
  -6   1  -7  355.56   18.00
   6  -1   7  331.97   10.30
   6  -1   7  346.77   13.30
   6  -1   7  362.66   18.20
  -7   1  -7  619.94   25.10
  -7   1  -7  595.94   24.90
   7  -1   7  606.44   18.90
   7  -1   7  639.64   25.10
   7  -1   7  603.04   15.20
  -8   1  -7  535.25   24.80
  -8   1  -7  524.65   24.10
   8  -1   7  517.75   27.20
   8  -1   7  513.05   14.60
   8  -1   7  533.25   23.00
  -9   1  -7  997.10   36.30
  -9   1  -7 1035.40   37.30
   9  -1   7 1043.80   41.50
   9  -1   7 1038.70   34.10
 -10   1  -7   14.30    6.00
 -10   1  -7   22.30    8.20
  10  -1   7    3.70    5.70
   9   0  -7   18.60    8.40
   9   0  -7   18.00    8.90
  -9   0   7   24.90    8.40
  -9   0   7    5.00    5.70
   8   0  -7  138.69   16.80
   8   0  -7  135.39   15.80
   8   0  -7  110.09   16.80
  -8   0   7  111.29   16.20
  -8   0   7  126.89   15.40
   7   0  -7  106.59   14.10
   7   0  -7   89.79   12.70
   7   0  -7   91.99   15.20
  -7   0   7  102.89   13.20
  -7   0   7   97.69   14.30
   6   0  -7  645.84   30.80
   6   0  -7  628.14   26.70
   6   0  -7  675.23   27.40
  -6   0   7  660.73   26.10
  -6   0   7  679.53   29.70
   5   0  -7 1036.90   33.10
   5   0  -7 1043.80   37.90
   5   0  -7 1040.10   34.50
  -5   0   7 1014.70   35.70
  -5   0   7 1005.70   31.20
   4   0  -7   72.49   10.00
   4   0  -7   67.59    9.40
   4   0  -7   52.29    8.50
   4   0  -7   74.99   11.40
  -4   0   7   55.49    9.70
  -4   0   7   73.29    8.60
  -4   0   7   58.39    4.30
   3   0  -7 1173.88   35.40
   3   0  -7 1145.59   33.40
   3   0  -7 1126.69   35.50
   3   0  -7 1095.09   31.70
  -3   0   7 1183.78   35.30
  -3   0   7 1159.88   29.40
  -3   0   7 1175.28   29.10
   2   0  -7    3.70    3.00
   2   0  -7    4.10    3.70
   2   0  -7    2.80    2.60
   2   0  -7    1.80    3.20
  -2   0   7    5.70    1.70
  -2   0   7    4.20    2.10
  -2   0   7    2.70    2.20
  -2   0   7   -1.50    3.00
   1   0  -7 1486.75   36.20
   1   0  -7 1554.64   33.40
   1   0  -7 1588.74   38.70
   1   0  -7 1512.05   37.90
   1   0  -7 1535.05   40.20
  -1   0   7 1562.94   38.90
  -1   0   7 1547.45   30.60
  -1   0   7 1529.15   31.10
  -1   0   7 1515.55   27.60
   0   0  -7 1432.06   37.70
   0   0  -7 1421.36   34.30
   0   0  -7 1490.35   36.40
   0   0  -7 1479.45   32.70
   0   0  -7 1419.76   27.50
   0   0   7 1484.35   29.00
   0   0   7 1424.66   26.40
   0   0   7 1504.45   36.20
  -1   0  -7   28.80    4.40
  -1   0  -7   26.30    5.20
  -1   0  -7   27.50    4.70
  -1   0  -7   21.30    5.00
   1   0   7   26.60    3.70
   1   0   7   26.80    4.50
   1   0   7   20.40    4.40
  -2   0  -7  369.16   15.00
  -2   0  -7  408.46   15.80
  -2   0  -7  389.56   13.30
  -2   0  -7  378.06   16.40
   2   0   7  405.16   15.30
   2   0   7  397.46   12.10
   2   0   7  389.16   13.10
  -3   0  -7  163.18   10.10
  -3   0  -7  172.28    9.40
  -3   0  -7  156.38   10.30
  -3   0  -7  142.89    9.00
   3   0   7  159.48    6.90
   3   0   7  152.78    7.60
   3   0   7  143.99    8.70
  -4   0  -7  864.51   24.40
  -4   0  -7  820.52   22.80
  -4   0  -7  841.62   25.80
   4   0   7  855.81   23.10
   4   0   7  824.62   26.90
   4   0   7  819.02   16.40
   4   0   7  809.82   16.50
   4   0   7  827.92   21.80
  -5   0  -7 2064.49   46.10
  -5   0  -7 2021.10   41.20
  -5   0  -7 1973.20   46.70
   5   0   7 2061.59   42.40
   5   0   7 1990.60   47.40
  -6   0  -7    2.50    3.50
  -6   0  -7    5.40    3.60
  -6   0  -7    0.10    1.70
   6   0   7    0.60    2.00
   6   0   7    0.80    2.30
  -7   0  -7 1799.12   46.30
  -7   0  -7 1704.63   45.50
   7   0   7 1828.62   45.20
   7   0   7 1778.12   49.70
  -8   0  -7   21.40    6.60
  -8   0  -7   15.50    6.10
   8   0   7   14.00    6.10
   8   0   7   30.50    6.60
  -9   0  -7  828.22   31.80
  -9   0  -7  818.32   32.10
   9   0   7  849.22   28.60
   9   0   7  828.82   35.30
 -10   0  -7  230.28   17.90
 -10   0  -7  215.38   16.70
  10   0   7  159.08   19.50
 -11   0  -7  329.27   22.30
  11   0   7  320.47   24.40
   8  -1  -7   -1.80    4.90
   8  -1  -7    6.40    4.80
   8  -1  -7   -9.90    4.20
  -8   1   7    3.40    5.50
  -8   1   7   -3.90    3.50
   7  -1  -7  452.95   27.20
   7  -1  -7  446.36   23.00
   7  -1  -7  476.35   23.80
  -7   1   7  517.85   27.00
  -7   1   7  450.35   22.80
   6  -1  -7   22.20    8.00
   6  -1  -7   23.80    6.90
   6  -1  -7   24.70    6.80
  -6   1   7   16.00    7.20
  -6   1   7   20.00    5.60
   5  -1  -7 1937.41   55.09
   5  -1  -7 2054.39   49.40
   5  -1  -7 1977.60   51.49
  -5   1   7 1995.30   48.30
  -5   1   7 1962.60   53.29
  -5   1   7 2008.80   41.20
   4  -1  -7  407.66   18.20
   4  -1  -7  413.06   21.50
   4  -1  -7  423.26   20.40
  -4   1   7  442.36   18.70
  -4   1   7  424.36   17.70
  -4   1   7  431.96   21.60
   3  -1  -7  250.07   13.40
   3  -1  -7  267.17   15.90
   3  -1  -7  234.88   14.80
  -3   1   7  247.18   12.10
  -3   1   7  254.47   15.90
  -3   1   7  280.97   13.60
   2  -1  -7  512.55   18.20
   2  -1  -7  533.15   14.70
   2  -1  -7  523.95   20.40
   2  -1  -7  553.14   22.10
   2  -1  -7  535.55   21.40
  -2   1   7  539.75   21.70
  -2   1   7  538.75   18.10
  -2   1   7  525.45   16.50
   1  -1  -7 1162.28   28.60
   1  -1  -7 1137.39   31.30
   1  -1  -7 1107.59   32.70
   1  -1  -7 1219.98   25.50
   1  -1  -7 1161.38   31.60
  -1   1   7 1150.08   24.80
  -1   1   7 1092.99   31.60
  -1   1   7 1148.79   27.70
   0  -1  -7  840.72   25.40
   0  -1  -7  851.61   17.50
   0  -1  -7  843.92   26.90
   0  -1  -7  873.81   21.20
   0  -1  -7  925.11   24.90
   0   1   7  857.21   21.90
   0   1   7  855.91   26.10
  -1  -1  -7  740.63   19.90
  -1  -1  -7  706.73   23.70
  -1  -1  -7  735.93   22.50
  -1  -1  -7  766.42   20.20
   1   1   7  733.93   20.90
   1   1   7  736.93   22.90
   1   1   7  739.43   19.70
  -2  -1  -7  621.14   21.10
  -2  -1  -7  636.24   19.90
  -2  -1  -7  636.84   19.00
   2   1   7  557.14   19.20
   2   1   7  611.54   16.80
   2   1   7  600.54   17.30
  -3  -1  -7  362.96   14.60
  -3  -1  -7  393.66   14.60
  -3  -1  -7  382.06   14.30
  -3  -1  -7  364.06   15.30
   3   1   7  380.36   14.90
   3   1   7  385.16   13.50
   3   1   7  369.56   10.70
  -4  -1  -7    0.10    2.20
  -4  -1  -7   -2.00    2.20
  -4  -1  -7    4.80    2.50
  -4  -1  -7    0.70    2.00
  -4  -1  -7   -0.40    1.60
   4   1   7    1.20    2.10
   4   1   7    3.50    2.30
  -5  -1  -7 1886.41   39.00
  -5  -1  -7 1851.51   43.00
  -5  -1  -7 1825.72   36.90
  -5  -1  -7 1808.32   42.10
  -5  -1  -7 1818.42   39.00
   5   1   7 1813.02   43.40
   5   1   7 1813.42   40.10
  -6  -1  -7   -0.10    2.00
  -6  -1  -7   -1.20    2.60
  -6  -1  -7    1.30    1.70
  -6  -1  -7   -2.10    2.90
   6   1   7   -0.80    2.00
   6   1   7    3.80    3.40
  -7  -1  -7  958.40   24.30
  -7  -1  -7  927.41   30.30
  -7  -1  -7  828.72   29.10
   7   1   7  981.50   32.70
   7   1   7  896.91   27.70
  -8  -1  -7  833.22   22.40
  -8  -1  -7  827.02   30.10
  -8  -1  -7  818.52   29.60
   8   1   7  818.32   31.90
   8   1   7  815.72   26.50
  -9  -1  -7  346.37   19.80
  -9  -1  -7  383.86   21.00
   9   1   7  424.96   23.70
   9   1   7  383.16   17.70
 -10  -1  -7  263.07   18.50
  10   1   7  311.67   21.70
 -11  -1  -7    3.20    5.20
  11   1   7   14.10    7.00
   8  -2  -7   -1.70    5.00
   8  -2  -7    0.70    5.20
  -8   2   7   11.20    6.70
   7  -2  -7  680.93   28.60
   7  -2  -7  702.33   28.90
   7  -2  -7  730.33   35.20
  -7   2   7  671.83   31.50
   6  -2  -7   83.79   13.30
   6  -2  -7   87.09   12.10
   6  -2  -7   81.49   11.10
  -6   2   7   87.69   10.10
  -6   2   7   87.49   12.60
   5  -2  -7  337.77   18.50
   5  -2  -7  307.07   20.00
   5  -2  -7  267.17   15.60
  -5   2   7  300.57   17.50
  -5   2   7  300.67   18.90
   4  -2  -7 1401.16   40.70
   4  -2  -7 1483.35   37.30
   4  -2  -7 1444.06   43.70
  -4   2   7 1471.95   42.70
  -4   2   7 1483.85   40.20
   3  -2  -7  627.24   25.60
   3  -2  -7  694.63   21.80
   3  -2  -7  690.83   25.80
   3  -2  -7  656.23   13.80
  -3   2   7  678.33   23.80
  -3   2   7  717.33   26.90
   2  -2  -7 2396.66   47.50
   2  -2  -7 2475.35   55.39
   2  -2  -7 2296.57   54.29
   2  -2  -7 2430.46   40.10
  -2   2   7 2382.36   54.59
  -2   2   7 2346.17   50.89
   1  -2  -7  382.66   16.80
   1  -2  -7  367.26   17.30
   1  -2  -7  373.66   13.40
   1  -2  -7  377.76   10.60
  -1   2   7  378.86   17.30
  -1   2   7  364.86   15.40
   0  -2  -7 2343.17   51.69
   0  -2  -7 2370.86   48.50
   0  -2  -7 2333.47   44.00
   0  -2  -7 2303.97   41.40
   0   2   7 2180.38   49.30
   0   2   7 2294.47   47.10
  -1  -2  -7    3.00    1.80
  -1  -2  -7    3.80    1.90
  -1  -2  -7    0.20    2.40
  -1  -2  -7    3.30    1.00
   1   2   7    2.60    2.00
   1   2   7    0.10    2.10
   1   2   7    2.70    2.60
  -2  -2  -7  373.56   14.90
  -2  -2  -7  381.46   16.10
  -2  -2  -7  410.16   13.80
  -2  -2  -7  390.46   15.00
  -2  -2  -7  401.76   12.30
   2   2   7  409.76   15.00
   2   2   7  394.06   13.30
   2   2   7  415.56   16.10
  -3  -2  -7 2232.68   36.80
  -3  -2  -7 2212.38   45.50
  -3  -2  -7 2252.47   47.60
  -3  -2  -7 2296.37   45.50
   3   2   7 2267.67   47.30
   3   2   7 2244.08   40.40
   3   2   7 2327.17   45.90
  -4  -2  -7    9.80    3.50
  -4  -2  -7    8.60    3.40
  -4  -2  -7   11.00    3.60
  -4  -2  -7   12.50    3.70
   4   2   7   11.30    3.50
   4   2   7   11.00    3.50
  -5  -2  -7   33.70    5.10
  -5  -2  -7   37.70    6.30
  -5  -2  -7   28.50    6.00
  -5  -2  -7   34.40    3.50
  -5  -2  -7   37.30    5.50
   5   2   7   42.30    6.50
   5   2   7   33.70    5.70
   5   2   7   32.20    5.50
  -6  -2  -7 1156.28   25.10
  -6  -2  -7 1188.28   28.70
  -6  -2  -7 1137.49   32.50
  -6  -2  -7 1125.79   26.50
  -6  -2  -7 1193.48   32.90
   6   2   7 1119.89   32.40
  -7  -2  -7  979.50   24.50
  -7  -2  -7  975.70   31.10
  -7  -2  -7  977.80   25.60
  -7  -2  -7 1002.50   31.10
   7   2   7  929.01   31.10
   7   2   7  980.40   28.30
  -8  -2  -7 1159.78   28.60
  -8  -2  -7 1126.19   35.30
  -8  -2  -7 1156.48   36.00
  -8  -2  -7 1117.19   29.10
   8   2   7 1075.99   30.30
   8   2   7 1122.19   36.80
  -9  -2  -7  111.79   13.70
  -9  -2  -7  107.89    8.00
  -9  -2  -7  102.59    8.80
   9   2   7  109.09   13.80
 -10  -2  -7  961.40   35.70
 -10  -2  -7  944.01   30.00
  10   2   7  878.31   36.60
 -11  -2  -7   37.50    9.60
  11   2   7   26.50    9.30
   8  -3  -7   94.19   16.90
   8  -3  -7  107.19   14.90
  -8   3   7  115.89   16.60
   7  -3  -7   84.39   12.50
   7  -3  -7   86.29   14.90
   7  -3  -7   89.89   12.90
  -7   3   7   76.89   12.80
  -7   3   7   89.99   11.50
   6  -3  -7 1295.07   46.80
   6  -3  -7 1416.76   40.60
   6  -3  -7 1423.26   43.10
  -6   3   7 1437.86   45.20
  -6   3   7 1481.95   46.10
   5  -3  -7   38.10    7.30
   5  -3  -7   44.00    9.80
   5  -3  -7   54.89    9.80
  -5   3   7   29.90    8.40
  -5   3   7   48.20    8.90
   4  -3  -7  486.65   24.30
   4  -3  -7  467.45   18.70
   4  -3  -7  495.65   22.40
  -4   3   7  494.05   22.20
  -4   3   7  476.95   22.90
   3  -3  -7   10.10    4.60
   3  -3  -7   19.50    4.50
   3  -3  -7   19.80    5.30
  -3   3   7   18.50    6.20
  -3   3   7   15.60    5.10
   2  -3  -7 3308.97   69.69
   2  -3  -7 3255.67   69.29
   2  -3  -7 3318.37   59.39
  -2   3   7 3161.88   67.99
  -2   3   7 3263.57   66.99
   1  -3  -7  366.66    8.20
   1  -3  -7  364.06   12.20
   1  -3  -7  389.96   18.00
   1  -3  -7  368.26   16.90
  -1   3   7  348.27   16.40
  -1   3   7  387.56   17.80
   0  -3  -7  130.29    5.60
   0  -3  -7  135.69    9.40
   0  -3  -7  133.19    6.60
   0   3   7  136.99   10.40
   0   3   7  131.09   10.10
   0   3   7  129.89    6.30
  -1  -3  -7 1356.46   32.70
  -1  -3  -7 1392.36   32.30
  -1  -3  -7 1401.26   27.70
  -1  -3  -7 1403.36   36.10
   1   3   7 1344.67   33.10
   1   3   7 1375.76   26.00
   1   3   7 1401.46   34.30
   1   3   7 1336.97   34.50
  -2  -3  -7  457.45   16.40
  -2  -3  -7  448.26   14.30
  -2  -3  -7  437.16   17.60
  -2  -3  -7  457.25   14.20
  -2  -3  -7  430.16   10.10
   2   3   7  457.55   17.30
   2   3   7  479.05   15.60
   2   3   7  458.25   12.00
   2   3   7  440.36   17.30
  -3  -3  -7  783.22   21.10
  -3  -3  -7  789.82   23.70
  -3  -3  -7  751.32   14.70
  -3  -3  -7  722.63   17.10
  -3  -3  -7  750.82   21.80
   3   3   7  737.53   22.60
   3   3   7  781.22   23.60
  -4  -3  -7  991.80   26.00
  -4  -3  -7 1022.60   26.50
  -4  -3  -7  979.00   26.40
  -4  -3  -7  964.70   19.10
   4   3   7  952.80   27.00
   4   3   7  958.70   23.70
   4   3   7  964.90   27.30
  -5  -3  -7  363.86   14.40
  -5  -3  -7  353.86   15.40
  -5  -3  -7  373.26   11.00
  -5  -3  -7  368.66   14.20
   5   3   7  345.57   15.60
   5   3   7  359.96   14.40
  -6  -3  -7  379.06   13.50
  -6  -3  -7  354.46   16.80
  -6  -3  -7  351.96   14.30
  -6  -3  -7  353.06   12.30
   6   3   7  339.67   15.60
   6   3   7  381.46   17.00
  -7  -3  -7   42.30    5.60
  -7  -3  -7   40.30    4.70
  -7  -3  -7   44.10    6.30
  -7  -3  -7   34.40    6.90
   7   3   7   48.70    7.80
   7   3   7   44.80    7.70
  -8  -3  -7 1012.60   27.10
  -8  -3  -7  988.50   27.00
  -8  -3  -7  942.41   32.00
   8   3   7  979.20   27.30
   8   3   7  937.21   32.30
  -9  -3  -7  148.79   10.70
  -9  -3  -7  144.09   15.00
  -9  -3  -7  149.59    9.80
   9   3   7  151.48   16.60
 -10  -3  -7  309.27   16.20
 -10  -3  -7  305.87   19.50
 -10  -3  -7  303.67   16.50
  10   3   7  290.07   19.90
 -11  -3  -7  796.42   33.10
 -11  -3  -7  715.13   27.50
  11   3   7  669.23   32.70
 -12  -3  -7   19.60    7.60
 -12  -3  -7   41.90    9.60
  12   3   7   32.60    9.50
   8  -4  -7  110.09   18.30
   8  -4  -7   97.99   14.70
  -8   4   7  138.09   17.90
   7  -4  -7  110.89   13.90
   7  -4  -7  117.59   17.60
   7  -4  -7  118.49   15.00
  -7   4   7  128.69   14.80
  -7   4   7  121.29   16.00
   6  -4  -7  661.03   28.70
   6  -4  -7  711.33   34.10
   6  -4  -7  682.83   26.90
  -6   4   7  714.13   31.90
  -6   4   7  735.63   31.10
   5  -4  -7  217.58   15.60
   5  -4  -7  220.28   17.60
   5  -4  -7  206.28   13.50
  -5   4   7  202.08   16.10
  -5   4   7  197.68   16.10
   4  -4  -7  779.42   24.70
   4  -4  -7  792.22   32.30
   4  -4  -7  808.82   30.00
  -4   4   7  789.22   30.60
  -4   4   7  767.12   29.80
   3  -4  -7 1045.60   34.20
   3  -4  -7 1047.30   27.10
   3  -4  -7 1020.40   35.50
  -3   4   7 1106.19   34.90
  -3   4   7 1089.79   35.00
   2  -4  -7  907.71   22.40
   2  -4  -7  893.51   30.40
   2  -4  -7  913.51   31.20
  -2   4   7  897.41   30.50
  -2   4   7  914.01   30.10
   1  -4  -7 1970.50   48.20
   1  -4  -7 1924.61   35.50
   1  -4  -7 1938.61   47.30
  -1   4   7 1943.11   47.00
  -1   4   7 1915.71   36.10
  -1   4   7 1899.81   47.00
   0  -4  -7  140.09    9.30
   0  -4  -7  130.49   10.60
   0  -4  -7  138.19   10.00
   0   4   7  127.89   10.30
   0   4   7  128.19    5.10
   0   4   7  145.49   11.50
  -1  -4  -7 1955.80   43.00
  -1  -4  -7 2014.30   46.50
  -1  -4  -7 1883.31   41.80
   1   4   7 1894.41   45.20
   1   4   7 1915.11   44.40
  -2  -4  -7   72.79    6.30
  -2  -4  -7   71.29    7.50
  -2  -4  -7   91.39   10.10
   2   4   7   90.89    9.80
   2   4   7   89.49   10.00
  -3  -4  -7  544.15   16.00
  -3  -4  -7  516.65   19.50
   3   4   7  535.45   12.60
   3   4   7  611.84   21.10
   3   4   7  521.75   19.40
   3   4   7  535.45   12.30
  -4  -4  -7  295.37   10.00
  -4  -4  -7  277.47   13.30
  -4  -4  -7  276.27   12.70
  -4  -4  -7  269.87    9.40
   4   4   7  284.67   14.20
   4   4   7  303.87   14.50
   4   4   7  296.97   10.30
  -5  -4  -7   38.00    4.60
  -5  -4  -7   33.30    5.40
  -5  -4  -7   37.40    2.50
  -5  -4  -7   35.60    5.70
   5   4   7   41.10    7.00
   5   4   7   43.50    5.70
  -6  -4  -7 1105.79   27.60
  -6  -4  -7 1097.29   29.30
  -6  -4  -7 1138.69   26.70
   6   4   7 1095.99   29.40
   6   4   7 1163.08   33.10
  -7  -4  -7  836.22   23.20
  -7  -4  -7  774.32   27.20
  -7  -4  -7  768.22   23.90
  -7  -4  -7  805.42   21.00
   7   4   7  792.12   27.80
   7   4   7  785.12   25.90
  -8  -4  -7  193.38   13.80
  -8  -4  -7  191.38   11.20
  -8  -4  -7  193.98   11.30
   8   4   7  189.58   14.10
   8   4   7  176.38   12.70
  -9  -4  -7  462.45   18.30
  -9  -4  -7  480.85   23.20
  -9  -4  -7  453.05   18.80
   9   4   7  452.45   22.40
 -10  -4  -7  347.17   20.80
 -10  -4  -7  371.16   16.60
 -10  -4  -7  368.36   18.20
  10   4   7  383.56   22.10
 -11  -4  -7 1010.10   33.40
 -11  -4  -7 1014.80   38.30
  11   4   7  972.80   39.20
 -12  -4  -7   53.59   11.70
 -12  -4  -7   56.49   10.00
  12   4   7   88.49   15.40
   7  -5  -7    0.60    4.10
   7  -5  -7    4.80    6.50
  -7   5   7   -1.70    4.10
   6  -5  -7  109.19   14.50
   6  -5  -7   76.99   13.80
   6  -5  -7  117.99   15.40
  -6   5   7  112.89   16.70
  -6   5   7  101.29   14.00
   5  -5  -7  619.24   30.80
   5  -5  -7  562.54   26.30
   5  -5  -7  600.64   23.00
  -5   5   7  575.44   26.60
  -5   5   7  565.34   28.40
   4  -5  -7  419.66   23.60
   4  -5  -7  358.36   20.50
   4  -5  -7  396.16   16.90
  -4   5   7  433.76   23.20
  -4   5   7  411.26   21.50
   3  -5  -7 1143.79   28.50
   3  -5  -7 1211.58   39.90
   3  -5  -7 1129.99   37.10
  -3   5   7 1125.49   38.00
  -3   5   7 1099.99   35.90
   2  -5  -7   25.40    6.60
   2  -5  -7   13.10    3.20
   2  -5  -7   16.80    6.00
  -2   5   7   25.10    6.80
  -2   5   7   23.70    6.90
   1  -5  -7 2048.20   44.80
   1  -5  -7 2049.09   50.69
   1  -5  -7 2026.10   35.50
   1  -5  -7 2024.30   50.69
  -1   5   7 1993.60   48.50
  -1   5   7 2002.70   50.99
   0  -5  -7    0.90    2.80
   0  -5  -7    2.00    2.40
   0  -5  -7    1.70    2.90
   0   5   7    3.50    4.60
   0   5   7   -0.80    2.30
  -1  -5  -7 1298.77   36.60
  -1  -5  -7 1326.17   35.20
  -1  -5  -7 1359.36   33.20
   1   5   7 1409.26   38.40
   1   5   7 1329.57   35.60
  -2  -5  -7 1405.46   34.50
  -2  -5  -7 1441.56   37.60
  -2  -5  -7 1393.76   34.00
   2   5   7 1334.97   35.80
   2   5   7 1468.95   39.20
  -3  -5  -7  126.99    8.30
  -3  -5  -7  137.39    9.20
  -3  -5  -7  138.29   10.20
   3   5   7  123.19    9.70
   3   5   7  145.59   10.90
  -4  -5  -7   52.49    7.10
  -4  -5  -7   45.20    6.90
  -4  -5  -7   49.10    5.80
   4   5   7   54.99    8.10
   4   5   7   46.90    3.40
   4   5   7   58.49    8.30
  -5  -5  -7   91.79    7.80
  -5  -5  -7   95.19    9.40
  -5  -5  -7  100.29    6.90
   5   5   7   82.29    9.90
   5   5   7   90.09    6.10
  -6  -5  -7  506.75   19.30
  -6  -5  -7  533.95   17.80
  -6  -5  -7  518.05   18.30
   6   5   7  548.75   22.40
   6   5   7  537.95   18.00
  -7  -5  -7  310.07   14.90
  -7  -5  -7  313.07   13.90
  -7  -5  -7  303.37   12.80
   7   5   7  295.17   14.60
   7   5   7  291.67   16.80
  -8  -5  -7   42.50    7.10
  -8  -5  -7   24.20    5.20
   8   5   7   38.70    7.40
   8   5   7   23.40    6.20
  -9  -5  -7  760.72   26.20
  -9  -5  -7  780.62   25.80
   9   5   7  805.32   29.60
   9   5   7  782.12   31.00
 -10  -5  -7   18.50    6.20
 -10  -5  -7   24.90    6.20
  10   5   7   25.20    6.90
  10   5   7   22.40    7.30
 -11  -5  -7  254.97   14.90
 -11  -5  -7  268.87   19.30
 -11  -5  -7  254.47   16.50
  11   5   7  267.67   19.50
  11   5   7  278.27   19.90
 -12  -5  -7  261.77   19.60
 -12  -5  -7  288.77   18.40
  12   5   7  261.07   20.90
   7  -6  -7  281.87   24.20
   6  -6  -7   99.29   16.40
   6  -6  -7  128.79   16.30
  -6   6   7  119.39   15.20
  -6   6   7  102.59   16.00
   5  -6  -7  120.09   15.10
   5  -6  -7  103.59   15.90
  -5   6   7   80.29   13.70
  -5   6   7  126.79   15.10
   4  -6  -7   45.30   11.00
   4  -6  -7   28.70    7.80
  -4   6   7   28.60    7.80
  -4   6   7   43.10    9.70
   3  -6  -7 2181.58   60.99
   3  -6  -7 2400.36   59.89
  -3   6   7 2207.98   56.29
  -3   6   7 2433.36   62.49
   2  -6  -7  322.97   19.80
   2  -6  -7  291.47   18.00
  -2   6   7  353.86   20.60
  -2   6   7  321.77   17.80
   1  -6  -7  280.27   16.90
   1  -6  -7  292.17   17.60
   1  -6  -7  280.77   13.90
  -1   6   7  306.67   18.60
  -1   6   7  310.77   16.70
   0  -6  -7  618.84   25.10
   0  -6  -7  648.04   25.40
   0  -6  -7  675.23   21.90
   0   6   7  609.24   25.90
   0   6   7  639.34   24.00
  -1  -6  -7 1936.81   48.30
  -1  -6  -7 1953.20   43.30
  -1  -6  -7 1933.91   47.10
   1   6   7 1921.91   46.00
   1   6   7 1850.61   48.80
  -2  -6  -7  822.32   26.50
  -2  -6  -7  779.02   27.40
  -2  -6  -7  798.62   24.40
   2   6   7  840.22   29.40
   2   6   7  843.22   27.00
  -3  -6  -7   48.80    7.10
  -3  -6  -7   50.49    8.00
  -3  -6  -7   56.39    7.10
   3   6   7   52.79    8.60
   3   6   7   45.00    7.00
  -4  -6  -7  711.33   23.30
  -4  -6  -7  778.72   25.50
  -4  -6  -7  717.33   22.40
   4   6   7  730.43   25.10
   4   6   7  667.33   25.60
  -5  -6  -7   42.80    6.70
  -5  -6  -7   55.79    6.80
  -5  -6  -7   50.09    6.60
  -5  -6  -7   53.59    7.70
   5   6   7   46.90    7.90
   5   6   7   57.09    4.60
  -6  -6  -7    4.90    3.70
  -6  -6  -7    0.20    2.30
  -6  -6  -7    1.60    2.30
   6   6   7    2.50    3.00
   6   6   7    0.30    2.00
  -7  -6  -7 1443.06   35.30
  -7  -6  -7 1514.05   37.40
  -7  -6  -7 1436.06   37.70
   7   6   7 1456.65   42.40
   7   6   7 1457.55   35.50
  -8  -6  -7    0.00    2.70
  -8  -6  -7   -0.20    2.70
   8   6   7    2.00    2.80
   8   6   7    1.90    3.60
  -9  -6  -7  363.66   17.60
  -9  -6  -7  331.47   17.30
   9   6   7  301.97   19.50
   9   6   7  307.87   17.30
 -10  -6  -7  944.31   30.50
 -10  -6  -7  909.81   31.90
  10   6   7 1008.00   37.70
  10   6   7  921.61   33.70
 -11  -6  -7  157.78   16.10
 -11  -6  -7  174.48   13.00
  11   6   7  159.08   17.50
  11   6   7  164.28   18.50
 -12  -6  -7   52.19    9.90
  12   6   7   95.99   15.40
  12   6   7   47.20   11.60
   6  -7  -7   52.49   11.00
   6  -7  -7   27.30   10.40
  -6   7   7   52.69   12.30
   5  -7  -7  310.37   20.90
   5  -7  -7  278.17   22.60
  -5   7   7  306.17   19.50
  -5   7   7  326.57   23.50
   4  -7  -7  190.88   16.40
   4  -7  -7  221.88   19.20
  -4   7   7  200.18   21.40
  -4   7   7  217.28   15.90
   3  -7  -7  155.78   17.20
   3  -7  -7  145.39   18.30
  -3   7   7  173.98   19.50
  -3   7   7  148.39   15.40
   2  -7  -7 1389.36   45.20
   2  -7  -7 1279.37   41.80
   2  -7  -7 1352.16   35.00
  -2   7   7 1342.67   39.60
  -2   7   7 1343.77   44.30
   1  -7  -7  608.84   21.30
   1  -7  -7  558.94   26.10
   1  -7  -7  570.94   25.80
  -1   7   7  610.44   24.30
  -1   7   7  617.54   27.90
   0  -7  -7  819.02   30.70
   0  -7  -7  820.62   30.80
   0  -7  -7  852.51   25.80
   0   7   7  824.92   28.40
   0   7   7  792.82   31.40
  -1  -7  -7  260.47   16.20
  -1  -7  -7  255.57   15.90
  -1  -7  -7  235.78   12.80
   1   7   7  223.38   16.70
   1   7   7  242.58   14.40
  -2  -7  -7 1230.68   37.40
  -2  -7  -7 1285.27   37.10
  -2  -7  -7 1227.78   33.20
   2   7   7 1255.57   39.20
   2   7   7 1289.37   36.00
  -3  -7  -7   66.09    9.20
  -3  -7  -7   49.80    7.20
  -3  -7  -7   66.99    9.60
   3   7   7   40.80    7.00
   3   7   7   53.49    9.60
  -4  -7  -7   17.70    4.80
  -4  -7  -7   12.70    4.50
  -4  -7  -7   14.20    4.60
   4   7   7   13.00    5.20
   4   7   7    5.10    3.80
  -5  -7  -7 1254.37   35.70
  -5  -7  -7 1284.37   34.90
   5   7   7 1277.07   38.90
  -6  -7  -7   39.50    7.00
  -6  -7  -7   55.69    8.20
  -6  -7  -7   48.20    7.30
   6   7   7   49.80    5.60
   6   7   7   43.20    8.40
  -7  -7  -7    2.40    3.10
  -7  -7  -7    4.20    3.30
  -7  -7  -7   -2.70    2.20
   7   7   7   -0.70    3.10
   7   7   7   -1.70    2.30
  -8  -7  -7  418.26   19.40
  -8  -7  -7  412.06   17.00
  -8  -7  -7  399.36   19.30
   8   7   7  376.06   21.80
   8   7   7  395.86   17.40
  -9  -7  -7  609.44   25.20
  -9  -7  -7  636.54   25.30
   9   7   7  654.03   24.80
   9   7   7  678.43   29.90
 -10  -7  -7  215.38   15.20
 -10  -7  -7  228.08   15.90
  10   7   7  194.48   15.00
  10   7   7  206.78   17.50
 -11  -7  -7   58.49    9.80
 -11  -7  -7   59.79   10.50
  11   7   7   46.70   10.40
  11   7   7   49.10   11.50
   5  -8  -7  116.29   18.40
   5  -8  -7  147.89   18.90
  -5   8   7  154.08   20.90
   4  -8  -7  581.84   29.30
   4  -8  -7  606.34   33.10
  -4   8   7  626.64   27.00
  -4   8   7  678.13   33.80
   3  -8  -7   11.20    5.80
   3  -8  -7   14.20    6.80
   3  -8  -7    8.50    5.60
  -3   8   7   11.00    5.90
  -3   8   7    6.80    6.00
   2  -8  -7  370.76   16.90
   2  -8  -7  384.06   22.40
   2  -8  -7  340.97   22.60
   2  -8  -7  426.56   22.90
  -2   8   7  373.26   23.30
  -2   8   7  383.66   20.10
   1  -8  -7    3.60    4.10
   1  -8  -7    1.70    4.10
   1  -8  -7    0.50    2.70
   1  -8  -7   -1.10    3.80
  -1   8   7    3.60    4.00
  -1   8   7    8.90    6.70
   0  -8  -7 1552.44   39.50
   0  -8  -7 1563.64   47.10
   0  -8  -7 1674.73   48.80
   0  -8  -7 1623.54   46.40
   0   8   7 1545.45   47.90
   0   8   7 1647.74   43.60
  -1  -8  -7  704.63   29.00
  -1  -8  -7  729.63   24.30
  -1  -8  -7  716.63   28.20
  -1  -8  -7  710.03   29.50
   1   8   7  708.73   26.30
   1   8   7  708.33   30.30
  -2  -8  -7  191.88   12.20
  -2  -8  -7  178.78   14.00
  -2  -8  -7  180.48   14.00
  -2  -8  -7  208.98   15.20
   2   8   7  174.58   17.90
   2   8   7  188.18   13.10
  -3  -8  -7  244.28   16.10
  -3  -8  -7  220.68   13.30
  -3  -8  -7  219.58   15.10
   3   8   7  235.78   17.30
   3   8   7  255.57   15.10
  -4  -8  -7  144.19   11.10
  -4  -8  -7  164.48   13.00
  -4  -8  -7  174.18   12.80
   4   8   7  170.58   12.70
   4   8   7  172.68   14.80
  -5  -8  -7 1287.67   36.90
  -5  -8  -7 1418.86   40.20
   5   8   7 1385.46   42.60
  -6  -8  -7  421.46   19.80
  -6  -8  -7  427.96   20.00
  -6  -8  -7  441.46   19.80
   6   8   7  414.26   22.10
  -7  -8  -7   41.40    7.60
  -7  -8  -7   60.49    8.90
  -7  -8  -7   58.69    9.10
   7   8   7   43.40    8.70
  -8  -8  -7  286.47   16.90
  -8  -8  -7  300.77   17.20
  -8  -8  -7  263.47   15.10
   8   8   7  285.37   19.30
  -9  -8  -7    6.40    4.60
  -9  -8  -7    1.40    3.50
   9   8   7    4.80    4.80
 -10  -8  -7  333.87   19.30
 -10  -8  -7  308.17   19.00
  10   8   7  294.57   21.40
 -11  -8  -7   39.50    8.80
 -11  -8  -7   53.19   10.30
  11   8   7   36.90   10.60
   4  -9  -7  371.36   24.30
   4  -9  -7  379.56   27.70
   4  -9  -7  379.66   24.90
  -4   9   7  422.76   28.00
   3  -9  -7  155.08   18.90
   3  -9  -7  129.09   16.50
   3  -9  -7  137.49   19.60
  -3   9   7  121.39   17.90
   2  -9  -7  292.77   19.10
   2  -9  -7  347.87   23.80
   2  -9  -7  299.27   20.30
   2  -9  -7  282.77   20.10
  -2   9   7  273.17   21.70
  -2   9   7  366.66   19.50
   1  -9  -7  341.87   21.40
   1  -9  -7  359.86   22.40
   1  -9  -7  302.27   15.90
   1  -9  -7  352.46   22.80
  -1   9   7  303.27   18.00
   0  -9  -7  434.26   24.70
   0  -9  -7  479.65   25.20
   0  -9  -7  382.26   17.90
   0  -9  -7  419.26   23.40
   0   9   7  429.76   21.00
   0   9   7  428.06   25.10
  -1  -9  -7  305.87   19.80
  -1  -9  -7  289.17   15.40
  -1  -9  -7  293.07   19.90
  -1  -9  -7  313.57   19.60
   1   9   7  315.47   17.70
   1   9   7  296.27   20.70
  -2  -9  -7   18.90    5.50
  -2  -9  -7   15.00    5.90
  -2  -9  -7   33.00    8.10
  -2  -9  -7    9.00    5.20
   2   9   7   13.00    5.50
   2   9   7   12.70    6.70
  -3  -9  -7  819.42   31.90
  -3  -9  -7  807.82   31.80
  -3  -9  -7  849.22   31.20
  -3  -9  -7  825.72   28.10
   3   9   7  815.82   33.40
   3   9   7  812.12   29.00
  -4  -9  -7   -1.00    3.40
  -4  -9  -7    3.80    3.30
  -4  -9  -7    3.40    4.30
   4   9   7    6.80    4.00
   4   9   7    2.90    4.80
  -5  -9  -7    8.20    4.40
  -5  -9  -7   -0.70    3.50
   5   9   7   -0.60    4.90
  -6  -9  -7  746.53   28.70
  -6  -9  -7  728.73   27.70
   6   9   7  737.53   31.80
  -7  -9  -7  688.63   27.70
  -7  -9  -7  751.02   29.10
  -7  -9  -7  748.83   28.30
   7   9   7  755.02   32.10
  -8  -9  -7   97.09   12.00
  -8  -9  -7   86.99   12.20
  -8  -9  -7  106.09   13.50
   8   9   7   99.99   14.90
  -9  -9  -7  262.27   18.10
  -9  -9  -7  293.77   18.50
   9   9   7  267.17   20.30
 -10  -9  -7  322.87   20.40
 -10  -9  -7  316.27   19.60
  10   9   7  328.97   22.80
   3 -10  -7  461.55   27.90
   3 -10  -7  449.95   30.20
   3 -10  -7  497.35   28.50
  -3  10   7  453.55   29.20
   2 -10  -7  391.36   25.30
   2 -10  -7  339.97   23.40
   2 -10  -7  373.46   26.30
  -2  10   7  401.36   26.60
   1 -10  -7  314.37   21.80
   1 -10  -7  314.77   23.20
   1 -10  -7  304.87   22.10
   1 -10  -7  330.07   17.10
  -1  10   7  328.37   23.50
  -1  10   7  309.37   23.50
   0 -10  -7  209.38   13.90
   0 -10  -7  299.77   21.80
   0 -10  -7  267.37   19.90
   0  10   7  188.38   20.70
   0  10   7  241.48   16.30
  -1 -10  -7  741.83   26.40
  -1 -10  -7  701.63   32.50
  -1 -10  -7  800.22   33.30
  -1 -10  -7  650.03   32.00
   1  10   7  699.63   33.10
   1  10   7  764.82   28.50
  -2 -10  -7   -0.10    4.30
  -2 -10  -7    1.70    3.70
  -2 -10  -7    2.70    3.10
  -2 -10  -7    4.50    4.80
   2  10   7   -1.70    3.30
   2  10   7    0.30    5.90
  -3 -10  -7  776.12   33.10
  -3 -10  -7  724.43   32.00
  -3 -10  -7  726.23   27.30
  -3 -10  -7  747.73   31.00
   3  10   7  792.82   34.70
   3  10   7  745.63   28.70
  -4 -10  -7 1095.39   34.90
  -4 -10  -7 1077.59   37.20
  -4 -10  -7 1083.39   38.80
   4  10   7 1090.99   41.10
   4  10   7 1096.09   35.70
  -5 -10  -7   20.70    6.80
  -5 -10  -7   25.30    6.60
   5  10   7   22.90    8.80
   5  10   7   33.00    7.70
  -6 -10  -7  120.59   14.70
  -6 -10  -7  129.09   14.20
   6  10   7  102.89   14.70
  -7 -10  -7    6.40    5.00
  -7 -10  -7   -2.80    3.20
  -7 -10  -7    5.70    4.80
   7  10   7    2.10    4.70
  -8 -10  -7  396.06   22.10
  -8 -10  -7  460.85   22.60
  -8 -10  -7  442.66   23.90
   8  10   7  408.86   25.30
  -9 -10  -7   91.79   12.90
  -9 -10  -7  110.89   14.80
   9  10   7  121.69   18.00
 -10 -10  -7   24.10    7.50
 -10 -10  -7   31.90    8.90
  10  10   7   25.00    9.30
   1 -11  -7  682.03   36.20
   1 -11  -7  721.33   35.10
   1 -11  -7  743.63   36.10
  -1  11   7  756.52   37.40
   0 -11  -7    5.20    4.20
   0 -11  -7    4.70    5.90
   0 -11  -7   30.70    9.90
   0 -11  -7   13.10    6.40
   0  11   7   14.80    8.40
  -1 -11  -7   19.30    7.70
  -1 -11  -7   12.90    4.70
  -1 -11  -7   13.40    7.40
  -1 -11  -7    9.00    6.30
   1  11   7    4.50    5.60
   1  11   7   -6.00    5.30
  -2 -11  -7  431.06   26.50
  -2 -11  -7  468.05   27.00
  -2 -11  -7  427.46   25.10
  -2 -11  -7  414.26   20.50
   2  11   7  378.76   25.70
   2  11   7  418.86   21.30
  -3 -11  -7  157.68   19.60
  -3 -11  -7  147.49   17.10
  -3 -11  -7  126.89   16.50
  -3 -11  -7  152.48   14.90
   3  11   7  166.28   19.80
   3  11   7  168.78   13.80
  -4 -11  -7  323.47   19.00
  -4 -11  -7  412.76   23.20
   4  11   7  382.96   25.70
   4  11   7  374.56   20.60
  -5 -11  -7   51.69    9.50
   5  11   7   42.50   11.30
   5  11   7   45.70    9.10
  -6 -11  -7  477.05   24.10
   6  11   7  515.25   29.20
  -7 -11  -7   51.69   10.40
  -7 -11  -7   39.50    9.70
   7  11   7   58.89   12.80
  -8 -11  -7  156.58   18.30
  -8 -11  -7  127.69   15.30
  -8 -11  -7  164.58   18.20
   8  11   7  138.89   18.60
  -9 -11  -7   47.40   10.30
  -9 -11  -7   26.90    8.50
   9  11   7   40.70   11.30
  -1 -12  -7   29.10    8.60
  -1 -12  -7   35.20    9.80
  -1 -12  -7   44.40   11.70
  -1 -12  -7   18.30    5.90
   1  12   7   15.00    8.70
  -2 -12  -7  515.35   29.20
  -2 -12  -7  509.65   31.40
  -2 -12  -7  494.15   23.70
  -2 -12  -7  586.64   32.10
   2  12   7  559.54   31.40
  -3 -12  -7   67.59   13.10
  -3 -12  -7   66.19   12.40
  -3 -12  -7   51.89    9.80
   3  12   7   41.30   12.70
   3  12   7   45.90    9.60
  -4 -12  -7  392.16   21.50
  -4 -12  -7  384.16   24.30
   4  12   7  354.06   25.30
   4  12   7  347.67   20.80
  -5 -12  -7   -5.10    4.90
  -5 -12  -7    1.90    4.20
   5  12   7   -5.50    5.10
   5  12   7   10.10    5.40
  -6 -12  -7  254.17   18.40
   6  12   7  270.07   26.90
   6  12   7  246.88   18.30
  -7 -12  -7  333.37   21.60
  -7 -12  -7  348.27   23.60
   7  12   7  391.06   27.20
   2   8  -8   -1.90    4.60
  -2  -8   8   -4.80    4.40
   1   8  -8  138.89   18.50
   1   8  -8  112.09   16.30
  -1  -8   8  163.78   20.80
   0   8  -8   66.29   12.60
   0   8  -8   47.20   11.50
   0  -8   8   63.69   14.20
  -1   8  -8   -3.30    5.10
  -1   8  -8   -5.40    3.70
   1  -8   8    1.40    5.00
   4   7  -8   -2.50    4.10
  -4  -7   8    4.70    5.10
  -4  -7   8   -3.30    4.20
   3   7  -8  112.29   16.00
  -3  -7   8  109.99   13.70
  -3  -7   8  130.79   16.70
   2   7  -8   10.90    5.80
  -2  -7   8   10.20    7.00
  -2  -7   8    6.00    6.40
   1   7  -8  244.58   19.30
   1   7  -8  273.07   20.20
  -1  -7   8  209.38   23.00
   0   7  -8  361.36   22.90
   0   7  -8  311.67   21.40
   0  -7   8  325.07   23.20
  -1   7  -8    2.70    4.60
  -1   7  -8   -6.10    3.60
   1  -7   8    4.60    6.30
  -2   7  -8    0.60    5.00
  -2   7  -8    5.50    4.80
   2  -7   8    2.10    5.60
  -3   7  -8   35.30    9.50
  -3   7  -8   54.69   11.60
   3  -7   8   37.10   10.90
  -4   7  -8  269.57   19.50
  -4   7  -8  222.48   18.50
   4  -7   8  209.48   23.10
   6   6  -8   13.40    8.30
   6   6  -8    5.70    6.40
  -6  -6   8    6.30    5.10
  -6  -6   8    3.50    4.80
   5   6  -8  370.66   25.70
   5   6  -8  383.96   23.80
  -5  -6   8  351.96   38.20
  -5  -6   8  412.56   23.00
  -5  -6   8  358.46   20.90
   4   6  -8   89.49   14.50
  -4  -6   8  107.69   14.80
  -4  -6   8  112.79   14.50
  -4  -6   8  108.19   13.80
   3   6  -8  183.78   19.40
  -3  -6   8  226.38   15.50
  -3  -6   8  198.48   16.80
  -3  -6   8  216.08   15.10
   2   6  -8    7.40    5.70
  -2  -6   8   -0.90    3.70
  -2  -6   8    8.00    4.80
  -2  -6   8    4.60    5.80
   1   6  -8   48.60   10.30
  -1  -6   8   42.60    8.10
  -1  -6   8   36.20    9.20
   0   6  -8  266.67   18.30
   0   6  -8  266.17   18.80
   0  -6   8  273.37   18.80
   0  -6   8  273.87   19.80
  -1   6  -8    1.80    4.30
  -1   6  -8    1.80    4.50
   1  -6   8    1.50    4.50
  -2   6  -8   -3.00    3.40
  -2   6  -8   -2.20    3.70
   2  -6   8    2.00    5.10
  -3   6  -8  401.86   23.20
  -3   6  -8  382.86   22.00
   3  -6   8  420.16   25.60
  -4   6  -8    6.20    4.80
  -4   6  -8   -9.10    4.70
  -4   6  -8   -0.30    4.50
   4  -6   8   -5.30    4.50
  -5   6  -8  193.78   16.00
  -5   6  -8  188.98   20.20
  -5   6  -8  192.98   15.10
   5  -6   8  186.38   20.80
  -6   6  -8    2.30    5.10
   6  -6   8    1.80    5.50
   6  -6   8    4.30    4.80
   7   5  -8  265.67   19.50
   7   5  -8  203.38   22.60
  -7  -5   8  230.28   19.70
  -7  -5   8  244.88   18.40
   6   5  -8   16.40    7.80
   6   5  -8   15.00    7.10
  -6  -5   8    8.40    6.30
  -6  -5   8   13.40    5.90
   5   5  -8  266.87   19.30
   5   5  -8  241.68   20.50
  -5  -5   8  246.78   16.80
  -5  -5   8  243.18   16.70
  -5  -5   8  265.87   18.70
   4   5  -8  376.56   23.50
   4   5  -8  366.06   21.90
  -4  -5   8  328.07   18.60
  -4  -5   8  354.76   20.30
  -4  -5   8  393.76   21.60
   3   5  -8  243.38   17.70
  -3  -5   8  253.77   16.60
  -3  -5   8  243.28   15.00
  -3  -5   8  251.07   17.40
   2   5  -8  324.57   19.90
  -2  -5   8  316.47   17.30
  -2  -5   8  280.17   15.50
  -2  -5   8  282.57   18.80
   1   5  -8   18.20    7.00
  -1  -5   8   16.00    4.90
  -1  -5   8   10.70    4.30
  -1  -5   8    5.10    5.30
   0   5  -8   40.50    8.40
   0   5  -8   51.09    9.80
   0  -5   8   54.99    7.90
   0  -5   8   44.10    9.70
  -1   5  -8    0.20    4.20
  -1   5  -8    0.20    4.00
   1  -5   8    2.30    3.50
  -2   5  -8   79.39   11.60
  -2   5  -8   92.29   12.60
   2  -5   8   74.69   12.40
  -3   5  -8  667.03   23.20
  -3   5  -8  697.83   27.90
  -3   5  -8  666.03   29.00
   3  -5   8  640.14   30.30
  -4   5  -8  230.38   17.40
  -4   5  -8  267.77   15.40
  -4   5  -8  252.37   16.80
   4  -5   8  283.67   20.30
  -5   5  -8  137.89   15.10
  -5   5  -8  129.59   13.50
  -5   5  -8  150.38   17.60
   5  -5   8  147.19   18.30
  -6   5  -8  165.18   16.40
  -6   5  -8  139.89   14.50
  -6   5  -8  149.69   17.40
   6  -5   8  135.59   14.90
   6  -5   8  193.08   21.50
  -7   5  -8  251.87   20.20
  -7   5  -8  294.07   19.80
   7  -5   8  310.37   22.80
   7  -5   8  276.97   17.10
   7   4  -8  101.79   16.10
   7   4  -8  104.79   15.00
   7   4  -8  103.19   16.50
  -7  -4   8  144.09   18.60
  -7  -4   8  136.59   16.50
   6   4  -8  546.05   30.50
   6   4  -8  531.15   26.30
   6   4  -8  497.25   28.00
  -6  -4   8  499.25   24.20
  -6  -4   8  475.35   26.70
   5   4  -8    5.80    5.80
   5   4  -8    0.30    5.20
   5   4  -8    3.80    4.10
  -5  -4   8   10.40    4.80
  -5  -4   8    4.90    3.90
  -5  -4   8    3.90    4.00
   4   4  -8  197.68   16.90
   4   4  -8  150.48   16.50
  -4  -4   8  169.88   13.70
  -4  -4   8  150.88   12.20
  -4  -4   8  184.08   15.10
   3   4  -8   44.10    9.90
   3   4  -8   22.70    6.80
  -3  -4   8   22.00    6.40
  -3  -4   8   38.90    8.20
  -3  -4   8   30.00    6.50
   2   4  -8 1494.05   44.30
  -2  -4   8 1485.95   41.30
  -2  -4   8 1502.85   44.20
  -2  -4   8 1483.05   37.70
   1   4  -8  134.29   14.40
  -1  -4   8  115.19   13.70
  -1  -4   8  149.39   10.10
  -1  -4   8  135.49   11.00
   0   4  -8    4.80    4.50
   0   4  -8    6.80    4.50
   0  -4   8    7.20    4.70
   0  -4   8    6.00    3.10
   0  -4   8    3.20    3.10
  -1   4  -8  155.48   12.80
  -1   4  -8  182.48   13.90
   1  -4   8  162.08   10.00
   1  -4   8  202.18   15.70
  -2   4  -8   45.20    8.70
  -2   4  -8   49.40    9.10
  -2   4  -8   38.00    5.50
   2  -4   8   45.60    8.90
  -3   4  -8   59.39   10.00
  -3   4  -8   76.29    8.80
  -3   4  -8   80.89   10.70
   3  -4   8   96.99   14.10
  -4   4  -8  947.81   31.80
  -4   4  -8 1013.90   35.30
  -4   4  -8  935.51   29.30
   4  -4   8  961.50   36.50
  -5   4  -8  196.58   13.70
  -5   4  -8  189.98   13.60
  -5   4  -8  178.08   17.90
   5  -4   8  201.68   16.80
  -6   4  -8  320.57   18.60
  -6   4  -8  361.66   21.50
  -6   4  -8  332.47   17.60
   6  -4   8  299.17   16.20
   6  -4   8  290.37   20.60
  -7   4  -8   33.20    8.40
  -7   4  -8   47.40   11.00
   7  -4   8   34.30    6.90
   7  -4   8   43.50   10.60
  -8   4  -8  649.74   30.10
  -8   4  -8  612.24   30.60
   8  -4   8  610.84   30.70
   8   3  -8  118.69   19.60
   8   3  -8  145.69   17.30
   8   3  -8  130.69   17.80
  -8  -3   8  135.39   16.70
  -8  -3   8  113.79   16.70
   7   3  -8  181.68   22.10
   7   3  -8  181.48   18.90
   7   3  -8  188.78   20.80
  -7  -3   8  193.58   15.90
  -7  -3   8  222.58   23.30
   6   3  -8  593.04   31.00
   6   3  -8  550.64   28.50
   6   3  -8  578.14   26.80
  -6  -3   8  605.14   29.70
  -6  -3   8  555.54   25.10
   5   3  -8  169.28   19.20
   5   3  -8  248.48   18.30
   5   3  -8  191.48   15.00
  -5  -3   8  217.48   14.40
  -5  -3   8  205.78   16.30
  -5  -3   8  204.38   14.10
   4   3  -8  906.21   33.00
   4   3  -8  845.92   33.00
   4   3  -8  874.11   34.70
  -4  -3   8  817.52   27.90
  -4  -3   8  858.41   30.20
  -4  -3   8  781.22   31.40
   3   3  -8   10.80    5.00
   3   3  -8    5.10    4.30
   3   3  -8   12.60    6.30
  -3  -3   8   11.80    5.20
  -3  -3   8   10.40    3.70
  -3  -3   8    6.50    4.50
   2   3  -8  111.69   13.20
   2   3  -8  152.68   15.60
  -2  -3   8  139.19   12.10
  -2  -3   8  141.49   11.80
  -2  -3   8  140.29    9.60
   1   3  -8  390.56   19.80
  -1  -3   8  407.96   18.50
  -1  -3   8  392.66   20.20
  -1  -3   8  406.36   15.40
   0   3  -8  188.68   13.70
   0   3  -8  190.78   13.20
   0  -3   8  181.28   13.90
   0  -3   8  184.88    9.60
   0  -3   8  180.88   11.80
  -1   3  -8  347.67   11.70
  -1   3  -8  362.26   18.40
  -1   3  -8  366.96   18.30
   1  -3   8  375.06   19.90
   1  -3   8  361.56   15.50
   1  -3   8  326.37   12.50
  -2   3  -8  415.16   19.60
  -2   3  -8  383.66   18.60
  -2   3  -8  367.36   14.00
   2  -3   8  375.46   14.90
   2  -3   8  400.86   21.20
  -3   3  -8  181.88   10.70
  -3   3  -8  200.58   13.20
  -3   3  -8  189.78   13.60
   3  -3   8  211.58   15.60
   3  -3   8  203.98   10.20
  -4   3  -8  247.58   16.30
  -4   3  -8  251.07   13.70
  -4   3  -8  238.08   14.40
   4  -3   8  250.07   17.20
  -5   3  -8   44.60    7.70
  -5   3  -8   18.00    6.10
  -5   3  -8   33.30    7.20
   5  -3   8   33.80    8.40
  -6   3  -8 1189.38   34.10
  -6   3  -8 1209.18   37.10
  -6   3  -8 1290.67   41.20
   6  -3   8 1168.68   31.30
   6  -3   8 1150.48   40.20
  -7   3  -8  150.08   15.50
  -7   3  -8  167.98   17.80
   7  -3   8  127.39   15.70
   7  -3   8  156.08    9.90
  -8   3  -8   70.59   11.90
  -8   3  -8  133.79   16.50
   8  -3   8   88.59   13.90
  -9   3  -8  313.17   21.70
  -9   3  -8  363.16   23.10
   9  -3   8  275.67   20.10
   9  -3   8  340.47   26.10
   8   2  -8  164.18   19.60
   8   2  -8  168.98   22.20
  -8  -2   8  183.58   19.30
  -8  -2   8  136.09   19.10
   7   2  -8   93.09   13.40
   7   2  -8   69.49   13.50
   7   2  -8   51.39   11.30
  -7  -2   8   74.59   11.50
  -7  -2   8   59.89   12.30
   6   2  -8  210.38   16.10
   6   2  -8  224.18   19.20
   6   2  -8  204.68   17.30
  -6  -2   8  235.68   15.70
  -6  -2   8  222.18   18.00
   5   2  -8  244.08   18.60
   5   2  -8  216.78   15.70
   5   2  -8  239.58   17.50
  -5  -2   8  258.07   18.10
  -5  -2   8  263.27   15.60
  -5  -2   8  247.58   15.20
   4   2  -8  477.85   23.10
   4   2  -8  396.46   20.60
   4   2  -8  462.55   24.30
  -4  -2   8  424.56   20.30
  -4  -2   8  423.76   22.30
  -4  -2   8  438.96   18.80
   3   2  -8 1858.61   49.10
   3   2  -8 1896.11   51.09
   3   2  -8 1879.91   49.30
  -3  -2   8 1897.11   43.00
  -3  -2   8 1811.12   47.40
  -3  -2   8 1766.62   48.50
   2   2  -8    6.60    4.70
   2   2  -8    5.80    3.90
   2   2  -8    5.50    3.90
  -2  -2   8    1.00    3.40
  -2  -2   8    3.10    3.80
  -2  -2   8    4.50    2.50
   1   2  -8  363.36   16.70
   1   2  -8  361.36   17.70
   1   2  -8  356.26   18.20
  -1  -2   8  365.36   13.50
  -1  -2   8  394.66   18.20
  -1  -2   8  365.56   18.70
   0   2  -8   -1.10    2.80
   0   2  -8   -1.90    2.30
   0  -2   8    1.40    1.60
   0  -2   8    1.30    2.80
   0  -2   8    1.80    3.20
  -1   2  -8 1241.78   35.70
  -1   2  -8 1303.47   35.30
  -1   2  -8 1259.07   26.40
   1  -2   8 1229.18   32.50
   1  -2   8 1242.88   37.80
   1  -2   8 1237.58   25.60
  -2   2  -8  648.14   24.10
  -2   2  -8  621.84   23.30
  -2   2  -8  673.03   18.90
   2  -2   8  639.44   15.50
   2  -2   8  651.83   20.90
  -3   2  -8  369.06   18.40
  -3   2  -8  403.36   15.40
  -3   2  -8  385.86   17.80
   3  -2   8  374.56   19.40
   3  -2   8  396.76   15.20
  -4   2  -8  103.89   12.10
  -4   2  -8   89.39    9.70
  -4   2  -8   92.59    9.70
   4  -2   8   97.49    6.10
   4  -2   8   97.19    7.50
   4  -2   8  133.99   14.70
  -5   2  -8    4.90    3.60
  -5   2  -8    6.10    3.80
  -5   2  -8    0.70    2.80
   5  -2   8    1.40    2.20
   5  -2   8   -2.10    2.60
  -6   2  -8  444.16   22.10
  -6   2  -8  471.65   18.60
  -6   2  -8  433.16   20.50
   6  -2   8  442.56   22.50
   6  -2   8  436.16   14.80
  -7   2  -8  746.43   30.20
  -7   2  -8  785.42   29.80
   7  -2   8  734.63   30.20
   7  -2   8  765.02   20.00
  -8   2  -8   88.29   12.70
  -8   2  -8   94.99   13.30
   8  -2   8   90.89   13.40
   8  -2   8   91.59   14.70
  -9   2  -8  362.76   22.30
  -9   2  -8  396.86   23.30
   9  -2   8  334.87   20.70
   9  -2   8  366.26   25.60
   8   1  -8  256.67   20.80
   8   1  -8  316.27   25.10
  -8  -1   8  307.27   20.20
  -8  -1   8  301.37   23.30
   7   1  -8  349.37   22.50
   7   1  -8  421.66   27.10
  -7  -1   8  416.16   22.10
  -7  -1   8  399.66   25.10
   6   1  -8   64.59   12.00
   6   1  -8   77.59   11.60
   6   1  -8   72.79   12.00
  -6  -1   8   73.79   12.80
  -6  -1   8   87.89   11.80
   5   1  -8  404.16   21.10
   5   1  -8  355.66   21.00
   5   1  -8  386.66   21.00
   5   1  -8  395.06   23.50
  -5  -1   8  401.46   22.90
  -5  -1   8  388.46   18.60
   4   1  -8   86.49   11.30
   4   1  -8   79.19   12.50
   4   1  -8   89.19   11.20
   4   1  -8   99.89   13.40
  -4  -1   8   85.19    9.70
  -4  -1   8   59.29   10.20
   3   1  -8 1511.45   42.20
   3   1  -8 1525.45   41.40
   3   1  -8 1423.46   43.20
   3   1  -8 1419.06   43.40
  -3  -1   8 1516.45   35.90
  -3  -1   8 1485.75   42.90
   2   1  -8  100.49   11.40
   2   1  -8  143.59   11.80
   2   1  -8  115.69   10.70
   2   1  -8  141.09   12.40
  -2  -1   8  147.19    8.70
  -2  -1   8  146.29   12.30
   1   1  -8  596.64   22.50
   1   1  -8  563.24   22.90
   1   1  -8  545.55   23.90
   1   1  -8  609.14   20.50
   1   1  -8  545.95   22.30
  -1  -1   8  590.54   22.80
  -1  -1   8  565.94   16.20
   0   1  -8  536.15   23.00
   0   1  -8  497.55   19.10
   0   1  -8  512.35   21.00
   0   1  -8  480.15   18.40
   0  -1   8  488.55   10.60
   0  -1   8  496.45   20.00
   0  -1   8  486.35   13.10
  -1   1  -8  533.55   21.00
  -1   1  -8  545.05   19.90
   1  -1   8  528.45   11.70
   1  -1   8  514.05   11.20
   1  -1   8  484.85   19.00
   1  -1   8  567.64   23.00
  -2   1  -8  982.70   24.10
  -2   1  -8  976.10   28.80
  -2   1  -8  978.00   29.00
   2  -1   8  957.80   31.70
   2  -1   8  977.00   27.30
   2  -1   8  963.80   20.10
  -3   1  -8    0.40    2.50
  -3   1  -8    1.30    2.40
  -3   1  -8    7.80    4.30
   3  -1   8    1.30    2.40
   3  -1   8   -1.50    2.20
   3  -1   8    3.20    2.00
  -4   1  -8 1156.18   30.90
  -4   1  -8 1197.08   34.60
  -4   1  -8 1147.79   31.40
   4  -1   8 1222.48   29.90
   4  -1   8 1189.28   27.00
   4  -1   8 1174.78   36.30
  -5   1  -8  481.65   18.10
  -5   1  -8  477.85   21.50
  -5   1  -8  475.65   19.40
   5  -1   8  498.25   22.20
   5  -1   8  461.75   16.50
  -6   1  -8   -2.20    2.90
  -6   1  -8   -1.70    2.80
  -6   1  -8    1.00    2.30
   6  -1   8    0.00    2.80
   6  -1   8    2.50    2.40
   6  -1   8    1.80    1.20
  -7   1  -8  401.36   20.40
  -7   1  -8  398.06   20.70
   7  -1   8  401.66   20.80
  -8   1  -8    0.30    4.50
  -8   1  -8    1.00    4.60
   8  -1   8    6.30    4.40
   8  -1   8   -1.80    2.80
  -9   1  -8  548.35   26.70
  -9   1  -8  515.95   26.20
   9  -1   8  502.65   28.90
   9  -1   8  518.75   24.40
 -10   1  -8  514.15   27.30
 -10   1  -8  538.85   27.90
  10  -1   8  507.75   30.70
   8   0  -8  193.98   22.60
   8   0  -8  179.58   19.20
  -8   0   8  176.18   18.50
  -8   0   8  177.08   21.20
   7   0  -8  389.26   22.90
   7   0  -8  395.86   22.90
   7   0  -8  415.06   26.70
  -7   0   8  357.96   20.60
   6   0  -8  234.38   17.00
   6   0  -8  234.18   19.00
   6   0  -8  256.67   17.50
  -6   0   8  209.68   17.40
  -6   0   8  215.98   14.90
   5   0  -8  893.91   31.50
   5   0  -8  870.11   33.00
   5   0  -8  865.81   35.40
  -5   0   8  944.11   30.30
  -5   0   8  892.81   34.60
   4   0  -8  198.88   14.20
   4   0  -8  204.78   15.80
   4   0  -8  169.38   14.10
   4   0  -8  191.08   13.90
  -4   0   8  201.58   15.60
  -4   0   8  220.08   12.90
   3   0  -8  393.86   20.70
   3   0  -8  401.36   18.80
   3   0  -8  410.56   21.00
   3   0  -8  421.56   20.10
  -3   0   8  395.76   15.80
  -3   0   8  406.36   20.80
   2   0  -8 1411.56   39.20
   2   0  -8 1429.76   37.30
   2   0  -8 1426.76   32.60
   2   0  -8 1422.76   40.00
   2   0  -8 1444.66   41.50
  -2   0   8 1456.35   40.30
  -2   0   8 1415.16   31.80
  -2   0   8 1362.06   31.50
   1   0  -8 1524.65   40.00
   1   0  -8 1496.05   34.00
   1   0  -8 1472.35   37.60
   1   0  -8 1496.75   41.70
   1   0  -8 1507.65   39.00
  -1   0   8 1464.25   39.70
  -1   0   8 1491.15   30.30
  -1   0   8 1444.86   30.70
   0   0  -8 1423.46   35.30
   0   0  -8 1399.66   37.30
   0   0  -8 1435.16   33.40
   0   0  -8 1370.06   39.00
   0   0   8 1431.96   28.80
   0   0   8 1442.46   26.20
   0   0   8 1359.26   36.50
  -1   0  -8  353.46   17.50
  -1   0  -8  307.57   13.10
  -1   0  -8  346.07   14.60
  -1   0  -8  360.36   16.50
   1   0   8  340.37   11.40
   1   0   8  352.96   14.70
   1   0   8  357.76   16.20
  -2   0  -8  289.47   15.30
  -2   0  -8  250.97   13.00
  -2   0  -8  275.17   13.90
   2   0   8  277.77   13.60
   2   0   8  251.97   11.30
   2   0   8  284.77   10.50
  -3   0  -8  178.38   11.90
  -3   0  -8  202.48   11.80
  -3   0  -8  162.48    9.80
  -3   0  -8  160.98   10.50
   3   0   8  171.68    8.10
   3   0   8  184.48   10.80
   3   0   8  178.48    8.60
  -4   0  -8  227.78   12.00
  -4   0  -8  230.38   12.20
  -4   0  -8  223.18   13.20
   4   0   8  244.28   12.20
   4   0   8  260.47   15.40
   4   0   8  238.18   10.70
   4   0   8  229.28    8.00
  -5   0  -8 1524.55   38.40
  -5   0  -8 1507.85   35.50
  -5   0  -8 1560.14   40.70
   5   0   8 1587.74   35.80
   5   0   8 1500.35   35.90
   5   0   8 1535.55   41.80
  -6   0  -8   43.70    7.40
  -6   0  -8   40.20    7.90
  -6   0  -8   47.50    6.40
   6   0   8   40.20    6.20
   6   0   8   49.50    8.20
  -7   0  -8   43.90    8.70
  -7   0  -8   27.50    6.70
   7   0   8   45.30    8.00
   7   0   8   38.60    8.10
   7   0   8   42.00    6.50
  -8   0  -8  200.68   15.30
  -8   0  -8  171.18   14.00
   8   0   8  212.58   14.50
   8   0   8  181.08   19.80
   8   0   8  213.18   12.10
  -9   0  -8  690.43   29.50
  -9   0  -8  665.73   29.20
   9   0   8  706.93   32.80
   9   0   8  679.23   26.70
 -10   0  -8  325.97   21.20
 -10   0  -8  303.87   20.60
  10   0   8  284.27   22.30
 -11   0  -8   31.70    9.70
  11   0   8   24.70    8.80
   8  -1  -8    6.00    7.60
   8  -1  -8   14.30    7.70
   8  -1  -8   14.00    7.00
  -8   1   8   25.10    9.60
   7  -1  -8  351.26   21.20
   7  -1  -8  375.66   21.90
   7  -1  -8  374.46   25.80
  -7   1   8  398.16   21.90
  -7   1   8  411.86   25.50
   6  -1  -8    5.20    5.20
   6  -1  -8    5.10    5.30
   6  -1  -8    0.60    3.70
  -6   1   8    0.90    4.50
  -6   1   8    1.20    3.30
   5  -1  -8  377.76   22.90
   5  -1  -8  364.16   19.20
   5  -1  -8  369.56   20.90
  -5   1   8  380.86   18.50
  -5   1   8  399.86   22.80
   4  -1  -8 1938.31   51.49
   4  -1  -8 1893.31   46.30
   4  -1  -8 1891.71   52.99
  -4   1   8 1830.92   51.49
  -4   1   8 1798.82   44.90
  -4   1   8 1894.11   44.50
   3  -1  -8  302.57   18.00
   3  -1  -8  293.47   15.30
   3  -1  -8  280.37   17.30
   3  -1  -8  316.27   11.40
  -3   1   8  309.37   14.80
  -3   1   8  318.37   14.10
  -3   1   8  294.47   18.00
   2  -1  -8  580.14   16.60
   2  -1  -8  572.74   24.30
   2  -1  -8  580.54   23.60
   2  -1  -8  578.54   23.10
   2  -1  -8  581.74   20.70
  -2   1   8  590.54   24.30
  -2   1   8  572.04   19.30
  -2   1   8  583.64   18.00
   1  -1  -8   23.30    6.10
   1  -1  -8   32.90    6.50
   1  -1  -8   33.00    5.90
   1  -1  -8   37.00    5.00
   1  -1  -8   33.60    6.60
  -1   1   8   42.80    8.10
  -1   1   8   33.10    5.60
   0  -1  -8 4309.67   85.59
   0  -1  -8 4415.66   83.19
   0  -1  -8 4440.96   75.79
   0  -1  -8 4507.55   80.99
   0   1   8 4345.06   75.89
   0   1   8 4195.58   83.09
  -1  -1  -8   57.79    8.40
  -1  -1  -8   64.89    6.90
  -1  -1  -8   69.19    8.70
  -1  -1  -8   82.39    6.60
   1   1   8   74.49    8.90
   1   1   8   75.09    6.50
   1   1   8   78.29    7.00
  -2  -1  -8  395.36   15.40
  -2  -1  -8  379.96   17.40
  -2  -1  -8  393.36   16.50
   2   1   8  401.36   16.80
   2   1   8  406.46   14.40
   2   1   8  382.46   14.00
  -3  -1  -8 1494.35   35.60
  -3  -1  -8 1525.65   38.00
  -3  -1  -8 1523.35   36.10
   3   1   8 1435.16   35.70
   3   1   8 1449.95   29.90
   3   1   8 1448.85   32.60
  -4  -1  -8  359.46   16.00
  -4  -1  -8  353.56   15.70
  -4  -1  -8  367.06   14.80
  -4  -1  -8  340.87   15.10
   4   1   8  345.37    9.10
   4   1   8  348.07   15.20
   4   1   8  354.56   14.00
  -5  -1  -8  238.58   12.30
  -5  -1  -8  218.58   12.80
  -5  -1  -8  219.18   13.30
  -5  -1  -8  228.38   11.10
   5   1   8  230.88   11.80
   5   1   8  224.48   12.10
   5   1   8  230.78   14.10
  -6  -1  -8  399.96   18.70
  -6  -1  -8  382.36   13.80
  -6  -1  -8  397.56   18.30
   6   1   8  397.86   16.40
   6   1   8  394.86   16.90
   6   1   8  381.66   18.30
  -7  -1  -8  239.38   15.30
  -7  -1  -8  244.58   12.00
  -7  -1  -8  226.78   14.90
   7   1   8  236.38   14.20
   7   1   8  231.38   12.90
   7   1   8  236.88   16.00
  -8  -1  -8  443.76   21.90
  -8  -1  -8  432.96   21.60
   8   1   8  397.16   22.10
   8   1   8  414.96   19.40
  -9  -1  -8  142.89   15.80
  -9  -1  -8  162.28   17.00
   9   1   8  133.39   16.30
   9   1   8  137.59   11.30
 -10  -1  -8  519.45   26.40
  10   1   8  545.55   29.40
 -11  -1  -8    7.90    5.80
  11   1   8   15.50    8.80
   8  -2  -8  125.49   16.30
   8  -2  -8  142.49   20.80
  -8   2   8  118.79   18.10
   7  -2  -8    4.20    5.40
   7  -2  -8   10.10    7.30
   7  -2  -8    8.90    5.40
  -7   2   8   14.70    8.00
   6  -2  -8  215.68   15.80
   6  -2  -8  211.28   16.40
   6  -2  -8  186.88   20.80
  -6   2   8  160.58   17.70
   5  -2  -8  107.29   14.90
   5  -2  -8  119.09   13.20
   5  -2  -8  114.59   14.20
  -5   2   8  130.39   16.00
  -5   2   8  123.09   13.80
   4  -2  -8 1172.08   38.60
   4  -2  -8 1330.27   42.30
   4  -2  -8 1176.58   33.80
  -4   2   8 1210.88   39.90
  -4   2   8 1238.68   36.60
   3  -2  -8  316.57   18.50
   3  -2  -8  286.47   17.40
   3  -2  -8  314.17   14.80
  -3   2   8  313.17   18.50
  -3   2   8  282.37   15.40
   2  -2  -8 1526.15   35.60
   2  -2  -8 1544.85   42.90
   2  -2  -8 1502.75   28.50
   2  -2  -8 1435.96   41.10
  -2   2   8 1509.35   42.20
  -2   2   8 1528.35   37.90
   1  -2  -8  360.86   14.40
   1  -2  -8  388.16   17.70
   1  -2  -8  369.86   18.80
   1  -2  -8  381.16   11.70
  -1   2   8  379.76   18.60
  -1   2   8  383.96   16.20
   0  -2  -8  741.33   23.80
   0  -2  -8  743.83   18.80
   0  -2  -8  719.33   26.10
   0   2   8  750.02   22.60
   0   2   8  700.63   25.00
  -1  -2  -8  722.73   21.70
  -1  -2  -8  801.82   20.70
  -1  -2  -8  790.02   26.70
   1   2   8  781.22   25.50
   1   2   8  728.13   22.70
   1   2   8  750.62   22.60
  -2  -2  -8  797.82   20.10
  -2  -2  -8  820.22   24.80
  -2  -2  -8  791.82   21.80
  -2  -2  -8  798.62   26.10
   2   2   8  788.02   23.00
   2   2   8  763.22   24.80
   2   2   8  737.23   21.20
  -3  -2  -8  759.22   16.20
  -3  -2  -8  776.12   22.70
  -3  -2  -8  802.92   25.40
  -3  -2  -8  776.92   23.40
  -3  -2  -8  769.12   23.30
   3   2   8  754.42   19.30
   3   2   8  773.22   24.40
   3   2   8  770.82   22.50
  -4  -2  -8  459.95   17.80
  -4  -2  -8  457.55   17.20
  -4  -2  -8  456.25   18.00
   4   2   8  445.86   17.90
   4   2   8  477.25   17.30
  -5  -2  -8  294.57   13.60
  -5  -2  -8  291.97   13.30
  -5  -2  -8  282.87   14.60
  -5  -2  -8  287.37   14.60
   5   2   8  277.37   13.60
   5   2   8  283.17   14.00
  -6  -2  -8    0.80    2.60
  -6  -2  -8    8.10    4.10
  -6  -2  -8    5.00    2.60
  -6  -2  -8   11.30    3.60
   6   2   8    0.90    2.40
   6   2   8    6.00    3.10
   6   2   8    9.90    3.90
  -7  -2  -8   84.99    9.00
  -7  -2  -8   63.39    9.30
  -7  -2  -8   57.89    9.20
   7   2   8   61.09    8.60
   7   2   8   68.59   10.10
   7   2   8   55.69    8.20
  -8  -2  -8 1406.96   34.30
  -8  -2  -8 1383.46   41.20
  -8  -2  -8 1461.65   42.00
   8   2   8 1366.16   37.40
   8   2   8 1465.55   43.40
  -9  -2  -8  170.18   10.50
  -9  -2  -8  156.98   16.40
   9   2   8  173.08   12.10
   9   2   8  152.08   17.00
 -10  -2  -8   34.70    8.40
  10   2   8   25.50    8.30
 -11  -2  -8  280.77   20.70
  11   2   8  319.47   23.20
   7  -3  -8   85.39   15.60
   7  -3  -8   73.69   12.60
   7  -3  -8   59.69   11.30
  -7   3   8   73.39   14.00
   6  -3  -8  476.05   27.70
   6  -3  -8  456.35   24.30
   6  -3  -8  458.35   21.90
  -6   3   8  445.26   25.40
   5  -3  -8  107.29   11.80
   5  -3  -8  113.29   15.30
   5  -3  -8  116.09   14.90
  -5   3   8  110.19   14.30
  -5   3   8   86.49   12.10
   4  -3  -8  609.94   28.30
   4  -3  -8  656.23   27.50
   4  -3  -8  630.04   22.70
  -4   3   8  620.24   27.40
  -4   3   8  645.44   26.40
   3  -3  -8  429.66   16.90
   3  -3  -8  456.05   22.10
   3  -3  -8  428.56   22.30
  -3   3   8  441.56   22.20
  -3   3   8  419.86   20.00
   2  -3  -8  942.61   32.00
   2  -3  -8  943.51   24.80
   2  -3  -8  934.01   32.10
  -2   3   8  904.51   29.40
  -2   3   8  966.10   32.40
   1  -3  -8 2309.97   38.60
   1  -3  -8 2270.57   53.49
   1  -3  -8 2361.46   45.10
   1  -3  -8 2403.86   56.19
  -1   3   8 2390.86   55.59
  -1   3   8 2278.37   52.09
   0  -3  -8   47.00    7.70
   0  -3  -8   55.99    7.90
   0  -3  -8   59.49    4.30
   0   3   8   54.89    8.00
   0   3   8   53.39    8.50
  -1  -3  -8 1049.09   31.60
  -1  -3  -8 1008.40   27.10
  -1  -3  -8  994.20   22.70
   1   3   8  885.11   31.20
   1   3   8 1006.20   28.80
   1   3   8 1015.00   30.30
  -2  -3  -8    1.90    2.60
  -2  -3  -8    1.20    2.70
  -2  -3  -8    2.30    2.30
  -2  -3  -8    6.90    1.10
  -2  -3  -8    7.80    2.80
   2   3   8    4.60    3.30
   2   3   8    6.40    2.80
   2   3   8   10.90    4.30
  -3  -3  -8 1838.92   34.50
  -3  -3  -8 1822.92   41.20
  -3  -3  -8 1862.41   39.30
  -3  -3  -8 1836.62   43.50
   3   3   8 1796.72   43.00
   3   3   8 1796.02   41.70
  -4  -3  -8  829.72   24.20
  -4  -3  -8  833.42   24.80
  -4  -3  -8  826.92   25.40
   4   3   8  825.02   25.90
   4   3   8  784.22   24.70
  -5  -3  -8    8.50    3.30
  -5  -3  -8    7.90    1.70
  -5  -3  -8    7.50    3.40
  -5  -3  -8    5.90    3.40
   5   3   8   13.70    4.50
   5   3   8   10.90    4.10
   5   3   8   10.30    3.30
  -6  -3  -8  379.16   17.70
  -6  -3  -8  422.16   18.90
  -6  -3  -8  407.96   12.00
  -6  -3  -8  392.76   15.30
  -6  -3  -8  424.06   16.70
   6   3   8  396.06   17.10
   6   3   8  427.86   18.50
  -7  -3  -8    3.80    3.80
  -7  -3  -8   10.80    3.90
  -7  -3  -8   10.80    3.00
  -7  -3  -8   10.60    3.00
   7   3   8    6.50    3.40
   7   3   8   13.80    4.50
  -8  -3  -8  210.68   11.00
  -8  -3  -8  229.08   12.40
  -8  -3  -8  241.68   15.90
   8   3   8  207.18   14.40
   8   3   8  221.28   15.00
   8   3   8  234.08   13.40
  -9  -3  -8  299.47   18.50
  -9  -3  -8  284.97   13.90
  -9  -3  -8  276.67   14.00
   9   3   8  290.57   18.60
 -10  -3  -8   24.60    7.70
  10   3   8   25.60    7.60
 -11  -3  -8  661.23   30.90
  11   3   8  630.94   31.50
   7  -4  -8   60.19   11.40
   7  -4  -8  109.29   17.60
  -7   4   8  111.89   17.30
   6  -4  -8  208.68   15.40
   6  -4  -8  239.68   17.80
   6  -4  -8  237.28   20.00
  -6   4   8  266.07   19.90
  -6   4   8  249.18   19.30
   5  -4  -8  721.63   33.30
   5  -4  -8  674.53   25.20
   5  -4  -8  732.33   30.70
  -5   4   8  692.63   30.60
  -5   4   8  698.03   31.00
   4  -4  -8   43.60    9.90
   4  -4  -8   40.80    8.80
   4  -4  -8   32.80    6.60
  -4   4   8   30.90    8.50
  -4   4   8   34.60    8.30
   3  -4  -8  147.09   13.50
   3  -4  -8  142.49   12.60
   3  -4  -8  141.59    9.60
  -3   4   8  153.38   13.00
  -3   4   8  139.69   15.10
   2  -4  -8   25.60    4.30
   2  -4  -8   27.40    6.80
   2  -4  -8   25.20    6.40
  -2   4   8   18.70    5.90
  -2   4   8   29.70    7.30
   1  -4  -8 2749.32   63.79
   1  -4  -8 2816.82   49.99
   1  -4  -8 2914.91   63.49
  -1   4   8 2795.32   63.29
  -1   4   8 2846.82   62.69
   0  -4  -8   94.89   10.60
   0  -4  -8   80.29   10.60
   0   4   8   72.79    9.60
   0   4   8   98.69   11.30
  -1  -4  -8  467.05   20.60
  -1  -4  -8  493.35   18.80
  -1  -4  -8  514.85   19.00
   1   4   8  524.55   21.10
   1   4   8  496.95   11.30
   1   4   8  493.45   20.50
  -2  -4  -8 1172.48   31.30
  -2  -4  -8 1204.88   34.40
  -2  -4  -8 1212.78   29.70
   2   4   8 1187.78   33.70
   2   4   8 1221.18   33.70
   2   4   8 1159.38   21.30
  -3  -4  -8  575.54   21.80
  -3  -4  -8  567.84   20.00
  -3  -4  -8  568.24   16.80
   3   4   8  576.14   13.90
   3   4   8  574.04   21.60
   3   4   8  613.84   22.30
   3   4   8  570.74   13.70
  -4  -4  -8  309.97   15.20
  -4  -4  -8  307.67   14.40
  -4  -4  -8  299.07    9.80
  -4  -4  -8  322.27    9.50
   4   4   8  308.87   11.00
   4   4   8  326.07   15.80
   4   4   8  325.37   15.70
  -5  -4  -8   24.80    5.10
  -5  -4  -8   22.40    5.10
  -5  -4  -8   29.80    3.70
   5   4   8   30.90    6.30
   5   4   8   28.40    6.30
   5   4   8   28.70    4.60
  -6  -4  -8 1385.36   33.80
  -6  -4  -8 1373.56   34.70
  -6  -4  -8 1390.46   29.40
   6   4   8 1384.76   38.20
   6   4   8 1367.36   34.10
  -7  -4  -8  138.49    8.70
  -7  -4  -8  139.59    9.90
  -7  -4  -8  138.09    8.20
   7   4   8  142.39   11.70
   7   4   8  128.99   10.40
  -8  -4  -8   -3.80    2.60
  -8  -4  -8    1.30    2.40
  -8  -4  -8    6.00    3.40
   8   4   8    2.20    3.10
   8   4   8    1.10    3.10
  -9  -4  -8  457.35   18.20
  -9  -4  -8  458.35   18.70
  -9  -4  -8  445.56   23.00
   9   4   8  467.85   23.30
   9   4   8  442.66   22.20
 -10  -4  -8    0.30    2.70
 -10  -4  -8    8.40    4.60
 -10  -4  -8    4.80    4.70
  10   4   8    5.70    4.10
  10   4   8    5.80    4.80
 -11  -4  -8  121.79   16.10
  11   4   8  140.59   17.30
   7  -5  -8   53.99   11.20
   7  -5  -8   45.60   13.00
  -7   5   8   38.60   10.30
   6  -5  -8  247.98   18.90
   6  -5  -8  231.88   21.00
  -6   5   8  225.48   19.40
  -6   5   8  242.28   19.10
   5  -5  -8  314.67   22.70
   5  -5  -8  307.37   20.10
  -5   5   8  292.67   20.70
  -5   5   8  296.07   20.20
   4  -5  -8   60.29   11.00
   4  -5  -8   56.79   11.10
  -4   5   8   55.29   10.80
  -4   5   8   40.80    9.30
   3  -5  -8 1552.54   48.60
   3  -5  -8 1688.23   48.50
  -3   5   8 1647.64   48.30
  -3   5   8 1669.83   47.70
   2  -5  -8   31.40    7.20
   2  -5  -8   40.70    8.40
   2  -5  -8   48.80    9.30
  -2   5   8   38.00    8.40
  -2   5   8   33.10    8.30
   1  -5  -8   67.59   10.20
   1  -5  -8   53.09    9.40
  -1   5   8   84.69   11.90
  -1   5   8   82.39   11.20
   0  -5  -8 1023.20   33.80
   0  -5  -8 1014.20   29.50
   0  -5  -8 1104.59   33.30
   0   5   8 1024.20   33.70
   0   5   8 1016.20   32.70
  -1  -5  -8 1771.72   42.00
  -1  -5  -8 1799.02   46.80
  -1  -5  -8 1805.92   43.90
   1   5   8 1890.51   46.20
   1   5   8 1806.02   46.70
  -2  -5  -8  532.65   22.10
  -2  -5  -8  535.15   19.60
  -2  -5  -8  533.75   19.50
   2   5   8  543.05   22.70
   2   5   8  543.45   21.70
  -3  -5  -8 1486.45   39.20
  -3  -5  -8 1419.36   33.40
  -3  -5  -8 1477.95   36.50
   3   5   8 1375.56   39.00
   3   5   8 1440.26   38.60
  -4  -5  -8 2480.05   46.70
  -4  -5  -8 2432.36   52.19
  -4  -5  -8 2477.15   54.59
   4   5   8 2389.66   55.39
   4   5   8 2502.35   55.29
   4   5   8 2427.16   41.10
  -5  -5  -8  119.59   11.20
  -5  -5  -8  123.69    7.30
  -5  -5  -8  123.19    9.70
   5   5   8  127.39   12.90
   5   5   8  114.29    6.80
   5   5   8  115.39   12.00
  -6  -5  -8  164.78   10.50
  -6  -5  -8  149.88    8.60
  -6  -5  -8  150.68   10.70
   6   5   8  154.68    9.20
   6   5   8  165.58   12.50
  -7  -5  -8 2222.98   49.70
  -7  -5  -8 2239.08   45.60
  -7  -5  -8 2199.28   46.60
   7   5   8 2090.09   53.59
   7   5   8 2187.68   48.40
  -8  -5  -8  183.08   12.10
  -8  -5  -8  160.08   10.50
   8   5   8  173.68   13.60
   8   5   8  171.88   12.20
  -9  -5  -8    2.40    3.20
  -9  -5  -8    2.30    3.00
   9   5   8    2.00    3.30
   9   5   8    2.00    3.20
 -10  -5  -8  204.68   13.20
 -10  -5  -8  209.48   13.50
  10   5   8  205.98   16.00
  10   5   8  234.08   17.40
 -11  -5  -8  251.57   15.20
  11   5   8  215.48   17.80
  11   5   8  277.07   20.30
   6  -6  -8   58.39   11.80
   6  -6  -8   60.39   13.10
  -6   6   8   95.39   14.10
  -6   6   8   88.99   15.60
   5  -6  -8  227.68   17.90
   5  -6  -8  169.78   20.90
  -5   6   8  257.47   20.50
  -5   6   8  228.88   18.20
   4  -6  -8   60.99   11.90
   4  -6  -8   62.69   11.20
  -4   6   8   83.69   13.80
  -4   6   8   80.09   12.40
   3  -6  -8  225.08   16.90
   3  -6  -8  208.38   17.30
  -3   6   8  221.68   17.30
  -3   6   8  227.18   16.70
   2  -6  -8 1280.37   41.80
   2  -6  -8 1366.06   43.80
  -2   6   8 1331.67   43.10
  -2   6   8 1266.57   39.90
   1  -6  -8   10.30    5.40
   1  -6  -8   10.50    4.10
   1  -6  -8   17.10    5.80
  -1   6   8    9.50    5.90
  -1   6   8   17.30    6.10
   0  -6  -8  759.92   29.10
   0  -6  -8  711.93   27.50
   0  -6  -8  718.53   24.20
   0   6   8  767.52   28.00
   0   6   8  743.13   29.50
  -1  -6  -8   90.79    9.80
  -1  -6  -8   79.59   10.60
  -1  -6  -8   99.79   11.40
   1   6   8   91.19   11.80
   1   6   8   99.79   11.90
  -2  -6  -8 1478.35   37.90
  -2  -6  -8 1467.05   41.80
  -2  -6  -8 1553.24   39.60
   2   6   8 1526.45   41.00
   2   6   8 1567.14   43.60
  -3  -6  -8  661.43   22.20
  -3  -6  -8  651.43   22.50
  -3  -6  -8  638.04   24.80
   3   6   8  645.04   24.60
   3   6   8  665.13   26.40
  -4  -6  -8  291.07   15.00
  -4  -6  -8  316.17   16.70
  -4  -6  -8  320.97   14.30
   4   6   8  318.87   17.70
   4   6   8  359.16   17.70
  -5  -6  -8  746.23   25.60
  -5  -6  -8  768.42   21.80
  -5  -6  -8  723.53   24.60
   5   6   8  761.72   28.10
   5   6   8  681.03   25.80
  -6  -6  -8  218.38   11.60
  -6  -6  -8  244.58   14.00
  -6  -6  -8  230.18   13.20
   6   6   8  253.17   16.00
   6   6   8  242.88   10.60
  -7  -6  -8  256.57   13.10
  -7  -6  -8  281.87   14.20
  -7  -6  -8  287.47   15.30
   7   6   8  265.67   13.00
   7   6   8  286.57   17.60
  -8  -6  -8  103.29    8.90
  -8  -6  -8  116.79   11.80
   8   6   8  113.29   14.10
   8   6   8  111.29    9.80
  -9  -6  -8  345.07   17.60
  -9  -6  -8  359.26   17.30
   9   6   8  353.36   21.30
   9   6   8  331.47   17.80
 -10  -6  -8   69.49    9.90
 -10  -6  -8   44.90    8.10
  10   6   8   62.19   10.50
  10   6   8   84.39   13.30
 -11  -6  -8   52.89    8.80
 -11  -6  -8   40.70   10.30
  11   6   8   40.80    9.90
  11   6   8   40.10   10.20
   5  -7  -8   67.39   14.10
   5  -7  -8   89.89   14.60
  -5   7   8   66.79   13.50
  -5   7   8   70.29   12.90
   4  -7  -8  214.88   17.80
   4  -7  -8  251.27   20.70
  -4   7   8  225.08   17.30
  -4   7   8  243.68   19.90
   3  -7  -8  201.78   16.70
   3  -7  -8  194.18   17.40
  -3   7   8  215.98   18.30
  -3   7   8  218.88   16.50
   2  -7  -8  337.87   20.70
   2  -7  -8  328.17   21.20
  -2   7   8  377.36   23.00
  -2   7   8  310.17   19.10
   1  -7  -8   15.70    6.10
   1  -7  -8   23.50    7.30
   1  -7  -8   34.40    6.80
  -1   7   8   21.20    6.50
  -1   7   8   15.30    6.40
   0  -7  -8  569.04   26.00
   0  -7  -8  571.94   25.60
   0  -7  -8  533.95   21.10
   0   7   8  538.15   23.80
   0   7   8  518.05   25.70
  -1  -7  -8  612.64   22.60
  -1  -7  -8  679.23   27.80
  -1  -7  -8  665.43   26.50
   1   7   8  631.54   25.50
   1   7   8  658.03   28.40
  -2  -7  -8  305.57   16.80
  -2  -7  -8  301.97   15.10
  -2  -7  -8  258.87   16.60
   2   7   8  313.77   17.20
   2   7   8  281.17   18.40
  -3  -7  -8  685.23   24.20
  -3  -7  -8  740.63   27.80
  -3  -7  -8  674.03   24.70
   3   7   8  653.23   28.00
   3   7   8  715.93   26.70
  -4  -7  -8   12.90    4.70
  -4  -7  -8   14.60    5.00
   4   7   8    6.20    4.90
   4   7   8   13.40    5.00
  -5  -7  -8 4092.99   82.39
  -5  -7  -8 4124.99   80.69
   5   7   8 4236.58   84.39
   5   7   8 3980.30   85.89
  -6  -7  -8   22.00    5.80
  -6  -7  -8   16.70    5.00
  -6  -7  -8   12.20    3.90
   6   7   8   24.00    7.10
  -7  -7  -8   92.59   10.60
  -7  -7  -8   86.79    9.90
  -7  -7  -8   97.59   11.30
   7   7   8   91.69   12.80
  -8  -7  -8  131.09   10.70
  -8  -7  -8  138.19   13.80
  -8  -7  -8  133.39   11.60
   8   7   8  127.79   14.90
  -9  -7  -8  495.15   21.40
  -9  -7  -8  510.75   22.60
   9   7   8  468.35   25.50
 -10  -7  -8  184.08   14.20
 -10  -7  -8  188.18   14.10
  10   7   8  180.58   19.40
 -11  -7  -8  262.37   17.50
 -11  -7  -8  260.17   16.80
  11   7   8  221.08   22.80
   4  -8  -8  547.55   29.20
   4  -8  -8  510.85   30.90
  -4   8   8  524.75   30.20
  -4   8   8  520.65   26.10
   3  -8  -8   -1.30    4.50
   3  -8  -8   -2.00    4.00
  -3   8   8    1.40    4.30
  -3   8   8    2.00    5.60
   2  -8  -8   18.10    7.50
   2  -8  -8   18.40    6.90
  -2   8   8   35.10    9.90
  -2   8   8   13.60    5.90
   1  -8  -8  530.25   27.20
   1  -8  -8  471.85   25.20
   1  -8  -8  486.95   20.60
  -1   8   8  527.35   28.20
  -1   8   8  498.25   23.90
   0  -8  -8  266.37   18.40
   0  -8  -8  275.07   15.20
   0  -8  -8  250.17   18.10
   0   8   8  259.97   17.00
   0   8   8  282.87   19.70
  -1  -8  -8 1067.29   32.40
  -1  -8  -8 1157.28   39.10
  -1  -8  -8 1098.99   37.70
   1   8   8 1171.88   41.00
   1   8   8 1105.69   35.70
  -2  -8  -8   44.90    9.00
  -2  -8  -8   46.30    8.50
  -2  -8  -8   45.10    7.60
   2   8   8   41.80    8.30
   2   8   8   56.49   11.20
  -3  -8  -8  789.32   29.00
  -3  -8  -8  774.02   30.30
  -3  -8  -8  799.52   27.20
   3   8   8  763.82   28.50
   3   8   8  791.82   32.20
  -4  -8  -8   21.90    5.70
  -4  -8  -8   23.90    6.70
   4   8   8   28.60    6.80
   4   8   8   16.40    6.60
  -5  -8  -8  802.92   29.90
  -5  -8  -8  804.22   28.10
   5   8   8  861.51   33.50
   5   8   8  802.12   29.90
  -6  -8  -8  299.87   17.10
  -6  -8  -8  319.87   17.70
  -6  -8  -8  317.57   16.30
   6   8   8  284.17   19.10
  -7  -8  -8  277.87   16.60
  -7  -8  -8  295.87   16.60
  -7  -8  -8  276.37   15.70
   7   8   8  282.97   19.30
  -8  -8  -8  132.49   14.20
  -8  -8  -8  102.69   12.10
  -8  -8  -8  107.09   11.80
   8   8   8   98.49   13.90
  -9  -8  -8    2.50    4.00
  -9  -8  -8    2.40    4.00
   9   8   8   -1.60    3.80
 -10  -8  -8  393.26   21.10
 -10  -8  -8  374.96   20.70
  10   8   8  429.16   25.50
 -11  -8  -8   11.20    5.80
 -11  -8  -8   26.20    7.20
  11   8   8   20.40    8.00
   3  -9  -8  361.46   24.40
   3  -9  -8  342.87   25.60
  -3   9   8  344.67   25.00
  -3   9   8  356.06   21.40
   2  -9  -8  191.38   21.90
   2  -9  -8  206.08   18.00
  -2   9   8  252.67   20.90
  -2   9   8  233.68   16.80
   1  -9  -8    2.20    4.60
   1  -9  -8    3.10    4.60
   1  -9  -8    7.40    4.20
  -1   9   8   -3.40    4.40
  -1   9   8    1.90    5.30
   0  -9  -8   35.40    8.90
   0  -9  -8   33.30    8.70
   0  -9  -8   36.90    7.20
   0   9   8   38.90   10.20
   0   9   8   41.20    8.70
  -1  -9  -8 1190.68   34.90
  -1  -9  -8 1161.28   41.50
  -1  -9  -8 1199.78   41.40
   1   9   8 1141.49   37.30
   1   9   8 1147.39   42.50
  -2  -9  -8  124.39   12.80
  -2  -9  -8  124.49   16.00
  -2  -9  -8  108.39   14.20
   2   9   8  128.79   14.40
   2   9   8  120.69   16.00
  -3  -9  -8  556.24   26.40
  -3  -9  -8  496.95   21.80
  -3  -9  -8  490.85   24.90
   3   9   8  502.45   27.30
   3   9   8  526.85   23.80
  -4  -9  -8 1426.16   40.30
  -4  -9  -8 1434.86   44.30
   4   9   8 1395.26   41.70
   4   9   8 1426.16   47.10
  -5  -9  -8  304.27   17.50
  -5  -9  -8  281.87   18.20
   5   9   8  311.97   18.50
   5   9   8  325.37   21.60
  -6  -9  -8  573.84   24.40
  -6  -9  -8  579.14   25.60
   6   9   8  509.55   26.90
  -7  -9  -8   76.39   11.30
  -7  -9  -8   60.49    9.80
  -7  -9  -8   76.39   11.50
   7   9   8   76.79   13.30
  -8  -9  -8  556.64   24.90
  -8  -9  -8  570.04   24.40
  -8  -9  -8  555.94   25.10
   8   9   8  604.24   30.10
  -9  -9  -8   43.20    8.80
  -9  -9  -8   68.09   10.80
   9   9   8   81.19   13.90
 -10  -9  -8   -1.10    4.00
 -10  -9  -8    5.00    4.50
  10   9   8   -1.80    4.90
   2 -10  -8    8.30    6.90
   2 -10  -8    1.20    5.00
  -2  10   8    9.00    7.00
   1 -10  -8  370.36   25.40
   1 -10  -8  352.76   23.80
   1 -10  -8  388.26   25.20
   1 -10  -8  355.76   18.30
  -1  10   8  362.76   21.50
  -1  10   8  393.86   26.80
   0 -10  -8   39.10    7.60
   0 -10  -8   25.30    8.60
   0 -10  -8   28.60    8.40
   0 -10  -8   24.50    8.40
   0  10   8   29.90    8.00
   0  10   8   25.80    9.50
  -1 -10  -8   18.80    7.70
  -1 -10  -8   52.99    9.30
  -1 -10  -8   33.20    9.00
  -1 -10  -8   37.10    9.40
   1  10   8   60.39   13.20
   1  10   8   41.30    9.50
  -2 -10  -8  563.54   28.70
  -2 -10  -8  583.24   29.30
  -2 -10  -8  522.75   22.90
   2  10   8  563.14   25.40
   2  10   8  593.54   31.10
  -3 -10  -8  316.47   17.80
  -3 -10  -8  277.57   19.90
   3  10   8  256.87   21.00
   3  10   8  245.88   16.90
  -4 -10  -8  305.07   20.60
  -4 -10  -8  326.47   18.40
   4  10   8  333.27   19.50
   4  10   8  338.97   22.70
  -5 -10  -8   19.90    6.60
  -5 -10  -8   24.00    7.80
   5  10   8   24.40    8.90
   5  10   8   20.60    6.60
  -6 -10  -8  565.74   25.30
  -6 -10  -8  551.14   26.40
   6  10   8  565.34   26.30
   6  10   8  593.14   30.50
  -7 -10  -8    0.10    4.40
  -7 -10  -8    4.40    4.20
  -7 -10  -8   -1.60    3.50
   7  10   8   -2.40    5.60
  -8 -10  -8  277.77   18.60
  -8 -10  -8  294.37   19.10
  -8 -10  -8  286.07   18.40
   8  10   8  301.47   22.60
  -9 -10  -8  305.07   19.70
  -9 -10  -8  275.67   19.30
   9  10   8  317.67   23.50
   0 -11  -8  266.07   22.10
   0 -11  -8  291.67   22.30
   0 -11  -8  301.07   23.20
   0 -11  -8  251.87   16.30
   0  11   8  268.27   27.20
  -1 -11  -8    4.50    5.70
  -1 -11  -8    6.00    6.20
  -1 -11  -8   -1.00    4.00
  -1 -11  -8    2.50    4.80
   1  11   8    2.50    4.40
   1  11   8   -0.10    6.30
  -2 -11  -8  255.47   16.40
  -2 -11  -8  236.18   19.30
  -2 -11  -8  292.37   21.80
   2  11   8  234.58   17.00
   2  11   8  266.77   22.70
  -3 -11  -8   16.70    8.00
  -3 -11  -8    9.00    5.50
   3  11   8   12.50    8.30
   3  11   8   17.40    6.70
  -4 -11  -8  779.52   30.20
  -4 -11  -8  799.12   35.30
   4  11   8  723.73   30.70
   4  11   8  802.02   37.60
  -5 -11  -8  164.18   18.60
  -5 -11  -8  147.79   16.30
   5  11   8  139.49   15.80
   5  11   8  141.89   18.60
  -6 -11  -8  101.69   13.60
  -6 -11  -8  114.39   16.00
   6  11   8  136.79   16.70
   6  11   8  106.19   17.50
  -7 -11  -8  334.47   20.70
  -7 -11  -8  328.57   21.20
  -7 -11  -8  347.07   22.00
   7  11   8  334.27   24.90
  -8 -11  -8   59.89   11.40
  -8 -11  -8   41.20    9.70
  -8 -11  -8   57.59   10.60
   8  11   8   50.29   12.90
  -2 -12  -8   58.89   10.20
  -2 -12  -8   74.99   14.30
  -2 -12  -8   50.29   12.00
   2  12   8   34.10   11.60
  -3 -12  -8  146.19   19.00
  -3 -12  -8  161.78   20.70
  -3 -12  -8  168.38   17.10
   3  12   8  129.29   19.40
   3  12   8  136.69   16.20
  -4 -12  -8  132.69   19.20
  -4 -12  -8   73.59   11.40
   4  12   8   89.49   13.30
   4  12   8   82.49   15.00
  -5 -12  -8  220.28   19.50
  -5 -12  -8  182.48   19.10
   5  12   8  183.78   19.10
   5  12   8  157.38   21.00
  -6 -12  -8   49.50   11.60
  -6 -12  -8   50.89   10.10
   6  12   8   73.59   12.60
   6  12   8   54.09   13.20
   2   7  -9   46.80   11.10
   2   7  -9   48.40   11.10
  -2  -7   9   42.30   11.20
   1   7  -9   47.30   10.70
   1   7  -9   30.80    9.30
  -1  -7   9   34.50    9.70
   0   7  -9  101.99   15.80
   0   7  -9  105.59   14.90
   0  -7   9  100.99   16.70
  -1   7  -9   25.20    9.00
  -1   7  -9   28.10    9.10
   1  -7   9   17.30    8.10
  -2   7  -9    3.90    5.10
  -2   7  -9   20.20    7.80
   2  -7   9   12.90    7.70
   4   6  -9  355.96   23.30
  -4  -6   9  338.97   22.00
  -4  -6   9  344.77   21.30
   3   6  -9   43.90   11.10
  -3  -6   9   42.60   10.10
   2   6  -9   95.09   14.50
  -2  -6   9   88.29   14.00
   1   6  -9   27.10    9.10
   1   6  -9   39.90    9.40
  -1  -6   9   31.70    9.30
   0   6  -9  417.66   24.50
   0   6  -9  440.46   24.80
   0  -6   9  476.95   27.50
  -1   6  -9   24.90    8.30
  -1   6  -9   21.80    7.60
   1  -6   9   36.30    9.50
  -2   6  -9   -0.70    4.90
  -2   6  -9   -1.10    3.80
   2  -6   9   -0.50    5.00
  -3   6  -9  306.97   21.30
  -3   6  -9  311.47   20.80
   3  -6   9  324.07   24.10
  -4   6  -9   -0.40    4.90
  -4   6  -9   -0.50    5.00
   4  -6   9    0.70    5.30
   5   5  -9  111.59   15.60
   5   5  -9  118.09   16.70
  -5  -5   9  107.19   15.00
   4   5  -9  147.59   17.90
   4   5  -9  123.19   16.80
  -4  -5   9  117.09   15.00
  -4  -5   9  162.08   17.90
   3   5  -9   23.60    8.10
  -3  -5   9   39.60    8.20
  -3  -5   9   30.30    8.70
   2   5  -9  448.86   24.90
  -2  -5   9  436.86   24.40
  -2  -5   9  414.86   20.90
   1   5  -9   84.29   12.40
   1   5  -9   87.99   13.10
  -1  -5   9  102.09   14.80
  -1  -5   9  102.39   12.90
   0   5  -9   60.29   10.90
   0   5  -9   58.29   10.50
   0  -5   9   66.09   12.50
  -1   5  -9  276.07   18.90
  -1   5  -9  297.97   19.30
   1  -5   9  296.27   20.90
  -2   5  -9  118.99   14.70
  -2   5  -9  114.69   15.20
   2  -5   9  133.29   17.40
  -3   5  -9  243.68   18.30
  -3   5  -9  245.68   17.50
   3  -5   9  261.37   20.00
  -4   5  -9   65.89   11.60
  -4   5  -9   73.69   11.60
   4  -5   9   56.69   12.20
  -5   5  -9   84.89   12.40
  -5   5  -9   93.39   14.40
  -5   5  -9   90.99   11.70
   5  -5   9   92.89   15.90
  -6   5  -9   13.00    7.20
  -6   5  -9   11.00    5.80
  -6   5  -9    9.40    6.10
   6  -5   9    9.90    5.00
   6  -5   9    6.10    6.70
   6   4  -9  291.27   20.90
   6   4  -9  328.27   23.90
   6   4  -9  352.86   25.00
  -6  -4   9  329.87   20.00
  -6  -4   9  319.37   22.90
   5   4  -9  213.18   22.50
   5   4  -9  208.88   20.60
  -5  -4   9  213.18   16.00
  -5  -4   9  198.68   21.10
  -5  -4   9  214.78   15.20
   4   4  -9  399.36   23.50
   4   4  -9  416.86   24.90
  -4  -4   9  423.66   20.60
  -4  -4   9  443.26   23.00
  -4  -4   9  436.76   23.90
   3   4  -9    7.40    4.90
  -3  -4   9   13.10    5.50
  -3  -4   9   16.60    6.20
   2   4  -9  304.37   19.40
  -2  -4   9  298.17   17.80
  -2  -4   9  301.37   19.50
   1   4  -9  862.01   33.30
   1   4  -9  851.51   31.40
  -1  -4   9  865.91   34.00
  -1  -4   9  904.81   30.30
   0   4  -9  104.59   13.40
   0   4  -9   92.09   12.80
   0  -4   9   73.89   11.60
   0  -4   9  100.39   11.30
  -1   4  -9  123.29   14.40
  -1   4  -9  131.09   14.70
   1  -4   9  105.79   14.30
   1  -4   9  130.49   18.10
  -2   4  -9   30.30    7.30
  -2   4  -9   17.10    6.70
   2  -4   9   21.40    8.00
  -3   4  -9  604.94   26.00
  -3   4  -9  619.64   27.40
   3  -4   9  625.44   30.00
  -4   4  -9  205.58   14.90
  -4   4  -9  172.58   12.10
  -4   4  -9  185.88   19.10
   4  -4   9  195.88   20.80
  -5   4  -9   13.20    5.40
  -5   4  -9    1.00    3.50
  -5   4  -9   10.50    5.80
   5  -4   9    5.90    5.80
  -6   4  -9  247.28   18.70
  -6   4  -9  238.38   15.90
  -6   4  -9  278.27   17.60
   6  -4   9  252.37   20.00
  -7   4  -9    7.30    6.30
  -7   4  -9   20.20    7.40
   7  -4   9   13.00    7.10
   7   3  -9   -0.30    5.50
   7   3  -9    4.90    6.30
   7   3  -9   -4.10    4.80
  -7  -3   9    2.80    5.20
  -7  -3   9    0.90    5.50
   6   3  -9  316.67   22.60
   6   3  -9  358.26   22.30
   6   3  -9  317.07   23.90
  -6  -3   9  330.47   23.10
  -6  -3   9  275.57   18.00
   5   3  -9  137.09   17.60
   5   3  -9  135.09   18.40
   5   3  -9  104.39   14.30
  -5  -3   9  129.59   14.10
  -5  -3   9  120.29   13.70
  -5  -3   9  148.59   18.10
   4   3  -9   39.00    9.80
   4   3  -9   19.70    6.70
   4   3  -9   21.80    7.60
  -4  -3   9   39.40    8.60
  -4  -3   9   25.70    6.00
  -4  -3   9   18.00    6.70
   3   3  -9  552.64   26.20
   3   3  -9  561.54   26.90
   3   3  -9  551.64   26.90
  -3  -3   9  613.34   26.60
  -3  -3   9  587.44   22.00
  -3  -3   9  552.74   25.90
   2   3  -9   76.59   12.30
  -2  -3   9   91.49   10.10
  -2  -3   9   90.19   11.90
  -2  -3   9   80.49   11.60
   1   3  -9  881.01   30.00
   1   3  -9  907.81   33.00
  -1  -3   9  848.12   29.60
  -1  -3   9  899.41   33.30
   0   3  -9  229.58   15.90
   0   3  -9  221.78   15.00
   0  -3   9  200.68   13.20
   0  -3   9  227.38   16.50
  -1   3  -9  817.42   30.20
  -1   3  -9  790.02   29.00
   1  -3   9  770.12   25.50
   1  -3   9  822.32   31.80
  -2   3  -9  156.08   12.70
  -2   3  -9  176.38   13.50
   2  -3   9  160.38   10.60
   2  -3   9  173.38   18.10
  -3   3  -9  138.89    9.70
  -3   3  -9  131.19   14.40
  -3   3  -9  138.99   14.40
   3  -3   9  129.29   15.20
  -4   3  -9  152.18   12.40
  -4   3  -9  160.38   11.10
  -4   3  -9  153.28   16.40
   4  -3   9  145.49   16.80
  -5   3  -9   42.90    8.90
  -5   3  -9   50.29    9.10
  -5   3  -9   57.49    8.70
   5  -3   9   48.80   10.80
  -6   3  -9  200.18   14.40
  -6   3  -9  170.78   18.20
  -6   3  -9  204.18   14.00
   6  -3   9  183.68   11.00
   6  -3   9  196.38   16.70
  -7   3  -9  318.87   21.00
  -7   3  -9  281.57   18.00
   7  -3   9  305.97   21.10
  -8   3  -9   14.00    6.10
  -8   3  -9    6.10    5.70
   8  -3   9    9.90    6.80
   7   2  -9  133.59   19.40
   7   2  -9   93.29   15.00
  -7  -2   9  136.49   16.00
  -7  -2   9  152.78   20.60
   6   2  -9  154.48   17.90
   6   2  -9  141.79   17.90
   6   2  -9  101.59   15.80
  -6  -2   9  150.88   18.90
  -6  -2   9  145.19   15.40
   5   2  -9  302.37   19.60
   5   2  -9  296.27   21.50
   5   2  -9  287.57   20.00
  -5  -2   9  308.97   20.90
  -5  -2   9  330.97   18.60
  -5  -2   9  287.27   16.80
   4   2  -9    3.30    4.30
   4   2  -9    7.40    5.00
   4   2  -9    8.40    5.90
  -4  -2   9    1.00    2.80
  -4  -2   9    0.80    3.30
  -4  -2   9    2.40    4.80
   3   2  -9  995.60   36.10
   3   2  -9  977.60   34.90
   3   2  -9  994.80   35.10
  -3  -2   9  970.60   34.90
  -3  -2   9 1011.50   34.40
  -3  -2   9  958.50   28.30
   2   2  -9   39.90    8.30
   2   2  -9   36.80    8.70
   2   2  -9   46.30    9.20
   2   2  -9   27.00    6.10
  -2  -2   9   39.50    6.10
  -2  -2   9   34.90    7.70
  -2  -2   9   45.70    9.00
   1   2  -9  489.85   20.40
   1   2  -9  472.95   21.20
   1   2  -9  449.26   21.90
  -1  -2   9  518.25   23.90
  -1  -2   9  485.35   18.20
  -1  -2   9  513.65   22.30
   0   2  -9  244.38   14.70
   0   2  -9  268.57   16.50
   0  -2   9  253.47   16.60
   0  -2   9  263.37   15.20
  -1   2  -9  707.83   25.60
  -1   2  -9  733.93   27.20
   1  -2   9  656.63   27.70
   1  -2   9  681.53   24.10
  -2   2  -9  854.01   22.60
  -2   2  -9  930.91   30.30
  -2   2  -9  825.12   28.90
   2  -2   9  854.01   26.40
   2  -2   9  817.42   31.60
  -3   2  -9   -2.30    2.80
  -3   2  -9    1.10    2.50
  -3   2  -9    1.80    3.00
   3  -2   9    0.00    2.70
   3  -2   9    6.50    3.00
  -4   2  -9  504.75   22.80
  -4   2  -9  453.25   18.30
  -4   2  -9  465.65   20.30
   4  -2   9  420.76   22.50
   4  -2   9  464.45   17.30
  -5   2  -9    8.90    4.80
  -5   2  -9   -1.20    3.00
  -5   2  -9    0.90    3.00
   5  -2   9    2.60    4.10
  -6   2  -9  228.58   15.00
  -6   2  -9  220.18   16.30
  -6   2  -9  230.38   13.60
   6  -2   9  259.67   18.20
   6  -2   9  211.08    9.90
  -7   2  -9  427.06   23.50
  -7   2  -9  484.95   23.20
   7  -2   9  477.95   25.00
  -8   2  -9   -0.70    3.90
  -8   2  -9    4.10    4.00
   8  -2   9    0.40    3.70
  -9   2  -9   30.60    8.40
  -9   2  -9   29.00    9.10
   9  -2   9   35.60   10.30
   9  -2   9   33.90    9.20
   7   1  -9  102.79   17.60
   7   1  -9   83.49   13.60
  -7  -1   9  108.69   14.40
  -7  -1   9  128.09   18.10
   6   1  -9   57.19   13.00
   6   1  -9   57.69   11.50
  -6  -1   9   63.99    9.90
  -6  -1   9   59.49   11.80
   5   1  -9  445.16   23.40
   5   1  -9  439.56   23.20
   5   1  -9  424.36   25.40
  -5  -1   9  467.45   25.60
  -5  -1   9  428.26   20.00
   4   1  -9    7.10    4.50
   4   1  -9    5.30    4.80
   4   1  -9    5.80    4.80
   4   1  -9    3.90    4.50
  -4  -1   9    5.10    5.10
  -4  -1   9    8.70    3.70
   3   1  -9  441.56   23.30
   3   1  -9  495.65   23.20
   3   1  -9  445.06   23.70
   3   1  -9  473.45   22.60
  -3  -1   9  487.95   24.20
  -3  -1   9  463.75   18.00
   2   1  -9 1805.62   42.80
   2   1  -9 1875.61   49.70
   2   1  -9 1925.21   49.00
   2   1  -9 1850.11   49.40
   2   1  -9 1838.62   51.89
  -2  -1   9 1905.61   49.99
  -2  -1   9 1851.31   39.80
   1   1  -9  251.07   16.90
   1   1  -9  233.88   13.30
   1   1  -9  252.87   15.90
   1   1  -9  277.87   15.80
  -1  -1   9  272.57   16.10
  -1  -1   9  263.17   10.40
   0   1  -9  317.67   17.70
   0   1  -9  330.37   19.20
   0   1  -9  355.16   16.80
   0   1  -9  359.26   16.40
   0  -1   9  366.46   18.00
  -1   1  -9   10.90    4.50
  -1   1  -9    4.50    2.90
   1  -1   9    7.80    4.20
   1  -1   9    4.90    3.50
  -2   1  -9 1484.15   40.30
  -2   1  -9 1509.75   39.80
   2  -1   9 1577.34   44.60
   2  -1   9 1513.95   38.30
  -3   1  -9   22.80    4.70
  -3   1  -9   19.10    5.30
  -3   1  -9   12.80    5.40
   3  -1   9   18.50    5.10
   3  -1   9   10.20    4.50
  -4   1  -9  130.39   10.50
  -4   1  -9  154.18   10.40
  -4   1  -9  159.78   12.30
   4  -1   9  158.28    8.40
   4  -1   9  139.39   15.30
   4  -1   9  170.08   10.70
  -5   1  -9  305.07   15.10
  -5   1  -9  276.17   17.00
  -5   1  -9  267.37   14.70
   5  -1   9  274.27   17.50
   5  -1   9  285.27   13.60
   5  -1   9  305.97   12.80
  -6   1  -9   44.10    8.50
  -6   1  -9   51.59    7.60
  -6   1  -9   48.60    8.40
   6  -1   9   63.99    7.90
   6  -1   9   65.09    8.10
   6  -1   9   66.99   10.80
  -7   1  -9   20.30    6.20
  -7   1  -9   32.50    7.70
   7  -1   9   40.70    8.80
  -8   1  -9   58.79   11.00
  -8   1  -9   36.10    8.00
   8  -1   9   47.60   11.00
   8  -1   9   70.19   11.50
  -9   1  -9  235.58   18.20
  -9   1  -9  212.08   16.90
   9  -1   9  192.98   15.70
   9  -1   9  197.08   22.80
 -10   1  -9  229.08   18.70
 -10   1  -9  196.78   20.70
  10  -1   9  257.37   27.70
   7   0  -9  411.06   27.80
   7   0  -9  432.36   25.00
   7   0  -9  435.36   24.70
  -7   0   9  379.16   21.50
  -7   0   9  389.96   26.10
   6   0  -9    8.00    6.50
   6   0  -9    9.20    5.80
   6   0  -9   -0.90    5.40
  -6   0   9   12.10    6.60
  -6   0   9    0.30    3.90
   5   0  -9   53.49   11.60
   5   0  -9   37.50    9.10
   5   0  -9   43.10    8.90
  -5   0   9   55.39   10.60
  -5   0   9   66.39    9.70
   4   0  -9  382.46   20.90
   4   0  -9  346.87   20.90
   4   0  -9  364.96   19.70
   4   0  -9  372.86   22.40
  -4   0   9  355.56   21.60
  -4   0   9  365.26   16.90
   3   0  -9  358.56   20.90
   3   0  -9  389.56   19.50
   3   0  -9  383.36   15.20
   3   0  -9  398.16   20.70
   3   0  -9  403.76   21.80
  -3   0   9  359.86   15.50
  -3   0   9  401.96   21.80
   2   0  -9  639.54   24.30
   2   0  -9  651.73   27.60
   2   0  -9  652.03   20.70
   2   0  -9  682.03   26.90
   2   0  -9  632.04   25.80
  -2   0   9  627.44   19.10
  -2   0   9  635.44   26.50
  -2   0   9  661.53   19.60
   1   0  -9   36.30    5.90
   1   0  -9   47.40    8.10
   1   0  -9   42.10    7.30
   1   0  -9   45.20    8.30
  -1   0   9   54.49    9.00
  -1   0   9   52.19    5.60
  -1   0   9   48.20    5.10
   0   0  -9 1841.12   46.60
   0   0  -9 1777.32   48.00
   0   0  -9 1747.03   42.50
   0   0  -9 1836.92   41.10
   0   0   9 1775.92   34.70
   0   0   9 1713.63   44.70
  -1   0  -9    9.90    3.60
  -1   0  -9    9.70    4.60
  -1   0  -9   12.80    4.20
  -1   0  -9    9.90    5.10
   1   0   9    7.10    3.60
   1   0   9   10.30    2.90
  -2   0  -9  451.45   20.90
  -2   0  -9  482.05   19.00
  -2   0  -9  470.25   19.80
   2   0   9  465.45   19.40
   2   0   9  459.55   14.30
  -3   0  -9 1641.64   43.50
  -3   0  -9 1639.54   37.00
  -3   0  -9 1656.33   41.10
  -3   0  -9 1618.24   41.10
   3   0   9 1653.33   40.40
   3   0   9 1638.74   34.30
  -4   0  -9  528.35   19.40
  -4   0  -9  511.95   19.90
  -4   0  -9  564.24   22.30
   4   0   9  516.35   19.60
   4   0   9  482.45   22.60
   4   0   9  515.25   16.70
  -5   0  -9  535.15   20.80
  -5   0  -9  487.55   21.70
  -5   0  -9  512.35   19.20
   5   0   9  487.25   17.50
   5   0   9  535.25   19.60
   5   0   9  504.65   23.10
  -6   0  -9  311.97   16.80
  -6   0  -9  304.77   14.10
  -6   0  -9  299.67   17.40
   6   0   9  324.87   14.90
   6   0   9  311.67   14.80
   6   0   9  292.47   17.50
  -7   0  -9  319.27   17.90
  -7   0  -9  300.07   18.40
   7   0   9  326.57   15.30
   7   0   9  319.77   18.70
  -8   0  -9    5.90    4.60
  -8   0  -9    0.20    3.40
   8   0   9    4.80    4.00
   8   0   9    3.00    3.50
  -9   0  -9   -1.50    3.90
  -9   0  -9    2.00    5.20
   9   0   9    2.90    4.00
   9   0   9    3.30    4.90
 -10   0  -9  614.44   29.90
 -10   0  -9  649.54   30.70
  10   0   9  599.54   32.90
   7  -1  -9   39.80    9.60
   7  -1  -9   29.70    9.90
   7  -1  -9   50.09   11.50
  -7   1   9   61.59   12.90
   6  -1  -9  150.98   19.20
   6  -1  -9  219.78   17.60
   6  -1  -9  187.88   15.60
  -6   1   9  234.48   24.10
   5  -1  -9  338.47   22.60
   5  -1  -9  320.87   18.90
   5  -1  -9  309.67   20.20
  -5   1   9  321.77   21.50
  -5   1   9  328.47   17.40
   4  -1  -9  562.14   26.80
   4  -1  -9  559.04   27.70
   4  -1  -9  605.44   24.10
  -4   1   9  555.84   21.40
  -4   1   9  531.25   26.70
   3  -1  -9  261.47   15.20
   3  -1  -9  267.67   17.90
   3  -1  -9  294.17   18.60
  -3   1   9  256.67   12.90
  -3   1   9  259.67   13.80
   2  -1  -9  607.54   26.60
   2  -1  -9  624.34   25.60
   2  -1  -9  653.93   23.00
   2  -1  -9  608.14   17.90
   2  -1  -9  582.34   24.80
  -2   1   9  581.94   25.40
  -2   1   9  587.04   20.20
   1  -1  -9    0.10    2.60
   1  -1  -9    1.80    2.20
   1  -1  -9    3.50    3.20
   1  -1  -9   -1.60    2.40
   1  -1  -9   -2.80    2.40
  -1   1   9   -0.60    3.10
  -1   1   9   -0.90    2.00
   0  -1  -9  210.68   13.80
   0  -1  -9  179.28   13.90
   0  -1  -9  215.98   12.70
   0  -1  -9  201.18   10.40
   0   1   9  210.58   10.70
   0   1   9  193.58   13.80
  -1  -1  -9 2350.66   56.89
  -1  -1  -9 2463.65   49.60
  -1  -1  -9 2397.26   49.60
  -1  -1  -9 2414.46   54.49
   1   1   9 2390.16   54.79
   1   1   9 2440.46   47.40
  -2  -1  -9   33.70    6.40
  -2  -1  -9   17.10    5.80
  -2  -1  -9   22.00    5.00
   2   1   9   35.20    5.50
   2   1   9   20.70    5.40
  -3  -1  -9  194.78   12.00
  -3  -1  -9  156.68   11.90
  -3  -1  -9  176.08   11.40
   3   1   9  167.78    9.60
   3   1   9  172.78   11.60
  -4  -1  -9    8.90    4.10
  -4  -1  -9   19.40    4.90
  -4  -1  -9   17.00    4.90
  -4  -1  -9   14.60    4.40
   4   1   9   20.10    4.30
   4   1   9   20.90    5.00
  -5  -1  -9 1868.61   45.10
  -5  -1  -9 1942.41   45.60
  -5  -1  -9 1891.71   42.60
  -5  -1  -9 1946.41   47.20
   5   1   9 1912.21   44.80
   5   1   9 1908.01   42.80
   5   1   9 1927.01   49.80
  -6  -1  -9   51.49    8.40
  -6  -1  -9   68.89    9.50
  -6  -1  -9   80.79    8.30
   6   1   9   63.59    8.50
   6   1   9   79.19   10.60
   6   1   9   65.49    8.80
  -7  -1  -9   72.59   10.60
  -7  -1  -9   57.29    8.90
   7   1   9   55.89    8.60
   7   1   9   66.29    9.90
   7   1   9   62.19   10.70
   7   1   9   62.99    8.50
  -8  -1  -9  263.47   17.60
  -8  -1  -9  261.77   16.90
   8   1   9  267.67   14.70
   8   1   9  274.37   16.70
   8   1   9  272.57   18.50
  -9  -1  -9    3.70    5.50
  -9  -1  -9    5.80    5.20
   9   1   9    2.80    3.30
   9   1   9    4.30    4.10
   9   1   9    8.20    5.30
 -10  -1  -9   67.99   12.10
 -10  -1  -9   51.69   11.00
  10   1   9   71.59   13.30
   7  -2  -9  146.49   18.00
   7  -2  -9  148.89   17.20
   7  -2  -9  137.79   20.10
  -7   2   9  115.69   16.90
   6  -2  -9  120.49   15.90
   6  -2  -9  125.49   14.90
   6  -2  -9  153.18   19.70
  -6   2   9  113.69   15.80
   5  -2  -9   65.59   12.30
   5  -2  -9   84.19   13.40
   5  -2  -9   86.59   11.60
  -5   2   9   94.29   14.70
   4  -2  -9  498.15   21.40
   4  -2  -9  533.75   26.80
   4  -2  -9  456.05   23.90
  -4   2   9  501.15   25.60
  -4   2   9  506.95   22.30
   3  -2  -9  447.66   23.30
   3  -2  -9  459.75   23.40
   3  -2  -9  452.05   19.10
  -3   2   9  470.45   23.80
  -3   2   9  477.05   20.20
   2  -2  -9  205.98   14.60
   2  -2  -9  215.18   15.70
   2  -2  -9  215.48   12.30
  -2   2   9  212.38   12.60
  -2   2   9  189.78   14.60
   1  -2  -9  280.37   13.40
   1  -2  -9  262.47   16.80
   1  -2  -9  254.67   10.10
   1  -2  -9  265.47   15.50
  -1   2   9  261.47   16.40
  -1   2   9  293.27   14.30
   0  -2  -9   76.59    6.10
   0  -2  -9   97.89   10.70
   0  -2  -9   50.89    8.60
   0   2   9   87.79    9.30
   0   2   9   73.09   10.20
  -1  -2  -9 2615.24   61.19
  -1  -2  -9 2717.53   54.99
  -1  -2  -9 2770.22   52.39
   1   2   9 2703.43   54.79
   1   2   9 2765.52   60.39
  -2  -2  -9  259.27   12.40
  -2  -2  -9  280.67   11.50
  -2  -2  -9  270.77   15.90
   2   2   9  258.77   13.10
   2   2   9  285.37   15.40
  -3  -2  -9  846.62   26.50
  -3  -2  -9  872.91   28.50
  -3  -2  -9  811.22   24.70
   3   2   9  846.92   27.20
   3   2   9  851.01   24.90
  -4  -2  -9  923.11   27.70
  -4  -2  -9  966.80   29.50
   4   2   9  897.51   28.30
   4   2   9  934.41   26.80
  -5  -2  -9  365.76   17.20
  -5  -2  -9  365.96   16.60
  -5  -2  -9  360.96   16.10
   5   2   9  361.76   16.20
   5   2   9  397.96   17.60
  -6  -2  -9  565.54   23.00
  -6  -2  -9  593.14   23.30
  -6  -2  -9  578.64   20.70
  -6  -2  -9  556.34   20.20
   6   2   9  551.54   21.50
   6   2   9  566.34   22.80
   6   2   9  612.14   22.20
  -7  -2  -9    4.80    4.00
  -7  -2  -9   20.30    4.90
  -7  -2  -9   23.30    6.50
   7   2   9   13.80    4.90
   7   2   9   24.90    5.90
   7   2   9   24.30    6.10
   7   2   9   20.10    5.60
  -8  -2  -9  459.75   22.50
  -8  -2  -9  488.15   23.40
  -8  -2  -9  490.75   18.80
   8   2   9  493.75   21.10
   8   2   9  527.05   24.80
   8   2   9  480.65   22.00
   8   2   9  486.95   21.60
  -9  -2  -9  142.59   15.60
  -9  -2  -9  153.28   18.50
  -9  -2  -9  160.88   17.30
   9   2   9  136.69   11.60
   9   2   9  129.59   15.60
 -10  -2  -9   -1.70    4.20
  10   2   9    2.30    3.70
 -11  -2  -9  160.38   18.30
  11   2   9  172.18   20.40
   7  -3  -9    0.10    4.30
   7  -3  -9    4.70    6.20
  -7   3   9    5.20    6.40
   6  -3  -9  160.28   20.10
   6  -3  -9  194.18   16.90
   6  -3  -9  183.98   15.40
  -6   3   9  189.88   21.30
   5  -3  -9  139.59   16.90
   5  -3  -9  142.79   18.00
   5  -3  -9  121.09   13.30
  -5   3   9  123.99   16.90
  -5   3   9  131.99   15.70
   4  -3  -9  369.36   17.50
   4  -3  -9  363.56   22.40
   4  -3  -9  388.56   22.10
  -4   3   9  395.86   22.80
  -4   3   9  388.76   20.60
   3  -3  -9   -2.00    2.70
   3  -3  -9    2.00    3.70
   3  -3  -9    1.80    3.70
  -3   3   9    1.90    3.00
  -3   3   9   12.50    5.90
   2  -3  -9   11.40    5.10
   2  -3  -9    3.60    3.70
   2  -3  -9   -0.40    2.50
  -2   3   9   25.00    6.10
  -2   3   9    2.20    4.20
   1  -3  -9 1504.15   33.60
   1  -3  -9 1550.64   44.30
   1  -3  -9 1438.36   40.60
  -1   3   9 1470.95   39.10
  -1   3   9 1417.66   41.90
   0  -3  -9   77.79    9.50
   0  -3  -9   72.19   10.50
   0  -3  -9   76.09    5.30
   0   3   9   79.49    9.60
   0   3   9   72.59   10.50
  -1  -3  -9  202.88   14.10
  -1  -3  -9  173.38    8.70
  -1  -3  -9  157.18   10.40
   1   3   9  189.08   12.30
   1   3   9  180.98   13.10
  -2  -3  -9 2298.37   54.09
  -2  -3  -9 2248.58   45.30
  -2  -3  -9 2274.77   45.80
   2   3   9 2250.87   50.09
   2   3   9 2275.57   52.89
  -3  -3  -9 2558.24   54.19
  -3  -3  -9 2470.95   50.59
  -3  -3  -9 2551.84   56.79
   3   3   9 2458.15   53.49
   3   3   9 2435.76   55.29
  -4  -3  -9  982.50   30.20
  -4  -3  -9 1028.50   28.70
  -4  -3  -9  987.30   29.00
   4   3   9  998.80   30.70
   4   3   9  989.00   29.10
  -5  -3  -9  277.87   14.80
  -5  -3  -9  333.97   15.40
  -5  -3  -9  305.97   15.20
   5   3   9  307.57   14.20
   5   3   9  303.77   15.30
   5   3   9  289.67   15.50
  -6  -3  -9 1834.22   43.00
  -6  -3  -9 1918.21   46.90
  -6  -3  -9 1905.81   44.20
   6   3   9 1917.01   46.70
   6   3   9 1880.91   45.00
   6   3   9 1931.31   46.80
  -7  -3  -9  268.37   16.00
  -7  -3  -9  242.68   13.60
  -7  -3  -9  272.57   16.40
  -7  -3  -9  243.78   12.20
   7   3   9  240.18   14.70
   7   3   9  257.97   15.20
   7   3   9  281.87   16.00
  -8  -3  -9  228.48   13.10
  -8  -3  -9  217.28   15.60
   8   3   9  239.38   15.90
   8   3   9  237.38   15.50
   8   3   9  218.98   14.00
  -9  -3  -9  489.35   24.40
  -9  -3  -9  442.46   18.80
   9   3   9  447.46   23.50
   9   3   9  457.45   23.00
   9   3   9  483.95   20.70
 -10  -3  -9   12.30    6.40
  10   3   9   10.40    5.70
  10   3   9   21.90    7.00
 -11  -3  -9  108.69   15.90
  11   3   9  136.09   18.40
  11   3   9  101.79   14.20
   6  -4  -9  744.03   33.50
   6  -4  -9  832.02   39.00
  -6   4   9  827.12   35.50
  -6   4   9  825.32   36.90
   5  -4  -9   38.90    9.50
   5  -4  -9   50.99   10.60
  -5   4   9   46.70   10.00
  -5   4   9   51.19   11.50
   4  -4  -9   15.60    6.10
   4  -4  -9   10.20    4.80
  -4   4   9   19.10    6.50
  -4   4   9    8.90    6.10
   3  -4  -9  387.96   22.30
   3  -4  -9  341.37   20.50
   3  -4  -9  353.26   17.90
  -3   4   9  383.86   20.70
  -3   4   9  352.16   21.10
   2  -4  -9   -1.80    2.20
   2  -4  -9    0.70    2.90
   2  -4  -9    2.40    3.20
  -2   4   9    5.30    3.90
  -2   4   9    2.20    3.90
   1  -4  -9  552.24   16.10
   1  -4  -9  519.65   24.20
   1  -4  -9  515.95   23.00
  -1   4   9  514.15   22.60
  -1   4   9  503.35   23.60
   0  -4  -9 1499.25   40.80
   0  -4  -9 1621.04   45.20
   0   4   9 1582.64   42.00
   0   4   9 1606.94   43.90
  -1  -4  -9   10.10    4.00
  -1  -4  -9   12.30    4.80
  -1  -4  -9   11.80    3.90
   1   4   9   11.00    5.10
   1   4   9    7.90    4.70
  -2  -4  -9 1122.39   31.50
  -2  -4  -9 1074.99   28.60
  -2  -4  -9 1109.79   34.40
   2   4   9 1042.00   32.80
   2   4   9 1044.30   32.10
  -3  -4  -9   21.20    4.40
  -3  -4  -9   27.70    6.10
  -3  -4  -9   25.20    2.50
  -3  -4  -9   23.90    6.50
   3   4   9   19.80    5.20
   3   4   9   25.00    6.10
  -4  -4  -9 2652.63   58.49
  -4  -4  -9 2556.44   56.39
   4   4   9 2674.13   58.49
   4   4   9 2747.12   49.40
   4   4   9 2705.43   59.59
  -5  -4  -9  179.88   11.90
  -5  -4  -9  189.28   12.00
   5   4   9  204.68   10.30
   5   4   9  214.18   13.60
   5   4   9  194.28   13.00
  -6  -4  -9  211.58   12.90
  -6  -4  -9  224.88   12.70
   6   4   9  206.48   13.70
   6   4   9  219.28   14.30
   6   4   9  221.08   12.00
  -7  -4  -9  923.21   26.50
  -7  -4  -9  934.51   28.70
   7   4   9  910.41   28.80
   7   4   9  952.40   32.10
   7   4   9  919.01   30.70
  -8  -4  -9  382.76   17.60
   8   4   9  381.66   19.30
   8   4   9  392.56   20.60
  -9  -4  -9   55.99    8.30
  -9  -4  -9   57.19   10.50
   9   4   9   49.10   10.00
   9   4   9   59.69   10.10
 -10  -4  -9   39.50    9.50
 -10  -4  -9   42.50    7.60
  10   4   9   41.50    9.80
  10   4   9   46.00    9.40
 -11  -4  -9  477.05   26.50
  11   4   9  488.85   27.00
  11   4   9  469.15   26.30
   6  -5  -9   41.90   10.60
   6  -5  -9   55.59   13.10
  -6   5   9   43.00   11.10
  -6   5   9   43.70   10.90
   5  -5  -9  687.63   31.90
   5  -5  -9  715.13   35.10
  -5   5   9  681.03   32.60
  -5   5   9  688.53   32.60
   4  -5  -9  121.39   15.60
   4  -5  -9  101.99   15.90
  -4   5   9  106.79   15.30
  -4   5   9   97.79   13.90
   3  -5  -9   26.70    7.30
   3  -5  -9   25.20    7.20
  -3   5   9   18.80    7.00
  -3   5   9   30.40    8.20
   2  -5  -9  214.88   16.40
   2  -5  -9  197.98   15.70
  -2   5   9  194.38   15.60
  -2   5   9  208.08   15.70
   1  -5  -9   52.39    9.30
   1  -5  -9   33.40    7.80
  -1   5   9   41.20    8.30
  -1   5   9   52.09    9.90
   0  -5  -9  386.56   20.80
   0  -5  -9  397.86   19.60
   0   5   9  441.46   21.30
   0   5   9  441.26   21.30
  -1  -5  -9  236.78   13.90
  -1  -5  -9  210.98   15.10
  -1  -5  -9  229.68   13.70
   1   5   9  228.98   15.40
   1   5   9  238.28   16.00
  -2  -5  -9 1145.69   31.30
  -2  -5  -9 1121.89   32.30
  -2  -5  -9 1141.19   36.00
   2   5   9 1188.18   35.70
   2   5   9 1148.79   35.50
  -3  -5  -9 1585.34   43.10
  -3  -5  -9 1614.94   40.30
   3   5   9 1544.65   42.60
   3   5   9 1565.24   42.60
  -4  -5  -9 1138.59   24.10
  -4  -5  -9 1162.58   32.70
  -4  -5  -9 1130.69   34.00
   4   5   9 1091.89   34.20
   4   5   9 1090.79   34.30
  -5  -5  -9  433.96   13.10
  -5  -5  -9  418.36   18.40
  -5  -5  -9  408.26   18.80
   5   5   9  438.76   20.60
   5   5   9  436.66   20.10
   5   5   9  449.95   14.00
  -6  -5  -9  561.14   21.50
  -6  -5  -9  567.84   21.60
  -6  -5  -9  529.85   17.70
   6   5   9  575.84   24.00
   6   5   9  571.04   24.10
   6   5   9  578.44   18.70
  -7  -5  -9 1387.16   35.60
  -7  -5  -9 1385.86   37.30
   7   5   9 1339.97   41.10
   7   5   9 1455.85   36.20
  -8  -5  -9   43.70    7.50
   8   5   9   49.40    8.20
   8   5   9   36.80    8.40
  -9  -5  -9   65.49    8.90
   9   5   9   72.19   10.50
   9   5   9   48.80    9.50
 -10  -5  -9    2.40    3.40
  10   5   9    5.40    4.80
  10   5   9    2.10    3.80
 -11  -5  -9   19.90    5.90
  11   5   9    6.20    5.30
  11   5   9   11.20    6.40
   5  -6  -9  488.15   29.90
   5  -6  -9  504.65   28.10
  -5   6   9  460.85   26.90
  -5   6   9  497.45   28.80
   4  -6  -9   45.50   10.70
   4  -6  -9   36.60    9.50
  -4   6   9   41.10   10.70
  -4   6   9   42.50   10.20
   3  -6  -9  149.59   17.70
   3  -6  -9  136.79   16.70
  -3   6   9  129.29   15.80
  -3   6   9  114.99   15.50
   2  -6  -9  437.36   24.20
   2  -6  -9  443.96   24.20
  -2   6   9  418.86   23.50
  -2   6   9  492.55   24.50
   1  -6  -9  156.68   13.70
   1  -6  -9  164.98   14.60
  -1   6   9  131.19   15.40
  -1   6   9  132.79   15.30
   0  -6  -9  334.17   16.80
   0  -6  -9  315.87   19.40
   0  -6  -9  350.86   19.30
   0   6   9  339.57   19.30
   0   6   9  372.26   20.90
  -1  -6  -9   76.29    9.90
  -1  -6  -9   79.79   11.60
  -1  -6  -9   77.89   10.40
   1   6   9   65.59   10.80
   1   6   9   72.89   11.70
  -2  -6  -9  666.93   24.00
  -2  -6  -9  628.04   26.50
  -2  -6  -9  610.14   23.10
   2   6   9  620.34   25.30
   2   6   9  650.53   27.20
  -3  -6  -9 2509.65   58.79
  -3  -6  -9 2329.87   53.49
   3   6   9 2359.86   56.89
   3   6   9 2387.46   59.19
  -4  -6  -9    6.60    4.00
  -4  -6  -9   14.60    5.00
   4   6   9   19.60    5.90
   4   6   9   19.90    6.50
  -5  -6  -9  812.02   28.60
  -5  -6  -9  859.81   22.50
  -5  -6  -9  851.91   27.90
   5   6   9  848.22   30.80
   5   6   9  839.32   29.80
  -6  -6  -9    5.40    2.70
  -6  -6  -9    7.50    3.50
  -6  -6  -9    7.00    3.70
   6   6   9    6.40    4.30
   6   6   9    8.80    4.90
  -7  -6  -9  962.60   30.70
  -7  -6  -9  967.80   29.30
  -7  -6  -9  907.51   25.50
   7   6   9  925.51   33.60
  -8  -6  -9  249.18   15.20
   8   6   9  272.97   18.30
  -9  -6  -9  320.47   17.50
   9   6   9  326.57   20.70
 -10  -6  -9  332.47   18.20
  10   6   9  328.97   21.80
 -11  -6  -9    8.80    4.50
  11   6   9   -0.90    3.50
   5  -7  -9   38.30   10.60
   5  -7  -9   22.90    9.60
  -5   7   9   27.10    8.70
  -5   7   9   42.00   11.50
   4  -7  -9  183.88   21.40
   4  -7  -9  213.58   18.30
  -4   7   9  251.47   20.60
  -4   7   9  194.28   20.90
   3  -7  -9  354.96   22.80
   3  -7  -9  355.66   23.80
  -3   7   9  380.96   22.80
  -3   7   9  362.66   23.90
   2  -7  -9  237.28   18.40
   2  -7  -9  280.17   20.10
  -2   7   9  268.17   19.90
  -2   7   9  243.38   17.80
   1  -7  -9  476.05   25.50
   1  -7  -9  549.25   27.00
  -1   7   9  492.25   26.50
  -1   7   9  490.35   24.60
   0  -7  -9   63.99    9.50
   0  -7  -9   47.00    9.70
   0  -7  -9   92.99   12.60
   0   7   9   57.29   11.10
   0   7   9   48.10    9.10
  -1  -7  -9  313.27   18.20
  -1  -7  -9  315.27   19.40
  -1  -7  -9  360.36   17.70
   1   7   9  328.27   20.90
   1   7   9  327.47   18.90
  -2  -7  -9    1.20    3.20
  -2  -7  -9    6.70    3.90
  -2  -7  -9    0.00    2.90
   2   7   9    2.20    3.30
   2   7   9   -4.40    4.10
  -3  -7  -9 1328.97   37.40
  -3  -7  -9 1384.86   41.90
   3   7   9 1330.47   42.40
   3   7   9 1398.96   41.00
  -4  -7  -9   74.09    9.90
  -4  -7  -9   58.49    9.50
   4   7   9   94.99   13.30
   4   7   9   63.89    9.80
  -5  -7  -9  821.72   28.80
  -5  -7  -9  860.81   30.30
   5   7   9  887.61   33.30
   5   7   9  899.31   31.60
  -6  -7  -9  357.86   18.50
  -6  -7  -9  408.56   19.50
  -6  -7  -9  374.96   15.80
   6   7   9  374.86   20.30
   6   7   9  379.26   21.30
  -7  -7  -9  283.07   14.20
  -7  -7  -9  271.17   15.50
  -7  -7  -9  266.77   15.80
   7   7   9  294.37   19.30
  -8  -7  -9  157.48   12.50
  -8  -7  -9  162.68   12.40
   8   7   9  154.08   17.00
  -9  -7  -9    9.20    4.90
   9   7   9   12.00    6.20
 -10  -7  -9  524.05   23.80
  10   7   9  499.45   27.80
 -11  -7  -9   50.99    9.30
  11   7   9   48.80   12.20
   4  -8  -9  168.48   21.50
   4  -8  -9  133.19   17.90
  -4   8   9  157.68   19.20
  -4   8   9  209.48   23.90
   3  -8  -9   58.99   12.10
   3  -8  -9   84.09   15.30
  -3   8   9   96.59   15.00
  -3   8   9   70.79   13.00
   2  -8  -9  363.76   23.50
   2  -8  -9  411.26   25.60
  -2   8   9  387.36   22.40
  -2   8   9  370.36   24.30
   1  -8  -9   -1.00    4.00
   1  -8  -9    1.70    4.80
   1  -8  -9   -2.30    2.80
  -1   8   9   -0.70    4.10
  -1   8   9   -2.20    4.20
   0  -8  -9   24.20    5.90
   0  -8  -9    8.80    5.50
   0  -8  -9   16.30    6.70
   0   8   9   30.80    9.30
   0   8   9   41.00    9.50
  -1  -8  -9 1251.97   41.40
  -1  -8  -9 1260.87   36.90
  -1  -8  -9 1276.27   43.10
   1   8   9 1251.37   40.40
   1   8   9 1347.97   45.30
  -2  -8  -9   74.79   11.80
  -2  -8  -9   86.59   16.60
  -2  -8  -9   84.29   10.60
   2   8   9   56.89   10.90
   2   8   9   76.69   11.70
  -3  -8  -9  119.19   12.10
  -3  -8  -9  112.59   14.60
   3   8   9   85.19   13.40
   3   8   9  117.59   14.00
  -4  -8  -9  486.45   21.30
  -4  -8  -9  426.06   22.30
   4   8   9  454.65   22.40
   4   8   9  437.26   24.50
  -5  -8  -9  605.44   24.70
  -5  -8  -9  607.94   26.10
   5   8   9  559.84   25.40
   5   8   9  586.84   28.00
  -6  -8  -9  958.70   32.40
  -6  -8  -9  994.00   33.70
  -6  -8  -9  963.50   29.50
   6   8   9  976.70   37.00
   6   8   9 1042.90   36.10
  -7  -8  -9   70.69   10.70
  -7  -8  -9   78.29   11.00
  -7  -8  -9   51.89    8.10
   7   8   9   61.79   11.60
  -8  -8  -9  578.04   25.00
  -8  -8  -9  565.54   32.50
  -8  -8  -9  546.15   22.50
   8   8   9  564.64   28.50
  -9  -8  -9    9.60    5.20
   9   8   9   15.10    6.70
 -10  -8  -9  189.58   18.10
  10   8   9  184.48   21.30
   3  -9  -9  281.47   22.20
   3  -9  -9  246.28   22.50
  -3   9   9  256.67   27.00
  -3   9   9  257.67   19.60
   2  -9  -9   -4.30    4.30
   2  -9  -9    7.00    6.20
  -2   9   9    8.60    6.40
  -2   9   9    9.70    6.50
   1  -9  -9  184.58   20.50
   1  -9  -9  165.48   12.80
   1  -9  -9  137.49   18.40
  -1   9   9  153.18   17.30
  -1   9   9  157.18   19.50
   0  -9  -9  112.69   16.40
   0  -9  -9   67.59   12.20
   0  -9  -9   81.39   10.90
   0   9   9   98.09   13.90
   0   9   9   97.09   15.30
  -1  -9  -9  154.58   17.90
  -1  -9  -9  164.28   12.60
  -1  -9  -9  111.19   15.10
   1   9   9  138.99   18.60
   1   9   9  149.29   16.40
  -2  -9  -9  700.23   31.40
  -2  -9  -9  701.73   26.60
   2   9   9  652.83   28.20
   2   9   9  645.34   31.60
  -3  -9  -9   25.40    6.30
  -3  -9  -9   33.80    8.90
   3   9   9   40.20    9.40
   3   9   9   42.40   10.40
  -4  -9  -9   23.00    6.30
  -4  -9  -9   25.30    7.70
   4   9   9   18.80    6.30
   4   9   9   10.00    6.30
  -5  -9  -9    7.50    5.60
  -5  -9  -9    5.90    4.80
   5   9   9    3.20    6.30
   5   9   9   11.30    5.90
  -6  -9  -9 1021.20   34.50
  -6  -9  -9 1017.90   35.80
  -6  -9  -9 1001.10   32.20
   6   9   9 1013.90   36.60
   6   9   9  977.80   39.10
  -7  -9  -9   43.10    8.40
  -7  -9  -9   38.50    7.60
  -7  -9  -9   52.19    9.90
   7   9   9   40.30    9.90
  -8  -9  -9  164.88   17.10
  -8  -9  -9  150.68   12.80
  -8  -9  -9  145.59   15.60
   8   9   9  134.69   17.50
  -9  -9  -9  332.47   20.20
   9   9   9  328.87   23.50
 -10  -9  -9   70.49   11.60
  10   9   9   69.59   13.10
   1 -10  -9  233.38   24.50
   1 -10  -9  245.28   16.00
   1 -10  -9  238.78   20.70
  -1  10   9  222.88   24.60
  -1  10   9  206.58   17.10
   0 -10  -9   70.29   13.20
   0 -10  -9   60.99   10.10
   0 -10  -9   41.60   10.20
   0  10   9   50.49   12.60
   0  10   9   65.49   11.30
  -1 -10  -9   79.99   14.30
  -1 -10  -9   73.89   10.80
   1  10   9   87.99   15.10
   1  10   9   81.59   12.80
  -2 -10  -9  142.79   15.40
  -2 -10  -9  153.88   19.10
   2  10   9  152.48   20.00
   2  10   9  136.89   16.00
  -3 -10  -9    6.30    5.50
  -3 -10  -9    8.60    4.50
   3  10   9   10.80    6.80
   3  10   9    2.30    3.80
  -4 -10  -9  925.11   32.90
  -4 -10  -9  876.61   36.30
   4  10   9  892.11   34.20
   4  10   9  890.61   38.70
  -5 -10  -9  233.68   16.20
  -5 -10  -9  247.88   18.70
   5  10   9  242.58   20.20
   5  10   9  236.78   17.40
  -6 -10  -9   -0.10    4.10
  -6 -10  -9   -0.40    3.70
   6  10   9   11.20    6.20
   6  10   9   -2.80    4.90
  -7 -10  -9  385.36   20.70
  -7 -10  -9  396.26   22.20
  -7 -10  -9  374.96   21.60
   7  10   9  402.46   23.30
   7  10   9  392.66   25.90
  -8 -10  -9  145.69   16.90
  -8 -10  -9  155.28   16.40
  -8 -10  -9  162.48   17.00
   8  10   9  159.08   19.20
  -9 -10  -9  296.07   35.50
  -9 -10  -9  254.77   18.40
   9  10   9  304.57   23.50
   0 -11  -9  123.09   18.20
   0  11   9   99.99   17.40
   0  11   9  107.19   17.30
  -1 -11  -9   10.50    5.10
  -1 -11  -9    3.10    6.30
   1  11   9    7.80    5.50
   1  11   9   -0.50    5.80
  -2 -11  -9   -4.20    4.00
  -2 -11  -9   -3.90    5.80
   2  11   9   -4.10    5.90
   2  11   9    1.60    4.90
  -3 -11  -9   -6.40    4.20
  -3 -11  -9    1.70    2.90
   3  11   9   -1.80    6.90
   3  11   9    5.10    5.20
  -4 -11  -9  223.48   16.20
  -4 -11  -9  194.28   21.40
   4  11   9  245.28   25.40
   4  11   9  227.18   17.60
  -5 -11  -9  366.96   21.30
  -5 -11  -9  386.66   24.70
   5  11   9  422.96   23.70
   5  11   9  335.47   25.00
  -6 -11  -9   11.40    7.30
  -6 -11  -9   16.70    6.50
   6  11   9    5.90    5.20
   6  11   9    6.20    8.10
  -7 -11  -9  305.97   20.00
  -7 -11  -9  316.87   22.00
  -7 -11  -9  350.46   21.70
   7  11   9  312.67   24.40
   7  11   9  313.97   21.50
  -8 -11  -9    3.30    5.90
  -8 -11  -9    4.40    5.60
  -8 -11  -9    1.00    4.60
   8  11   9    5.70    7.90
   2   6 -10  107.19   16.30
   2   6 -10  110.09   15.90
  -2  -6  10  106.69   17.20
   1   6 -10   -5.70    4.40
   1   6 -10    2.80    5.50
  -1  -6  10    0.80    5.40
   0   6 -10  110.19   15.90
   0   6 -10  117.59   16.30
   0  -6  10  139.99   19.30
  -1   6 -10  377.76   24.20
  -1   6 -10  349.87   22.70
   1  -6  10  423.06   27.40
  -2   6 -10   44.30   10.90
  -2   6 -10   19.20    7.60
   2  -6  10   41.40   11.10
   4   5 -10  324.77   23.00
  -4  -5  10  336.77   22.20
  -4  -5  10  363.06   22.80
   3   5 -10   30.70    8.80
   3   5 -10   30.60    8.10
  -3  -5  10   20.90    7.80
  -3  -5  10   24.00    7.30
   2   5 -10   86.99   13.40
   2   5 -10   72.89   12.80
  -2  -5  10   67.49   12.40
  -2  -5  10   94.59   15.70
   1   5 -10  605.74   28.40
   1   5 -10  579.24   29.30
  -1  -5  10  560.34   29.70
   0   5 -10   90.09   13.40
   0   5 -10   64.19   11.60
   0  -5  10   49.60   11.10
  -1   5 -10  264.37   19.40
  -1   5 -10  274.07   19.00
   1  -5  10  305.17   22.10
  -2   5 -10   -3.50    3.70
  -2   5 -10    2.60    4.60
   2  -5  10   -5.40    4.60
  -3   5 -10  519.45   26.60
  -3   5 -10  558.74   28.50
   3  -5  10  576.54   31.30
  -4   5 -10   85.79   14.20
  -4   5 -10   92.49   14.10
   4  -5  10   98.39   16.60
  -5   5 -10   13.30    6.80
  -5   5 -10   -2.10    4.50
   5  -5  10   -2.20    5.20
   5   4 -10   42.70   11.40
   5   4 -10   58.99   12.10
  -5  -4  10   30.00    9.10
   4   4 -10   34.90    9.20
   4   4 -10   59.59   12.90
  -4  -4  10   38.00    9.50
  -4  -4  10   25.60    7.80
   3   4 -10  171.68   18.90
  -3  -4  10  142.39   16.80
  -3  -4  10  175.38   18.30
   2   4 -10   94.49   12.60
   2   4 -10   80.19   12.90
  -2  -4  10   61.19   11.00
  -2  -4  10   87.39   12.20
   1   4 -10  403.56   22.10
   1   4 -10  433.06   24.00
  -1  -4  10  456.45   21.80
  -1  -4  10  435.56   24.60
   0   4 -10  225.88   17.50
   0   4 -10  191.98   15.40
   0  -4  10  207.28   14.60
   0  -4  10  219.28   17.50
  -1   4 -10  236.88   16.80
  -1   4 -10  244.28   18.00
   1  -4  10  242.98   19.00
  -2   4 -10    1.70    3.90
  -2   4 -10    1.80    4.60
   2  -4  10    8.60    6.00
  -3   4 -10  369.46   22.10
  -3   4 -10  378.26   21.30
   3  -4  10  350.46   23.40
  -4   4 -10  511.15   26.60
  -4   4 -10  508.75   24.80
   4  -4  10  466.55   27.50
  -5   4 -10    6.50    5.50
  -5   4 -10    7.90    5.80
   5  -4  10    7.10    5.50
  -6   4 -10  126.19   14.50
  -6   4 -10  123.19   16.40
   6  -4  10  133.49   18.20
   5   3 -10  199.48   20.40
   5   3 -10  224.58   19.60
  -5  -3  10  220.58   18.70
  -5  -3  10  210.08   17.30
   4   3 -10   14.30    7.20
   4   3 -10    6.80    5.50
  -4  -3  10    6.00    5.30
  -4  -3  10   11.00    5.70
   3   3 -10  163.18   17.30
   3   3 -10  165.48   16.00
  -3  -3  10  193.18   15.60
  -3  -3  10  172.08   18.50
   2   3 -10   12.10    5.80
   2   3 -10    8.50    5.00
  -2  -3  10    6.40    4.40
  -2  -3  10   12.60    5.60
   1   3 -10  363.56   21.60
   1   3 -10  351.86   19.20
  -1  -3  10  327.77   20.70
  -1  -3  10  347.07   19.30
   0   3 -10  472.45   23.90
   0   3 -10  437.66   21.70
   0  -3  10  438.96   20.90
   0  -3  10  484.65   25.10
  -1   3 -10  147.49   15.90
  -1   3 -10   96.19   12.40
   1  -3  10  127.49   13.10
   1  -3  10  143.19   16.60
  -2   3 -10  563.74   25.40
  -2   3 -10  606.34   26.40
   2  -3  10  569.54   28.40
   2  -3  10  557.54   31.20
  -3   3 -10    3.50    4.70
  -3   3 -10    3.20    4.40
   3  -3  10    5.60    5.20
  -4   3 -10  448.56   20.50
  -4   3 -10  447.86   22.00
  -4   3 -10  438.26   23.40
   4  -3  10  406.66   24.50
  -5   3 -10    3.90    3.60
  -5   3 -10    4.20    4.10
  -5   3 -10   -2.80    3.80
   5  -3  10    3.50    4.90
  -6   3 -10  218.38   15.00
  -6   3 -10  229.28   15.60
  -6   3 -10  219.58   18.00
   6  -3  10  245.38   19.60
  -7   3 -10  148.09   18.00
  -7   3 -10  118.49   14.50
   7  -3  10  180.68   21.00
   6   2 -10   30.60    9.40
   6   2 -10   26.40    9.50
   6   2 -10   38.90    9.90
  -6  -2  10   35.80   10.60
   5   2 -10  342.77   22.60
   5   2 -10  373.56   23.00
   5   2 -10  326.07   23.60
  -5  -2  10  341.17   23.30
  -5  -2  10  371.76   21.10
   4   2 -10    2.50    5.20
   4   2 -10    9.80    6.10
   4   2 -10   10.50    6.20
  -4  -2  10   13.00    6.20
  -4  -2  10    7.80    5.90
   3   2 -10  125.69   15.60
   3   2 -10  130.69   13.30
   3   2 -10  129.59   16.00
  -3  -2  10  144.09   16.70
  -3  -2  10  125.09   15.10
   2   2 -10  516.25   21.90
   2   2 -10  531.95   25.70
  -2  -2  10  516.25   25.00
  -2  -2  10  574.74   26.60
   1   2 -10   91.89   12.50
   1   2 -10  109.29   12.00
  -1  -2  10  101.89   13.40
  -1  -2  10  106.89   14.00
   0   2 -10   99.39   13.20
   0   2 -10  111.09   12.40
   0  -2  10   77.19   10.60
   0  -2  10  105.29   14.30
  -1   2 -10    7.20    4.80
  -1   2 -10   19.10    5.70
   1  -2  10   20.60    5.80
   1  -2  10   19.30    6.90
  -2   2 -10 1444.66   41.20
  -2   2 -10 1376.96   41.20
   2  -2  10 1344.97   37.30
   2  -2  10 1386.96   44.90
  -3   2 -10  138.69    9.70
  -3   2 -10  127.29   14.40
  -3   2 -10  120.69   14.10
   3  -2  10   99.69   13.30
   3  -2  10  132.09   10.40
  -4   2 -10   67.49    8.90
  -4   2 -10   82.39   11.50
  -4   2 -10   77.19   10.80
   4  -2  10   98.99   13.80
  -5   2 -10  359.66   17.90
  -5   2 -10  349.67   20.50
  -5   2 -10  359.66   18.50
   5  -2  10  332.67   21.40
  -6   2 -10  369.56   21.90
  -6   2 -10  346.67   18.60
  -6   2 -10  343.37   17.90
   6  -2  10  408.66   23.80
  -7   2 -10  184.08   19.50
  -7   2 -10  160.38   16.40
   7  -2  10  124.29   16.10
  -8   2 -10   85.69   13.60
  -8   2 -10   74.49   11.90
   8  -2  10   75.59   13.90
   6   1 -10    4.60    6.30
   6   1 -10    9.40    6.70
  -6  -1  10   10.30    6.80
   5   1 -10   14.60    6.30
   5   1 -10   14.30    7.40
   5   1 -10   22.00    7.90
  -5  -1  10   22.70    9.00
   4   1 -10   35.60    8.40
   4   1 -10   50.19   10.40
   4   1 -10   32.60    8.80
  -4  -1  10   31.90    8.80
   3   1 -10  681.93   23.60
   3   1 -10  648.24   29.40
   3   1 -10  639.34   27.70
   3   1 -10  689.33   29.60
  -3  -1  10  661.53   29.70
   2   1 -10   24.30   10.80
   2   1 -10   36.60    8.10
   2   1 -10   27.20    7.30
   2   1 -10   33.30    6.50
  -2  -1  10   23.30    7.50
   1   1 -10  557.74   25.20
   1   1 -10  533.05   21.20
  -1  -1  10  547.95   24.70
   0   1 -10  782.02   26.20
   0   1 -10  740.53   28.90
   0  -1  10  715.43   27.70
   0  -1  10  752.62   30.40
  -1   1 -10   -3.00    2.40
  -1   1 -10   -2.90    3.20
   1  -1  10    1.90    3.40
   1  -1  10    4.90    4.10
  -2   1 -10  256.87   16.00
  -2   1 -10  258.97   15.40
   2  -1  10  232.08   14.20
   2  -1  10  233.88   16.70
  -3   1 -10 2331.27   55.19
  -3   1 -10 2305.07   55.19
   3  -1  10 2275.47   51.99
   3  -1  10 2229.58   59.29
  -4   1 -10  342.87   18.80
  -4   1 -10  360.66   16.40
  -4   1 -10  357.56   18.20
   4  -1  10  341.77   20.70
   4  -1  10  315.47   15.90
  -5   1 -10  287.87   15.80
  -5   1 -10  286.67   15.80
  -5   1 -10  286.47   18.10
   5  -1  10  282.27   18.70
   5  -1  10  283.97   14.60
  -6   1 -10    2.50    4.30
  -6   1 -10   -1.10    2.90
  -6   1 -10    3.50    3.60
   6  -1  10    2.20    4.10
  -7   1 -10  585.44   27.50
  -7   1 -10  572.84   25.20
   7  -1  10  545.95   27.20
  -8   1 -10   62.19   10.90
  -8   1 -10   47.80   10.20
   8  -1  10   57.89   10.90
   8  -1  10   72.09   13.80
  -9   1 -10   39.00    9.20
  -9   1 -10   35.20   10.20
   9  -1  10   40.00    9.80
   9  -1  10   25.40    9.90
   6   0 -10   80.79   14.40
   6   0 -10   84.39   13.40
   6   0 -10   93.99   15.80
  -6   0  10   78.49   15.00
  -6   0  10   99.79   18.50
   5   0 -10  117.59   16.80
   5   0 -10  109.09   15.70
   5   0 -10  125.59   15.40
  -5   0  10  117.69   19.80
  -5   0  10   80.89   14.10
   4   0 -10  142.19   15.90
   4   0 -10  169.88   19.30
   4   0 -10  150.18   18.10
  -4   0  10  129.99   16.30
   3   0 -10    9.50    5.10
   3   0 -10   23.70    8.00
   3   0 -10   15.30    6.30
   3   0 -10   17.20    5.80
  -3   0  10   19.70    6.80
   2   0 -10  189.68   11.20
   2   0 -10  241.28   15.60
   2   0 -10  210.18   16.60
   2   0 -10  213.68   15.70
   2   0 -10  183.88   14.70
  -2   0  10  222.38   16.60
   1   0 -10  186.78   14.20
   1   0 -10  211.78   12.10
   1   0 -10  207.98   16.30
  -1   0  10  215.88   15.60
   0   0 -10   94.59   12.90
   0   0 -10  120.29   13.90
   0   0 -10  103.29   10.40
   0   0  10  105.79   12.80
  -1   0 -10  926.81   31.90
  -1   0 -10  910.01   28.10
  -1   0 -10  951.50   34.20
   1   0  10  977.60   31.70
  -2   0 -10    2.80    3.20
  -2   0 -10    2.90    3.10
  -2   0 -10   -0.90    3.30
   2   0  10    6.40    3.90
  -3   0 -10  417.96   19.30
  -3   0 -10  416.96   19.50
   3   0  10  392.36   21.30
   3   0  10  417.76   18.90
  -4   0 -10   34.60    7.80
  -4   0 -10   31.20    6.00
  -4   0 -10   43.50    8.10
   4   0  10   28.90    7.20
   4   0  10   44.20    7.80
  -5   0 -10 1447.76   41.80
  -5   0 -10 1441.46   38.10
  -5   0 -10 1429.56   38.30
   5   0  10 1416.96   44.10
   5   0  10 1469.05   38.10
   5   0  10 1439.16   34.70
  -6   0 -10  225.58   13.30
  -6   0 -10  220.18   14.50
  -6   0 -10  221.18   15.60
   6   0  10  224.48   16.30
   6   0  10  224.58   12.50
   6   0  10  232.48   13.50
  -7   0 -10   81.49   12.00
  -7   0 -10   78.89   10.90
   7   0  10   78.19   12.30
   7   0  10   77.19    9.70
   7   0  10   83.49   10.10
  -8   0 -10  158.68   17.40
  -8   0 -10  169.18   17.10
   8   0  10  144.79   16.50
   8   0  10  153.98   12.10
   8   0  10  159.78   19.60
  -9   0 -10   55.89   10.80
  -9   0 -10   63.49   11.80
   9   0  10   82.49   12.60
   9   0  10   49.30   11.70
   6  -1 -10  208.78   21.90
   6  -1 -10  171.18   17.90
   6  -1 -10  173.18   20.80
   5  -1 -10  223.88   18.90
   5  -1 -10  239.88   18.90
   5  -1 -10  216.58   16.00
  -5   1  10  251.17   20.20
   4  -1 -10  126.69   14.00
   4  -1 -10  137.79   17.10
   4  -1 -10  136.99   17.00
  -4   1  10  160.38   18.40
   3  -1 -10   65.89   10.00
   3  -1 -10   36.20    8.40
   3  -1 -10   56.49   10.70
  -3   1  10   52.79   10.70
  -3   1  10   48.20    7.60
   2  -1 -10  177.28   14.60
   2  -1 -10  178.48   15.20
   2  -1 -10  163.88   12.20
   2  -1 -10  146.49   15.20
   2  -1 -10  151.28   13.20
  -2   1  10  130.89   14.90
  -2   1  10  161.28   10.40
   1  -1 -10    0.90    2.90
   1  -1 -10    3.80    2.40
   1  -1 -10   -1.50    2.90
   1  -1 -10   -4.70    2.70
  -1   1  10    6.20    3.00
  -1   1  10   -2.40    3.20
   0  -1 -10  112.29   12.70
   0  -1 -10   99.89    7.90
   0  -1 -10  101.49   13.10
   0   1  10   88.09    7.40
   0   1  10  105.59   13.10
  -1  -1 -10 3493.35   66.79
  -1  -1 -10 3385.86   72.79
  -1  -1 -10 3540.05   76.89
   1   1  10 3290.57   62.49
   1   1  10 3490.65   73.79
  -2  -1 -10  119.19   13.90
  -2  -1 -10  125.19    9.80
  -2  -1 -10  128.89   13.10
   2   1  10  133.39   11.20
   2   1  10  132.69    8.90
  -3  -1 -10  269.97   14.70
  -3  -1 -10  278.17   16.60
  -3  -1 -10  256.37   14.90
   3   1  10  250.67   15.10
   3   1  10  258.77   12.50
  -4  -1 -10  887.11   29.20
  -4  -1 -10  879.81   30.30
  -4  -1 -10  946.91   29.10
   4   1  10  879.41   25.30
   4   1  10  931.91   29.50
  -5  -1 -10 1452.35   37.40
  -5  -1 -10 1484.55   41.10
  -5  -1 -10 1438.96   38.40
   5   1  10 1483.75   44.30
   5   1  10 1476.65   36.10
   5   1  10 1425.96   38.60
  -6  -1 -10  720.33   27.90
  -6  -1 -10  738.73   23.90
  -6  -1 -10  726.03   26.90
   6   1  10  738.33   29.60
   6   1  10  765.62   26.10
   6   1  10  731.93   24.60
  -7  -1 -10    5.40    4.80
  -7  -1 -10    3.00    4.50
   7   1  10    4.20    3.20
   7   1  10    8.70    5.10
   7   1  10    5.90    3.60
  -8  -1 -10  136.29   14.70
  -8  -1 -10  162.98   17.10
   8   1  10  185.08   14.80
   8   1  10  195.38   13.70
   8   1  10  198.78   16.60
   8   1  10  196.18   13.20
  -9  -1 -10   67.89   11.90
  -9  -1 -10   49.30   10.00
   9   1  10   70.89   13.10
   9   1  10   47.10    9.40
   9   1  10   75.19   11.50
 -10  -1 -10  284.77   20.90
 -10  -1 -10  328.17   21.80
  10   1  10  326.57   19.90
  10   1  10  340.27   24.30
   6  -2 -10   87.29   14.90
   6  -2 -10   67.89   14.40
   6  -2 -10   60.09   12.90
  -6   2  10  100.19   17.00
   5  -2 -10   -2.50    4.10
   5  -2 -10    0.40    4.70
   5  -2 -10   -4.10    3.60
  -5   2  10    6.10    5.80
   4  -2 -10  442.86   25.50
   4  -2 -10  441.36   20.90
   4  -2 -10  442.96   25.00
  -4   2  10  433.46   25.30
  -4   2  10  459.75   21.50
   3  -2 -10  205.28   13.50
   3  -2 -10  186.08   15.80
   3  -2 -10  207.68   16.60
  -3   2  10  224.28   14.20
  -3   2  10  206.28   16.70
   2  -2 -10   -1.50    3.20
   2  -2 -10   -0.70    2.70
   2  -2 -10    2.10    3.40
  -2   2  10   -0.70    2.10
  -2   2  10    0.00    3.40
   1  -2 -10  204.38   14.30
   1  -2 -10  227.48   16.40
   1  -2 -10  219.48   10.10
  -1   2  10  189.78   14.70
  -1   2  10  213.98   12.60
   0  -2 -10  175.38    9.50
   0  -2 -10  177.38   12.40
   0  -2 -10  175.98   14.40
   0   2  10  158.68   10.70
   0   2  10  202.08   14.70
  -1  -2 -10  197.08   14.80
  -1  -2 -10  173.28   10.00
   1   2  10  166.68   11.10
   1   2  10  183.78   13.90
  -2  -2 -10  545.45   24.20
  -2  -2 -10  575.04   19.90
   2   2  10  553.84   23.30
   2   2  10  549.74   19.90
  -3  -2 -10  429.16   17.70
  -3  -2 -10  399.96   18.60
  -3  -2 -10  410.16   20.10
   3   2  10  417.46   17.20
   3   2  10  390.16   19.20
  -4  -2 -10  814.02   28.70
  -4  -2 -10  851.31   27.20
   4   2  10  873.31   28.80
   4   2  10  783.92   25.10
  -5  -2 -10   43.10    7.80
  -5  -2 -10   37.40    7.40
   5   2  10   36.00    6.60
   5   2  10   31.50    6.60
  -6  -2 -10 1409.36   38.20
  -6  -2 -10 1492.75   41.50
  -6  -2 -10 1430.46   39.80
   6   2  10 1467.45   38.60
   6   2  10 1428.66   39.60
  -7  -2 -10    3.50    4.00
  -7  -2 -10    7.90    5.10
   7   2  10    3.60    3.60
   7   2  10    3.90    3.10
   7   2  10   10.90    4.90
   7   2  10    8.90    4.20
  -8  -2 -10  387.26   21.50
  -8  -2 -10  388.26   21.70
   8   2  10  398.36   19.50
   8   2  10  412.76   22.40
   8   2  10  417.56   21.50
   8   2  10  396.86   20.10
  -9  -2 -10  466.55   24.70
  -9  -2 -10  473.75   24.80
   9   2  10  471.85   22.90
   9   2  10  434.46   22.00
   9   2  10  474.05   25.50
   9   2  10  493.45   22.30
 -10  -2 -10  138.19   16.60
  10   2  10  104.99   15.50
  10   2  10  151.98   15.60
  10   2  10  123.39   15.20
   6  -3 -10  680.53   33.00
   6  -3 -10  656.63   35.20
  -6   3  10  673.53   34.30
   5  -3 -10   11.50    6.60
   5  -3 -10    9.10    6.80
  -5   3  10    5.70    5.70
  -5   3  10    0.30    4.00
   4  -3 -10  113.19   15.90
   4  -3 -10  127.69   16.40
  -4   3  10  105.99   13.40
  -4   3  10  102.49   15.50
   3  -3 -10  497.75   26.00
   3  -3 -10  504.65   20.40
   3  -3 -10  494.75   25.80
  -3   3  10  451.95   25.10
  -3   3  10  500.85   22.90
   2  -3 -10    8.60    4.00
   2  -3 -10   16.20    5.60
   2  -3 -10    5.50    5.00
  -2   3  10   12.70    5.30
  -2   3  10   18.60    7.20
   1  -3 -10  224.78   16.60
   1  -3 -10  221.18   15.00
  -1   3  10  212.88   13.70
  -1   3  10  211.98   16.00
   0  -3 -10  743.33   30.00
   0  -3 -10  729.63   26.40
   0  -3 -10  749.62   19.30
   0   3  10  767.52   26.20
   0   3  10  758.72   29.40
  -1  -3 -10   83.89    6.50
  -1  -3 -10   89.99   11.60
   1   3  10   97.19   11.90
   1   3  10   84.29   10.10
  -2  -3 -10 1411.96   33.10
  -2  -3 -10 1395.76   41.40
   2   3  10 1375.06   37.10
   2   3  10 1427.76   40.60
  -3  -3 -10   -0.50    2.70
  -3  -3 -10    8.50    3.60
   3   3  10   -1.70    3.10
   3   3  10    3.10    3.70
  -4  -3 -10 1714.93   43.00
  -4  -3 -10 1724.73   45.30
  -4  -3 -10 1691.83   41.40
   4   3  10 1695.43   44.60
   4   3  10 1761.12   42.90
  -5  -3 -10  421.46   18.80
  -5  -3 -10  455.35   19.70
  -5  -3 -10  443.16   19.90
   5   3  10  455.15   20.70
   5   3  10  442.26   19.40
  -6  -3 -10  204.98   13.00
  -6  -3 -10  158.88   12.30
  -6  -3 -10  184.08   12.40
   6   3  10  182.98   12.20
   6   3  10  193.48   13.50
   6   3  10  184.48   12.80
  -7  -3 -10  343.47   16.90
  -7  -3 -10  315.77   15.40
  -7  -3 -10  323.77   18.50
   7   3  10  347.37   18.20
   7   3  10  343.17   18.00
   7   3  10  349.87   18.40
  -8  -3 -10  401.76   18.20
  -8  -3 -10  398.26   21.50
  -8  -3 -10  398.96   21.40
   8   3  10  398.86   20.10
   8   3  10  380.16   20.20
   8   3  10  392.56   20.30
   8   3  10  367.76   20.20
  -9  -3 -10  509.15   20.80
  -9  -3 -10  484.45   24.80
   9   3  10  492.15   23.10
   9   3  10  501.15   23.10
   9   3  10  517.35   25.60
   9   3  10  509.35   24.60
 -10  -3 -10  166.98   18.00
  10   3  10  186.78   14.60
  10   3  10  192.78   15.70
  10   3  10  157.98   18.70
 -11  -3 -10  435.06   25.90
  11   3  10  380.06   25.40
   6  -4 -10  176.28   23.00
  -6   4  10  137.39   18.50
   5  -4 -10  554.04   31.20
   5  -4 -10  534.35   28.80
  -5   4  10  562.04   30.60
  -5   4  10  532.85   27.70
   4  -4 -10   10.40    5.80
   4  -4 -10   17.80    7.10
  -4   4  10   20.20    8.00
  -4   4  10   19.80    6.80
   3  -4 -10   55.29   10.80
   3  -4 -10   77.09   12.60
  -3   4  10   73.39   11.40
  -3   4  10   72.89   13.40
   2  -4 -10  106.39   13.60
   2  -4 -10  112.29   15.20
  -2   4  10  124.89   14.30
  -2   4  10  149.59   17.10
   1  -4 -10  421.76   21.40
   1  -4 -10  421.46   22.80
  -1   4  10  420.86   20.80
  -1   4  10  437.66   23.10
   0  -4 -10  174.48   12.80
   0  -4 -10  149.39   15.90
   0   4  10  168.88   14.00
   0   4  10  165.78   13.00
  -1  -4 -10  125.39   14.60
   1   4  10  127.99   13.60
   1   4  10  112.59   13.50
  -2  -4 -10  820.02   30.80
  -2  -4 -10  877.61   23.10
   2   4  10  790.42   28.30
   2   4  10  871.81   30.90
  -3  -4 -10    8.00    4.00
  -3  -4 -10    6.60    3.30
  -3  -4 -10   25.50    6.90
   3   4  10   11.10    5.00
   3   4  10    2.70    3.90
  -4  -4 -10  381.66   18.10
  -4  -4 -10  382.36   19.30
  -4  -4 -10  399.26   16.90
   4   4  10  417.76   14.30
   4   4  10  412.86   20.10
   4   4  10  396.86   19.10
  -5  -4 -10 1167.28   33.20
  -5  -4 -10 1172.58   34.90
  -5  -4 -10 1099.59   32.90
   5   4  10 1195.28   35.30
   5   4  10 1160.68   35.90
   5   4  10 1132.69   29.00
  -6  -4 -10  216.18   13.40
  -6  -4 -10  231.78   14.20
   6   4  10  211.38   12.10
   6   4  10  207.18   14.50
   6   4  10  236.68   15.00
  -7  -4 -10  786.92   27.10
  -7  -4 -10  757.72   25.20
   7   4  10  774.92   26.60
   7   4  10  795.22   29.10
   7   4  10  721.73   28.50
  -8  -4 -10   45.30    7.90
   8   4  10   46.70    9.60
   8   4  10   43.70    8.80
   8   4  10   42.40    8.30
  -9  -4 -10  745.33   26.80
   9   4  10  771.12   31.60
   9   4  10  800.42   30.40
   9   4  10  749.42   28.50
   9   4  10  807.62   31.20
 -10  -4 -10   35.40    7.70
  10   4  10   32.20    8.80
  10   4  10   31.70    8.30
 -11  -4 -10  117.29   16.10
  11   4  10  125.39   16.50
  11   4  10  107.29   15.30
   5  -5 -10  948.81   42.00
   5  -5 -10  873.01   38.00
  -5   5  10  951.20   39.10
  -5   5  10  844.42   38.30
   4  -5 -10  132.59   17.90
   4  -5 -10  169.78   19.40
  -4   5  10  135.69   16.70
  -4   5  10  178.58   20.40
   3  -5 -10  169.28   18.80
   3  -5 -10  189.48   16.70
  -3   5  10  211.38   17.90
  -3   5  10  182.48   19.00
   2  -5 -10  159.38   17.50
   2  -5 -10  140.19   17.00
  -2   5  10  157.08   16.80
  -2   5  10  151.58   17.10
   1  -5 -10  104.89   13.30
   1  -5 -10  108.09   15.00
  -1   5  10  105.99   14.40
  -1   5  10   92.49   12.70
   0  -5 -10  833.92   33.00
   0  -5 -10  853.01   30.60
   0   5  10  898.31   32.10
   0   5  10  866.61   32.60
  -1  -5 -10  108.99   13.40
   1   5  10  111.99   13.80
   1   5  10  117.29   13.80
  -2  -5 -10  205.38   15.30
  -2  -5 -10  218.08   14.00
   2   5  10  218.98   15.40
   2   5  10  192.48   14.30
  -3  -5 -10  777.92   29.70
  -3  -5 -10  789.32   27.10
   3   5  10  785.42   29.00
   3   5  10  764.22   28.90
  -4  -5 -10   10.60    5.00
  -4  -5 -10   12.90    4.50
   4   5  10   22.90    6.20
   4   5  10    9.90    5.40
  -5  -5 -10  585.44   23.80
  -5  -5 -10  567.24   22.60
   5   5  10  559.14   24.10
   5   5  10  510.65   23.40
  -6  -5 -10   35.50    7.40
  -6  -5 -10   36.50    7.50
   6   5  10   12.60    5.10
   6   5  10   46.30    9.10
  -7  -5 -10  754.32   26.90
  -7  -5 -10  727.43   25.30
   7   5  10  759.92   29.70
   7   5  10  737.63   29.00
  -8  -5 -10  429.56   20.00
   8   5  10  442.06   22.30
   8   5  10  409.76   22.40
  -9  -5 -10  171.18   12.90
   9   5  10  200.08   19.90
 -10  -5 -10  325.47   18.00
  10   5  10  339.07   22.00
  11   5  10   56.39   12.10
   5  -6 -10  178.78   22.40
   4  -6 -10  293.57   22.90
   4  -6 -10  311.07   22.30
  -4   6  10  312.07   22.60
  -4   6  10  299.97   21.90
   3  -6 -10  311.37   22.40
   3  -6 -10  304.67   21.70
  -3   6  10  298.57   21.20
  -3   6  10  322.87   22.20
   2  -6 -10  323.97   21.20
   2  -6 -10  281.87   20.00
  -2   6  10  312.27   20.70
  -2   6  10  305.77   20.50
   1  -6 -10   73.69   12.70
   1  -6 -10   63.69   10.90
  -1   6  10   72.39   11.70
  -1   6  10   80.69   12.40
   0  -6 -10  332.17   19.30
   0  -6 -10  311.97   20.20
   0   6  10  337.77   20.50
   0   6  10  358.06   20.60
  -1  -6 -10   39.70    7.70
  -1  -6 -10   49.80   10.30
   1   6  10   49.70    9.80
   1   6  10   47.20   10.00
  -2  -6 -10  177.88   12.80
  -2  -6 -10  140.19   15.60
   2   6  10  167.68   16.90
   2   6  10  120.59   13.70
  -3  -6 -10  633.84   24.70
  -3  -6 -10  637.44   27.10
   3   6  10  601.14   25.80
   3   6  10  670.63   28.00
  -4  -6 -10  108.89   11.90
  -4  -6 -10   93.89   12.30
   4   6  10  100.69   13.60
   4   6  10   69.09   10.20
  -5  -6 -10  266.07   15.50
  -5  -6 -10  248.48   15.90
   5   6  10  266.37   17.50
   5   6  10  253.67   16.40
  -6  -6 -10  270.67   16.10
  -6  -6 -10  264.67   15.80
   6   6  10  252.87   17.30
   6   6  10  243.08   16.20
  -7  -6 -10  301.17   16.50
  -7  -6 -10  313.97   17.30
   7   6  10  286.17   18.10
   7   6  10  303.27   19.30
  -8  -6 -10  833.02   29.10
   8   6  10  737.33   30.10
   8   6  10  808.22   32.60
  -9  -6 -10   24.40    6.80
   9   6  10   28.50    8.60
 -10  -6 -10  444.06   21.30
  10   6  10  437.06   25.70
 -11  -6 -10    6.10    4.30
  11   6  10   -1.70    4.50
   4  -7 -10  346.57   24.20
   4  -7 -10  290.37   23.60
  -4   7  10  310.47   23.40
  -4   7  10  307.77   22.90
   3  -7 -10   -5.90    4.00
   3  -7 -10   -4.90    4.30
  -3   7  10   -1.10    5.10
  -3   7  10    2.70    5.40
   2  -7 -10 1140.39   42.80
   2  -7 -10 1098.19   42.30
  -2   7  10 1132.39   41.10
  -2   7  10 1085.99   41.70
   1  -7 -10   29.50    8.50
   1  -7 -10   31.50    9.10
  -1   7  10   18.30    7.40
  -1   7  10   44.70   10.20
   0  -7 -10    7.30    5.30
   0  -7 -10   17.40    5.80
   0  -7 -10    5.90    4.10
   0   7  10   11.60    6.50
   0   7  10    2.90    5.20
  -1  -7 -10  417.66   23.50
  -1  -7 -10  379.06   19.40
   1   7  10  349.77   21.80
   1   7  10  424.66   22.80
  -2  -7 -10   87.69   11.00
  -2  -7 -10   85.89   13.10
   2   7  10   84.59   13.00
   2   7  10   78.29   11.50
  -3  -7 -10   66.99    9.50
  -3  -7 -10   64.99   10.50
   3   7  10   66.49   11.80
   3   7  10   78.29   11.70
  -4  -7 -10  755.42   30.20
  -4  -7 -10  746.93   27.70
   4   7  10  798.02   32.70
   4   7  10  722.23   29.50
  -5  -7 -10  181.98   14.30
  -5  -7 -10  137.49   13.80
   5   7  10  199.28   16.40
   5   7  10  174.48   14.30
  -6  -7 -10  316.07   18.00
  -6  -7 -10  295.17   17.20
   6   7  10  336.47   20.80
   6   7  10  321.27   19.20
  -7  -7 -10   41.90    8.20
  -7  -7 -10   18.90    5.80
   7   7  10   36.50    8.90
   7   7  10   38.70    9.70
  -8  -7 -10  837.12   30.50
   8   7  10  800.92   34.10
   8   7  10  911.61   34.10
  -9  -7 -10   20.50    6.60
   9   7  10   12.00    6.60
 -10  -7 -10  224.68   15.90
  10   7  10  210.98   22.50
   3  -8 -10   38.80   10.20
   3  -8 -10   36.40   10.60
  -3   8  10   68.29   13.20
  -3   8  10   42.80   12.10
   2  -8 -10   84.29   14.30
   2  -8 -10   87.59   14.80
  -2   8  10   80.59   14.90
  -2   8  10   89.19   14.30
   1  -8 -10  496.25   28.20
   1  -8 -10  540.95   28.90
  -1   8  10  534.75   27.80
  -1   8  10  558.74   30.20
   0  -8 -10  101.99   14.90
   0  -8 -10   86.49   11.40
   0   8  10   92.39   13.70
   0   8  10   71.79   13.00
  -1  -8 -10   96.09   12.00
  -1  -8 -10   90.09   13.70
   1   8  10  112.39   14.50
   1   8  10   84.39   13.60
  -2  -8 -10  249.48   16.00
  -2  -8 -10  259.77   18.90
   2   8  10  292.87   19.10
   2   8  10  255.37   19.40
  -3  -8 -10  277.57   16.80
  -3  -8 -10  285.37   19.30
   3   8  10  302.67   19.10
   3   8  10  324.17   21.90
  -4  -8 -10   -0.40    3.00
  -4  -8 -10    0.60    3.60
   4   8  10   -1.20    3.50
   4   8  10    4.30    5.20
  -5  -8 -10   52.89   10.20
  -5  -8 -10   60.39    9.70
   5   8  10   39.70    9.90
   5   8  10   38.70    9.10
  -6  -8 -10  994.80   34.70
  -6  -8 -10  998.10   33.70
   6   8  10  918.51   34.90
   6   8  10  922.71   37.10
  -7  -8 -10  160.38   16.40
  -7  -8 -10  128.59   14.20
   7   8  10  138.49   16.50
   7   8  10  156.18   17.00
  -8  -8 -10    8.20    5.00
   8   8  10    8.60    5.00
   8   8  10   -3.70    4.40
  -9  -8 -10  428.26   22.10
   9   8  10  354.46   24.10
 -10  -8 -10  307.27   19.50
  10   8  10  304.67   22.90
   2  -9 -10   69.39   14.30
   2  -9 -10   67.09   13.00
  -2   9  10   74.09   13.30
  -2   9  10   86.59   15.10
   1  -9 -10  196.68   22.90
  -1   9  10  184.18   22.40
  -1   9  10  182.38   20.10
   0  -9 -10    2.90    5.40
   0  -9 -10    1.00    3.80
   0   9  10    9.20    5.70
   0   9  10    8.00    7.00
  -1  -9 -10  357.16   19.40
  -1  -9 -10  375.26   24.10
   1   9  10  311.37   22.90
   1   9  10  338.47   21.60
  -2  -9 -10  206.98   17.70
  -2  -9 -10  186.28   14.10
   2   9  10  178.78   20.80
   2   9  10  224.98   17.30
  -3  -9 -10   32.90    7.80
  -3  -9 -10   60.19   11.80
   3   9  10   15.10    6.20
   3   9  10   27.40    9.60
  -4  -9 -10  353.96   22.00
  -4  -9 -10  310.17   18.30
   4   9  10  343.77   20.80
   4   9  10  321.57   22.20
  -5  -9 -10   43.30    9.30
  -5  -9 -10   25.20    6.40
   5   9  10   39.80    9.40
   5   9  10   34.30    9.70
  -6  -9 -10  170.78   16.90
  -6  -9 -10  133.19   15.50
   6   9  10  135.19   17.20
   6   9  10  155.28   17.60
  -7  -9 -10  438.46   22.90
  -7  -9 -10  497.45   24.10
   7   9  10  471.15   25.50
   7   9  10  465.55   27.20
  -8  -9 -10   27.80    8.50
   8   9  10   21.50    9.00
   8   9  10   10.80    6.50
  -9  -9 -10  304.77   19.70
   9   9  10  338.67   24.40
   0 -10 -10  244.48   21.20
   0 -10 -10  193.98   15.00
   0  10  10  182.08   22.10
   0  10  10  193.78   20.10
  -1 -10 -10  171.08   17.20
  -1 -10 -10  170.98   20.30
   1  10  10  146.09   17.60
   1  10  10  197.48   22.90
  -2 -10 -10  121.79   14.30
  -2 -10 -10  103.39   16.00
   2  10  10  119.29   17.90
   2  10  10  125.19   16.30
  -3 -10 -10   20.50    8.00
  -3 -10 -10    9.20    5.20
   3  10  10   15.60    7.30
   3  10  10   10.40    7.10
  -4 -10 -10  230.08   16.40
  -4 -10 -10  222.58   18.80
   4  10  10  220.38   23.30
   4  10  10  230.58   18.00
  -5 -10 -10   25.00    7.10
  -5 -10 -10   17.30    7.30
   5  10  10   30.60   10.00
   5  10  10   36.50    9.40
  -6 -10 -10    6.20    5.40
  -6 -10 -10    1.30    4.70
   6  10  10    0.60    6.00
   6  10  10   12.20    6.30
  -7 -10 -10  135.29   16.30
  -7 -10 -10  161.28   17.70
   7  10  10  147.59   17.60
   7  10  10  168.48   20.80
  -8 -10 -10    7.70    6.00
   8  10  10   -0.30    4.40
   8  10  10   10.40    7.60
  -2 -11 -10  353.06   25.20
  -2 -11 -10  334.77   19.90
   2  11  10  302.47   24.70
   2  11  10  350.06   22.90
  -3 -11 -10   39.00    8.70
  -3 -11 -10   70.89   14.30
   3  11  10   90.49   16.60
   3  11  10   55.69   11.80
  -4 -11 -10   13.30    5.70
  -4 -11 -10    6.00    6.80
   4  11  10    8.60    6.60
   4  11  10   -0.80    6.50
  -5 -11 -10  538.35   29.30
  -5 -11 -10  456.95   24.70
   5  11  10  552.54   32.10
   5  11  10  497.15   26.90
  -6 -11 -10   -4.20    4.10
  -6 -11 -10   -5.90    3.70
   6  11  10   -5.80    5.60
   6  11  10   -7.20    3.20
  -7 -11 -10    4.10    5.60
  -7 -11 -10    4.00    5.90
   7  11  10    4.00    4.90
   7  11  10    0.70    6.40
   1   5 -11   15.80    7.30
   1   5 -11   -2.20    5.20
  -1  -5  11    3.80    5.10
   0   5 -11    7.80    6.00
   0   5 -11   20.00    8.20
   0  -5  11   20.90    9.50
  -1   5 -11  342.77   23.00
  -1   5 -11  324.17   21.70
   1  -5  11  298.37   22.90
  -2   5 -11   88.39   14.60
  -2   5 -11   90.09   14.60
   2  -5  11  100.09   16.30
   3   4 -11  174.08   19.90
   3   4 -11  161.78   17.30
  -3  -4  11  189.38   20.70
  -3  -4  11  172.68   19.60
   2   4 -11   13.20    6.80
   2   4 -11   17.60    6.90
  -2  -4  11   13.40    6.80
  -2  -4  11   16.40    7.50
   1   4 -11   84.79   13.60
   1   4 -11  108.99   14.30
  -1  -4  11  120.79   16.40
  -1  -4  11  133.49   15.80
   0   4 -11  297.77   19.50
   0   4 -11  319.77   21.50
   0  -4  11  218.78   19.10
  -1   4 -11    9.00    6.00
  -1   4 -11   21.90    8.30
   1  -4  11   20.60    8.70
  -2   4 -11  207.88   20.50
  -2   4 -11  173.08   18.40
   2  -4  11  142.29   18.10
  -3   4 -11    5.50    5.30
  -3   4 -11   -4.50    4.00
   3  -4  11    6.50    6.10
  -4   4 -11  609.24   30.00
  -4   4 -11  548.95   27.00
   4  -4  11  572.84   31.80
  -5   4 -11   81.29   13.30
  -5   4 -11   68.49   12.80
   5  -4  11   51.59   11.90
   4   3 -11   66.49   12.40
   4   3 -11   52.79   11.70
  -4  -3  11   75.29   12.50
  -4  -3  11   66.19   12.70
   3   3 -11   92.69   13.00
   3   3 -11  102.39   14.90
  -3  -3  11  100.09   14.40
  -3  -3  11  108.69   14.70
   2   3 -11  123.99   14.20
   2   3 -11  107.59   15.40
  -2  -3  11  105.49   15.00
  -2  -3  11  101.69   14.00
   1   3 -11  367.56   23.00
   1   3 -11  388.06   21.00
  -1  -3  11  342.87   22.20
  -1  -3  11  383.36   21.30
   0   3 -11  125.39   15.70
   0   3 -11  128.59   15.00
   0  -3  11  127.09   17.20
   0  -3  11  138.49   15.20
  -1   3 -11  321.87   19.80
  -1   3 -11  288.77   19.50
   1  -3  11  316.07   21.90
   1  -3  11  307.47   17.80
  -2   3 -11  530.45   25.80
  -2   3 -11  596.24   27.60
   2  -3  11  580.94   30.00
  -3   3 -11   12.10    5.70
  -3   3 -11   13.60    5.80
   3  -3  11    1.80    4.60
  -4   3 -11  374.36   21.10
  -4   3 -11  320.27   20.80
   4  -3  11  352.26   24.00
  -5   3 -11  357.66   22.90
  -5   3 -11  357.86   20.40
   5  -3  11  397.46   25.50
  -6   3 -11   18.40    7.80
   6  -3  11   28.00    8.90
   5   2 -11  287.07   21.70
   5   2 -11  265.57   21.00
  -5  -2  11  317.97   23.30
   4   2 -11   29.10    8.50
   4   2 -11   15.60    7.10
  -4  -2  11    6.60    5.90
  -4  -2  11   20.40    7.10
   3   2 -11   48.60   10.40
   3   2 -11   73.99   10.30
  -3  -2  11   88.89   13.90
  -3  -2  11   63.89   11.80
   2   2 -11   43.80    8.70
   2   2 -11   33.80    8.90
  -2  -2  11   27.40    8.40
  -2  -2  11   53.59   11.20
   1   2 -11   -2.30    3.40
   1   2 -11    0.40    3.50
  -1  -2  11    1.40    4.50
  -1  -2  11    1.30    4.30
   0   2 -11  365.06   21.40
   0   2 -11  321.57   18.20
   0  -2  11  368.46   19.90
   0  -2  11  344.87   21.90
  -1   2 -11   81.39   11.70
  -1   2 -11   47.30    9.80
   1  -2  11   57.69   10.90
   1  -2  11   60.89    9.80
  -2   2 -11   53.79    9.20
  -2   2 -11   39.40    8.90
   2  -2  11   56.89    8.90
   2  -2  11   41.90    9.40
  -3   2 -11  873.61   32.40
  -3   2 -11  797.12   31.50
   3  -2  11  849.81   35.40
   3  -2  11  883.01   43.00
  -4   2 -11   41.20    9.00
  -4   2 -11   46.60    9.00
   4  -2  11   47.60   10.60
  -5   2 -11  160.78   16.00
  -5   2 -11  159.68   12.40
  -5   2 -11  173.78   18.10
   5  -2  11  158.98   17.90
  -6   2 -11   -1.80    4.50
  -6   2 -11    4.10    4.70
  -6   2 -11    3.70    3.90
   6  -2  11    7.30    5.80
  -7   2 -11  942.81   34.30
  -7   2 -11  879.31   37.10
   7  -2  11  951.20   39.70
   5   1 -11  148.89   18.00
  -5  -1  11  136.49   16.30
  -5  -1  11  138.79   18.90
   4   1 -11   74.39   12.70
   4   1 -11   63.89   12.20
  -4  -1  11   47.40   11.00
  -4  -1  11   58.49   11.20
   3   1 -11  118.49   15.60
   3   1 -11  100.99   13.60
  -3  -1  11  124.49   16.20
  -3  -1  11  151.18   18.20
   2   1 -11   84.79   10.50
   2   1 -11   66.69   11.50
  -2  -1  11   92.69   13.90
  -2  -1  11  105.29   14.80
   1   1 -11  491.35   25.10
   1   1 -11  511.95   21.30
  -1  -1  11  518.15   26.50
  -1  -1  11  501.45   24.80
   0   1 -11  140.29   11.50
   0   1 -11  126.39   14.80
   0  -1  11  166.08   13.80
   0  -1  11  151.98   17.20
  -1   1 -11   25.40    6.40
  -1   1 -11   29.60    7.60
   1  -1  11   38.50    8.20
   1  -1  11   24.80    7.10
  -2   1 -11   80.19   11.00
  -2   1 -11   86.69   12.10
   2  -1  11   99.09   12.40
   2  -1  11   59.69   10.90
  -3   1 -11 1104.59   36.20
  -3   1 -11 1087.49   35.90
   3  -1  11 1074.19   33.60
   3  -1  11 1163.38   41.20
  -4   1 -11   67.09   10.30
  -4   1 -11   81.59    9.60
  -4   1 -11   75.49   11.50
   4  -1  11   54.99    9.10
   4  -1  11   58.79   11.50
  -5   1 -11  232.18   14.70
  -5   1 -11  241.38   17.10
  -5   1 -11  261.07   16.10
   5  -1  11  253.97   18.70
  -6   1 -11   68.69    9.80
  -6   1 -11   47.20    9.00
  -6   1 -11   56.89   10.20
   6  -1  11   54.09   10.60
  -7   1 -11   66.89   11.80
  -7   1 -11   65.29   10.60
   7  -1  11   67.79   13.10
  -8   1 -11  685.33   32.10
  -8   1 -11  673.23   29.40
   8  -1  11  670.03   32.20
   5   0 -11   -3.10    3.70
   5   0 -11   11.40    6.20
  -5   0  11    3.30    5.50
   4   0 -11  154.48   16.80
   4   0 -11  118.29   17.00
  -4   0  11  149.88   18.50
   3   0 -11  102.59   13.10
   3   0 -11   93.89   14.10
   3   0 -11   88.69   13.90
  -3   0  11  101.79   15.20
   2   0 -11  343.47   21.00
   2   0 -11  325.67   21.70
  -2   0  11  307.87   20.40
   1   0 -11  458.85   25.30
   1   0 -11  452.65   18.70
   1   0 -11  454.05   23.70
  -1   0  11  462.35   23.80
   0   0 -11   15.70    6.30
   0   0 -11   29.90    6.30
   0   0 -11   26.40    7.10
   0   0  11   19.10    6.20
  -1   0 -11  241.48   16.50
  -1   0 -11  209.38   13.40
  -1   0 -11  208.78   16.70
   1   0  11  231.18   15.90
  -2   0 -11    2.30    4.20
  -2   0 -11    7.80    4.80
  -2   0 -11   13.00    4.90
   2   0  11    9.70    4.70
  -3   0 -11  426.26   20.30
  -3   0 -11  382.46   19.80
   3   0  11  429.16   23.80
   3   0  11  405.96   19.90
  -4   0 -11  371.06   19.00
  -4   0 -11  353.36   19.40
   4   0  11  364.36   18.30
   4   0  11  381.26   22.30
  -5   0 -11  319.47   17.20
  -5   0 -11  317.27   18.80
  -5   0 -11  303.97   16.30
   5   0  11  298.47   16.60
   5   0  11  346.17   21.20
  -6   0 -11  734.43   30.30
  -6   0 -11  749.33   26.50
  -6   0 -11  801.02   29.00
   6   0  11  750.72   32.30
   6   0  11  755.92   26.70
  -7   0 -11   10.30    5.60
  -7   0 -11    2.70    4.30
   7   0  11    3.50    5.10
  -8   0 -11  477.75   24.40
  -8   0 -11  489.25   26.30
   8   0  11  464.35   27.40
   8   0  11  476.35   26.10
  -9   0 -11   -2.30    4.60
  -9   0 -11    8.80    6.50
   9   0  11   -1.00    4.10
   9   0  11    0.70    4.90
   5  -1 -11   63.89   11.20
   5  -1 -11   48.60   11.40
   5  -1 -11   20.90   13.90
  -5   1  11   81.49   14.70
   4  -1 -11  366.86   23.60
   4  -1 -11  352.46   20.10
  -4   1  11  340.87   23.70
   3  -1 -11  116.09   16.30
   3  -1 -11  117.69   13.70
  -3   1  11   83.99   13.40
   2  -1 -11   38.50    9.60
   2  -1 -11   54.09    9.10
  -2   1  11   34.90    9.30
   1  -1 -11  319.07   15.20
   1  -1 -11  263.37   18.00
   1  -1 -11  286.77   20.10
  -1   1  11  307.17   19.80
   0  -1 -11    0.00    2.60
   0  -1 -11    6.80    4.80
   0  -1 -11    2.30    3.60
   0   1  11    1.90    4.30
  -1  -1 -11  428.96   18.10
  -1  -1 -11  443.96   23.50
  -1  -1 -11  405.86   21.30
   1   1  11  411.16   21.30
  -2  -1 -11  188.68   12.70
  -2  -1 -11  205.98   14.90
  -2  -1 -11  193.38   15.30
   2   1  11  211.48   15.00
  -3  -1 -11   86.19   11.20
  -3  -1 -11   79.59   11.60
  -3  -1 -11   80.99   10.50
   3   1  11   73.39   10.20
  -4  -1 -11  161.08   12.40
  -4  -1 -11  158.28   12.40
  -4  -1 -11  161.28   13.50
   4   1  11  155.48   12.50
  -5  -1 -11   -1.60    3.00
  -5  -1 -11    5.10    3.70
   5   1  11   -0.20    3.60
   5   1  11    2.20    3.80
  -6  -1 -11  853.71   29.60
  -6  -1 -11  862.31   27.80
  -6  -1 -11  830.02   31.30
   6   1  11  839.92   29.10
   6   1  11  851.51   39.20
   6   1  11  795.12   33.10
  -7  -1 -11  134.99   15.10
  -7  -1 -11  120.59   13.80
   7   1  11  153.88   17.50
   7   1  11  151.48   12.20
   7   1  11  142.29   17.20
  -8  -1 -11  163.68   16.60
  -8  -1 -11  112.59   14.90
   8   1  11  123.29   17.10
   8   1  11  128.89   15.80
  -9  -1 -11  291.67   20.20
  -9  -1 -11  314.07   21.40
   9   1  11  302.87   20.50
   9   1  11  298.27   21.90
   5  -2 -11    2.30    5.20
   5  -2 -11   -3.20    4.00
  -5   2  11    0.20    5.30
   4  -2 -11  182.18   20.60
   4  -2 -11  198.48   23.00
  -4   2  11  254.57   25.20
   3  -2 -11 1159.78   39.70
   3  -2 -11 1181.58   43.50
  -3   2  11 1158.48   43.00
   2  -2 -11   26.90    8.00
   2  -2 -11   24.90    6.30
  -2   2  11   20.00    7.10
  -2   2  11   19.30    5.40
   1  -2 -11   93.69   13.60
  -1   2  11  131.39   10.10
  -1   2  11  129.79   15.80
   0  -2 -11   20.40    4.60
   0  -2 -11   29.80    7.70
   0   2  11   17.40    6.20
   0   2  11   33.20    6.40
  -1  -2 -11 1348.07   33.80
  -1  -2 -11 1366.76   43.60
   1   2  11 1310.47   34.00
   1   2  11 1381.26   42.10
  -2  -2 -11  458.25   18.50
  -2  -2 -11  515.45   24.70
   2   2  11  470.55   18.70
   2   2  11  454.25   22.10
  -3  -2 -11  128.59   10.60
  -3  -2 -11  189.38   14.60
   3   2  11  132.99   10.40
   3   2  11  168.58   13.50
  -4  -2 -11  461.25   20.10
  -4  -2 -11  442.26   21.80
   4   2  11  455.35   21.50
   4   2  11  409.36   18.10
  -5  -2 -11   18.90    6.10
  -5  -2 -11   10.90    4.70
   5   2  11   34.00    7.50
   5   2  11   29.60    6.10
  -6  -2 -11  148.99   15.40
  -6  -2 -11  147.19   12.00
   6   2  11  138.79   14.60
   6   2  11  167.18   17.40
   6   2  11  126.99   10.70
  -7  -2 -11  979.10   35.00
   7   2  11  914.21   34.90
   7   2  11  964.10   34.70
   7   2  11  954.70   32.50
   7   2  11  986.80   32.00
  -8  -2 -11  278.57   18.70
  -8  -2 -11  282.27   18.30
   8   2  11  292.17   19.10
   8   2  11  249.78   16.40
   8   2  11  287.97   18.90
   8   2  11  238.28   15.80
  -9  -2 -11  597.44   29.00
  -9  -2 -11  579.74   28.10
   9   2  11  574.84   26.90
   9   2  11  557.44   24.80
   9   2  11  580.84   25.90
   9   2  11  593.74   29.40
 -10  -2 -11   66.19   12.70
  10   2  11   65.09   13.40
  10   2  11   70.49   12.20
   5  -3 -11  462.05   28.80
   5  -3 -11  418.86   26.50
   4  -3 -11  104.29   16.30
   4  -3 -11   91.19   14.90
  -4   3  11   83.79   13.80
  -4   3  11   94.89   13.30
   3  -3 -11  442.36   25.70
  -3   3  11  424.86   21.40
  -3   3  11  470.95   26.80
   2  -3 -11  192.98   16.50
  -2   3  11  158.68   17.70
  -2   3  11  197.28   14.10
   1  -3 -11  475.75   25.70
  -1   3  11  471.35   24.90
  -1   3  11  493.55   21.40
   0  -3 -11    3.90    5.40
   0   3  11   14.90    6.40
   0   3  11    2.70    3.60
  -1  -3 -11   35.80    5.70
  -1  -3 -11   27.40    7.20
   1   3  11   37.90    8.50
   1   3  11   23.90    5.90
  -2  -3 -11  334.37   14.70
  -2  -3 -11  325.17   19.70
   2   3  11  347.17   17.20
   2   3  11  346.57   19.60
  -3  -3 -11   13.00    4.40
  -3  -3 -11   23.20    6.70
   3   3  11   17.20    6.00
   3   3  11    5.00    4.00
  -4  -3 -11  121.89   13.60
  -4  -3 -11  172.18   11.80
   4   3  11  180.58   12.70
   4   3  11  153.78   15.70
  -5  -3 -11  553.74   23.00
  -5  -3 -11  598.34   24.80
   5   3  11  572.14   23.00
   5   3  11  593.14   24.80
  -6  -3 -11   36.70    7.80
  -6  -3 -11   41.70    8.30
   6   3  11   56.69    8.60
   6   3  11   40.90    8.50
   6   3  11   46.80    8.30
  -7  -3 -11  270.67   15.90
  -7  -3 -11  284.97   17.90
  -7  -3 -11  288.57   17.90
   7   3  11  281.37   16.80
   7   3  11  281.27   16.80
   7   3  11  294.97   17.70
  -8  -3 -11   34.10    8.50
   8   3  11   22.70    6.60
   8   3  11   25.80    7.30
   8   3  11   29.90    7.60
   8   3  11   20.60    5.80
  -9  -3 -11  886.61   29.60
   9   3  11  861.31   32.10
   9   3  11  879.11   33.40
   9   3  11  897.61   35.20
   9   3  11  872.81   33.30
 -10  -3 -11   83.59   13.40
  10   3  11   62.89   11.40
  10   3  11   80.99   13.70
  10   3  11   79.29   11.80
   5  -4 -11  481.45   30.30
   5  -4 -11  474.95   28.60
  -5   4  11  474.15   26.30
  -5   4  11  572.44   32.00
   4  -4 -11  119.49   16.90
   4  -4 -11  149.09   19.40
  -4   4  11  156.88   19.60
  -4   4  11  140.09   16.90
   3  -4 -11  336.97   26.00
   3  -4 -11  353.16   23.00
  -3   4  11  380.86   24.40
  -3   4  11  322.37   19.70
   2  -4 -11  178.58   19.40
  -2   4  11  171.18   14.30
  -2   4  11  168.78   19.60
   1  -4 -11  483.75   26.20
  -1   4  11  529.95   26.80
  -1   4  11  535.95   24.00
   0  -4 -11 1706.03   51.39
   0   4  11 1745.23   50.99
   0   4  11 1745.13   46.60
  -1  -4 -11   23.00    7.00
   1   4  11   14.80    5.80
   1   4  11   14.30    6.00
  -2  -4 -11   30.00    7.80
  -2  -4 -11    8.40    3.50
   2   4  11   18.50    5.70
   2   4  11   14.40    5.80
  -3  -4 -11   38.50    6.30
  -3  -4 -11   38.80    8.80
   3   4  11   52.39    9.20
   3   4  11   32.10    7.60
  -4  -4 -11  238.78   13.30
  -4  -4 -11  248.78   16.30
  -4  -4 -11  239.38   15.20
   4   4  11  234.28   15.30
   4   4  11  203.48   15.00
  -5  -4 -11  458.15   20.80
  -5  -4 -11  431.86   19.50
  -5  -4 -11  381.06   19.90
   5   4  11  408.06   20.20
   5   4  11  413.46   21.30
  -6  -4 -11  419.96   20.10
  -6  -4 -11  419.46   20.10
   6   4  11  400.36   20.50
   6   4  11  404.46   21.10
  -7  -4 -11  260.17   15.30
  -7  -4 -11  231.18   15.00
   7   4  11  274.57   17.30
   7   4  11  290.07   17.80
  -8  -4 -11  280.57   16.40
   8   4  11  289.97   18.10
   8   4  11  262.37   17.80
  -9  -4 -11  196.18   13.90
   9   4  11  213.98   16.70
   9   4  11  197.88   15.40
   9   4  11  193.38   15.20
 -10  -4 -11  478.65   24.60
  10   4  11  447.26   23.70
  10   4  11  508.25   26.50
   4  -5 -11  539.35   30.90
   4  -5 -11  515.95   29.60
  -4   5  11  614.34   32.30
  -4   5  11  525.85   28.00
   3  -5 -11  135.59   23.80
   3  -5 -11  139.09   17.40
  -3   5  11  115.69   16.90
  -3   5  11  137.19   16.60
   2  -5 -11  131.99   17.30
  -2   5  11  109.19   14.30
  -2   5  11  146.79   17.70
   1  -5 -11   14.40    7.00
  -1   5  11   19.90    7.70
  -1   5  11   22.50    6.70
   0  -5 -11  681.73   31.00
   0   5  11  677.23   28.70
   0   5  11  738.03   31.60
  -1  -5 -11    7.10    5.70
   1   5  11    1.00    4.50
   1   5  11    5.20    4.60
  -2  -5 -11   57.99   10.80
   2   5  11   75.59   11.40
   2   5  11   56.99   10.10
  -3  -5 -11  345.37   20.20
  -3  -5 -11  351.96   18.60
   3   5  11  343.47   19.90
   3   5  11  379.46   20.20
  -4  -5 -11   45.60    8.10
  -4  -5 -11   57.29   10.00
   4   5  11   57.19   10.00
   4   5  11   40.20    8.80
  -5  -5 -11  217.18   15.30
  -5  -5 -11  213.88   14.30
   5   5  11  187.08   14.60
   5   5  11  229.08   16.00
  -6  -5 -11  244.18   15.60
  -6  -5 -11  227.88   15.30
   6   5  11  248.58   16.80
   6   5  11  261.97   17.30
  -7  -5 -11  220.28   14.40
  -7  -5 -11  210.28   15.00
   7   5  11  250.07   17.40
   7   5  11  223.98   16.20
  -8  -5 -11  367.46   19.50
   8   5  11  391.46   22.10
   8   5  11  360.76   20.80
  -9  -5 -11   53.19    9.50
   9   5  11   52.39   11.30
   9   5  11   62.99   11.10
 -10  -5 -11  462.05   22.30
  10   5  11  463.75   25.00
  10   5  11  506.75   27.30
   4  -6 -11  252.77   29.70
   4  -6 -11  266.87   21.80
  -4   6  11  292.07   22.70
  -4   6  11  286.07   21.80
   3  -6 -11   75.19   13.50
  -3   6  11   69.09   12.70
  -3   6  11   91.79   15.10
   2  -6 -11 1115.49   43.20
  -2   6  11 1193.98   43.80
  -2   6  11 1171.38   42.50
   1  -6 -11  114.79   15.80
  -1   6  11  105.99   15.50
  -1   6  11  114.39   15.50
   0  -6 -11   17.10    6.50
   0   6  11   32.10    8.90
   0   6  11   14.20    7.80
  -1  -6 -11  580.54   28.50
   1   6  11  613.54   28.30
   1   6  11  603.04   27.90
  -2  -6 -11  499.35   22.80
  -2  -6 -11  515.45   25.70
   2   6  11  504.45   25.30
   2   6  11  530.05   25.80
  -3  -6 -11  162.38   17.60
  -3  -6 -11  113.39   12.90
   3   6  11  129.59   15.70
   3   6  11  132.49   15.60
  -4  -6 -11  516.65   22.90
  -4  -6 -11  515.75   24.90
   4   6  11  492.85   25.10
   4   6  11  510.05   24.50
  -5  -6 -11   36.70    7.70
  -5  -6 -11   45.60    9.10
   5   6  11   26.20    7.20
   5   6  11   43.20    9.30
  -6  -6 -11    9.10    4.90
  -6  -6 -11    0.30    3.30
   6   6  11   -1.50    3.60
   6   6  11    2.10    3.70
  -7  -6 -11   34.40    7.80
  -7  -6 -11   24.70    6.90
   7   6  11   21.60    7.50
   7   6  11   26.10    7.50
  -8  -6 -11 1063.19   35.20
   8   6  11 1065.49   39.30
   8   6  11 1093.49   38.60
  -9  -6 -11  134.29   14.60
   9   6  11   98.79   14.00
   9   6  11  115.99   15.40
 -10  -6 -11   82.19   11.50
  10   6  11   99.49   15.20
  10   6  11   87.59   13.50
   3  -7 -11    0.70    5.30
  -3   7  11    3.80    6.40
  -3   7  11    6.40    5.40
   2  -7 -11  108.69   16.10
  -2   7  11  112.59   17.00
  -2   7  11  121.99   17.40
   1  -7 -11  762.22   35.20
  -1   7  11  784.82   34.50
  -1   7  11  696.13   33.20
   0  -7 -11   52.09   11.10
   0   7  11   42.70   10.20
   0   7  11   75.79   13.10
  -1  -7 -11   61.39   11.30
  -1  -7 -11   69.89   10.80
   1   7  11   85.19   13.30
   1   7  11   75.39   12.30
  -2  -7 -11   59.09   10.10
  -2  -7 -11   64.89   11.60
   2   7  11   64.49   12.10
   2   7  11   70.49   12.00
  -3  -7 -11  924.71   32.30
  -3  -7 -11  956.30   36.70
   3   7  11 1005.40   36.50
   3   7  11  927.31   36.60
  -4  -7 -11  108.39   14.00
  -4  -7 -11  116.59   13.20
   4   7  11  114.59   14.30
   4   7  11  129.69   16.00
  -5  -7 -11   -0.20    3.20
  -5  -7 -11    2.50    4.50
   5   7  11   11.20    5.60
   5   7  11    1.80    4.00
  -6  -7 -11  344.77   19.30
  -6  -7 -11  303.37   18.80
   6   7  11  325.37   21.10
   6   7  11  351.96   20.90
  -7  -7 -11   15.60    5.60
  -7  -7 -11   15.50    5.70
   7   7  11   17.60    6.90
   7   7  11   26.60    8.60
  -8  -7 -11   15.40    6.30
   8   7  11    5.20    4.90
   8   7  11    8.10    6.00
  -9  -7 -11  317.97   19.50
   9   7  11  338.37   21.70
   9   7  11  349.07   23.40
 -10  -7 -11   57.99   10.70
  10   7  11   55.19   10.90
  10   7  11   50.49   11.70
   2  -8 -11    8.30    5.70
  -2   8  11    3.50    6.00
  -2   8  11    3.40    5.70
   1  -8 -11  675.73   33.80
  -1   8  11  558.74   30.10
  -1   8  11  638.54   33.00
   0  -8 -11   86.09   14.90
   0   8  11   87.29   14.20
   0   8  11   78.89   14.70
  -1  -8 -11  429.26   21.80
  -1  -8 -11  429.86   25.60
   1   8  11  456.75   26.60
   1   8  11  409.56   24.30
  -2  -8 -11  278.07   17.10
  -2  -8 -11  274.67   20.40
   2   8  11  240.78   20.00
   2   8  11  250.47   19.00
  -3  -8 -11   65.59   12.20
  -3  -8 -11   62.59   10.70
   3   8  11   65.59   12.90
   3   8  11   58.59   11.20
  -4  -8 -11  149.59   14.90
  -4  -8 -11  154.38   17.10
   4   8  11  187.68   20.30
   4   8  11  141.19   16.30
  -5  -8 -11   41.50    9.20
  -5  -8 -11   19.80    6.90
   5   8  11   22.40    8.00
   5   8  11   34.60    8.60
  -6  -8 -11   80.69   12.00
  -6  -8 -11   81.89   12.20
   6   8  11   84.79   14.60
   6   8  11   66.49   11.40
  -7  -8 -11  470.65   23.30
  -7  -8 -11  517.05   24.50
   7   8  11  472.95   25.40
   7   8  11  489.85   27.10
  -8  -8 -11   24.40    7.10
   8   8  11   22.70    7.30
   8   8  11   26.80    9.20
  -9  -8 -11  221.78   16.70
   9   8  11  195.48   20.50
   9   8  11  254.77   25.60
   1  -9 -11  101.69   16.80
  -1   9  11  106.69   16.60
  -1   9  11   99.39   17.40
   0  -9 -11  240.98   20.60
   0   9  11  216.28   22.20
   0   9  11  221.88   23.90
  -1  -9 -11  242.08   20.50
  -1  -9 -11  229.88   16.80
   1   9  11  249.38   21.40
   1   9  11  226.48   18.80
  -2  -9 -11  636.84   32.30
  -2  -9 -11  623.74   27.00
   2   9  11  665.23   33.70
   2   9  11  584.64   29.40
  -3  -9 -11   17.90    6.30
  -3  -9 -11   13.10    6.50
   3   9  11    7.00    6.90
   3   9  11   20.20    7.50
  -4  -9 -11  240.68   19.40
  -4  -9 -11  290.67   18.40
   4   9  11  269.77   21.80
   4   9  11  326.57   21.20
  -5  -9 -11   -0.20    4.30
  -5  -9 -11   11.70    5.60
   5   9  11    2.30    5.20
   5   9  11    0.20    4.30
  -6  -9 -11   47.30   10.00
  -6  -9 -11   54.69   10.40
   6   9  11   52.19   10.80
   6   9  11   45.90   11.20
  -7  -9 -11  208.18   16.10
  -7  -9 -11  211.98   16.90
   7   9  11  226.58   23.70
   7   9  11  220.08   18.20
  -8  -9 -11   12.40    6.40
   8   9  11   11.90    7.20
   8   9  11    7.70    4.90
  -9  -9 -11   67.09   11.40
   9   9  11   84.09   15.70
   9   9  11   96.69   15.50
  -1 -10 -11   11.50    6.40
  -1 -10 -11    3.10    6.60
   1  10  11    5.20    7.10
   1  10  11   12.70    7.60
  -2 -10 -11  784.52   31.60
  -2 -10 -11  757.32   36.60
   2  10  11  766.12   34.30
   2  10  11  829.92   39.40
  -3 -10 -11   33.90    8.10
  -3 -10 -11   42.50   11.00
   3  10  11   57.39   13.40
   3  10  11   49.70   11.60
  -4 -10 -11   80.99   14.40
  -4 -10 -11   64.59   11.30
   4  10  11   78.89   14.50
   4  10  11   73.59   13.20
  -5 -10 -11  242.38   17.80
  -5 -10 -11  251.57   20.00
   5  10  11  253.27   19.70
   5  10  11  222.08   23.60
  -6 -10 -11   46.00    9.40
  -6 -10 -11   78.69   13.40
   6  10  11   55.79   11.60
   6  10  11   54.49   14.00
  -7 -10 -11   38.90    9.30
  -7 -10 -11   30.70    8.50
   7  10  11   38.30   11.60
   7  10  11   29.20    8.90
  -1   4 -12   14.90    7.60
  -1   4 -12   12.50    6.40
   1  -4  12    8.50    7.90
   2   3 -12  217.08   16.70
   2   3 -12  236.88   23.70
  -2  -3  12  251.77   20.10
  -2  -3  12  217.08   18.20
   1   3 -12   95.19   13.20
   1   3 -12   89.99   14.50
  -1  -3  12   95.09   13.90
  -1  -3  12   86.59   14.10
   0   3 -12  235.18   19.20
   0   3 -12  251.17   17.90
   0  -3  12  244.28   19.10
   0  -3  12  264.17   21.00
  -1   3 -12   38.70    9.40
  -1   3 -12   40.70    9.80
   1  -3  12   29.70    9.60
  -2   3 -12   32.30    8.20
  -2   3 -12   73.49   13.00
   2  -3  12   45.80   11.40
  -3   3 -12   49.20    9.90
  -3   3 -12   42.00    9.60
   3  -3  12   41.70   10.80
  -4   3 -12   45.20   10.70
  -4   3 -12   42.10   10.20
   4  -3  12   43.90   12.20
   3   2 -12    6.40    5.00
  -3  -2  12    0.80    4.50
  -3  -2  12    0.00    5.30
   2   2 -12  305.57   18.20
   2   2 -12  283.87   21.30
  -2  -2  12  314.57   21.40
  -2  -2  12  282.97   21.20
   1   2 -12   74.89   10.80
   1   2 -12   55.09   11.30
  -1  -2  12   44.90   10.60
  -1  -2  12   59.29   11.20
   0   2 -12  131.39   16.00
   0   2 -12  141.49   15.00
   0  -2  12  120.99   15.40
   0  -2  12  143.89   18.90
  -1   2 -12   64.09   11.50
  -1   2 -12   61.29   10.20
   1  -2  12   55.99    9.80
   1  -2  12   59.49   12.20
  -2   2 -12  161.88   17.10
  -2   2 -12  175.38   18.60
   2  -2  12  151.08   18.60
   2  -2  12  147.89   17.30
  -3   2 -12   85.89   13.00
  -3   2 -12  119.79   15.00
   3  -2  12   96.59   15.00
  -4   2 -12   41.40    9.40
  -4   2 -12   25.60    7.50
   4  -2  12   59.29   12.80
  -5   2 -12  235.88   22.70
  -5   2 -12  206.98   16.30
   5  -2  12  240.78   24.50
  -6   2 -12  111.29   15.30
   6  -2  12   68.49   13.30
   3   1 -12    2.30    4.80
  -3  -1  12   -0.40    4.80
  -3  -1  12   -2.10    4.50
   2   1 -12  432.96   25.20
  -2  -1  12  394.36   24.30
  -2  -1  12  379.26   24.20
   1   1 -12  127.69   13.10
   1   1 -12  137.59   16.70
  -1  -1  12  132.49   17.60
  -1  -1  12  143.99   16.60
   0   1 -12  141.99   17.00
   0   1 -12  177.58   13.60
   0  -1  12  171.88   20.00
   0  -1  12  181.98   18.70
  -1   1 -12   94.19   12.20
  -1   1 -12   87.39   13.10
   1  -1  12   99.19   14.40
   1  -1  12   91.59   12.80
  -2   1 -12   19.50    6.40
  -2   1 -12   25.00    7.60
   2  -1  12   23.40    6.90
   2  -1  12   20.90    7.10
  -3   1 -12  188.68   15.50
  -3   1 -12  172.68   14.30
   3  -1  12  218.58   22.30
   3  -1  12  182.68   14.10
  -4   1 -12   99.69   13.10
  -4   1 -12   95.69   12.90
   4  -1  12   92.19   14.60
  -5   1 -12   16.70    6.10
  -5   1 -12   23.30    7.90
   5  -1  12    8.40    6.10
  -6   1 -12  177.28   14.50
  -6   1 -12  184.38   19.70
   6  -1  12  213.68   22.10
  -7   1 -12    7.00    6.30
  -7   1 -12    9.60    5.80
   7  -1  12   17.10    7.90
   4   0 -12  298.57   20.70
   4   0 -12  304.87   23.60
  -4   0  12  290.27   22.90
   3   0 -12   57.69   13.10
  -3   0  12   29.60    9.50
   2   0 -12  291.07   22.10
   2   0 -12  339.77   22.20
  -2   0  12  284.07   20.60
   1   0 -12  562.74   30.00
   1   0 -12  572.24   28.40
  -1   0  12  547.55   27.70
   0   0 -12  143.89   11.70
   0   0 -12  160.48   17.90
   0   0 -12  147.39   18.70
   0   0  12  143.39   16.20
  -1   0 -12  121.39   15.00
  -1   0 -12   89.89   14.50
  -1   0 -12   89.69   11.20
   1   0  12  111.69   14.30
  -2   0 -12    0.80    3.80
  -2   0 -12    7.10    5.10
   2   0  12    1.90    3.70
   2   0  12   -0.60    3.90
  -3   0 -12  297.37   17.80
  -3   0 -12  284.97   18.10
   3   0  12  276.77   20.40
   3   0  12  315.17   18.50
  -4   0 -12  120.29   14.60
  -4   0 -12  102.29   12.90
   4   0  12   92.29   13.90
   4   0  12  113.69   13.40
  -5   0 -12  107.59   14.10
  -5   0 -12  127.19   14.00
   5   0  12  109.19   13.00
   5   0  12  116.99   16.50
  -6   0 -12  304.67   17.50
  -6   0 -12  322.57   20.30
  -6   0 -12  312.47   20.20
   6   0  12  287.27   20.50
  -7   0 -12   25.90    7.80
  -7   0 -12    6.90    6.00
   7   0  12   11.10    7.10
  -8   0 -12  167.28   18.10
  -8   0 -12  140.19   17.70
   8   0  12  116.09   17.60
   8   0  12  125.29   17.50
   4  -1 -12   22.80    9.00
  -4   1  12   63.29   13.70
   3  -1 -12  503.45   29.10
   2  -1 -12  229.68   19.60
  -2   1  12  197.18   20.60
   1  -1 -12  350.86   23.30
  -1   1  12  348.37   22.20
   0  -1 -12   41.50   10.10
   0  -1 -12   64.49    9.20
   0  -1 -12   53.79   11.00
   0   1  12   30.40    8.20
  -1  -1 -12  647.54   23.60
  -1  -1 -12  573.64   26.80
  -1  -1 -12  567.84   28.40
   1   1  12  586.24   27.00
  -2  -1 -12   75.29   12.80
  -2  -1 -12   81.89   10.60
  -2  -1 -12   61.29   10.30
   2   1  12   52.39    9.80
  -3  -1 -12    4.20    3.80
  -3  -1 -12    6.90    5.10
  -3  -1 -12   -4.70    3.10
   3   1  12    0.60    3.80
  -4  -1 -12  243.38   16.20
  -4  -1 -12  216.88   15.10
  -4  -1 -12  203.88   16.10
   4   1  12  212.08   17.20
   4   1  12  221.58   15.60
  -5  -1 -12   33.10    7.50
  -5  -1 -12   40.80    8.30
   5   1  12   37.60    8.50
   5   1  12   31.70    8.90
  -6  -1 -12  134.59   15.80
  -6  -1 -12  152.78   12.50
   6   1  12  171.78   19.40
   6   1  12  149.49   15.20
  -7  -1 -12  690.23   30.40
   7   1  12  654.03   26.60
   7   1  12  675.53   31.70
  -8  -1 -12   33.90    9.20
  -8  -1 -12   20.90    7.20
   8   1  12   32.20    8.80
   8   1  12   26.70    8.20
   4  -2 -12   19.90    9.00
  -4   2  12   25.90    9.90
   3  -2 -12  322.27   23.30
  -3   2  12  340.57   23.60
   2  -2 -12  215.18   22.80
  -2   2  12  224.28   18.90
   1  -2 -12  709.13   33.30
  -1   2  12  718.33   32.10
   0  -2 -12   -3.80    4.40
   0   2  12    0.20    4.70
  -1  -2 -12  160.38   18.00
  -1  -2 -12  162.48   10.90
   1   2  12  166.38   17.90
  -2  -2 -12  551.04   21.30
  -2  -2 -12  583.14   28.00
   2   2  12  569.34   26.40
  -3  -2 -12   27.00    7.30
  -3  -2 -12   29.20    6.50
   3   2  12   26.90    7.10
  -4  -2 -12    6.20    4.00
  -4  -2 -12   11.80    5.60
   4   2  12    5.50    4.40
  -5  -2 -12   82.99   11.90
  -5  -2 -12   86.29   11.60
   5   2  12  145.89   15.50
  -6  -2 -12  189.88   15.00
   6   2  12  190.28   20.60
   6   2  12  184.08   14.50
  -7  -2 -12  295.87   19.40
   7   2  12  272.17   17.20
   7   2  12  241.18   17.60
   7   2  12  264.27   19.30
  -8  -2 -12  118.69   15.30
   8   2  12  142.09   17.10
   8   2  12  114.59   15.80
   8   2  12  163.68   17.10
  -9  -2 -12  323.77   21.10
  -9  -2 -12  276.37   20.50
   9   2  12  266.57   20.70
   9   2  12  307.17   20.80
   4  -3 -12   11.70    7.20
  -4   3  12   -3.80    6.30
   3  -3 -12  483.05   28.60
  -3   3  12  522.45   29.90
   2  -3 -12  303.17   22.30
  -2   3  12  338.57   22.80
   1  -3 -12  103.99   15.80
  -1   3  12   78.99   13.20
   0  -3 -12  616.04   30.10
   0   3  12  610.24   29.10
   0   3  12  624.44   24.50
  -1  -3 -12    5.30    5.00
   1   3  12    3.50    3.90
   1   3  12    1.70    4.40
  -2  -3 -12  547.15   27.20
  -2  -3 -12  543.85   20.10
   2   3  12  594.04   23.20
   2   3  12  555.94   26.40
  -3  -3 -12   47.00    7.50
  -3  -3 -12   71.29   12.00
   3   3  12   37.20    8.70
   3   3  12   58.89    9.20
  -4  -3 -12  228.98   16.80
  -4  -3 -12  248.48   14.70
   4   3  12  230.28   16.60
   4   3  12  228.18   14.80
  -5  -3 -12  210.48   15.80
  -5  -3 -12  227.58   15.10
   5   3  12  244.18   15.40
   5   3  12  250.47   17.10
  -6  -3 -12   14.90    5.60
  -6  -3 -12    6.50    4.80
   6   3  12    7.30    5.10
   6   3  12   23.50    7.00
  -7  -3 -12   59.99   10.80
   7   3  12   45.90    8.80
   7   3  12   51.99    9.60
  -8  -3 -12  161.28   17.40
   8   3  12  147.99   16.10
   8   3  12  156.78   17.50
   8   3  12  178.98   14.50
   9   3  12  114.89   15.20
   9   3  12   64.89   11.10
   9   3  12  108.29   14.50
   3  -4 -12  130.39   18.30
  -3   4  12  143.79   16.60
  -3   4  12  132.59   19.10
   2  -4 -12  291.17   22.00
  -2   4  12  301.17   19.00
  -2   4  12  318.97   23.00
   1  -4 -12   38.70   10.40
  -1   4  12   43.10    8.50
  -1   4  12   35.70    9.40
   0  -4 -12  720.83   32.90
   0   4  12  707.73   28.10
   0   4  12  746.23   32.90
  -1  -4 -12   -2.50    3.70
   1   4  12   -3.20    3.10
   1   4  12    0.80    4.00
  -2  -4 -12  180.78   19.20
   2   4  12  177.68   14.20
   2   4  12  164.28   17.30
  -3  -4 -12  200.38   12.00
  -3  -4 -12  182.28   15.70
   3   4  12  176.68   14.00
   3   4  12  156.28   16.60
  -4  -4 -12  248.38   17.40
  -4  -4 -12  224.98   13.70
   4   4  12  215.08   15.20
   4   4  12  207.38   16.00
  -5  -4 -12  190.48   13.50
  -5  -4 -12  200.28   15.30
   5   4  12  200.18   15.60
   5   4  12  207.78   15.00
  -6  -4 -12  278.57   17.40
  -6  -4 -12  276.17   17.00
  -6  -4 -12  241.88   16.20
   6   4  12  256.27   17.60
   6   4  12  265.87   17.10
  -7  -4 -12   69.39   10.70
   7   4  12   62.69   11.20
   7   4  12   70.99   11.30
  -8  -4 -12   26.10    6.90
   8   4  12   32.70    8.70
   8   4  12   22.80    7.20
  -9  -4 -12   11.80    5.90
   9   4  12   13.50    6.40
   9   4  12   32.70    8.80
   9   4  12   14.20    6.70
   3  -5 -12  144.89   18.80
  -3   5  12  194.28   20.40
  -3   5  12  188.28   22.40
   2  -5 -12  523.75   30.00
  -2   5  12  644.64   32.50
  -2   5  12  585.54   28.10
   1  -5 -12   51.79   11.00
  -1   5  12   62.39   11.10
  -1   5  12   74.19   13.10
   0  -5 -12  135.29   17.00
   0   5  12  220.48   22.00
   0   5  12  160.18   17.30
  -1  -5 -12 1513.65   49.50
   1   5  12 1471.25   44.60
   1   5  12 1550.64   49.10
  -2  -5 -12  132.19   16.90
   2   5  12  124.19   15.80
   2   5  12  110.69   13.90
  -3  -5 -12  202.38   16.40
   3   5  12  181.88   15.40
   3   5  12  212.28   16.40
  -4  -5 -12   14.60    5.90
  -4  -5 -12   21.90    7.10
   4   5  12   37.10    9.00
   4   5  12   15.90    6.80
  -5  -5 -12  377.56   20.00
  -5  -5 -12  354.46   20.50
   5   5  12  363.76   21.10
   5   5  12  342.67   20.40
  -6  -5 -12   32.30    8.00
  -6  -5 -12   17.10    6.20
   6   5  12   28.70    8.20
   6   5  12   24.30    7.80
  -7  -5 -12    2.30    4.10
  -7  -5 -12   10.00    5.20
   7   5  12   15.30    6.20
   7   5  12   20.60    6.60
  -8  -5 -12  379.56   20.30
   8   5  12  335.47   21.30
   8   5  12  345.17   21.50
  -9  -5 -12  102.09   13.10
   9   5  12   78.39   12.60
   9   5  12  102.69   15.00
   2  -6 -12    0.60    5.00
  -2   6  12    4.60    6.40
  -2   6  12    1.80    5.20
   1  -6 -12  360.16   24.60
  -1   6  12  333.47   21.90
  -1   6  12  340.47   23.10
   0  -6 -12  224.38   19.10
   0   6  12  188.98   20.10
   0   6  12  217.98   17.70
  -1  -6 -12  565.74   29.20
   1   6  12  540.75   26.70
   1   6  12  541.85   28.10
  -2  -6 -12   77.29   13.10
   2   6  12   60.49   11.90
   2   6  12   69.99   12.40
  -3  -6 -12  915.91   36.40
  -3  -6 -12  982.90   34.30
   3   6  12  973.40   37.10
   3   6  12  930.11   35.60
  -4  -6 -12    8.60    5.10
  -4  -6 -12   16.80    6.30
   4   6  12    8.10    5.90
   4   6  12   13.50    5.90
  -5  -6 -12   -2.20    3.70
  -5  -6 -12    1.60    4.10
   5   6  12    0.30    3.30
   5   6  12   -3.20    3.90
  -6  -6 -12  500.65   24.20
  -6  -6 -12  497.05   23.40
   6   6  12  471.35   25.00
   6   6  12  455.05   24.80
  -7  -6 -12   89.09   12.40
  -7  -6 -12   85.39   12.00
   7   6  12   56.49   11.10
   7   6  12   80.39   13.20
  -8  -6 -12   79.29   11.80
   8   6  12  104.39   14.90
   8   6  12  138.69   17.40
  -9  -6 -12  538.35   25.50
   9   6  12  508.05   27.80
   9   6  12  498.45   26.60
   2  -7 -12   26.80    9.50
  -2   7  12   10.10    8.20
  -2   7  12   38.10   10.60
   1  -7 -12  532.95   30.70
  -1   7  12  561.54   30.00
  -1   7  12  561.54   30.50
   0  -7 -12  429.96   27.00
   0   7  12  391.76   24.90
   0   7  12  417.86   25.60
  -1  -7 -12  411.76   25.80
   1   7  12  408.46   24.50
   1   7  12  424.76   24.90
  -2  -7 -12  106.69   14.00
  -2  -7 -12   89.29   14.50
   2   7  12  114.09   16.20
   2   7  12  113.69   16.20
  -3  -7 -12  185.78   18.00
  -3  -7 -12  205.58   17.70
   3   7  12  218.68   21.70
   3   7  12  217.28   17.60
  -4  -7 -12  587.44   28.70
  -4  -7 -12  571.44   25.80
   4   7  12  589.74   28.80
   4   7  12  576.74   28.70
  -5  -7 -12    2.70    4.10
  -5  -7 -12   -2.10    4.20
   5   7  12   -5.10    4.80
   5   7  12   -2.10    4.20
  -6  -7 -12  100.19   13.70
  -6  -7 -12  102.39   13.60
   6   7  12   98.79   15.00
   6   7  12  108.19   15.00
  -7  -7 -12   30.80    7.80
  -7  -7 -12   32.20    8.20
   7   7  12   18.00    7.00
   7   7  12   15.50    7.60
  -8  -7 -12  156.98   16.10
   8   7  12  125.39   16.20
   8   7  12  172.78   19.60
  -9  -7 -12  275.37   18.40
   9   7  12  272.77   21.50
   9   7  12  281.97   20.50
   1  -8 -12  327.37   24.80
  -1   8  12  336.17   24.50
  -1   8  12  286.77   22.60
   0  -8 -12  625.24   33.20
   0   8  12  611.14   31.70
   0   8  12  555.84   30.90
  -1  -8 -12  151.38   19.60
   1   8  12  109.79   16.20
   1   8  12  127.49   17.20
  -2  -8 -12  377.96   24.60
  -2  -8 -12  327.37   19.80
   2   8  12  356.86   24.50
   2   8  12  364.76   23.70
  -3  -8 -12   36.50    9.70
  -3  -8 -12   20.80    6.50
   3   8  12   40.30   10.90
   3   8  12   37.60   10.00
  -4  -8 -12  653.93   31.30
  -4  -8 -12  709.53   29.60
   4   8  12  727.23   32.80
   4   8  12  663.53   33.00
  -5  -8 -12   37.40    9.00
  -5  -8 -12   35.10    8.30
   5   8  12   24.60    8.90
   5   8  12   32.80    8.90
  -6  -8 -12   90.69   13.00
  -6  -8 -12   86.39   13.10
   6   8  12   81.59   13.30
   6   8  12   92.79   15.70
  -7  -8 -12  336.87   20.30
  -7  -8 -12  368.16   21.70
   7   8  12  343.87   22.90
   7   8  12  360.06   24.60
  -8  -8 -12   35.40    9.10
   8   8  12   28.90    9.00
   8   8  12   18.70    8.20
  -1  -9 -12  115.09   14.50
  -1  -9 -12  143.89   19.90
   1   9  12  118.09   18.50
   1   9  12   91.39   15.30
  -2  -9 -12 1079.99   38.00
  -2  -9 -12 1018.80   42.40
   2   9  12 1065.89   42.00
   2   9  12  996.10   42.60
  -3  -9 -12    7.50    5.60
  -3  -9 -12   -0.60    4.30
   3   9  12   -0.10    5.70
   3   9  12   -0.80    6.30
  -4  -9 -12   -2.40    3.60
  -4  -9 -12   -0.70    4.50
   4   9  12   -6.80    5.50
   4   9  12    0.40    5.40
  -5  -9 -12  430.26   25.30
  -5  -9 -12  444.76   23.80
   5   9  12  412.76   25.30
   5   9  12  430.16   27.20
  -6  -9 -12  389.56   23.90
  -6  -9 -12  416.56   23.30
   6   9  12  405.76   25.10
   6   9  12  379.76   26.80
  -7  -9 -12  363.46   22.40
  -7  -9 -12  331.67   21.30
   7   9  12  363.56   24.00
   7   9  12  410.46   26.90
  -3 -10 -12  556.54   31.60
  -3 -10 -12  526.95   26.30
   3  10  12  537.15   29.90
   3  10  12  571.34   33.30
  -4 -10 -12   85.39   15.40
  -4 -10 -12  109.29   14.70
   4  10  12   91.79   15.00
   4  10  12   91.19   17.10
  -5 -10 -12   77.89   11.80
  -5 -10 -12   68.89   13.20
   5  10  12   75.99   16.10
   5  10  12   73.99   13.70
   0   2 -13  261.97   17.90
   0   2 -13  280.47   21.60
   0  -2  13  272.37   19.80
   0  -2  13  254.67   21.60
  -1   2 -13  217.88   16.90
  -1   2 -13  221.98   22.00
  -2   2 -13    6.30    6.30
  -2   2 -13    8.10    5.10
   2  -2  13   15.90    6.90
  -3   2 -13   35.30    9.20
  -3   2 -13   19.80    7.60
   3  -2  13   24.00    8.50
   1   1 -13  318.07   22.90
  -1  -1  13  308.37   21.80
  -1  -1  13  350.96   24.30
   0   1 -13   73.89   13.50
   0   1 -13  104.19   13.10
   0  -1  13   65.19   13.10
   0  -1  13   87.19   13.80
  -1   1 -13  173.78   17.30
  -1   1 -13  138.09   17.40
   1  -1  13  160.78   20.10
   1  -1  13  169.58   18.40
  -2   1 -13    5.40    4.70
  -2   1 -13    5.70    5.90
   2  -1  13   -0.20    4.40
   2  -1  13    1.30    5.40
  -3   1 -13  552.44   26.50
  -3   1 -13  525.75   26.80
   3  -1  13  529.65   30.10
  -4   1 -13   47.20   10.10
  -4   1 -13   41.20    9.70
   4  -1  13   29.20    9.20
  -5   1 -13    2.90    4.80
  -5   1 -13    7.30    5.70
   5  -1  13   -0.60    5.30
   2   0 -13  277.37   21.80
  -2   0  13  240.58   20.40
   1   0 -13  357.86   23.80
  -1   0  13  334.47   22.60
   0   0 -13  169.68   18.90
   0   0  13  176.68   19.20
  -1   0 -13  279.07   19.90
  -1   0 -13  247.08   16.20
   1   0  13  259.77   18.90
   1   0  13  252.17   20.20
  -2   0 -13   11.80    4.60
  -2   0 -13   12.90    6.80
   2   0  13    1.30    4.50
   2   0  13    5.30    5.60
  -3   0 -13   61.09   11.00
  -3   0 -13   31.60    8.30
   3   0  13   58.09   12.50
   3   0  13   50.39    9.40
  -4   0 -13  413.46   22.70
  -4   0 -13  423.46   23.20
   4   0  13  440.06   27.10
   4   0  13  463.15   23.20
  -5   0 -13   32.70    8.60
  -5   0 -13   30.20    8.80
   5   0  13   31.00   10.10
  -6   0 -13   43.20   10.40
   6   0  13   21.30    8.10
   2  -1 -13   55.89   12.90
  -2   1  13   62.99   12.50
   1  -1 -13  447.16   27.80
  -1   1  13  467.85   27.00
   0  -1 -13  133.39   18.60
   0   1  13  175.48   20.30
  -1  -1 -13  150.58   18.30
  -1  -1 -13  185.38   21.60
  -1  -1 -13  177.08   19.50
   1   1  13  166.88   18.70
  -2  -1 -13  511.65   28.30
  -2  -1 -13  537.05   26.50
  -2  -1 -13  513.05   22.70
   2   1  13  523.65   26.10
  -3  -1 -13   27.90    7.10
  -3  -1 -13   31.80    8.30
  -3  -1 -13   33.20    9.60
   3   1  13   24.00    7.30
  -4  -1 -13  145.59   16.80
  -4  -1 -13  123.99   14.50
   4   1  13  139.39   15.70
   4   1  13  123.19   17.30
  -5  -1 -13   -1.80    4.50
  -5  -1 -13   10.20    5.70
   5   1  13   -0.70    3.60
   5   1  13    6.20    5.20
  -6  -1 -13  105.79   13.90
   6   1  13  115.19   17.30
   6   1  13  115.79   14.10
  -7  -1 -13   75.89   12.30
   7   1  13   77.89   14.10
   2  -2 -13  374.96   25.90
  -2   2  13  345.97   24.50
   1  -2 -13   27.30    9.60
  -1   2  13   25.60    9.00
   0  -2 -13  296.07   22.40
   0   2  13  317.57   21.90
  -1  -2 -13   53.89   11.50
   1   2  13   32.70    8.80
  -2  -2 -13  509.65   27.80
  -2  -2 -13  553.14   22.30
   2   2  13  549.95   27.40
  -3  -2 -13   96.59   14.30
  -3  -2 -13  130.99   13.60
   3   2  13  136.19   16.10
  -4  -2 -13  193.58   14.30
  -4  -2 -13  203.28   16.90
   4   2  13  203.48   16.10
  -5  -2 -13  164.78   16.60
  -5  -2 -13  169.48   18.10
   5   2  13  157.18   16.70
  -6  -2 -13   60.79   10.80
   6   2  13   34.90    8.80
   6   2  13   53.09   11.90
  -7  -2 -13  254.57   18.70
   7   2  13  271.77   21.00
   7   2  13  233.18   17.00
  -8  -2 -13   43.30   10.80
   8   2  13   82.59   14.50
   2  -3 -13  237.58   20.60
  -2   3  13  273.17   21.70
   1  -3 -13  115.39   16.80
  -1   3  13  129.39   18.50
   0  -3 -13  418.46   26.40
   0   3  13  381.86   24.40
  -1  -3 -13    8.80    6.60
   1   3  13   13.20    6.90
  -2  -3 -13  363.76   23.60
   2   3  13  326.17   21.30
  -3  -3 -13  430.96   19.60
  -3  -3 -13  433.76   25.10
   3   3  13  456.75   24.50
  -4  -3 -13  104.19   12.20
  -4  -3 -13   64.49   11.80
   4   3  13   72.29   12.50
  -5  -3 -13  132.99   14.40
  -5  -3 -13  173.68   18.00
   5   3  13  138.59   16.20
  -6  -3 -13    6.60    5.50
  -6  -3 -13    2.00    4.10
   6   3  13    9.50    5.50
  -7  -3 -13  224.68   17.20
   7   3  13  202.98   16.60
   7   3  13  217.38   18.50
  -8  -3 -13    0.60    5.80
   8   3  13    5.20    4.70
   8   3  13    5.50    5.20
   2  -4 -13  427.86   27.60
  -2   4  13  404.06   26.90
   1  -4 -13   78.99   14.40
  -1   4  13   68.29   13.50
   0  -4 -13  144.69   19.10
   0   4  13  121.99   16.40
  -1  -4 -13 1047.80   41.60
   1   4  13 1015.50   40.20
  -2  -4 -13  143.49   18.20
   2   4  13  131.09   16.70
   2   4  13  154.08   17.40
  -3  -4 -13  143.89   17.60
   3   4  13  172.18   16.80
   3   4  13  120.39   15.40
  -4  -4 -13  118.99   15.70
  -4  -4 -13   94.99   11.20
   4   4  13  111.09   13.80
   4   4  13  120.19   15.60
  -5  -4 -13  931.71   31.80
  -5  -4 -13  895.61   35.00
   5   4  13  905.31   33.20
   5   4  13  908.21   35.50
  -6  -4 -13   42.60    9.10
  -6  -4 -13   51.29   10.00
   6   4  13   50.29   10.40
   6   4  13   49.99   10.10
   7   4  13   -0.60    4.20
   7   4  13    0.30    3.60
   8   4  13  500.35   26.20
   8   4  13  509.25   27.50
   8   4  13  447.66   24.30
   2  -5 -13   18.70    8.10
  -2   5  13   12.30    6.70
  -2   5  13    7.80    7.30
   1  -5 -13  332.57   24.10
  -1   5  13  277.47   19.30
  -1   5  13  280.37   22.60
   0  -5 -13  321.87   23.50
   0   5  13  312.17   22.70
   0   5  13  341.37   20.80
  -1  -5 -13  280.47   21.60
   1   5  13  303.77   19.60
   1   5  13  279.67   20.90
  -2  -5 -13  329.47   22.40
   2   5  13  291.57   19.50
   2   5  13  294.17   21.10
  -3  -5 -13  457.75   26.00
   3   5  13  495.05   24.70
   3   5  13  433.66   24.90
  -4  -5 -13   28.30    8.30
   4   5  13   20.40    7.50
   4   5  13   35.50    9.60
  -5  -5 -13  246.48   18.50
   5   5  13  259.77   19.40
   5   5  13  262.67   18.50
  -6  -5 -13  628.14   27.70
  -6  -5 -13  656.33   28.90
   6   5  13  659.63   30.10
   6   5  13  644.34   29.20
  -7  -5 -13   47.60    9.90
   7   5  13   60.99   11.80
   7   5  13   62.79   12.00
  -8  -5 -13  221.18   16.50
   8   5  13  195.68   19.80
   8   5  13  207.28   17.70
   1  -6 -13  392.66   26.70
  -1   6  13  436.26   27.70
  -1   6  13  402.46   24.00
   0  -6 -13  126.99   18.40
   0   6  13  116.09   16.20
   0   6  13  119.29   17.60
  -1  -6 -13  388.06   25.50
   1   6  13  363.66   22.60
   1   6  13  290.17   22.40
  -2  -6 -13  166.08   19.60
   2   6  13  164.48   19.50
   2   6  13  177.08   19.10
  -3  -6 -13   45.50   10.30
   3   6  13   58.59   11.80
   3   6  13   70.89   12.90
  -4  -6 -13  553.04   28.50
   4   6  13  616.64   29.30
   4   6  13  604.14   29.90
  -5  -6 -13    1.10    4.40
  -5  -6 -13   -1.10    3.60
   5   6  13    7.50    5.40
   5   6  13   -3.00    4.20
  -6  -6 -13  400.66   23.10
  -6  -6 -13  388.36   22.00
   6   6  13  395.16   23.70
   6   6  13  399.06   23.70
  -7  -6 -13   42.90   10.90
  -7  -6 -13   34.40    9.30
   7   6  13   26.90    8.30
   7   6  13   32.80   10.10
  -8  -6 -13  217.78   20.40
   8   6  13  226.08   18.90
   8   6  13  167.88   19.40
   0  -7 -13  399.96   27.10
   0   7  13  388.56   26.20
   0   7  13  350.26   23.80
  -1  -7 -13  235.08   24.90
   1   7  13  201.98   20.90
   1   7  13  183.38   21.00
  -2  -7 -13   50.69   11.70
   2   7  13   41.70   10.10
   2   7  13   20.80    9.10
  -3  -7 -13   24.40    8.00
   3   7  13   29.10   10.10
   3   7  13   42.70   10.90
  -4  -7 -13 1289.77   45.80
  -4  -7 -13 1227.38   41.90
   4   7  13 1316.97   46.10
   4   7  13 1344.47   46.80
  -5  -7 -13  118.49   14.40
  -5  -7 -13  145.59   17.60
   5   7  13  137.99   18.20
   5   7  13  134.69   17.00
  -6  -7 -13  269.17   19.60
  -6  -7 -13  224.08   17.00
   6   7  13  280.97   21.30
   6   7  13  306.27   21.50
  -7  -7 -13   85.49   13.20
  -7  -7 -13   79.19   12.40
   7   7  13   83.69   13.80
   7   7  13   53.39   11.50
  -8  -7 -13  184.08   18.60
   8   7  13  234.68   19.90
   8   7  13  178.08   19.80
  -1  -8 -13   47.80   11.70
   1   8  13   43.10   11.90
   1   8  13   56.09   12.70
  -2  -8 -13  299.77   23.60
   2   8  13  320.37   23.30
   2   8  13  307.77   23.00
  -3  -8 -13    7.30    6.30
  -3  -8 -13    3.00    5.10
   3   8  13   12.20    7.20
   3   8  13    2.30    6.60
  -4  -8 -13   16.10    7.00
  -4  -8 -13   22.10    7.80
   4   8  13   13.80    7.90
   4   8  13   30.80   10.20
  -5  -8 -13  656.83   31.90
  -5  -8 -13  684.83   30.00
   5   8  13  642.84   32.60
   5   8  13  700.03   33.20
  -6  -8 -13  182.98   19.40
  -6  -8 -13  221.58   21.20
   6   8  13  186.68   20.90
   6   8  13  246.68   25.00
  -7  -8 -13  214.78   21.20
  -7  -8 -13  172.28   18.60
   7   8  13  206.08   22.40
   7   8  13  176.28   20.50
  -3  -9 -13  405.16   27.10
   3   9  13  399.56   26.10
   3   9  13  405.06   27.90
  -4  -9 -13   -0.30    4.60
  -4  -9 -13    2.40    5.10
   4   9  13    4.30    6.60
   4   9  13    4.40    6.70
  -5  -9 -13  283.07   19.80
  -5  -9 -13  354.66   24.20
   5   9  13  323.77   23.50
   5   9  13  336.17   25.50
  -1   0 -14    9.50    6.60
   1   0  14   21.90    8.00
   1   0  14   27.00   10.00
  -2   0 -14  282.47   18.50
  -2   0 -14  289.07   21.30
   2   0  14  295.27   20.60
   2   0  14  320.77   24.20
  -3   0 -14   51.29   10.10
  -3   0 -14   35.90   10.20
   3   0  14   28.50    9.20
   3   0  14   26.40    8.30
   0  -1 -14  321.27   24.20
   0   1  14  328.57   23.20
  -1  -1 -14   31.60   10.30
   1   1  14   32.30    9.00
  -2  -1 -14  140.59   19.00
   2   1  14  164.68   19.00
  -3  -1 -14   54.59   10.10
   3   1  14   47.60   11.00
   3   1  14   57.89   12.40
  -4  -1 -14  281.77   18.70
   4   1  14  280.37   22.40
   4   1  14  306.47   20.40
  -5  -1 -14  306.57   20.00
   5   1  14  257.27   19.30
   5   1  14  332.37   24.40
   0  -2 -14  357.46   25.40
   0   2  14  348.77   24.00
  -1  -2 -14   11.30    7.20
   1   2  14    5.00    6.20
  -2  -2 -14   63.39   13.30
   2   2  14   82.69   13.60
  -3  -2 -14  677.13   30.40
  -3  -2 -14  725.03   34.30
   3   2  14  683.83   31.90
  -4  -2 -14   30.50    7.50
  -4  -2 -14   21.60    8.00
   4   2  14   21.70    8.20
  -5  -2 -14   90.99   13.30
   5   2  14   91.39   13.80
   5   2  14   71.89   13.70
  -6  -2 -14    8.00    5.90
   6   2  14   -1.40    5.00
   6   2  14    2.20    5.10
   0  -3 -14   27.20   10.10
   0   3  14   19.60    8.00
  -1  -3 -14  249.68   21.20
   1   3  14  317.47   22.50
  -2  -3 -14  135.99   18.10
   2   3  14  105.09   15.10
  -3  -3 -14  544.15   29.50
   3   3  14  558.24   29.20
  -4  -3 -14  111.19   13.30
  -4  -3 -14  139.69   17.90
   4   3  14  103.09   14.90
  -5  -3 -14  452.45   22.90
  -5  -3 -14  507.45   27.10
   5   3  14  510.95   27.00
  -6  -3 -14   89.59   13.20
  -6  -3 -14  103.79   15.00
   6   3  14  102.79   14.40
   0  -4 -14   89.09   15.50
   0   4  14   76.99   14.80
  -1  -4 -14   37.20   10.60
   1   4  14   48.30   11.30
  -2  -4 -14  210.28   22.90
   2   4  14  175.88   19.90
  -3  -4 -14  315.57   22.80
   3   4  14  360.86   23.70
  -4  -4 -14   47.50   11.00
   4   4  14   69.99   13.80
  -5  -4 -14  186.38   20.10
  -5  -4 -14  150.38   15.50
   5   4  14  162.18   18.70
  -6  -4 -14  618.94   27.40
  -6  -4 -14  662.13   30.20
   6   4  14  652.23   31.50
   7   4  14   35.10    9.80
   0  -5 -14   17.40    7.40
   0   5  14    6.20    7.10
  -1  -5 -14   69.69   14.10
   1   5  14   65.19   12.80
  -2  -5 -14  424.56   27.10
   2   5  14  423.46   26.70
  -3  -5 -14   46.20   11.00
   3   5  14   42.00   10.50
  -4  -5 -14  516.15   28.30
   4   5  14  455.55   27.00
  -5  -5 -14  110.19   15.40
   5   5  14   99.69   16.00
  -6  -5 -14  401.36   24.10
   6   5  14  442.96   26.00
   7   5  14  171.38   19.00
  -1  -6 -14  173.78   20.80
   1   6  14  189.28   20.40
   1   6  14  169.38   21.70
  -2  -6 -14   77.69   14.70
   2   6  14   88.29   15.70
   2   6  14  104.89   15.40
  -3  -6 -14   71.39   13.80
   3   6  14   70.79   14.30
   3   6  14   78.89   14.30
  -4  -6 -14  477.75   27.70
   4   6  14  508.75   27.20
   4   6  14  495.65   28.30
  -5  -6 -14   23.90    8.70
   5   6  14   23.30    9.20
   5   6  14   32.50    9.40
  -6  -6 -14  193.38   20.80
   6   6  14  175.68   20.20
   6   6  14  160.38   19.30
  -2  -7 -14  162.58   21.20
   2   7  14  172.18   21.40
  -3  -7 -14   46.20   11.30
   3   7  14   39.50   11.50
   3   7  14   34.20   10.30
  -4  -7 -14   93.29   15.00
   4   7  14   99.69   16.30
   4   7  14   70.29   13.50
  -5  -7 -14  488.55   26.20
  -5  -7 -14  478.15   27.80
   5   7  14  419.46   26.30
   5   7  14  461.55   27.60
   0   0   0    0.00    0.00

_computing_structure_solution     'SHELXT 2014/5 (Sheldrick, 2014)'
;
_shelx_hkl_checksum              99550
loop_
_space_group_symop_operation_xyz
'x, y, z'
'-x, -y, -z'
loop_
_atom_site_label
_atom_site_type_symbol
_atom_site_fract_x
_atom_site_fract_y
_atom_site_fract_z
_atom_site_U_iso_or_equiv
_atom_site_adp_type
_atom_site_occupancy
_atom_site_site_symmetry_order
_atom_site_calc_flag
_atom_site_refinement_flags_posn
_atom_site_refinement_flags_adp
_atom_site_refinement_flags_occupancy
_atom_site_disorder_assembly
_atom_site_disorder_group
Cd Cd 0.20582(2) 0.41913(2) 0.43930(2) 0.01935(4) Uani 1 1 d . . . . .
Cl1 Cl -0.02743(4) 0.30549(4) 0.57747(4) 0.02142(8) Uani 1 1 d . . . . .
S1 S 0.27545(5) 0.36801(5) 0.21255(4) 0.02384(9) Uani 1 1 d . . . . .
S2 S 0.49996(5) 0.11451(5) 0.11693(4) 0.02264(8) Uani 1 1 d . . . . .
N1 N 0.31435(15) 0.42534(16) 0.61054(13) 0.0195(3) Uani 1 1 d . . . . .
N2 N 0.45132(14) 0.25373(15) 0.43445(13) 0.0179(2) Uani 1 1 d . . . . .
N3 N 0.51484(14) 0.17010(15) 0.33817(13) 0.0185(3) Uani 1 1 d . . . . .
C1 C 0.24472(19) 0.5143(2) 0.69706(16) 0.0236(3) Uani 1 1 d . . . . .
H1 H 0.1461 0.5828 0.6872 0.028 Uiso 1 1 calc R U . . .
C2 C 0.3103(2) 0.5108(2) 0.80038(16) 0.0243(3) Uani 1 1 d . . . . .
H2 H 0.2580 0.5759 0.8597 0.029 Uiso 1 1 calc R U . . .
C3 C 0.4533(2) 0.4105(2) 0.81497(16) 0.0237(3) Uani 1 1 d . . . . .
H3 H 0.5009 0.4053 0.8849 0.028 Uiso 1 1 calc R U . . .
C4 C 0.52677(19) 0.31723(19) 0.72581(16) 0.0217(3) Uani 1 1 d . . . . .
H4 H 0.6253 0.2478 0.7343 0.026 Uiso 1 1 calc R U . . .
C5 C 0.45463(17) 0.32660(17) 0.62422(14) 0.0171(3) Uani 1 1 d . . . . .
C6 C 0.52857(17) 0.23011(17) 0.52565(15) 0.0173(3) Uani 1 1 d . . . . .
C7 C 0.68262(18) 0.1174(2) 0.53527(16) 0.0228(3) Uani 1 1 d . . . . .
H7A H 0.7026 0.0480 0.4768 0.034 Uiso 1 1 calc R U . . .
H7B H 0.6814 0.0560 0.6268 0.034 Uiso 1 1 calc R U . . .
H7C H 0.7648 0.1746 0.5086 0.034 Uiso 1 1 calc R U . . .
C8 C 0.43726(17) 0.21714(18) 0.24194(15) 0.0182(3) Uani 1 1 d . . . . .
C9 C 0.69279(19) -0.0015(2) 0.14235(18) 0.0250(3) Uani 1 1 d . . . . .
H9A H 0.6860 -0.0583 0.2366 0.030 Uiso 1 1 calc R U . . .
H9B H 0.7271 -0.0798 0.0888 0.030 Uiso 1 1 calc R U . . .
C10 C 0.81387(17) 0.09173(18) 0.10636(16) 0.0206(3) Uani 1 1 d . . . . .
C11 C 0.90256(19) 0.0774(2) 0.19774(16) 0.0237(3) Uani 1 1 d . . . . .
H11 H 0.8851 0.0098 0.2831 0.028 Uiso 1 1 calc R U . . .
C12 C 1.01674(19) 0.1611(2) 0.16577(17) 0.0251(3) Uani 1 1 d . . . . .
H12 H 1.0767 0.1500 0.2291 0.030 Uiso 1 1 calc R U . . .
C13 C 1.04279(19) 0.2604(2) 0.04149(17) 0.0252(3) Uani 1 1 d . . . . .
H13 H 1.1193 0.3189 0.0198 0.030 Uiso 1 1 calc R U . . .
C14 C 0.95609(19) 0.2739(2) -0.05107(17) 0.0247(3) Uani 1 1 d . . . . .
H14 H 0.9746 0.3406 -0.1368 0.030 Uiso 1 1 calc R U . . .
C15 C 0.84255(19) 0.1904(2) -0.01893(16) 0.0234(3) Uani 1 1 d . . . . .
H15 H 0.7838 0.2005 -0.0829 0.028 Uiso 1 1 calc R U . . .
loop_
_atom_site_aniso_label
_atom_site_aniso_U_11
_atom_site_aniso_U_22
_atom_site_aniso_U_33
_atom_site_aniso_U_23
_atom_site_aniso_U_13
_atom_site_aniso_U_12
Cd 0.01333(6) 0.02248(6) 0.02239(6) -0.00874(4) -0.00369(4) -0.00080(4)
Cl1 0.01621(16) 0.01703(17) 0.02794(19) -0.00255(14) -0.00344(13) -0.00300(13)
S1 0.01972(18) 0.0284(2) 0.02437(19) -0.01084(16) -0.00886(15) 0.00148(15)
S2 0.02025(18) 0.0283(2) 0.02341(19) -0.01357(16) -0.00313(14) -0.00509(15)
N1 0.0176(6) 0.0211(7) 0.0201(6) -0.0060(5) -0.0027(5) -0.0048(5)
N2 0.0158(6) 0.0190(6) 0.0193(6) -0.0071(5) -0.0029(5) -0.0027(5)
N3 0.0160(6) 0.0203(6) 0.0199(6) -0.0091(5) -0.0022(5) -0.0020(5)
C1 0.0221(8) 0.0239(8) 0.0235(8) -0.0085(6) -0.0011(6) -0.0036(6)
C2 0.0286(8) 0.0254(8) 0.0202(7) -0.0094(6) 0.0006(6) -0.0089(7)
C3 0.0296(8) 0.0261(8) 0.0183(7) -0.0047(6) -0.0047(6) -0.0112(7)
C4 0.0217(7) 0.0226(8) 0.0214(7) -0.0040(6) -0.0062(6) -0.0057(6)
C5 0.0173(7) 0.0175(7) 0.0166(7) -0.0030(5) -0.0013(5) -0.0069(5)
C6 0.0159(7) 0.0171(7) 0.0189(7) -0.0033(6) -0.0029(5) -0.0054(5)
C7 0.0192(7) 0.0245(8) 0.0252(8) -0.0082(6) -0.0081(6) -0.0001(6)
C8 0.0165(7) 0.0198(7) 0.0204(7) -0.0075(6) -0.0014(5) -0.0066(5)
C9 0.0204(7) 0.0213(8) 0.0328(9) -0.0118(7) -0.0013(6) -0.0020(6)
C10 0.0166(7) 0.0193(7) 0.0246(8) -0.0109(6) -0.0007(6) 0.0007(6)
C11 0.0229(8) 0.0219(8) 0.0224(8) -0.0054(6) -0.0040(6) 0.0003(6)
C12 0.0217(8) 0.0291(9) 0.0259(8) -0.0102(7) -0.0078(6) -0.0013(6)
C13 0.0203(7) 0.0263(8) 0.0289(8) -0.0110(7) -0.0002(6) -0.0051(6)
C14 0.0216(8) 0.0257(8) 0.0217(8) -0.0052(6) -0.0002(6) -0.0021(6)
C15 0.0199(7) 0.0270(8) 0.0226(8) -0.0098(6) -0.0042(6) -0.0004(6)
loop_
_atom_type_symbol
_atom_type_description
_atom_type_scat_dispersion_real
_atom_type_scat_dispersion_imag
_atom_type_scat_source
C C 0.0033 0.0016 'International Tables Vol C Tables 4.2.6.8 and 6.1.1.4'
H H 0.0000 0.0000 'International Tables Vol C Tables 4.2.6.8 and 6.1.1.4'
N N 0.0061 0.0033 'International Tables Vol C Tables 4.2.6.8 and 6.1.1.4'
S S 0.1246 0.1234 'International Tables Vol C Tables 4.2.6.8 and 6.1.1.4'
Cl Cl 0.1484 0.1585 'International Tables Vol C Tables 4.2.6.8 and 6.1.1.4'
Cd Cd -0.8075 1.2024 'International Tables Vol C Tables 4.2.6.8 and 6.1.1.4'
loop_
_geom_angle_atom_site_label_1
_geom_angle_atom_site_label_2
_geom_angle_atom_site_label_3
_geom_angle
_geom_angle_site_symmetry_1
_geom_angle_site_symmetry_3
N2 Cd N1 69.77(5) . .
N2 Cd S1 76.52(3) . .
N1 Cd S1 142.73(3) . .
N2 Cd Cl1 117.59(3) . .
N1 Cd Cl1 99.44(3) . .
S1 Cd Cl1 110.105(14) . .
N2 Cd Cl1 150.41(3) . 2_566
N1 Cd Cl1 95.00(3) . 2_566
S1 Cd Cl1 107.269(14) . 2_566
Cl1 Cd Cl1 89.234(13) . 2_566
Cd Cl1 Cd 90.765(13) . 2_566
C8 S1 Cd 95.77(5) . .
C8 S2 C9 103.71(8) . .
C1 N1 C5 118.97(14) . .
C1 N1 Cd 124.51(11) . .
C5 N1 Cd 116.47(10) . .
C6 N2 N3 118.19(13) . .
C6 N2 Cd 120.95(10) . .
N3 N2 Cd 120.73(9) . .
C8 N3 N2 112.95(12) . .
N1 C1 C2 122.91(15) . .
N1 C1 H1 118.5 . .
C2 C1 H1 118.5 . .
C3 C2 C1 118.48(15) . .
C3 C2 H2 120.8 . .
C1 C2 H2 120.8 . .
C2 C3 C4 119.18(15) . .
C2 C3 H3 120.4 . .
C4 C3 H3 120.4 . .
C5 C4 C3 119.43(15) . .
C5 C4 H4 120.3 . .
C3 C4 H4 120.3 . .
N1 C5 C4 121.04(14) . .
N1 C5 C6 117.34(13) . .
C4 C5 C6 121.62(14) . .
N2 C6 C5 115.19(13) . .
N2 C6 C7 124.47(14) . .
C5 C6 C7 120.34(13) . .
C6 C7 H7A 109.5 . .
C6 C7 H7B 109.5 . .
H7A C7 H7B 109.5 . .
C6 C7 H7C 109.5 . .
H7A C7 H7C 109.5 . .
H7B C7 H7C 109.5 . .
N3 C8 S1 131.32(12) . .
N3 C8 S2 117.64(12) . .
S1 C8 S2 111.04(8) . .
C10 C9 S2 114.09(12) . .
C10 C9 H9A 108.7 . .
S2 C9 H9A 108.7 . .
C10 C9 H9B 108.7 . .
S2 C9 H9B 108.7 . .
H9A C9 H9B 107.6 . .
C11 C10 C15 118.63(15) . .
C11 C10 C9 119.95(15) . .
C15 C10 C9 121.40(15) . .
C10 C11 C12 120.86(16) . .
C10 C11 H11 119.6 . .
C12 C11 H11 119.6 . .
C13 C12 C11 120.01(15) . .
C13 C12 H12 120.0 . .
C11 C12 H12 120.0 . .
C12 C13 C14 119.52(16) . .
C12 C13 H13 120.2 . .
C14 C13 H13 120.2 . .
C15 C14 C13 120.31(16) . .
C15 C14 H14 119.8 . .
C13 C14 H14 119.8 . .
C14 C15 C10 120.66(15) . .
C14 C15 H15 119.7 . .
C10 C15 H15 119.7 . .
loop_
_geom_bond_atom_site_label_1
_geom_bond_atom_site_label_2
_geom_bond_distance
_geom_bond_site_symmetry_2
Cd N2 2.3164(13) .
Cd N1 2.3401(13) .
Cd S1 2.5125(4) .
Cd Cl1 2.5711(4) .
Cd Cl1 2.5764(4) 2_566
Cl1 Cd 2.5765(4) 2_566
S1 C8 1.7360(16) .
S2 C8 1.7588(15) .
S2 C9 1.8200(17) .
N1 C1 1.340(2) .
N1 C5 1.3553(19) .
N2 C6 1.2904(19) .
N2 N3 1.3845(17) .
N3 C8 1.307(2) .
C1 C2 1.388(2) .
C1 H1 0.9500 .
C2 C3 1.382(2) .
C2 H2 0.9500 .
C3 C4 1.393(2) .
C3 H3 0.9500 .
C4 C5 1.392(2) .
C4 H4 0.9500 .
C5 C6 1.491(2) .
C6 C7 1.496(2) .
C7 H7A 0.9800 .
C7 H7B 0.9800 .
C7 H7C 0.9800 .
C9 C10 1.506(2) .
C9 H9A 0.9900 .
C9 H9B 0.9900 .
C10 C11 1.390(2) .
C10 C15 1.395(2) .
C11 C12 1.394(2) .
C11 H11 0.9500 .
C12 C13 1.388(2) .
C12 H12 0.9500 .
C13 C14 1.389(2) .
C13 H13 0.9500 .
C14 C15 1.389(2) .
C14 H14 0.9500 .
C15 H15 0.9500 .
