#------------------------------------------------------------------------------
#$Date: 2022-03-06 06:37:54 +0200 (Sun, 06 Mar 2022) $
#$Revision: 273468 $
#$URL: file:///home/coder/svn-repositories/cod/cif/1/56/59/1565938.cif $
#------------------------------------------------------------------------------
#
# This file is available in the Crystallography Open Database (COD),
# http://www.crystallography.net/
#
# All data on this site have been placed in the public domain by the
# contributors.
#
data_1565938
loop_
_publ_author_name
'Wildner, Manfred'
'Zakharov, Boris A.'
'Bogdanov, Nikita E.'
'Talla, Dominik'
'Boldyreva, Elena V.'
'Miletich, Ronald'
_publ_section_title
;
 Crystallography relevant to Mars and Galilean icy moons: crystal behavior
 of kieserite-type monohydrate sulfates at extraterrestrial conditions
 down to 15 K
;
_journal_issue                   2
_journal_name_full               IUCrJ
_journal_page_first              194
_journal_page_last               203
_journal_paper_doi               10.1107/S2052252521012720
_journal_volume                  9
_journal_year                    2022
_chemical_formula_sum            'Fe0 H2 Mg O5 S'
_chemical_formula_weight         138.39
_space_group_crystal_system      monoclinic
_space_group_IT_number           15
_space_group_name_Hall           '-C 2yc'
_space_group_name_H-M_alt        'C 1 2/c 1'
_atom_sites_solution_hydrogens   difmap
_audit_creation_method           SHELXL-2017/1
_cell_angle_alpha                90
_cell_angle_beta                 117.884(10)
_cell_angle_gamma                90
_cell_formula_units_Z            4
_cell_length_a                   6.8815(10)
_cell_length_b                   7.6534(10)
_cell_length_c                   7.6172(10)
_cell_measurement_temperature    193(2)
_cell_volume                     354.60(9)
_computing_structure_refinement  'SHELXL-2017/1 (Sheldrick, 2017)'
_diffrn_ambient_temperature      193(2)
_diffrn_measured_fraction_theta_full 0.994
_diffrn_measured_fraction_theta_max 0.998
_diffrn_radiation_type           MoK\a
_diffrn_radiation_wavelength     0.71073
_diffrn_reflns_av_R_equivalents  0.0196
_diffrn_reflns_av_unetI/netI     0.0102
_diffrn_reflns_Laue_measured_fraction_full 0.994
_diffrn_reflns_Laue_measured_fraction_max 0.998
_diffrn_reflns_limit_h_max       12
_diffrn_reflns_limit_h_min       -12
_diffrn_reflns_limit_k_max       13
_diffrn_reflns_limit_k_min       -13
_diffrn_reflns_limit_l_max       13
_diffrn_reflns_limit_l_min       -13
_diffrn_reflns_number            9924
_diffrn_reflns_point_group_measured_fraction_full 0.994
_diffrn_reflns_point_group_measured_fraction_max 0.998
_diffrn_reflns_theta_full        25.242
_diffrn_reflns_theta_max         39.937
_diffrn_reflns_theta_min         4.242
_exptl_absorpt_coefficient_mu    0.971
_exptl_absorpt_correction_T_max  0.7479
_exptl_absorpt_correction_T_min  0.6855
_exptl_absorpt_correction_type   multi-scan
_exptl_absorpt_process_details
;
 SADABS 2016/2: Krause, L., Herbst-Irmer, R., Sheldrick G.M. & Stalke D.,
 J. Appl. Cryst. 48 (2015) 3-10
;
_exptl_crystal_density_diffrn    2.592
_exptl_crystal_F_000             280
_refine_diff_density_max         0.489
_refine_diff_density_min         -0.371
_refine_diff_density_rms         0.070
_refine_ls_extinction_coef       0.004(2)
_refine_ls_extinction_expression Fc^*^=kFc[1+0.001xFc^2^\l^3^/sin(2\q)]^-1/4^
_refine_ls_extinction_method     'SHELXL-2017/1 (Sheldrick 2017)'
_refine_ls_goodness_of_fit_ref   1.202
_refine_ls_hydrogen_treatment    refall
_refine_ls_matrix_type           full
_refine_ls_number_parameters     40
_refine_ls_number_reflns         1098
_refine_ls_number_restraints     0
_refine_ls_restrained_S_all      1.202
_refine_ls_R_factor_all          0.0167
_refine_ls_R_factor_gt           0.0156
_refine_ls_shift/su_max          0.000
_refine_ls_shift/su_mean         0.000
_refine_ls_structure_factor_coef Fsqd
_refine_ls_weighting_details
'w=1/[\s^2^(Fo^2^)+(0.0200P)^2^+0.1800P] where P=(Fo^2^+2Fc^2^)/3'
_refine_ls_weighting_scheme      calc
_refine_ls_wR_factor_gt          0.0444
_refine_ls_wR_factor_ref         0.0448
_reflns_Friedel_coverage         0.000
_reflns_number_gt                1047
_reflns_number_total             1098
_reflns_threshold_expression     'I > 2\s(I)'
_cod_data_source_file            lt5044.cif
_cod_data_source_block           MgSO4H2O_N2_193K
_cod_depositor_comments
'Adding full bibliography for 1565934--1565967.cif.'
_cod_original_sg_symbol_H-M      'C 2/c'
_cod_database_code               1565938
_shelx_shelxl_version_number     2017/1
_shelx_space_group_comment
;
The symmetry employed for this shelxl refinement is uniquely defined
by the following loop, which should always be used as a source of
symmetry information in preference to the above space-group names.
They are only intended as comments.
;
_shelx_res_file
;
TITL 204dkiesx1 193K Apex in C2/c kieserite cell
    latt_corr_for_Nonius20C_204dkiesx1_Apex193K.res
    created by SHELXL-2017/1 at 15:51:47 on 08-Oct-2018

REM meas.  mon  6.86319(9) 7.64321(9) 7.49758(9) 90.0   116.2421(5) 90.0
REM trans. cryscomp 6.8632    7.6432    7.6034   90.0   117.816     90.0
REM meas.trcl 6.86293(9)7.64292(9)7.49804(9)89.9801(6)116.2431(5)90.0569(7)
REM trans. cryscomp 6.8629    7.6429    7.6035   90.032   117.811    89.943
REM CELL 0.71073   6.8632    7.6432    7.6034   90.0   117.816     90.0
REM latt corr for Nonius20C +.0183 +.0102 +.0138         +.068
CELL 0.71073   6.8815    7.6534    7.6172   90.0   117.884     90.0
ZERR    4.00   0.001   0.001   0.001   0.00   0.01   0.00
LATT  7
SYMM -X, Y, .5-Z
SFAC O H S MG FE
UNIT 20 8 4 4 0
SHEL 20 0.55285
OMIT -2 2 2
OMIT 1 1 2
REM OMIT -3 1 1
REM OMIT -3 1 3
L.S. 10
CONN 12 1.8 $O
EQIV $9 -x+1/2, y+1/2, -z+1/2
BOND $H
FMAP 2
PLAN 20
ACTA
HTAB O3 O2_$9
HTAB
REM EXYZ MG FE
REM EADP MG FE
REM SUMP 1.0 0 1.0 2 1.0 3
REM Fe wird negativ verfeinert
WGHT    0.020000    0.180000
EXTI    0.004445
FVAR       0.99675
MG    4    0.000000    0.500000    0.000000    10.50000    0.00494    0.00595 =
         0.00571    0.00024    0.00217   -0.00034
REM FE  5  0.000000    0.500000    0.000000    10.50000    0.00571    0.00681 =
REM      0.00653    0.00034    0.00244   -0.00039
S     3    0.000000    0.156347    0.250000    10.50000    0.00351    0.00455 =
         0.00540    0.00000    0.00177    0.00000
O1    1    0.175408    0.046639    0.396019    11.00000    0.00578    0.01021 =
         0.01016    0.00436    0.00276    0.00271
O2    1    0.094399    0.269004    0.150442    11.00000    0.00810    0.00758 =
         0.01082    0.00323    0.00592    0.00065
O3    1    0.000000    0.634306    0.250000    10.50000    0.00701    0.00829 =
         0.00747    0.00000    0.00343    0.00000
H     2    0.103500    0.700299    0.290741    11.00000    0.02216
HKLF 4 1  1 0 0 0 -1 0 -1 0 -1




REM  204dkiesx1 193K Apex in C2/c kieserite cell
REM R1 =  0.0156 for    1047 Fo > 4sig(Fo)  and  0.0167 for all    1098 data
REM     40 parameters refined using      0 restraints

END

WGHT      0.0199      0.1776

REM Instructions for potential hydrogen bonds
EQIV $20 x+1/2, y+1/2, z
HTAB O3 S_$20
HTAB O3 O2_$9

REM Highest difference peak  0.489,  deepest hole -0.371,  1-sigma level  0.070
Q1    1   0.0565  0.2104  0.2003  11.00000  0.05    0.49
Q2    1   0.0890  0.0973  0.3179  11.00000  0.05    0.42
Q3    1   0.2079 -0.0026  0.3469  11.00000  0.05    0.21
Q4    1   0.0108  0.3173  0.1346  11.00000  0.05    0.20
Q5    1   0.2611  0.0645  0.3724  11.00000  0.05    0.20
Q6    1   0.0219  0.2484  0.0662  11.00000  0.05    0.18
Q7    1   0.1430 -0.0328  0.3668  11.00000  0.05    0.18
Q8    1  -0.0748 -0.0676  0.3463  11.00000  0.05    0.17
Q9    1  -0.0012  0.5786  0.1784  11.00000  0.05    0.16
Q10   1  -0.0586  0.4163  0.0454  11.00000  0.05    0.16
Q11   1   0.1825  0.0774  0.6442  11.00000  0.05    0.15
Q12   1   0.2500  0.7500  0.5000  10.50000  0.05    0.14
Q13   1   0.0670  0.4552  0.0864  11.00000  0.05    0.13
Q14   1   0.2158  0.4635  0.3000  11.00000  0.05    0.12
Q15   1   0.3014  0.0899  0.4933  11.00000  0.05    0.12
Q16   1   0.1443  0.3794  0.1956  11.00000  0.05    0.12
Q17   1   0.0808  0.4169  0.2154  11.00000  0.05    0.11
Q18   1   0.2674  0.6594  0.3609  11.00000  0.05    0.10
Q19   1  -0.0786  0.5840  0.0173  11.00000  0.05    0.10
Q20   1   0.0000  0.4653  0.2500  10.50000  0.05    0.10
;
_shelx_res_checksum              53484
_shelx_hkl_file
;
  -2   0   0 2237.36 40.1236  16
   2   0   0 2175.97 38.6653  16
   2   0   0 2254.35 37.4068   1
   2   0   0 2229.73 36.7581   4
   2   0   0 2221.29 37.0622  11
  -2   0   0 2275.21 39.1278   8
  -2   0   0 2239.19 38.4316  15
  -2   0   0 2240.15 43.3814  13
   2   0   0 2256.05 44.1972  13
   2   0   0 2267.29 37.7331  10
  -4   0   0 9999.99 161.824   8
  -4   0   0 9677.20 160.377   2
  -4   0   0 9594.90 184.622  13
  -4   0   0 9861.00 160.025  15
   4   0   0 9954.98 172.822  10
   4   0   0 9603.30 169.799  11
  -4   0   0 9913.54 169.636  16
   4   0   0 9594.86 164.557   1
   4   0   0 9548.16 159.483   4
   4   0   0 9668.92 184.201  13
   4   0   0 9565.94 164.279   7
  -6   0   0 984.961 23.9960  15
   6   0   0 978.390 19.8353   4
  -6   0   0 1045.67 26.5681   8
   6   0   0 987.419 21.3196   1
   6   0   0 991.653 20.4361   7
  -6   0   0 991.810 20.4331  16
  -8   0   0 798.824 25.8958   8
   8   0   0 791.290 19.2151   7
  -8   0   0 815.835 25.5002   3
 -10   0   0 323.159 17.7349   3
 -10   0   0 309.021 17.6783   8
  10   0   0 320.790 12.3040   7
  -1  -1   0 3267.48 60.3622  13
   1  -1   0 3083.84 54.0526   5
   1  -1   0 3173.94 55.9832  16
   1  -1   0 3060.85 54.9213  11
   1   1   0 3150.53 56.2097   1
  -1   1   0 3176.05 54.2786   8
  -1   1   0 3181.51 56.3448  15
   1   1   0 3034.43 55.1069   7
  -1   1   0 3114.13 55.0503  16
  -3  -1   0 46.7320 3.19190  15
   3  -1   0 42.4543 2.11683   5
   3  -1   0 43.7353 2.59466  10
   3  -1   0 45.2836 3.17207  13
   3  -1   0 47.6855 2.20549   4
  -3  -1   0 48.5347 3.62330   8
  -3  -1   0 43.5352 2.32132  16
  -3  -1   0 41.3778 1.90234   2
  -3  -1   0 47.3849 3.28307  13
   3  -1   0 39.4878 1.99396   1
   3  -1   0 47.3277 2.25647  11
  -3   1   0 42.0373 3.39296  15
   3   1   0 49.7401 3.41086  13
   3   1   0 47.3614 2.13134   7
  -3   1   0 47.7857 2.31139  16
   3   1   0 41.9830 2.44336  10
   3   1   0 43.2736 2.56923   1
  -3   1   0 40.8122 1.80713   2
  -3   1   0 43.1562 3.75452   8
  -5  -1   0 1745.28 31.4309  16
  -5  -1   0 1721.83 34.3984  15
   5  -1   0 1678.95 30.6937   4
   5  -1   0 1720.22 31.7816  11
  -5  -1   0 1726.09 36.3777   8
   5  -1   0 1667.77 35.8367  13
   5  -1   0 1709.25 31.2794   1
  -5  -1   0 1655.89 35.5899  13
  -5   1   0 1740.54 36.6651   8
   5   1   0 1701.21 31.0118   7
   5   1   0 1678.52 36.2264  13
   5   1   0 1715.00 32.7047  10
   5   1   0 1738.26 32.6850   1
  -5   1   0 1738.22 34.9420  15
  -5   1   0 1689.24 31.1813  16
  -7  -1   0 50.5042 3.75256  16
  -7  -1   0 56.8495 6.29552  15
  -7  -1   0 51.9827 7.07294   8
   7  -1   0 45.5916 3.63481   7
   7  -1   0 51.8255 4.29841  11
  -7   1   0 42.4681 3.45673  16
   7   1   0 56.1858 3.96558   7
  -7   1   0 51.2183 7.11093   8
  -7   1   0 56.8359 6.30230  15
   7   1   0 46.5181 4.27620   1
  -7   1   0 60.4431 6.77972   3
  -9  -1   0 114.008 11.9439   8
   9  -1   0 109.893 6.65745   7
  -9  -1   0 142.282 11.5284   3
  -9   1   0 117.679 10.4392   3
  -9   1   0 125.715 12.0310   8
   9   1   0 122.472 7.02884   7
 -11  -1   0 154.887 13.6432   3
 -11  -1   0 153.261 13.0071   8
  11  -1   0 146.292 8.78668   7
 -11   1   0 153.448 13.2096   3
  11   1   0 148.246 8.87430   7
 -11   1   0 149.317 14.2283   8
   0  -2   0 16.9684 1.00662   5
   0   2   0 16.0572 1.24225  15
   0   2   0 18.4634 1.09791   9
   0   2   0 18.9481 1.14113   6
   2  -2   0 188.668 4.76951   4
   2  -2   0 184.214 4.82071  11
   2  -2   0 188.421 4.43743   5
  -2  -2   0 185.532 6.13978  13
   2   2   0 182.119 4.59530   6
  -2   2   0 197.414 6.30485  15
  -2   2   0 187.535 4.72171   2
   2   2   0 188.025 4.93481   9
  -2   2   0 192.281 5.01332  16
  -2   2   0 188.843 6.29393   8
   2   2   0 187.866 5.35921   1
   2   2   0 182.481 4.69724  10
  -2   2   0 184.336 5.22728   3
   2   2   0 187.254 4.57742   7
   4  -2   0 587.569 15.3350  13
   4  -2   0 587.026 12.3226   4
  -4  -2   0 605.366 15.9921  13
  -4  -2   0 585.301 13.0263  16
   4  -2   0 589.434 12.3612   5
   4  -2   0 588.299 12.8481  11
  -4  -2   0 568.056 11.9634   2
  -4  -2   0 598.802 14.8737  15
  -4  -2   0 600.101 15.8598   8
   4   2   0 581.979 12.4038   7
  -4   2   0 575.683 11.6660   2
  -4   2   0 594.070 12.8033  16
  -4   2   0 584.335 14.8135   3
  -4   2   0 587.007 16.0228   8
   4   2   0 594.650 13.9615   1
   4   2   0 584.253 15.8865  13
   4   2   0 589.095 13.2384  10
  -4   2   0 610.827 15.5418  15
   6  -2   0 956.416 20.4913  11
  -6  -2   0 923.129 19.7795  16
  -6  -2   0 921.865 22.7128  15
  -6  -2   0 900.597 24.7495   8
   6  -2   0 901.614 19.1369   4
  -6   2   0 906.859 19.5929  16
  -6   2   0 924.727 25.1744   8
   6   2   0 931.500 20.9757  10
  -6   2   0 922.565 23.3294  15
   6   2   0 892.697 19.3729   7
   6   2   0 925.562 21.2967   1
  -6   2   0 905.487 23.3868   3
   8  -2   0 224.747 9.39497  11
  -8  -2   0 226.168 13.9090   8
   8  -2   0 229.391 8.71235   7
  -8  -2   0 211.557 12.5810   3
   8   2   0 220.141 8.81041   7
  -8   2   0 247.833 12.2082  15
  -8   2   0 225.545 14.0311   8
  -8   2   0 225.933 12.0353   3
  10  -2   0 579.116 17.2319   7
 -10  -2   0 551.891 24.3554   8
 -10  -2   0 543.710 23.1935   3
  10   2   0 581.058 17.5891   7
 -10   2   0 554.814 22.4072   3
 -10   2   0 571.700 24.6041   8
   1  -3   0 269.011 5.77626   5
   1  -3   0 276.096 6.40666  11
   1   3   0 269.580 6.49587   1
  -1   3   0 257.441 7.34580  15
  -1   3   0 273.690 5.91849   9
   1   3   0 268.540 6.01074   6
  -1   3   0 269.356 6.92142   8
   1   3   0 268.833 6.46421   9
   1   3   0 272.361 5.88205   7
   3  -3   0 1928.51 35.7511  13
   3  -3   0 1867.85 33.3371  11
   3  -3   0 1894.54 33.2222   4
  -3  -3   0 1931.00 36.7297  13
  -3  -3   0 1918.76 34.2205  16
   3  -3   0 1864.02 32.5617   5
  -3   3   0 1885.81 36.2507  15
   3   3   0 1901.12 33.0334   6
   3   3   0 1930.99 34.7722   1
   3   3   0 1881.46 33.6036   9
   3   3   0 1897.69 33.0833  10
  -3   3   0 1888.41 36.3763   8
   3   3   0 1885.93 32.9689   7
  -3   3   0 1875.99 34.2903   3
   5  -3   0 66.1731 4.06083  11
   5  -3   0 72.4833 3.79123   4
  -5  -3   0 67.8462 5.14496  15
   5  -3   0 61.8540 3.54659   5
  -5  -3   0 71.8425 6.04731   8
  -5  -3   0 70.2996 4.09730  16
   5  -3   0 59.6318 4.72066  13
  -5  -3   0 65.6596 5.11829  13
   5   3   0 66.5300 4.56713   1
  -5   3   0 68.3369 3.89976  16
  -5   3   0 70.9694 5.84162  15
   5   3   0 70.8131 3.98478  10
  -5   3   0 75.9497 6.05548   8
  -5   3   0 70.1786 5.11515   3
   5   3   0 72.6641 3.81903   7
   7  -3   0 134.769 6.88788  11
   7  -3   0 104.045 5.61442   4
  -7  -3   0 161.481 10.6839   8
   7   3   0 132.745 6.25561   7
  -7   3   0 131.404 8.60690   3
  -7   3   0 125.933 9.99879   8
   7   3   0 136.836 7.46886   1
  -7   3   0 155.329 9.40371  15
   9  -3   0 -1.6335 2.12113  11
  -9  -3   0 1.06891 5.19077   8
  -9  -3   0 -2.2914 3.75943   3
   9  -3   0 -3.4401 1.70459   7
  -9   3   0 -1.4693 2.69420  15
   9   3   0 3.51470 2.40849   7
  -9   3   0 -3.8048 4.49054   8
  -9   3   0 1.46055 3.79059   3
   0  -4   0 1097.86 20.3483  11
   0  -4   0 1075.98 18.6526  12
   0  -4   0 1117.02 19.5714   5
   0   4   0 1093.32 19.8170   6
   0   4   0 1109.85 20.2166   8
   0   4   0 1100.35 19.5436   1
   0   4   0 1122.28 20.3080   9
   2  -4   0 5960.82 103.242   5
   2  -4   0 5919.39 103.126   4
   2  -4   0 5955.43 106.001  11
   2   4   0 5855.51 100.677   7
   2   4   0 5942.67 103.622   1
   2   4   0 6095.05 98.8945   9
   2   4   0 6063.77 101.322   6
   2   4   0 5999.99 97.0464  10
  -2   4   0 5953.54 104.564   3
  -2   4   0 6133.29 101.685   9
  -2   4   0 6150.58 100.478   8
  -2   4   0 5954.98 101.042  15
   4  -4   0 1.99055 1.25503  13
   4  -4   0 1.95307 1.46393   4
  -4  -4   0 0.60703 1.46301  13
   4  -4   0 2.74963 1.13937   5
   4  -4   0 9.24436 2.00899  11
  -4  -4   0 4.01107 1.47446  16
  -4   4   0 2.34229 1.70570   3
   4   4   0 1.05615 0.90364   9
   4   4   0 0.11473 0.88972   7
   4   4   0 1.61783 0.90301  10
  -4   4   0 0.16884 2.00823  15
  -4   4   0 11.3163 3.28418   8
   4   4   0 4.89108 1.38346   6
   4   4   0 1.50559 1.38809   1
  -6  -4   0 1043.64 27.0103   8
   6  -4   0 992.562 21.2736   4
  -6  -4   0 964.901 24.3208  15
  -6  -4   0 989.298 22.2610  16
   6  -4   0 1006.88 22.1922  11
  -6   4   0 988.331 27.0521   8
  -6   4   0 1014.38 24.4330   3
  -6   4   0 1006.42 25.9647  15
   6   4   0 1022.80 21.5552   7
   6   4   0 1010.21 23.8693   1
   6   4   0 998.028 21.8463  10
   8  -4   0 283.570 11.2975  11
  -8  -4   0 262.827 14.9678   8
   8  -4   0 278.373 9.85567   7
  -8  -4   0 303.334 15.3471   3
   8   4   0 265.523 10.1808   7
  -8   4   0 293.353 13.6160  15
  -8   4   0 267.595 12.9442   3
  -8   4   0 290.399 15.7161   8
   8   4   0 279.645 12.1032   1
 -10  -4   0 225.561 15.6165   8
  10  -4   0 230.067 10.2657   7
 -10  -4   0 238.493 15.8285   3
  10   4   0 210.727 10.3163   7
 -10   4   0 219.890 13.6565   3
 -10   4   0 219.377 16.2117   8
   1  -5   0 185.856 5.96079  11
   1  -5   0 183.476 5.09437   5
  -1  -5   0 177.457 5.01719  12
  -1  -5   0 181.587 5.32571   5
   1   5   0 184.474 5.47776   6
  -1   5   0 188.984 5.61728   9
   1   5   0 185.178 4.54370  10
  -1   5   0 195.663 6.29573   8
   1   5   0 186.848 5.76026   1
  -1   5   0 190.487 7.03321  15
   1   5   0 186.107 6.00062   9
  -1   5   0 184.458 5.47305   6
  -3  -5   0 303.014 10.8443  13
   3  -5   0 312.459 7.72867   5
   3  -5   0 315.971 8.75090  11
   3  -5   0 323.513 8.99083   4
   3   5   0 292.778 7.32497  10
  -3   5   0 307.467 10.5054   8
  -3   5   0 311.107 10.9849  15
  -3   5   0 309.394 8.08993   3
   3   5   0 315.459 9.58092   1
   3   5   0 311.116 8.26729   6
   3   5   0 308.548 8.12826   7
   3   5   0 313.830 9.14364   9
  -3   5   0 316.249 7.73004   9
   5  -5   0 9.22059 1.88055   5
  -5  -5   0 10.2691 2.13292  16
   5  -5   0 8.77356 1.98525   4
   5  -5   0 9.08823 2.36341  11
  -5   5   0 7.91609 3.72996   8
   5   5   0 10.7031 2.35778   9
   5   5   0 14.6442 2.26636   7
  -5   5   0 4.65995 1.98009   3
   5   5   0 8.85843 2.32473   1
   5   5   0 9.01869 1.63367  10
   5   5   0 9.12507 1.86027   6
  -5   5   0 4.67405 2.86304  15
  -7  -5   0 334.095 15.4273   8
   7  -5   0 334.001 11.5066  11
   7  -5   0 315.448 10.4374   4
  -7   5   0 311.452 12.7030   3
   7   5   0 336.798 10.8778   7
  -7   5   0 352.805 16.1485   8
   7   5   0 340.533 12.9736   1
  -7   5   0 324.612 14.4426  15
  -9  -5   0 156.064 11.7545   3
   9  -5   0 139.645 7.25099   7
   9  -5   0 149.228 8.99822  11
  -9  -5   0 133.088 12.1142   8
  -9   5   0 147.964 12.5801   8
   9   5   0 142.253 7.77402   7
  -9   5   0 142.542 10.5189  15
   0  -6   0 1116.05 21.2623   5
   0  -6   0 1167.96 22.7097  11
   0   6   0 1170.21 22.8056   9
   0   6   0 1146.21 21.1353   1
   0   6   0 1139.45 21.9720   6
   2  -6   0 259.495 8.41559   4
   2  -6   0 270.547 7.09721   5
   2  -6   0 268.934 8.09982  11
  -2   6   0 261.745 7.48710   9
  -2   6   0 276.115 9.09051   8
   2   6   0 260.624 7.60006   6
   2   6   0 272.746 7.32053   7
   2   6   0 268.517 8.49253   9
   2   6   0 269.288 8.37874   1
  -2   6   0 267.526 10.0441  15
   4  -6   0 1515.69 28.4494   5
   4  -6   0 1532.38 30.2862   4
   4  -6   0 1529.02 30.2050  11
  -4  -6   0 1523.94 31.8706  16
   4   6   0 1522.61 30.7271   9
   4   6   0 1557.64 31.8674   1
  -4   6   0 1560.19 34.3626  15
  -4   6   0 1531.82 33.6166   8
   4   6   0 1519.43 29.3047   6
   4   6   0 1534.40 29.2360   7
   6  -6   0 12.3426 2.59637  11
   6  -6   0 9.89714 2.72823   4
  -6  -6   0 7.94596 2.23225  16
  -6  -6   0 11.9367 3.79465   8
   6  -6   0 14.1605 2.44196   5
  -6   6   0 9.80821 4.23423   8
   6   6   0 11.1127 2.40391   6
   6   6   0 17.3555 2.61911   7
  -6   6   0 12.7205 3.88101  15
   6   6   0 16.1806 3.58804   1
  -8  -6   0 1070.33 31.6304   3
   8  -6   0 1047.52 26.2065  11
  -8   6   0 1061.27 30.5110  15
   8   6   0 1054.22 24.7778   7
  -8   6   0 1047.91 31.8391   8
 -10  -6   0 3.70242 5.22797   3
  10  -6   0 -2.2193 2.16253   7
  10  -6   0 3.32026 2.22228  11
 -10   6   0 2.45331 3.55518  15
 -10   6   0 -6.8471 4.27583   8
  10   6   0 0.63819 2.52053   7
  -1  -7   0 841.559 18.3402  11
   1  -7   0 832.741 19.0313   4
   1  -7   0 802.224 16.4473   5
  -1  -7   0 818.836 16.9802   5
   1  -7   0 857.226 18.5657  11
   1   7   0 806.181 17.3515   1
  -1   7   0 822.164 17.5402   6
  -1   7   0 825.597 17.9944   9
   1   7   0 815.056 17.4612   6
   1   7   0 816.876 18.5701   9
  -1   7   0 817.802 18.2172   8
   3  -7   0 1282.38 24.9161   5
   3  -7   0 1352.96 27.1798  11
   3  -7   0 1330.38 27.5716   4
  -3   7   0 1307.90 25.6300   9
   3   7   0 1320.02 27.8087   1
  -3   7   0 1283.31 30.3041  15
  -3   7   0 1320.45 28.9867   8
   3   7   0 1325.49 25.6358   7
   3   7   0 1337.62 26.1498   6
   3   7   0 1335.04 27.7094   9
  -5  -7   0 141.169 7.73881  16
   5  -7   0 149.418 6.05578   5
   5  -7   0 137.510 6.75056   4
   5  -7   0 142.033 7.14146  11
   5   7   0 141.227 6.33262   6
  -5   7   0 131.714 8.93356  15
   5   7   0 146.159 6.45921   7
  -5   7   0 155.483 9.72465   8
   5   7   0 156.038 7.40082   9
   5   7   0 147.415 7.93541   1
   7  -7   0 355.872 12.9828  11
  -7  -7   0 354.250 15.8094   3
  -7   7   0 355.951 16.4282   8
  -7   7   0 347.772 15.5802  15
   7   7   0 366.179 12.0696   7
   7   7   0 360.109 14.4249   1
   9  -7   0 58.7369 6.28254  11
  -9  -7   0 46.0365 7.56701   3
  -9   7   0 60.9239 8.30811  15
   9   7   0 50.7457 5.68293   7
  -9   7   0 51.8604 8.42739   8
   0  -8   0 465.767 11.3467   5
   0  -8   0 475.247 12.7638  11
   0   8   0 477.579 12.9896   9
   0   8   0 462.452 12.1967   6
  -2  -8   0 625.521 14.8827   5
   2  -8   0 648.608 16.9212   4
   2  -8   0 652.676 16.1875  11
  -2  -8   0 647.865 16.3185  11
   2  -8   0 609.377 13.9056   5
   2   8   0 642.236 15.3128   6
   2   8   0 648.300 16.6319   9
  -2   8   0 627.871 15.3894   9
  -2   8   0 636.567 15.4337   6
  -2   8   0 652.592 16.6782   8
  -2   8   0 618.544 18.7756  15
   2   8   0 615.952 15.5402   1
   4  -8   0 238.544 9.63551   4
   4  -8   0 207.646 7.23861   5
   4  -8   0 227.482 9.12232  11
  -4  -8   0 198.185 8.22922  12
  -4   8   0 227.075 11.4044  15
   4   8   0 211.808 8.02951   6
   4   8   0 213.145 9.34815   1
   4   8   0 219.610 7.88686   7
  -4   8   0 210.035 10.2525   8
   4   8   0 214.731 9.15709   9
   6  -8   0 60.8146 6.18265  11
   6  -8   0 51.6095 5.39303   4
  -6  -8   0 38.3556 5.05636  16
   6  -8   0 49.9537 4.10931   5
   6   8   0 48.2016 5.94341   1
  -6   8   0 56.0073 7.42720   8
   6   8   0 56.0813 5.22486   7
   6   8   0 32.7653 3.80929   6
  -6   8   0 42.1794 6.66626  15
   6   8   0 54.7853 5.67299   9
   8  -8   0 40.6904 5.25828  11
   8   8   0 34.4207 4.27833   7
  -8   8   0 34.9529 6.64745   8
  -8   8   0 25.2094 5.81996  15
  -1  -9   0 192.121 8.21990  11
   1  -9   0 193.099 8.63083   4
  -1  -9   0 186.747 6.90999   5
   1  -9   0 186.363 6.57887   5
   1  -9   0 198.060 8.36440  11
   1   9   0 185.663 8.30941   9
  -1   9   0 189.876 7.88400   9
   1   9   0 196.545 7.68386   6
  -1   9   0 204.096 7.99211   6
   3  -9   0 46.9942 4.20381   5
   3  -9   0 37.8731 4.46347  11
  -3  -9   0 44.9030 4.26970   5
  -3  -9   0 38.9295 4.42206  11
   3  -9   0 35.1794 4.57425   4
  -3   9   0 47.4815 4.86903   6
  -3   9   0 45.2719 6.09217  15
   3   9   0 36.5928 4.21331   1
  -3   9   0 31.7194 4.23284   8
  -3   9   0 42.8828 3.79579   9
   3   9   0 37.8032 4.59554   9
   3   9   0 39.5876 4.15672   6
   5  -9   0 145.089 8.22285  11
   5  -9   0 149.623 8.61998   4
  -5  -9   0 139.387 8.51104  16
   5   9   0 146.867 8.11646   9
  -5   9   0 159.549 9.75552   8
   5   9   0 154.838 7.17103   7
   5   9   0 145.017 7.09068   6
  -5   9   0 155.450 10.1643  15
   5   9   0 139.025 8.42816   1
   7  -9   0 1.10318 2.90682  11
  -7  -9   0 2.85882 3.59221  12
  -7   9   0 3.61990 3.75808   8
  -7   9   0 4.77798 3.76375  15
   7   9   0 1.02625 2.30222   7
   0 -10   0 550.763 17.1267   4
   0 -10   0 560.151 16.0578  11
   0  10   0 569.964 16.2359   9
   0  10   0 586.613 15.7222   6
   2 -10   0 1464.43 32.6093   4
  -2 -10   0 1419.53 31.0392  11
   2 -10   0 1430.36 31.1986  11
   2  10   0 1433.48 31.8395   9
  -2  10   0 1444.00 30.5365   6
   2  10   0 1411.19 29.9609   6
  -2  10   0 1431.34 30.4455   9
  -4 -10   0 284.627 11.5111  11
   4 -10   0 303.882 12.4374   4
   4 -10   0 288.069 11.6567  11
   4  10   0 265.719 11.6834   9
   4  10   0 283.435 10.3302   6
  -4  10   0 296.806 11.3298   6
   6 -10   0 813.473 22.4760  11
   6 -10   0 780.268 21.8135   4
   6  10   0 787.809 20.0071   7
  -6  10   0 792.986 21.6543   6
  -6  10   0 808.868 27.0520  15
   6  10   0 777.056 22.4028   9
  -1 -11   0 398.764 14.9252   4
   1 -11   0 397.706 13.5480  11
  -1 -11   0 399.820 13.6317  11
   1 -11   0 411.155 15.1375   4
   1  11   0 374.424 13.5480   9
  -1  11   0 372.085 13.0774   9
  -1  11   0 383.860 12.9967   6
   1  11   0 379.808 12.8486   6
   3 -11   0 269.171 11.7266   4
   3 -11   0 251.155 10.7376  11
  -3 -11   0 252.199 10.8504  11
   3  11   0 238.846 9.66938   6
  -3  11   0 243.211 10.4857   6
   3  11   0 247.932 11.3169   9
   5 -11   0 332.898 13.8337   4
   5 -11   0 338.662 13.4545  11
  -5  11   0 310.533 12.6604   6
   5  11   0 334.616 13.6416   9
   0 -12   0 122.920 7.93382  11
   0 -12   0 109.441 8.38219   4
   0  12   0 118.508 7.74220   6
   0  12   0 103.540 7.09313   9
  -2 -12   0 65.2237 6.60153  11
  -2 -12   0 79.7692 8.36332   4
   2 -12   0 75.6101 7.78708   4
   2 -12   0 49.2658 5.44692  11
  -2  12   0 64.2908 6.30233   6
   2  12   0 57.7380 6.56894   9
   2  12   0 72.1315 9.08191   6
   4 -12   0 100.223 7.99147  11
   4 -12   0 106.869 8.02660   4
  -4 -12   0 107.104 7.71687  11
   4  12   0 131.047 9.03244   9
  -4  12   0 121.913 8.25935   6
  -1 -13   0 4.35511 3.53527   4
  -1 -13   0 3.93892 3.25031  11
   1 -13   0 6.98989 3.88233   4
   1 -13   0 7.51849 3.56132  11
   1  13   0 4.73525 3.27851   9
  -1  13   0 6.41946 3.16997   9
  -1  13   0 7.04880 3.01792   6
  -3 -13   0 8.66300 3.29703  11
   3 -13   0 12.3214 3.51447  11
  -3 -13   0 11.2231 4.04085   4
   3 -13   0 11.8164 4.36723   4
   3  13   0 6.52605 3.69137   9
  -3  13   0 9.09036 3.41116   6
 -10   0   1 3.23758 4.26459   3
 -10   0   1 7.10084 5.86037   8
  10   0  -1 0.00895 2.35103   7
  -8   0   1 -2.0803 3.02473  15
   8   0  -1 0.17921 1.53797   1
   8   0  -1 2.68288 1.63445   7
  -8   0   1 -1.9081 3.78578   8
   6   0  -1 1.61961 1.29242   1
  -6   0   1 2.80917 3.05618   8
  -6   0   1 5.76771 3.07655  15
   6   0  -1 0.34073 1.03208   7
   6   0  -1 2.58201 1.35885  11
  -6   0   1 1.55178 1.01192  16
   4   0  -1 -0.2404 0.66863  11
  -4   0   1 0.51623 0.92629   2
  -4   0   1 3.85368 2.06475  15
   4   0  -1 3.42167 1.01600   1
  -4   0   1 0.71440 0.54168  16
   4   0  -1 0.83896 1.15473  13
   4   0  -1 1.51944 0.57389   4
  -4   0   1 -1.0277 1.63336   8
  -2   0   1 0.88928 1.21240  15
   2   0  -1 1.14384 0.77293  13
  -2   0   1 0.64126 0.86131   2
   2   0  -1 1.02100 0.53899   5
  -2   0   1 1.49586 0.30600  16
   2   0  -1 0.37926 0.22432  16
   2   0  -1 0.17281 0.45996   1
   0   0  -1 -0.0476 0.15350  16
   0   0   1 1.15517 0.29722  16
   2   0   1 1.43634 0.78935  13
  -2   0  -1 1.70128 0.96461  15
  -2   0  -1 2.48948 0.74871  16
   2   0   1 3.01908 0.60851   7
   2   0   1 0.99934 0.76216  10
   2   0   1 1.69296 0.54566  14
  -2   0  -1 2.90809 1.22941   3
  -2   0  -1 2.35819 0.87825  13
  -2   0  -1 3.23224 1.46495   8
  -4   0  -1 5.79457 2.06333  15
   4   0   1 2.68498 1.26467  11
  -4   0  -1 0.76729 1.33708   3
  -4   0  -1 3.34642 1.37584  16
   4   0   1 0.99299 1.02439   4
  -4   0  -1 0.12479 2.27840   8
   4   0   1 3.39916 1.70433  13
   4   0   1 1.49526 0.96463  10
  -4   0  -1 0.54273 1.05719  13
   4   0   1 2.39912 0.97449   7
   6   0   1 1.84485 1.32878   4
   6   0   1 2.07205 1.43534   7
  -6   0  -1 2.83258 2.86221   3
  -6   0  -1 1.29897 1.58283  16
  -6   0  -1 3.78010 2.52623  15
   6   0   1 2.61925 1.36426  10
  -6   0  -1 2.70533 3.48475   8
  -8   0  -1 3.55527 3.79785   3
   8   0   1 -1.5942 1.35118   7
  -8   0  -1 -3.5445 4.47082   8
 -10   0  -1 3.04091 5.69698   8
 -10   0  -1 5.41989 5.27169   3
  10   0   1 0.24893 2.35300   7
  11  -1  -1 24.7741 4.53452   7
 -11  -1   1 9.63471 7.22509   8
 -11  -1   1 24.6397 7.07136   3
 -11   1   1 33.6646 8.87375   8
 -11   1   1 14.5498 6.03716   3
  11   1  -1 21.3121 4.34780   7
   9  -1  -1 117.392 6.67426   7
  -9  -1   1 115.680 12.3297   8
  -9  -1   1 117.788 9.71192   3
  -9  -1   1 116.368 9.47054  15
  -9   1   1 114.815 11.7321   8
   9   1  -1 111.594 7.10600   1
  -9   1   1 112.648 9.19849   3
  -9   1   1 117.027 9.72181  15
   9   1  -1 118.628 6.74626   7
   7  -1  -1 293.096 9.17431   1
   7  -1  -1 290.106 9.54883  11
  -7  -1   1 303.761 13.9322   8
   7  -1  -1 299.220 8.91967   7
  -7  -1   1 265.475 12.0602  15
  -7   1   1 289.825 13.8251   8
   7   1  -1 296.126 10.2458   1
  -7   1   1 290.163 12.6706  15
   7   1  -1 287.591 9.00339   7
  -5  -1   1 459.501 14.4135   8
   5  -1  -1 469.572 10.9969  11
  -5  -1   1 478.973 14.1622  15
  -5  -1   1 485.539 10.3226  16
  -5  -1   1 461.643 13.7701  13
  -5  -1   1 458.808 10.5360   2
   5  -1  -1 464.213 10.9607   1
   5  -1  -1 461.744 9.86388   4
   5  -1  -1 456.602 14.0449  13
  -5   1   1 473.928 14.7973   8
   5   1  -1 473.082 10.6428   7
  -5   1   1 480.519 14.3641  15
  -5   1   1 474.516 10.2489  16
   5   1  -1 470.969 11.9846   1
  -5   1   1 447.349 10.2369   2
   5   1  -1 461.718 14.1132  13
   3  -1  -1 2647.27 42.6842  16
   3  -1  -1 2490.87 42.5536   5
  -3  -1   1 2544.99 43.1874   2
  -3  -1   1 2613.23 45.2444  13
  -3  -1   1 2631.00 42.2390  16
   3  -1  -1 2467.53 41.7455   4
  -3  -1   1 2525.58 45.4506  15
   3  -1  -1 2564.88 42.6310  11
   3  -1  -1 2613.75 45.3961  13
   3  -1  -1 2548.31 42.6517   1
  -3   1   1 2532.21 45.6016   8
   3   1  -1 2548.03 42.3404   9
   3   1  -1 2613.99 45.4623  13
  -3   1   1 2568.88 46.4060  16
  -3   1   1 2504.68 42.8795   2
  -3   1   1 2494.95 45.4924  15
   3   1  -1 2559.37 42.3638   7
   3   1  -1 2536.29 43.8030   1
   1  -1  -1 131.863 3.01298  12
   1  -1  -1 127.464 2.96794  11
  -1  -1   1 137.830 3.15029  13
   1  -1  -1 129.319 3.05652   5
   1   1  -1 130.397 3.36335   1
  -1   1   1 130.065 3.90251  15
   1   1  -1 132.345 3.15535  13
  -1   1   1 136.068 3.53679   2
  -1  -1  -1 7428.95 128.614  16
  -1  -1  -1 7324.30 129.992   3
   1  -1   1 7759.02 133.165  13
   1  -1   1 7321.10 124.872  14
   1  -1   1 7293.54 127.181  10
   1  -1   1 7346.97 124.369  11
  -1  -1  -1 7063.94 124.216   8
   1  -1   1 7252.19 124.615   4
   1   1   1 7259.64 123.250   4
   1   1   1 7339.42 124.959   6
  -1   1  -1 7265.84 122.066   3
   1   1   1 7175.43 122.565   7
  -1   1  -1 7285.92 127.350  15
   1   1   1 7083.10 127.166  10
   1   1   1 7249.71 122.969  14
  -1   1  -1 7401.80 131.619  13
  -1   1  -1 7179.91 129.154   8
  -1   1  -1 7508.99 128.712  16
  -3  -1  -1 112.310 4.67056  15
  -3  -1  -1 126.583 5.82545  13
   3  -1   1 124.822 4.29782  11
  -3  -1  -1 131.342 4.70676  16
  -3  -1  -1 125.437 5.78954   8
   3  -1   1 123.206 4.80215  10
   3  -1   1 118.504 5.45947  13
   3  -1   1 123.261 3.36671  14
   3  -1   1 116.986 4.08719   4
  -3   1  -1 120.166 4.38089  16
  -3   1  -1 130.236 6.19596   8
  -3   1  -1 115.103 4.91215  15
   3   1   1 118.252 4.52670   1
   3   1   1 118.211 4.69353  10
  -3   1  -1 120.170 5.27571  13
  -3   1  -1 122.088 5.51625   3
   3   1   1 125.825 5.86216  13
   3   1   1 115.607 3.81948   7
   3   1   1 117.887 4.08750   4
   5  -1   1 2038.81 37.4550  11
   5  -1   1 2011.54 38.9178  10
  -5  -1  -1 2030.67 41.8148   8
  -5  -1  -1 2032.59 41.6552   3
  -5  -1  -1 1973.43 38.4951  15
  -5  -1  -1 1943.25 41.5538  13
   5  -1   1 2006.36 36.0569   7
   5  -1   1 1996.71 36.7133   4
  -5  -1  -1 2032.42 37.5170  16
  -5   1  -1 2013.19 37.2973  16
   5   1   1 2057.72 36.5107   7
  -5   1  -1 1975.55 39.0013  15
  -5   1  -1 2080.08 42.4443   8
  -5   1  -1 2120.48 41.6293   3
   5   1   1 1998.86 38.7166  10
  -7  -1  -1 34.9024 3.75095  16
   7  -1   1 40.0764 3.92419   4
   7  -1   1 41.4176 3.94524   7
  -7  -1  -1 49.6550 7.00148   3
  -7  -1  -1 51.1795 7.25976   8
   7   1   1 38.3465 4.72940  10
  -7   1  -1 52.6275 7.03603   3
  -7   1  -1 37.6283 3.73991  16
   7   1   1 39.2182 3.95780   7
  -7   1  -1 50.6618 7.57933   8
  -7   1  -1 39.2846 5.22497  15
  -9  -1  -1 406.995 19.8663   8
   9  -1   1 410.400 13.4796   7
  -9  -1  -1 417.057 19.5853   3
  -9   1  -1 418.589 18.9396   3
  -9   1  -1 394.810 19.6096   8
   9   1   1 385.290 13.2724   7
  10  -2  -1 210.546 9.48452   7
 -10  -2   1 193.390 14.9477   8
 -10  -2   1 174.083 13.8028   3
  10   2  -1 194.705 9.13859   7
 -10   2   1 213.976 15.6756   8
 -10   2   1 188.429 12.9639   3
 -10   2   1 215.763 12.9077  15
   8  -2  -1 547.343 15.5484  11
  -8  -2   1 570.000 21.3284   8
  -8  -2   1 550.704 18.7534  15
   8  -2  -1 559.574 14.6674   7
  -8   2   1 569.942 21.2372   8
   8   2  -1 590.482 15.2423   7
  -8   2   1 559.933 19.3469   3
  -8   2   1 530.193 18.8459  15
   8   2  -1 557.031 16.5759   1
  -6  -2   1 631.991 18.1481  15
   6  -2  -1 643.466 14.9976  11
  -6  -2   1 653.961 14.0478  16
   6  -2  -1 603.437 13.3024   4
  -6  -2   1 651.343 19.4873   8
   6  -2  -1 611.765 13.7111   1
   6   2  -1 643.953 16.2717   1
  -6   2   1 647.487 13.9992  16
  -6   2   1 650.167 19.6573   8
  -6   2   1 553.157 13.2777   2
   6   2  -1 656.575 14.4844   7
  -6   2   1 640.601 18.7157  15
   4  -2  -1 2217.05 37.6714   1
   4  -2  -1 2217.79 38.6395  11
  -4  -2   1 2192.45 39.0235   2
  -4  -2   1 2274.03 38.4102  16
   4  -2  -1 2180.97 37.6399   4
  -4  -2   1 2241.02 42.0293  13
   4  -2  -1 2224.18 38.3818   5
   4  -2  -1 2259.54 42.2799  13
   4   2  -1 2248.77 40.2704   1
  -4   2   1 2197.19 42.3555   8
  -4   2   1 2272.21 42.5638  15
   4   2  -1 2194.13 42.1697  13
  -4   2   1 2213.79 38.5781   2
   4   2  -1 2209.21 38.1967   7
   4   2  -1 2274.52 38.5081   9
  -2  -2   1 5617.12 103.990  13
   2  -2  -1 5116.25 90.1418  12
   2  -2  -1 5257.96 91.7252   4
   2  -2  -1 5274.46 90.7269  11
   2  -2  -1 5204.62 91.1776   5
   2   2  -1 5442.23 88.5373   7
  -2   2   1 5309.84 92.0762   8
   2   2  -1 5439.76 96.0212   1
   2   2  -1 5480.93 100.715  13
   2   2  -1 5240.60 89.6177   6
  -2   2   1 5404.27 94.8997   2
  -2   2   1 5419.87 94.2099  15
   2   2  -1 5378.56 92.8409   9
   0  -2  -1 6293.84 104.966   5
   0  -2   1 6302.72 108.904   4
   0  -2   1 6175.95 104.620  11
   0  -2  -1 6207.16 107.999  12
   0   2  -1 6107.50 104.768   3
   0   2   1 6363.56 108.691   2
   0   2   1 6176.61 107.604  15
   0   2   1 6303.07 107.147   9
   0   2   1 6106.25 104.728   6
   0   2  -1 6381.04 110.357   8
   0   2   1 6206.28 105.711   7
  -2  -2  -1 7140.12 137.170  13
   2  -2   1 7016.31 122.427  14
   2  -2   1 7119.16 122.447   5
  -2  -2  -1 7196.31 131.127  16
   2  -2   1 7274.76 125.805  10
   2  -2   1 7115.94 127.484  13
   2  -2   1 7103.70 125.183   4
  -2  -2  -1 7141.63 120.965   8
   2  -2   1 7021.23 124.257  11
   2   2   1 7321.09 124.944   6
  -2   2  -1 7045.66 130.289   3
   2   2   1 6977.13 127.850   1
   2   2   1 7170.45 122.974   7
   2   2   1 7252.07 125.605   9
   2   2   1 7175.77 127.891  10
  -2   2  -1 7065.53 125.801  15
  -2   2  -1 7064.43 124.371   8
  -2   2  -1 7090.19 130.398  16
   4  -2   1 2351.29 41.5451  11
   4  -2   1 2355.44 42.7849  10
   4  -2   1 2315.12 41.1600   4
  -4  -2  -1 2391.15 44.9861   8
   4  -2   1 2373.39 45.0944  13
  -4  -2  -1 2324.28 45.8456  13
   4  -2   1 2199.12 38.9869  14
  -4  -2  -1 2267.96 42.0505  15
  -4  -2  -1 2347.64 42.1272  16
   4   2   1 2308.34 40.7911   7
  -4   2  -1 2388.34 45.9383   8
   4   2   1 2376.58 42.5978   1
  -4   2  -1 2362.93 41.8945  16
  -4   2  -1 2371.74 43.8979  15
  -4   2  -1 2350.69 44.3541   3
   4   2   1 2337.41 42.4084  10
   6  -2   1 1387.44 28.3902  11
   6  -2   1 1339.73 27.3342   4
  -6  -2  -1 1392.27 32.9745   3
   6  -2   1 1374.09 26.6233   7
  -6  -2  -1 1345.14 28.0515  16
  -6  -2  -1 1401.23 33.0396   8
  -6   2  -1 1347.45 33.3778   8
  -6   2  -1 1370.36 32.1253   3
   6   2   1 1368.76 29.3005  10
  -6   2  -1 1337.44 30.4055  15
  -6   2  -1 1334.85 27.8747  16
   6   2   1 1377.21 27.2730   7
  -8  -2  -1 826.777 26.9612   8
   8  -2   1 826.442 20.1495   7
  -8  -2  -1 837.494 27.1644   3
  -8   2  -1 855.090 26.1118   3
  -8   2  -1 866.750 28.0611   8
   8   2   1 823.037 20.5511   7
  10  -2   1 284.344 11.6347   7
 -10  -2  -1 287.284 17.5392   8
 -10  -2  -1 282.149 16.3191   3
  10   2   1 287.596 11.8944   7
 -10   2  -1 304.587 18.3631   8
 -10   2  -1 289.590 16.6648   3
 -11  -3   1 12.2226 7.33924   8
 -11  -3   1 19.5288 5.86634   3
  11  -3  -1 19.2341 3.98223   7
 -11   3   1 19.6601 6.10955   3
 -11   3   1 21.3772 7.94776   8
  11   3  -1 12.1982 3.16785   7
   9  -3  -1 924.503 22.4427   7
  -9  -3   1 1026.86 31.7188   8
   9  -3  -1 963.814 24.0689  11
  -9   3   1 932.537 28.3555  15
   9   3  -1 956.572 25.3214   1
   9   3  -1 973.019 23.2262   7
  -9   3   1 978.033 28.5301   3
  -9   3   1 947.568 30.8673   8
  -7  -3   1 70.0369 8.02372   8
  -7  -3   1 67.3605 7.07688  15
   7  -3  -1 55.6053 4.42948  11
  -7   3   1 54.9242 6.04419   3
   7   3  -1 62.2451 4.16905   7
   7   3  -1 56.1844 4.94855   1
  -7   3   1 59.1678 6.92818  15
  -7   3   1 64.2651 8.01686   8
  -5  -3   1 1665.55 35.0710  13
   5  -3  -1 1663.89 29.9013   4
   5  -3  -1 1685.67 31.0506  11
  -5  -3   1 1658.54 34.7096  15
  -5  -3   1 1674.40 30.7208  16
   5  -3  -1 1642.01 30.2895   5
   5  -3  -1 1652.94 35.0203  13
  -5  -3   1 1598.83 31.0608   2
  -5   3   1 1642.33 30.5132   2
  -5   3   1 1621.97 35.1797   8
   5   3  -1 1666.51 30.7388   9
   5   3  -1 1675.28 30.4883   7
   5   3  -1 1703.37 33.0581   1
  -5   3   1 1703.32 35.5659  15
   3  -3  -1 9.17484 1.37083   5
  -3  -3   1 6.64109 1.61720  13
   3  -3  -1 6.04601 1.34194  11
   3  -3  -1 9.28757 1.31883   4
   3   3  -1 7.89774 1.11063   6
   3   3  -1 5.34268 1.15716   9
   3   3  -1 6.05677 1.41599   1
  -3   3   1 9.65092 2.29763   8
   3   3  -1 7.12851 0.87633  10
  -3   3   1 5.63610 1.33535   2
  -3   3   1 7.93844 2.32128  15
  -3   3   1 6.18143 0.72662   9
   3   3  -1 8.53323 1.20671   7
   1  -3  -1 889.906 16.5681  11
   1  -3  -1 879.507 15.5136  12
   1  -3  -1 903.007 16.1883   5
   1   3  -1 878.447 15.5191   6
   1   3  -1 905.228 15.5580   7
   1   3  -1 904.081 16.5380   9
   1   3  -1 891.956 16.6224   1
  -1   3   1 902.067 16.1971   6
  -1   3   1 896.593 15.8961   9
  -1   3   1 884.285 17.0260   2
  -1   3   1 881.950 16.2129   8
  -1   3   1 873.328 17.6307  15
   1  -3   1 750.341 13.1650   5
   1  -3   1 745.707 14.6151   4
   1  -3   1 753.491 14.1736  11
  -1   3  -1 751.893 14.3426   3
   1   3   1 760.582 14.3378  10
   1   3   1 743.364 13.9018   7
   1   3   1 752.659 14.6577   1
   1   3   1 743.782 14.5715   9
  -1   3  -1 745.492 15.7773  15
  -1   3  -1 749.874 15.6801   8
   1   3   1 746.631 14.2700   6
   3  -3   1 1273.97 24.1068  11
  -3  -3  -1 1307.03 27.9452  13
   3  -3   1 1265.11 24.2410   4
   3  -3   1 1315.80 26.4786  13
   3  -3   1 1270.70 23.0761   5
  -3  -3  -1 1268.81 25.9693   8
  -3  -3  -1 1328.21 25.4705  16
   3  -3   1 1234.39 23.2865  14
  -3   3  -1 1299.62 26.5147  15
   3   3   1 1288.29 24.4046   9
   3   3   1 1274.60 24.0099   6
  -3   3  -1 1323.18 27.7166   8
   3   3   1 1297.25 24.7144  10
   3   3   1 1301.35 25.3115   1
  -3   3  -1 1306.40 24.9815  16
   3   3   1 1321.68 23.8244   7
  -3   3  -1 1275.11 25.5682   3
  -5  -3  -1 232.267 10.3068   8
   5  -3   1 236.627 8.16656  11
  -5  -3  -1 238.937 8.47707  16
  -5  -3  -1 236.422 8.73582  15
   5  -3   1 244.525 7.95487   4
  -5  -3  -1 240.207 10.6108   3
  -5   3  -1 247.769 11.0326   8
   5   3   1 228.364 7.50140   7
   5   3   1 239.503 8.91273   1
  -5   3  -1 249.209 9.98485  15
  -5   3  -1 233.333 8.20145  16
  -5   3  -1 230.520 9.66700   3
   5   3   1 237.496 8.46491  10
  -7  -3  -1 642.878 17.3711  16
   7  -3   1 652.301 17.7599  11
  -7  -3  -1 693.411 22.6443   3
   7  -3   1 666.734 16.1506   7
   7  -3   1 654.894 16.7760   4
  -7  -3  -1 665.446 22.2149   8
  -7   3  -1 689.697 21.2700   3
  -7   3  -1 690.500 23.1251   8
  -7   3  -1 670.739 17.6049  16
   7   3   1 660.381 16.8148   7
   7   3   1 691.297 18.6174  10
  -7   3  -1 668.575 20.2678  15
   9  -3   1 2.51188 2.13005   7
  -9  -3  -1 3.56603 4.75942   3
  -9  -3  -1 -1.0359 4.86733   8
  -9   3  -1 -0.2186 3.80422   3
   9   3   1 6.27693 2.53661   7
  -9   3  -1 3.34703 5.29887   8
  10  -4  -1 255.325 10.6697   7
 -10  -4   1 275.412 17.3079   8
  10  -4  -1 251.116 11.3188  11
 -10  -4   1 261.749 16.4015   3
 -10   4   1 273.748 15.0160  15
 -10   4   1 242.327 13.8419   3
 -10   4   1 286.787 17.4424   8
  10   4  -1 277.668 11.3024   7
   8  -4  -1 748.736 19.5359  11
  -8  -4   1 739.531 25.4782   8
  -8   4   1 733.184 23.6338  15
  -8   4   1 697.736 21.7982   3
   8   4  -1 766.992 21.2534   1
   8   4  -1 738.751 18.4396   7
  -8   4   1 725.772 24.7908   8
  -6  -4   1 305.048 12.4451  15
   6  -4  -1 292.212 8.73294   4
   6  -4  -1 323.280 10.0089  11
   6  -4  -1 310.185 9.17082   5
  -6  -4   1 318.411 9.61437  16
  -6   4   1 303.599 11.0649   3
   6   4  -1 319.882 9.62993   9
  -6   4   1 317.643 13.4532   8
   6   4  -1 323.445 11.2235   1
  -6   4   1 317.980 13.1642  15
   6   4  -1 317.737 9.29023   7
  -4  -4   1 892.456 21.1024  13
   4  -4  -1 896.570 17.6012   5
   4  -4  -1 881.936 18.2831  11
  -4  -4   1 872.926 18.5389  16
   4  -4  -1 871.582 17.7368   4
   4   4  -1 915.095 17.7282   7
  -4   4   1 882.941 16.1011   9
   4   4  -1 910.329 19.9306   1
  -4   4   1 900.263 21.2779   8
   4   4  -1 893.385 17.2160   6
  -4   4   1 871.348 18.5253   3
  -4   4   1 883.561 21.7939  15
   4   4  -1 896.732 18.5389   9
  -4   4   1 881.232 18.4849   2
   2  -4  -1 587.131 11.9105   5
   2  -4  -1 582.161 12.5266  11
  -2  -4   1 608.827 13.6899  13
   2  -4  -1 577.768 10.8605  12
  -2   4   1 598.756 11.4864   9
   2   4  -1 589.004 12.6760   9
  -2   4   1 585.249 13.0543   2
   2   4  -1 584.671 11.5471   7
  -2   4   1 589.797 13.2304   8
  -2   4   1 592.276 14.5597  15
   2   4  -1 590.250 11.5853   6
   2   4  -1 585.175 13.0493   1
   0  -4  -1 1.44811 0.70313  12
   0  -4   1 1.06250 0.53472   5
   0  -4   1 0.30798 0.60906   4
   0  -4  -1 0.97303 0.82894   5
   0  -4   1 1.48011 0.84585  11
   0   4  -1 1.41277 0.81991   9
   0   4  -1 1.35555 0.53477   3
   0   4   1 2.55628 1.04343  15
   0   4   1 0.03630 0.42976   9
   0   4  -1 1.19738 1.05359   8
   0   4  -1 1.24984 0.55933   1
   0   4   1 1.32409 0.58678   6
   0   4   1 1.83948 0.68713   1
   0   4  -1 1.70822 0.66569   6
   2  -4   1 348.808 8.60226  11
   2  -4   1 347.395 7.51985   5
   2  -4   1 334.463 8.91713   4
   2   4   1 353.970 9.29351   1
   2   4   1 352.067 8.99163   9
   2   4   1 348.318 8.62475   6
  -2   4  -1 347.477 10.3743  15
  -2   4  -1 342.719 10.3928   8
   2   4   1 356.685 8.30493   7
   2   4   1 356.188 8.58098  10
  -2   4  -1 359.829 8.85340   3
  -4  -4  -1 -0.0437 1.66970  15
   4  -4   1 1.73324 1.14292  14
  -4  -4  -1 0.91116 1.05949  16
   4  -4   1 -0.2116 0.84455   5
   4  -4   1 1.99337 1.56971  11
  -4  -4  -1 2.35246 2.32578   8
   4  -4   1 0.02474 1.05067  13
   4  -4   1 2.44174 1.67742   4
  -4  -4  -1 -0.6179 0.83385  13
   4   4   1 2.07780 1.53843   1
   4   4   1 2.89148 1.32606   7
  -4   4  -1 0.78045 1.90000  15
  -4   4  -1 -1.4569 2.48194   8
  -4   4  -1 2.48682 1.86317   3
   4   4   1 1.79042 1.33892   6
   4   4   1 0.77640 0.93078  10
  -6  -4  -1 39.1992 4.08645  16
   6  -4   1 35.4478 3.90965  11
  -6  -4  -1 39.9789 5.32072   3
  -6  -4  -1 43.7008 5.90122   8
   6  -4   1 41.9102 4.08533   4
  -6   4  -1 37.7005 6.17244   8
   6   4   1 40.0122 3.75170  10
  -6   4  -1 41.0738 5.24181  15
   6   4   1 41.5313 3.37592   7
   6   4   1 40.8074 4.84652   1
  -6   4  -1 48.4294 6.07971   3
   8  -4   1 95.8181 6.55998  11
   8  -4   1 94.1823 5.89454   7
  -8  -4  -1 81.1608 9.15440   8
  -8  -4  -1 97.2070 10.4560   3
   8   4   1 92.1303 6.15832   7
  -8   4  -1 91.2825 8.51734   3
  -8   4  -1 96.7014 11.1076   8
  -8   4  -1 96.0628 8.09985  15
  10  -4   1 9.12932 3.24356   7
 -10  -4  -1 6.51241 5.31554   3
 -10   4  -1 3.59141 4.24842   3
 -10   4  -1 10.0647 6.52901   8
  10   4   1 9.80763 3.39851   7
  -9  -5   1 0.29224 4.69240   8
   9  -5  -1 1.04567 2.44344  11
  -9  -5   1 -3.8211 3.57883   3
   9   5  -1 -0.1478 2.73865   1
   9   5  -1 1.88692 2.27132   7
  -9   5   1 -6.7775 4.58439   8
  -9   5   1 0.87536 3.89268  15
   7  -5  -1 343.133 11.5683  11
  -7  -5   1 345.807 14.7489  15
  -7  -5   1 373.289 16.6203   8
   7  -5  -1 348.778 10.8032   5
   7   5  -1 357.739 10.9865   7
  -7   5   1 348.630 15.0674  15
   7   5  -1 349.839 13.1749   1
  -7   5   1 352.757 15.1403   8
  -7   5   1 329.780 12.5975   3
   5  -5  -1 259.929 8.51899  11
  -5  -5   1 242.404 10.5258  13
   5  -5  -1 252.383 7.74329   5
   5  -5  -1 244.613 7.92283   4
  -5  -5   1 248.229 8.62137  16
  -5   5   1 260.862 11.2267   8
   5   5  -1 250.858 7.46173   6
  -5   5   1 249.801 11.1620  15
   5   5  -1 261.355 8.67151   9
   5   5  -1 253.433 9.60221   1
  -5   5   1 225.041 8.05060   3
   5   5  -1 251.103 7.68177   7
   3  -5  -1 2150.87 39.3542   4
  -3  -5   1 2245.48 42.0746  13
   3  -5  -1 2201.78 38.4895   5
   3  -5  -1 2216.91 39.6594  11
  -3   5   1 2238.76 37.8888   9
   3   5  -1 2249.56 40.1030   9
   3   5  -1 2196.88 38.2708   6
  -3   5   1 2223.14 43.1287  15
  -3   5   1 2202.96 41.4923   8
  -3   5   1 2114.10 37.3080   3
   3   5  -1 2239.83 38.4601   7
   3   5  -1 2246.17 40.8502   1
   1  -5  -1 638.636 12.0215  12
  -1  -5   1 654.943 13.6101  11
  -1  -5   1 661.706 12.5760   5
   1  -5  -1 652.019 13.3191   5
   1  -5  -1 662.936 14.1667  11
   1   5  -1 654.695 13.7420   1
  -1   5   1 673.155 13.6642   6
   1   5  -1 641.058 13.9528   9
  -1   5   1 651.285 13.3320   8
  -1   5   1 646.430 15.4252  15
  -1   5   1 649.590 13.4632   9
   1   5  -1 631.997 12.8709   6
   1  -5   1 1726.12 31.3950  11
  -1  -5  -1 1732.18 31.1331  12
  -1  -5  -1 1721.75 30.7963   3
  -1  -5  -1 1765.01 31.5646   5
   1  -5   1 1798.16 32.5511   4
   1  -5   1 1739.20 29.8198   5
   1   5   1 1746.18 31.6133   1
  -1   5  -1 1778.00 34.2009  15
  -1   5  -1 1707.65 29.3626   1
   1   5   1 1768.72 30.7847   7
  -1   5  -1 1680.91 30.0413   3
   1   5   1 1777.11 31.5836   6
   1   5   1 1784.77 32.1313   9
  -1   5  -1 1761.11 31.3007   9
  -1   5  -1 1762.05 33.1755   8
   1   5   1 1762.49 30.7949  10
   3  -5   1 25.1267 2.00304   5
   3  -5   1 25.6499 2.87976  13
  -3  -5  -1 29.4557 3.59793  13
   3  -5   1 29.5384 3.06675  11
  -3  -5  -1 26.8447 3.39091  16
   3  -5   1 29.9058 3.24143   4
  -3   5  -1 30.2352 3.94848  15
  -3   5  -1 31.7398 4.32467   8
   3   5   1 27.7975 2.83143   6
   3   5   1 26.9449 2.21627   7
   3   5   1 30.2756 2.48999  10
   3   5   1 21.9356 2.94408   1
  -3   5  -1 31.8900 2.98836   3
   3   5   1 26.8116 3.02143   9
   5  -5   1 295.610 9.76037   4
  -5  -5  -1 307.313 10.7763  16
   5  -5   1 290.468 9.68674  11
  -5  -5  -1 304.899 12.1335   8
  -5  -5  -1 321.342 12.6271   3
  -5   5  -1 292.514 12.8404   8
   5   5   1 280.510 9.06681   6
  -5   5  -1 293.078 10.6665   3
   5   5   1 299.756 10.9110   1
   5   5   1 295.054 9.11526   7
  -5   5  -1 292.115 11.8222  15
   5   5   1 278.412 9.31093  10
  -7  -5  -1 2.29276 3.73743   3
   7  -5   1 1.95134 2.19869   4
   7  -5   1 0.21708 2.19301  11
  -7  -5  -1 1.81178 3.94365   8
  -7   5  -1 3.58731 3.00457   3
  -7   5  -1 4.74397 3.29309  15
  -7   5  -1 2.13006 4.08283   8
   7   5   1 4.69065 2.01072  10
   7   5   1 2.54861 1.57575   7
   9  -5   1 116.314 8.19872  11
   9  -5   1 124.319 7.17404   7
  -9  -5  -1 129.728 11.7257   3
   9   5   1 110.836 7.23378   7
  -9   5  -1 116.002 12.4456   8
  10  -6  -1 285.682 12.8869  11
  10  -6  -1 288.562 11.4569   7
 -10  -6   1 310.285 17.7933   3
 -10   6   1 299.908 17.3127   8
  10   6  -1 299.968 11.7750   7
 -10   6   1 301.629 16.0201  15
  -8  -6   1 137.329 11.4878   8
   8  -6  -1 148.280 8.37658  11
  -8   6   1 155.962 11.7100   8
  -8   6   1 143.456 10.2725  15
   8   6  -1 137.761 7.27458   7
   8   6  -1 148.355 9.30520   1
  -6  -6   1 770.503 19.4370  16
   6  -6  -1 785.024 19.0722  11
   6  -6  -1 787.988 17.7769   5
   6  -6  -1 779.490 18.1343   4
   6   6  -1 754.172 17.6205   7
   6   6  -1 800.730 21.1708   1
  -6   6   1 762.008 23.2007  15
  -6   6   1 774.930 22.9091   8
   6   6  -1 768.064 19.1113   9
   4  -6  -1 232.683 7.89404  11
   4  -6  -1 233.288 7.84799   4
   4  -6  -1 221.719 6.86770   5
  -4  -6   1 204.635 9.08907  13
  -4   6   1 227.163 10.3200  15
  -4   6   1 201.478 9.25847   8
   4   6  -1 215.840 8.06490   9
   4   6  -1 215.592 6.90235   7
  -4   6   1 216.412 6.22154   9
   4   6  -1 214.015 8.45609   1
   4   6  -1 222.057 6.85693   6
  -2  -6   1 141.079 4.81925   5
   2  -6  -1 146.262 5.22729   5
   2  -6  -1 138.438 5.65454  11
  -2   6   1 151.970 5.22642   9
  -2   6   1 134.535 5.16696   6
   2   6  -1 144.098 4.94857   6
   2   6  -1 146.487 5.82783   1
  -2   6   1 135.666 5.70432   8
   2   6  -1 141.942 5.85094   9
   2   6  -1 141.389 4.74225   7
   0  -6   1 377.085 10.4447   4
   0  -6  -1 345.528 8.10444  12
   0  -6   1 370.757 9.57508  11
   0  -6  -1 376.593 9.96628  11
   0  -6   1 351.699 8.01502   5
   0  -6  -1 360.463 9.16972   5
   0   6  -1 369.349 8.88744   6
   0   6  -1 350.475 8.39604   1
   0   6   1 372.972 9.53151   6
   0   6   1 374.341 9.70238   9
   0   6  -1 365.183 9.99896   8
   0   6  -1 380.018 9.85803   9
   2  -6   1 71.9109 4.57778   4
  -2  -6  -1 69.5923 4.06059   3
  -2  -6  -1 73.4546 4.12384  12
   2  -6   1 78.2795 3.24719   5
   2  -6   1 69.9779 4.22134  11
   2   6   1 72.7812 3.39059  10
   2   6   1 74.5586 4.06400   6
  -2   6  -1 71.5114 3.17317   3
  -2   6  -1 65.4097 4.91677   8
   2   6   1 68.2626 4.23785   9
   2   6   1 74.9391 4.26859   1
  -2   6  -1 77.7962 3.71950   9
  -2   6  -1 67.7295 5.20340  15
   2   6   1 73.3359 3.54616   7
   4  -6   1 103.082 5.81513   4
   4  -6   1 101.894 5.07039  14
   4  -6   1 92.3241 4.19160   5
  -4  -6  -1 93.1619 6.49233   3
   4  -6   1 98.5762 5.16513  11
  -4  -6  -1 99.3518 5.94937  16
  -4   6  -1 86.9956 4.91223   3
  -4   6  -1 105.773 7.46089   8
  -4   6  -1 98.1312 4.41912   9
   4   6   1 92.6519 5.82400   1
   4   6   1 95.5070 5.06409   6
   4   6   1 94.0835 4.66148   7
   4   6   1 98.9481 5.46696   9
  -4   6  -1 91.0935 6.77711  15
  -6  -6  -1 20.0460 4.66910   3
  -6  -6  -1 10.4284 2.91764  16
   6  -6   1 18.5009 3.39340   4
   6  -6   1 11.6142 2.55816  11
  -6   6  -1 21.2165 4.67244  15
   6   6   1 20.5388 3.21729   7
  -6   6  -1 17.3815 5.02732   8
   8  -6   1 1.70858 2.01717  11
  -8  -6  -1 -0.8010 3.97801   3
  -8   6  -1 -2.9323 2.60839   8
  -8   6  -1 7.81876 3.69889  15
   8   6   1 -0.1721 1.56211   7
   9  -7  -1 -2.9363 1.47687  11
  -9  -7   1 2.93666 4.27401   3
   9   7  -1 0.02800 2.19011   7
  -9   7   1 3.41723 3.73661  15
  -9   7   1 -0.6289 4.25503   8
   9   7  -1 -2.2850 3.26465   1
   7  -7  -1 575.995 15.2623   5
  -7  -7   1 564.144 20.9288   8
   7  -7  -1 568.792 16.7650  11
  -7   7   1 564.413 20.5004   8
   7   7  -1 584.113 15.6268   7
   7   7  -1 565.785 16.7417   9
   7   7  -1 573.816 18.5118   1
  -7   7   1 570.395 20.8916  15
   5  -7  -1 40.7652 3.77297   5
  -5  -7   1 37.4521 4.14584  16
   5  -7  -1 37.0350 4.18996  11
   5  -7  -1 41.4341 4.30118   4
  -5   7   1 47.1435 6.08834  15
   5   7  -1 39.1584 3.23832   6
   5   7  -1 36.1979 4.54601   1
   5   7  -1 43.9643 3.28144   7
   5   7  -1 47.8820 4.70340   9
  -5   7   1 41.5280 5.37103   8
   3  -7  -1 400.729 11.3182  11
   3  -7  -1 383.886 11.2211   4
   3  -7  -1 386.460 9.96540   5
  -3  -7   1 359.743 12.3743  13
  -3   7   1 375.717 10.6901   6
   3   7  -1 398.655 11.7853   1
   3   7  -1 391.866 9.82269   7
   3   7  -1 380.172 11.5739   9
  -3   7   1 384.117 9.96458   9
  -3   7   1 384.034 13.6652  15
   3   7  -1 368.184 9.89968   6
  -3   7   1 372.329 11.6893   8
   1  -7  -1 8.31892 2.10144  11
  -1  -7   1 6.91137 1.54927   5
  -1  -7   1 6.96454 1.80064  11
   1  -7  -1 4.11008 1.65176   5
   1   7  -1 4.98829 1.70343   9
  -1   7   1 12.9771 2.11181   9
   1   7  -1 8.82787 1.58892   6
  -1   7   1 4.62234 2.10561  15
  -1   7   1 5.34607 1.43695   6
   1   7  -1 5.09003 1.34017   1
  -1  -7  -1 620.959 13.7285  12
  -1  -7  -1 619.972 14.5117   5
   1  -7   1 628.259 12.9339   5
   1  -7   1 669.905 16.2766   4
   1  -7   1 648.985 15.0666  11
  -1   7  -1 654.329 16.2839   8
   1   7   1 623.663 15.4589   9
  -1   7  -1 649.891 15.0490   9
  -1   7  -1 646.242 14.4366   6
   1   7   1 638.590 14.9611   6
   3  -7   1 175.211 7.09985  11
   3  -7   1 163.895 5.57982   5
   3  -7   1 180.870 7.88313   4
  -3  -7  -1 178.133 7.36100  12
  -3   7  -1 171.132 6.48401   9
   3   7   1 172.569 6.46797   7
   3   7   1 182.067 7.01056   6
   3   7   1 185.832 7.79401   1
   3   7   1 176.830 7.64783   9
  -3   7  -1 171.858 9.03133  15
  -3   7  -1 182.498 8.97027   8
  -5  -7  -1 772.604 21.8778   3
   5  -7   1 785.378 19.8061   4
   5  -7   1 769.510 17.2072   5
   5  -7   1 796.490 19.7363  11
  -5  -7  -1 743.017 20.9429  16
  -5   7  -1 804.884 23.4367  15
  -5   7  -1 808.475 23.5002   8
   5   7   1 771.536 18.4560   7
   5   7   1 781.569 20.0579   9
   5   7   1 771.295 18.6819   6
  -7  -7  -1 107.919 9.46583   3
   7  -7   1 101.716 7.04888   4
   7  -7   1 103.909 6.95979  11
  -7   7  -1 122.951 9.58525  15
   7   7   1 112.402 6.82488   7
  -7   7  -1 118.819 10.1735   8
   9  -7   1 209.219 10.7873  11
  -9  -7  -1 174.878 11.6776  12
  -9  -7  -1 181.685 13.2856   3
   9  -7   1 175.279 8.75665   7
  -9   7  -1 181.791 11.7258  15
  -9   7  -1 202.378 13.8270   8
   9   7   1 171.823 8.86678   7
   8  -8  -1 40.2158 5.08927  11
  -8   8   1 39.8370 6.92492  15
   8   8  -1 41.7972 4.63906   7
   8   8  -1 35.9865 5.98563   1
  -8   8   1 49.0684 7.74912   8
   6  -8  -1 729.232 17.5233   5
   6  -8  -1 702.932 18.9693  11
   6  -8  -1 700.517 18.4698   4
  -6  -8   1 702.661 20.3896  16
   6   8  -1 687.742 17.1039   6
  -6   8   1 688.923 21.8263   8
  -6   8   1 714.708 23.5181  15
   6   8  -1 725.895 20.6919   1
   6   8  -1 712.754 17.6803   7
   6   8  -1 709.727 19.5357   9
   4  -8  -1 369.246 10.3908   5
   4  -8  -1 380.600 12.0859  11
   4  -8  -1 349.949 11.6386   4
   4   8  -1 382.431 12.3086   9
   4   8  -1 386.413 12.7842   1
  -4   8   1 374.172 11.5714   6
   4   8  -1 364.926 10.3439   7
   4   8  -1 348.765 10.2765   6
  -4   8   1 369.657 13.0195   8
  -4   8   1 368.339 14.6526  15
  -2  -8   1 761.945 17.8029  11
   2  -8  -1 778.740 18.3789  11
   2  -8  -1 760.071 18.8518   4
   2  -8  -1 740.896 16.4806   5
  -2  -8   1 734.241 16.0151   5
  -2   8   1 779.066 17.8571   6
   2   8  -1 752.995 16.8783   6
  -2   8   1 747.749 17.5008   8
   2   8  -1 769.664 18.8814   9
   2   8  -1 731.813 17.6218   1
  -2   8   1 771.619 17.3906   9
  -2   8   1 765.787 21.0447  15
   0  -8  -1 1946.31 37.5967  11
   0  -8   1 1937.95 38.4734   4
   0  -8  -1 1929.12 35.9609   5
   0  -8   1 1954.19 36.9897  11
   0   8   1 1939.26 36.8920   6
   0   8   1 1947.45 37.3470   9
   0   8  -1 1949.10 37.6196   9
   0   8  -1 1952.88 36.1692   6
   2  -8   1 554.579 14.3507  11
  -2  -8  -1 530.069 13.8458   5
   2  -8   1 558.237 15.4098   4
   2   8   1 537.103 14.1199   6
  -2   8  -1 535.161 13.6695   6
  -2   8  -1 534.589 13.9680   9
  -2   8  -1 513.318 15.4669   8
   2   8   1 542.240 14.9366   9
  -4  -8  -1 1414.03 33.1149  16
  -4  -8  -1 1428.40 30.8339  12
   4  -8   1 1466.77 30.6618  11
   4  -8   1 1430.04 31.2129   4
  -4   8  -1 1460.90 34.1081   8
   4   8   1 1426.22 29.1180   7
  -4   8  -1 1406.36 28.8733   9
   4   8   1 1453.93 31.4538   9
   4   8   1 1455.22 29.9924   6
  -4   8  -1 1444.02 35.1072  15
   6  -8   1 634.898 18.2420   4
  -6  -8  -1 589.395 19.2880  16
   6  -8   1 627.976 18.4195  11
   6   8   1 621.651 17.0208   7
   6   8   1 632.969 17.1057   6
  -6   8  -1 666.537 22.4184  15
  -6   8  -1 656.745 22.2713   8
  -8  -8  -1 206.631 12.2182  12
   8  -8   1 214.766 11.1619  11
  -8   8  -1 227.614 13.2949  15
  -8   8  -1 205.753 13.6024   8
   8   8   1 232.251 10.2092   7
   7  -9  -1 2.91717 3.37332  11
   7  -9  -1 6.88214 2.32837   5
   7   9  -1 3.88208 2.25035   7
   7   9  -1 2.25113 2.56053   1
  -7   9   1 11.2517 4.49554  15
   7   9  -1 2.53254 2.10612   9
  -7   9   1 0.26679 2.91477   8
   5  -9  -1 1021.76 24.4415   4
   5  -9  -1 1003.53 21.9528   5
   5  -9  -1 985.227 24.1831  11
  -5  -9   1 947.282 25.5440  16
  -5   9   1 1017.35 26.3667   8
   5   9  -1 1011.86 22.1715   7
   5   9  -1 1003.48 25.4332   1
  -5   9   1 1004.97 28.9309  15
  -5   9   1 985.512 23.6984   6
   5   9  -1 993.901 24.9131   9
   3  -9  -1 9.07638 2.85853  11
   3  -9  -1 9.41825 2.13100   5
   3  -9  -1 13.0799 3.30125   4
  -3  -9   1 9.87132 2.67688  11
   3   9  -1 12.2714 2.70407   1
  -3   9   1 8.75353 2.04591   9
   3   9  -1 11.9668 2.60182   9
   3   9  -1 11.2263 2.30766   6
  -3   9   1 8.22637 2.53638   6
  -3   9   1 16.6532 4.26211  15
   1  -9  -1 2280.42 42.1178   5
   1  -9  -1 2317.81 44.6178  11
  -1  -9   1 2353.68 45.8590   4
  -1  -9   1 2342.68 43.9420  11
  -1   9   1 2385.18 44.0768   6
  -1   9   1 2304.07 43.7861   9
   1   9  -1 2332.85 45.0801   9
   1   9  -1 2216.34 42.5336   6
  -1  -9  -1 116.853 5.88584   5
  -1  -9  -1 114.395 6.35673  11
   1  -9   1 114.365 6.28313  11
   1  -9   1 130.428 7.48162   4
  -1   9  -1 115.144 5.88646   6
  -1   9  -1 116.489 6.18173   9
   1   9   1 116.697 6.53628   9
   1   9   1 128.538 6.39833   6
   3  -9   1 1196.76 26.4723  11
  -3  -9  -1 1158.81 25.6198   5
   3  -9   1 1163.47 27.3001   4
  -3   9  -1 1182.84 28.6756   8
   3   9   1 1158.74 27.0707   9
  -3   9  -1 1175.31 25.6187   6
  -3   9  -1 1132.20 25.1630   9
  -5  -9  -1 560.029 19.3295  12
   5  -9   1 487.227 15.6436   4
  -5  -9  -1 451.144 16.9913  16
   5  -9   1 491.256 15.5316  11
  -5   9  -1 467.579 17.6850   8
   5   9   1 466.823 15.5531   9
  -5   9  -1 461.201 18.6342  15
   5   9   1 474.291 13.9727   7
   5   9   1 448.939 14.0765   6
   7  -9   1 347.178 13.6860  11
  -7  -9  -1 338.793 14.4820  12
   7  -9   1 349.447 14.4980   4
   7   9   1 359.933 12.5734   7
  -7   9  -1 376.902 17.5459  15
  -7   9  -1 348.647 16.6077   8
   8 -10  -1 12.0756 4.36098  11
  -8  10   1 6.80462 3.81987   6
   8  10  -1 8.32187 2.84202   7
  -8  10   1 25.1428 5.86777  15
   6 -10  -1 135.520 8.69352  11
   6 -10  -1 122.859 8.06155   4
   6  10  -1 115.775 8.19358   9
  -6  10   1 112.064 7.67829   6
   6  10  -1 119.776 8.54804   1
  -6  10   1 113.889 10.1034  15
   4 -10  -1 2.48763 2.64932   4
  -4 -10   1 -0.5563 1.75079  11
   4 -10  -1 0.58278 2.37899   5
   4 -10  -1 1.98865 1.94840  11
   4  10  -1 0.12290 2.26284   9
  -4  10   1 0.22131 2.04693  15
   4  10  -1 1.93183 1.84553   1
  -4  10   1 1.82209 2.39274   6
  -2 -10   1 0.27489 2.36289   4
   2 -10  -1 1.59033 1.88422   4
  -2 -10   1 -0.1407 1.88951  11
   2 -10  -1 -1.7234 1.54639   5
   2 -10  -1 0.56637 1.64880  11
  -2  10   1 1.62938 2.18248   6
  -2  10   1 -1.8384 1.44429   9
   2  10  -1 -0.4034 1.42818   6
   2  10  -1 -3.3876 1.79454   9
   0 -10   1 97.6077 6.62010   4
   0 -10  -1 110.156 5.79706   5
   0 -10   1 102.204 6.44897  11
   0 -10  -1 116.711 6.92421  11
   0  10  -1 112.847 6.08429   6
   0  10   1 114.320 6.75509   9
   0  10   1 106.621 6.47814   6
   0  10  -1 106.941 6.36651   9
   2 -10   1 76.0894 6.09203  11
  -2 -10  -1 76.8634 6.05039  11
   2 -10   1 72.9356 6.61318   4
  -2 -10  -1 71.7719 5.18646   5
  -2  10  -1 68.1669 5.51749   9
   2  10   1 61.4049 5.19003   6
  -2  10  -1 76.5544 5.54735   6
   2  10   1 67.0555 5.78548   9
   4 -10   1 52.5720 5.78612  11
  -4 -10  -1 45.1267 5.91802  16
  -4 -10  -1 45.9548 5.11864   5
   4 -10   1 55.4655 6.39869   4
  -4  10  -1 46.4654 6.11811   8
   4  10   1 45.2118 5.06924   6
   4  10   1 58.3800 6.20580   9
  -4  10  -1 47.1838 5.26745   6
   6 -10   1 5.56633 3.68515   4
   6 -10   1 -5.4766 2.70716  11
  -6 -10  -1 5.08853 2.43179   5
  -6  10  -1 3.15781 3.97602   8
   6  10   1 3.95013 2.60757   6
  -6  10  -1 -0.5212 2.40168   6
   6  10   1 1.33731 2.30162   7
   7 -11  -1 151.175 9.90984  11
  -7  11   1 127.022 9.00659   6
  -7  11   1 126.166 11.1055  15
   5 -11  -1 2.76475 2.46582   4
   5 -11  -1 7.24529 2.79131  11
  -5  11   1 2.20946 2.82688   6
   5  11  -1 -1.9634 1.76349   9
  -3 -11   1 1.70824 1.98302   4
   3 -11  -1 2.94613 2.97254   4
  -3 -11   1 0.13576 2.05858  11
   3 -11  -1 1.14627 2.76904  11
  -3  11   1 3.51285 2.53364   6
   3  11  -1 -1.3547 2.26562   9
   1 -11  -1 24.9227 3.93584  11
   1 -11  -1 22.0329 4.31519   4
  -1 -11   1 29.1506 4.39117   4
  -1 -11   1 14.8148 3.53354  11
   1  11  -1 18.0650 3.18146   6
   1  11  -1 29.5453 4.65786   9
  -1  11   1 23.8529 4.04405   6
  -1  11   1 26.0243 4.05196   9
   1 -11   1 3.63748 3.28622   4
   1 -11   1 5.22168 2.92883  11
  -1 -11  -1 10.3492 3.15363  11
   1  11   1 5.93420 2.75375   6
  -1  11  -1 5.64673 2.37971   6
   1  11   1 5.73370 2.75001   9
  -1  11  -1 4.16975 2.55987   9
   3 -11   1 362.202 14.0646   4
   3 -11   1 359.528 13.2499  11
  -3 -11  -1 352.799 13.5305  11
   3  11   1 349.776 13.6975   9
   3  11   1 348.333 12.5190   6
  -3  11  -1 334.652 12.4990   6
  -5 -11  -1 85.6616 7.19054  11
   5 -11   1 74.9954 7.28334  11
   5 -11   1 80.9499 7.84813   4
   5  11   1 64.1974 5.95689   6
  -5  11  -1 85.4543 7.06873   6
   6 -12  -1 17.1344 4.85783  11
   6  12  -1 10.1239 3.93727   9
  -6  12   1 9.59810 3.95387   6
   4 -12  -1 282.162 12.5266  11
  -4 -12   1 263.431 12.2694   4
   4 -12  -1 287.911 13.1100   4
  -4  12   1 279.047 12.3512   6
   4  12  -1 264.103 12.5444   9
   2 -12  -1 283.012 12.1413  11
  -2 -12   1 260.804 10.8702  11
  -2 -12   1 271.555 12.4078   4
   2 -12  -1 266.021 12.7899   4
   2  12  -1 268.746 12.3015   9
  -2  12   1 274.031 11.6939   6
   0 -12  -1 78.9485 7.98457   4
   0 -12  -1 77.9143 6.30652  11
   0 -12   1 72.9379 5.86104  11
   0 -12   1 72.1850 7.95785   4
   0  12   1 79.4056 7.16195   6
   0  12   1 64.4340 5.67908   9
   0  12  -1 71.7809 5.95957   9
  -2 -12  -1 571.594 18.1707  11
   2 -12   1 585.035 17.6736  11
   2 -12   1 576.621 19.0981   4
   2  12   1 546.646 18.0872   9
  -2  12  -1 540.220 17.2127   9
  -2  12  -1 563.756 17.1029   6
   2  12   1 545.110 16.8739   6
   4 -12   1 80.8981 7.16035  11
   4 -12   1 77.0397 8.19576   4
  -4 -12  -1 67.9526 6.89474  11
   4  12   1 79.6174 7.86826   9
  -4  12  -1 72.0717 6.84819   6
   3 -13  -1 689.031 22.0450   4
   3 -13  -1 732.320 21.4804  11
  -3  13   1 706.592 21.0483   6
   3  13  -1 705.406 21.6606   9
   1 -13  -1 7.41461 3.26948   4
  -1 -13   1 5.78937 3.19449  11
   1 -13  -1 5.58536 3.37895  11
  -1 -13   1 10.0310 4.45036   4
   1  13  -1 9.69860 3.95366   9
  -1  13   1 8.66325 3.46816   6
  -1 -13  -1 362.968 15.6066   4
   1 -13   1 347.068 14.8721   4
  -1 -13  -1 341.339 14.1470  11
   1 -13   1 343.232 13.4843  11
  -1  13  -1 326.315 13.5112   9
   1  13   1 333.211 13.5879   9
   1  13   1 349.073 13.4906   6
   3 -13   1 16.3885 4.41971  11
   3 -13   1 25.3908 4.56819  14
  -3 -13  -1 22.3718 4.50363  11
   3 -13   1 20.6831 5.21965   4
   3  13   1 14.8827 4.47795   9
  10   0  -2 521.292 15.5877   7
 -10   0   2 508.541 21.1442   3
 -10   0   2 490.797 20.2722  15
 -10   0   2 531.469 23.4273   8
   8   0  -2 29.9615 3.36970   7
  -8   0   2 30.2885 5.93699  15
   8   0  -2 28.5604 3.74081   1
  -8   0   2 39.6734 6.67987   8
  -6   0   2 3491.33 65.4914   8
  -6   0   2 3335.55 58.7554   2
   6   0  -2 3497.55 58.3491   7
  -6   0   2 3478.91 56.4567  16
   6   0  -2 3356.87 59.8883   1
   6   0  -2 3366.15 58.5108  11
  -6   0   2 3424.70 64.9022  15
   4   0  -2 1212.21 21.6089  11
   4   0  -2 1212.32 23.0370   1
  -4   0   2 1203.90 23.0721   2
   4   0  -2 1266.04 25.2906  13
  -4   0   2 1235.46 20.1857  16
  -4   0   2 1212.05 26.0422  15
   4   0  -2 1206.70 21.9833   5
  -2   0   2 9658.81 155.978  14
   2   0  -2 9008.04 154.641   5
  -2   0   2 9520.25 163.698   2
   2   0  -2 9117.65 158.645  12
   0   0  -2 2043.44 34.0447   8
   0   0   2 2049.17 34.2370  14
   0   0  -2 2017.87 37.1286  16
   0   0  -2 2024.08 34.0401  12
   0   0  -2 2017.92 34.6687   3
   0   0   2 2066.49 33.8642   4
   0   0   2 2007.77 33.8656   2
   0   0   2 2014.57 34.3916  10
   2   0   2 3821.89 62.9501   4
   2   0   2 3736.36 62.6717  11
  -2   0  -2 3769.88 64.8918   3
  -2   0  -2 3770.70 64.6440   8
  -2   0  -2 3726.37 70.9411  13
   2   0   2 3824.91 64.1031  10
  -2   0  -2 3807.22 67.6591  16
   2   0   2 3725.76 61.6381   7
  -2   0  -2 3761.94 63.9928  15
   2   0   2 3769.68 62.2655  14
   4   0   2 2211.70 38.9445   7
  -4   0  -2 2260.92 43.9804   3
   4   0   2 2227.19 44.4555  13
  -4   0  -2 2214.88 40.8105  16
   4   0   2 2242.41 41.9317  10
   4   0   2 2239.18 40.2142   4
  -4   0  -2 2142.39 39.9686  15
  -4   0  -2 2299.71 44.2876   8
  -4   0  -2 2228.09 44.0780  13
   6   0   2 2023.11 41.5275  10
   6   0   2 2001.28 38.8257   4
  -6   0  -2 2069.84 44.8585   3
   6   0   2 2052.92 38.0953   7
  -6   0  -2 2006.76 39.6939  16
  -6   0  -2 2051.28 45.1438   8
  -8   0  -2 451.964 19.4016   3
  -8   0  -2 457.901 19.8499   8
   8   0   2 464.301 14.0193   7
 -10   0  -2 1177.95 37.1109   3
  10   0   2 1192.04 28.9030   7
 -10   0  -2 1230.09 37.9031   8
  11  -1  -2 222.173 10.3632   7
 -11  -1   2 217.068 16.6317   8
 -11  -1   2 236.145 15.7178   3
 -11   1   2 235.171 17.1590   8
  11   1  -2 246.702 10.7968   7
 -11   1   2 236.562 15.0527   3
  -9  -1   2 -1.3375 4.01133  15
   9  -1  -2 2.31656 1.99659   7
  -9  -1   2 8.07889 5.33384   8
   9   1  -2 2.64344 2.09896   7
   9   1  -2 1.25795 1.96623   1
  -9   1   2 9.21080 4.79442  15
  -9   1   2 0.20859 4.91759   8
   7  -1  -2 384.690 10.2520   7
   7  -1  -2 367.578 10.7539   1
  -7  -1   2 385.031 15.5365   8
   7  -1  -2 372.731 10.6334  11
  -7  -1   2 400.937 15.2816  15
   7   1  -2 369.195 11.6541   1
   7   1  -2 366.607 10.2146   7
  -7   1   2 368.860 14.4684  15
  -7   1   2 387.230 15.5422   8
   5  -1  -2 199.023 5.94181  11
  -5  -1   2 194.890 8.89367  15
   5  -1  -2 197.317 8.29719  13
   5  -1  -2 206.254 6.33062   1
  -5  -1   2 195.575 6.58678   2
   5  -1  -2 205.193 6.11414   5
  -5  -1   2 201.182 4.75975  16
   5  -1  -2 187.041 4.46307   4
   5   1  -2 197.779 5.70922   7
  -5   1   2 196.060 8.80365  15
  -5   1   2 201.756 6.44330   2
   5   1  -2 206.873 8.35131  13
   5   1  -2 202.986 7.03731   1
   5   1  -2 194.293 5.25375   9
  -5   1   2 218.306 9.27336   8
   3  -1  -2 387.462 7.85815  11
  -3  -1   2 399.519 7.06126  16
  -3  -1   2 389.363 7.95855  14
   3  -1  -2 409.241 8.50691   1
   3  -1  -2 392.001 8.18864   5
   3  -1  -2 381.670 8.33553  12
  -3  -1   2 402.094 9.47701   2
   3  -1  -2 394.149 7.10392  16
   3   1  -2 389.805 7.65218   7
   3   1  -2 386.232 9.61863  13
   3   1  -2 384.499 7.82843   5
   3   1  -2 392.236 7.78063   9
  -3   1   2 393.151 7.55786  14
  -3   1   2 377.663 8.97269   2
   3   1  -2 371.338 8.98847   1
  -3   1   2 380.057 10.6941  15
  -1  -1   2 4179.02 72.4115  14
  -1  -1   2 4122.25 73.2258  16
   1  -1  -2 4261.17 76.6748  16
   1  -1  -2 4028.66 72.9456  12
  -1  -1   2 4171.07 72.1280   4
   1  -1  -2 4201.05 72.5667   5
   1  -1  -2 4044.52 73.4577   3
  -1   1   2 4323.16 73.5066   2
  -1   1   2 4226.19 73.4213  15
  -1   1   2 4038.87 71.2066   6
   1   1  -2 4175.04 74.6395   3
   1   1  -2 4224.60 74.0170  16
   1   1  -2 4163.27 72.1003  12
  -1   1   2 4246.71 74.9824  14
   1  -1   2 396.069 8.51026  14
  -1  -1  -2 397.751 8.73600   8
   1  -1   2 401.917 8.18483  11
  -1  -1  -2 401.497 9.04402  12
   1  -1   2 400.138 8.59606   4
  -1  -1  -2 393.930 9.08836  16
   1  -1   2 412.887 9.16067  10
  -1  -1  -2 395.633 9.54097   3
   1  -1   2 408.716 9.22596  13
  -1   1  -2 395.800 8.39584  12
  -1   1  -2 406.380 9.13816  13
   1   1   2 365.533 7.80279   2
   1   1   2 389.354 8.57781   4
   1   1   2 395.645 8.31889   6
  -1   1  -2 397.011 9.58552   3
   1   1   2 397.674 7.82760   7
  -1   1  -2 401.339 9.64962   8
   1   1   2 388.513 8.51330  14
  -1   1  -2 410.023 9.04782  16
   1   1   2 397.162 9.19234  10
  -1   1  -2 388.289 8.38449  15
   3  -1   2 521.325 12.0004  11
   3  -1   2 545.187 14.3673  13
   3  -1   2 557.880 11.0402   7
  -3  -1  -2 512.682 11.1169  15
   3  -1   2 524.436 11.0685  14
   3  -1   2 525.841 12.1704   4
  -3  -1  -2 547.618 14.8237  13
  -3  -1  -2 534.355 13.9568   8
   3  -1   2 541.069 13.1637  10
  -3  -1  -2 527.594 14.2464   3
  -3  -1  -2 536.423 12.7347  16
   3   1   2 530.009 13.1747  10
   3   1   2 532.260 11.2772   7
  -3   1  -2 530.859 14.0111  13
  -3   1  -2 539.308 12.4341  15
  -3   1  -2 557.326 14.3363   3
  -3   1  -2 556.873 14.7380   8
   3   1   2 527.032 12.0882   4
  -3   1  -2 552.753 12.7802  16
   3   1   2 527.385 11.1551  14
   5  -1   2 632.917 15.4995   4
  -5  -1  -2 657.734 16.3464  16
   5  -1   2 641.470 17.0401  10
  -5  -1  -2 687.279 19.5441   3
   5  -1   2 660.546 14.6488   7
  -5  -1  -2 675.385 19.2546   8
   5  -1   2 655.144 15.9724  11
   5   1   2 668.270 17.3657  10
   5   1   2 654.459 15.6109   4
   5   1   2 636.224 14.7340   7
  -5   1  -2 650.557 16.1936  16
  -5   1  -2 669.021 19.1596   3
  -5   1  -2 682.469 19.9081   8
  -5   1  -2 643.318 16.2284  15
  -7  -1  -2 28.8114 6.33443   8
   7  -1   2 21.1457 3.13191   7
   7  -1   2 21.4159 3.36725   4
  -7  -1  -2 20.1424 3.54195  16
  -7  -1  -2 18.0353 4.58683   3
   7   1   2 20.3686 3.58321  10
   7   1   2 11.8809 2.55223   7
  -7   1  -2 26.3648 5.14677   3
  -7   1  -2 18.7654 3.44425  16
  -7   1  -2 27.2561 6.28036   8
  -9  -1  -2 355.911 18.6096   8
   9  -1   2 396.657 13.3315   7
  -9  -1  -2 366.582 18.7257   3
   9   1   2 379.198 13.3131   7
  -9   1  -2 367.541 18.5375   3
  -9   1  -2 358.077 19.1998   8
  10  -2  -2 13.3347 3.50098   7
 -10  -2   2 11.8066 6.10512   8
  10   2  -2 13.0985 3.64172   1
  10   2  -2 12.3921 2.89474   7
 -10   2   2 15.1662 5.30116  15
 -10   2   2 10.2568 4.70085   3
 -10   2   2 19.4507 7.59267   8
  -8  -2   2 623.128 20.8392  15
   8  -2  -2 612.120 15.1976   7
  -8  -2   2 627.276 22.4884   8
   8  -2  -2 633.037 16.3454  11
   8   2  -2 624.250 15.6156   7
   8   2  -2 606.634 17.6348   1
  -8   2   2 612.817 20.6802  15
  -8   2   2 609.089 21.8360   8
   6  -2  -2 508.506 12.2350   5
   6  -2  -2 495.088 11.7688   1
  -6  -2   2 533.965 16.6636  15
  -6  -2   2 502.603 10.7859  16
  -6  -2   2 493.131 12.6982   2
   6  -2  -2 491.400 12.2056  11
  -6   2   2 514.763 16.7355  15
  -6   2   2 502.861 12.2809   2
   6   2  -2 499.291 13.8056   1
   6   2  -2 512.138 11.9300   7
  -6   2   2 523.113 16.5946   8
   4  -2  -2 1274.56 23.3577   5
  -4  -2   2 1336.54 25.1982   2
   4  -2  -2 1289.68 22.9999   1
  -4  -2   2 1309.43 22.6221  16
  -4  -2   2 1269.11 22.8699  14
   4  -2  -2 1253.40 22.0868   4
  -4  -2   2 1289.17 25.8742  13
   4  -2  -2 1294.29 23.3817  11
  -4   2   2 1271.17 26.6800   8
   4   2  -2 1269.48 22.8985   7
   4   2  -2 1268.22 25.1025   1
   4   2  -2 1298.16 26.2689  13
  -4   2   2 1259.79 24.2963   2
   4   2  -2 1309.23 23.2735   9
  -4   2   2 1298.21 27.5340  15
   2  -2  -2 551.782 10.7339  12
   2  -2  -2 546.253 10.6864  11
   2  -2  -2 550.215 10.8254   5
  -2  -2   2 555.085 10.3867   4
  -2  -2   2 562.993 10.9119  13
  -2   2   2 568.489 12.9246  15
   2   2  -2 558.906 11.0545  13
   2   2  -2 551.273 9.92835   7
  -2   2   2 558.905 10.8841  14
  -2   2   2 551.676 11.8036   2
  -2   2   2 549.182 11.5093   8
   2   2  -2 551.820 11.6877   1
   2   2  -2 542.909 10.7465   9
   0  -2  -2 6065.98 110.959   3
   0  -2  -2 6446.40 113.714  16
   0  -2   2 6074.31 105.988  11
   0  -2   2 6260.34 109.523  14
   0  -2   2 6215.96 108.261  10
   0  -2   2 6173.41 109.315   4
   0  -2  -2 6356.49 106.050  12
   0   2   2 6156.21 108.587  14
   0   2   2 6225.92 104.900   2
   0   2  -2 6223.89 111.438  16
   0   2  -2 6272.44 110.688   3
   0   2  -2 6066.90 109.092   8
   0   2   2 6130.13 107.823   6
   0   2  -2 6222.84 105.203  12
   0   2   2 6317.04 106.966   7
  -2  -2  -2 1871.76 35.9366  13
   2  -2   2 1913.29 34.1243  13
   2  -2   2 1832.92 32.6373   4
  -2  -2  -2 1841.71 34.5039   3
  -2  -2  -2 1796.68 33.2494   8
   2  -2   2 1845.29 32.1776  11
   2  -2   2 1842.38 32.1780  14
   2  -2   2 1827.30 33.2517  10
  -2  -2  -2 1883.01 33.7304  16
   2   2   2 1822.18 31.7622   7
  -2   2  -2 1821.55 34.1773   3
  -2   2  -2 1862.99 34.9939   8
   2   2   2 1786.54 32.2450  14
  -2   2  -2 1799.53 33.2329  15
   2   2   2 1843.32 32.4380   6
   2   2   2 1833.14 33.5592  10
  -2   2  -2 1882.22 33.3872  16
  -4  -2  -2 2003.22 39.2544   8
   4  -2   2 1945.61 36.2292   4
   4  -2   2 1955.15 36.2376  11
   4  -2   2 1963.17 37.7304  10
  -4  -2  -2 2000.21 37.4156  16
   4  -2   2 1871.92 34.0850  14
   4  -2   2 1923.91 39.4896  13
  -4  -2  -2 1927.87 40.7415  13
  -4  -2  -2 1960.78 39.8694   3
   4   2   2 1975.44 35.4111   7
  -4   2  -2 2021.68 39.5390   3
  -4   2  -2 1967.78 37.5369  15
  -4   2  -2 1974.53 40.3402   8
   4   2   2 2020.52 37.8985  10
  -4   2  -2 1949.96 36.9105  16
  -6  -2  -2 444.617 16.8569   3
   6  -2   2 475.125 12.1603   7
  -6  -2  -2 437.414 13.5231  16
   6  -2   2 463.576 13.1312   4
   6  -2   2 472.296 13.6574  11
   6  -2   2 448.658 14.6807  10
  -6  -2  -2 445.807 16.4076   8
   6   2   2 446.790 14.3389  10
  -6   2  -2 458.233 13.5364  16
  -6   2  -2 459.975 17.3405   8
  -6   2  -2 460.008 14.3734  15
   6   2   2 466.646 12.6375   7
  -6   2  -2 478.340 16.7237   3
   8  -2   2 101.607 6.21496   7
  -8  -2  -2 101.744 10.8562   8
  -8  -2  -2 124.212 11.0677   3
  -8   2  -2 116.443 10.2706   3
   8   2   2 98.7026 6.46459   7
  -8   2  -2 121.472 12.5345   8
  10  -2   2 5.38764 2.80577   7
 -10  -2  -2 1.67867 3.89273   3
 -10  -2  -2 1.47433 5.22298   8
  10   2   2 0.42149 2.57018   7
 -10   2  -2 -2.3727 4.60354   3
 -10   2  -2 16.9766 6.71892   8
 -11  -3   2 107.684 13.2065   8
 -11  -3   2 134.980 12.5937   3
  11  -3  -2 124.041 7.97495   7
  11   3  -2 122.427 7.87074   7
 -11   3   2 124.335 11.0888  15
 -11   3   2 125.350 13.7210   8
 -11   3   2 115.489 10.6255   3
   9  -3  -2 17.1458 3.51982  11
  -9  -3   2 9.43882 5.23708  15
   9  -3  -2 12.4099 2.94724   7
  -9  -3   2 16.0174 6.29331   8
  -9   3   2 17.4023 6.45994   8
   9   3  -2 11.5500 3.44141   1
  -9   3   2 12.3363 5.14843  15
  -9   3   2 15.1951 4.59004   3
   9   3  -2 10.0789 2.92443   7
   7  -3  -2 284.142 9.23640   5
   7  -3  -2 295.077 9.62968  11
  -7  -3   2 322.429 13.8236  15
  -7   3   2 283.305 13.3985  15
   7   3  -2 297.230 10.9932   1
   7   3  -2 305.868 9.19174   7
  -7   3   2 284.859 13.4395   8
   5  -3  -2 312.764 8.39187   5
   5  -3  -2 303.065 8.33282  11
   5  -3  -2 294.138 7.06956   1
  -5  -3   2 312.641 7.95200  16
  -5  -3   2 319.307 10.7764  13
   5  -3  -2 287.350 7.23722   4
  -5  -3   2 301.559 9.52343   2
   5   3  -2 300.970 9.77439   1
   5   3  -2 305.064 10.7712  13
  -5   3   2 300.804 8.84521   2
   5   3  -2 318.386 8.40916   9
   5   3  -2 316.457 8.07761   7
  -5   3   2 326.626 11.7353   8
  -5   3   2 307.586 12.0038  15
  -3  -3   2 1.60980 0.91298  13
   3  -3  -2 1.33552 0.47401   1
   3  -3  -2 1.31582 0.90697  11
   3  -3  -2 1.36919 0.68577  12
   3  -3  -2 8.18590 1.26410   5
   3   3  -2 2.51408 0.89613   9
   3   3  -2 3.61135 0.69738   6
  -3   3   2 0.82205 1.29782   8
  -3   3   2 3.40127 1.94523  15
  -3   3   2 3.24503 1.33160   2
   3   3  -2 1.38501 0.62219   7
   3   3  -2 3.21048 1.14200   1
  -1  -3   2 2957.70 48.7306  11
   1  -3  -2 2939.04 49.4596  12
   1  -3  -2 2970.31 49.7720   5
  -1  -3   2 2943.13 49.8009   4
  -1  -3   2 3078.70 53.0164  13
  -1   3   2 2985.38 50.6667   2
   1   3  -2 2942.24 49.9972   1
  -1   3   2 2967.59 49.6142   6
  -1   3   2 2967.20 50.7577  15
   1   3  -2 2926.90 49.8381   3
   1   3  -2 2988.47 49.7087   9
  -1   3   2 3050.87 49.1077   9
   1  -3   2 488.733 10.4347  10
  -1  -3  -2 465.871 10.8945  12
   1  -3   2 471.198 9.97741  11
   1  -3   2 486.731 10.3179  13
  -1  -3  -2 484.175 10.9346   3
   1  -3   2 465.897 10.6642   4
  -1  -3  -2 462.531 11.4185  16
   1  -3   2 487.453 10.8421  14
  -1  -3  -2 474.981 9.55965   8
  -1   3  -2 485.447 11.1999  16
   1   3   2 486.726 9.87080   7
  -1   3  -2 469.068 8.91433  12
  -1   3  -2 466.313 11.4741  15
  -1   3  -2 477.370 11.9557   8
   1   3   2 488.306 10.5582   9
  -1   3  -2 471.495 11.0459   3
   1   3   2 473.371 10.9190  10
   1   3   2 486.207 10.5039   6
   3  -3   2 1.57474 1.11603   4
   3  -3   2 0.52213 0.96685  10
  -3  -3  -2 1.42508 1.45389  13
   3  -3   2 3.14665 1.35210  11
  -3  -3  -2 -0.4415 1.96353   8
  -3  -3  -2 2.06294 1.38736  16
  -3  -3  -2 3.47179 1.23558  15
   3  -3   2 4.01199 1.23968  14
   3  -3   2 6.40042 1.84669  13
  -3  -3  -2 2.32877 1.94192   3
   3   3   2 1.71836 0.97853   7
  -3   3  -2 0.39756 2.15078   8
  -3   3  -2 0.19695 1.40021  15
   3   3   2 2.32730 1.21858   6
  -3   3  -2 2.61164 1.47861  16
   3   3   2 0.86717 1.07902  10
  -3   3  -2 0.17052 1.66039   3
   5  -3   2 -0.1565 1.72080   4
  -5  -3  -2 -0.4369 2.45290   3
   5  -3   2 1.35450 1.52158  11
  -5  -3  -2 -2.6115 2.92771   8
   5  -3   2 1.62687 1.60938  10
  -5  -3  -2 12.0114 2.75273  16
   5   3   2 1.99101 1.51009  10
   5   3   2 0.73731 1.20590   7
  -5   3  -2 4.90388 1.95516  16
  -5   3  -2 0.88760 1.81778  15
  -5   3  -2 -1.5335 2.00305   8
  -5   3  -2 -1.5174 2.29655   3
   7  -3   2 267.714 10.1715   4
  -7  -3  -2 264.848 14.2792   3
   7  -3   2 266.178 10.7487  11
  -7  -3  -2 265.014 13.6588   8
  -7  -3  -2 252.949 10.5003  16
   7  -3   2 272.672 9.33910   7
  -7   3  -2 263.724 13.3264   3
  -7   3  -2 267.087 14.7659   8
  -7   3  -2 241.154 10.1656  16
   7   3   2 250.322 10.9502  10
  -7   3  -2 260.265 11.4144  15
   7   3   2 272.814 9.80284   7
  -9  -3  -2 5.14306 5.07216   8
   9  -3   2 2.01648 2.31974   7
  -9  -3  -2 2.20275 4.76702   3
  -9   3  -2 4.76545 4.55873   3
  -9   3  -2 0.05471 4.35097   8
   9   3   2 1.58239 2.38369   7
  10  -4  -2 96.7076 6.73225   7
  10  -4  -2 110.848 7.54380  11
 -10  -4   2 130.340 13.1788   8
 -10   4   2 105.915 9.59618   3
  10   4  -2 92.5943 7.96612   1
  10   4  -2 101.966 6.78765   7
 -10   4   2 104.040 12.1581   8
 -10   4   2 115.197 10.7076  15
  -8  -4   2 1868.55 43.5569  15
   8  -4  -2 1860.86 37.2568  11
  -8  -4   2 1848.33 45.1557   8
  -8   4   2 1805.75 44.1045   8
   8   4  -2 1828.12 36.0983   7
  -8   4   2 1859.26 43.8856  15
   8   4  -2 1839.88 39.9397   1
  -8   4   2 1805.28 40.4333   3
   6  -4  -2 1.72478 1.43307   5
  -6  -4   2 1.37168 2.28679   2
  -6  -4   2 1.09897 0.99878  16
   6  -4  -2 2.63858 1.32701  11
  -6   4   2 -3.5430 2.51883   8
   6   4  -2 1.51619 1.30861   9
   6   4  -2 0.29992 1.07930   7
  -6   4   2 2.69997 1.80406   2
  -6   4   2 0.35433 1.98094  15
   6   4  -2 -0.4034 1.56266   1
   4  -4  -2 6753.92 108.534   5
  -4  -4   2 6657.16 116.505  13
   4  -4  -2 6560.67 108.110   4
   4  -4  -2 6496.63 113.554  11
   4   4  -2 6719.15 107.908   7
   4   4  -2 6623.06 109.227   9
   4   4  -2 6473.07 106.996   6
  -4   4   2 6766.06 113.712  15
  -4   4   2 6538.65 112.068   8
   4   4  -2 6689.37 111.172   1
  -4   4   2 6288.43 108.337   9
  -4   4   2 6771.33 110.296   2
   2  -4  -2 54.7505 2.84580  11
   2  -4  -2 47.8711 2.63484   5
  -2  -4   2 48.9244 2.33830  11
  -2  -4   2 54.9807 2.76259  13
   2  -4  -2 55.0619 2.48534  12
   2   4  -2 53.4193 3.11067   1
  -2   4   2 51.3430 2.90607   8
  -2   4   2 53.6670 2.26269   9
  -2   4   2 54.9980 3.26176   2
  -2   4   2 48.5575 3.75478  15
  -2   4   2 55.5697 2.68995   6
   2   4  -2 52.4230 2.12708   7
   2   4  -2 56.7985 2.14900   6
   2   4  -2 53.6796 2.93077   9
   0  -4   2 3759.03 62.7533   4
   0  -4  -2 3723.83 62.1927  12
   0  -4   2 3511.93 61.2197   5
   0  -4  -2 3719.49 62.2970   5
   0  -4  -2 3704.99 60.9289   3
   0  -4   2 3717.00 61.5208  11
   0   4  -2 3717.53 63.6737   8
   0   4   2 3689.18 62.2053  15
   0   4   2 3726.87 62.8417   2
   0   4  -2 3669.83 61.5377   1
   0   4  -2 3806.90 62.1367   3
   0   4   2 3785.93 62.3069   6
   0   4   2 3808.83 62.1905   9
   2  -4   2 662.046 13.8030  11
   2  -4   2 632.449 12.2072   5
  -2  -4  -2 634.819 14.8325  12
   2  -4   2 642.891 14.2766  14
  -2  -4  -2 635.976 13.8671   8
  -2  -4  -2 641.263 15.1219   3
  -2  -4  -2 650.707 15.5468  16
   2  -4   2 645.482 14.1770  10
   2  -4   2 656.907 14.6558  13
   2  -4   2 661.246 14.6032   4
  -2   4  -2 634.384 14.7305   3
  -2   4  -2 635.588 16.2755   8
   2   4   2 636.211 14.6028  10
   2   4   2 639.886 13.9983   6
   2   4   2 646.831 13.4537   7
  -2   4  -2 616.614 11.9422  12
  -2   4  -2 627.019 15.6284  15
   2   4   2 646.540 14.3537   9
   4  -4   2 739.919 17.1130  11
   4  -4   2 762.775 17.5071   4
   4  -4   2 719.474 16.0908  14
  -4  -4  -2 778.645 20.3359   3
   4  -4   2 741.974 19.5835  13
  -4  -4  -2 815.662 19.2457  16
  -4  -4  -2 756.622 19.0095   8
   4   4   2 790.404 18.5271  10
  -4   4  -2 776.690 19.3707   3
  -4   4  -2 780.310 19.6063  15
  -4   4  -2 797.581 21.4829   8
   4   4   2 754.217 17.0822   6
  -4   4  -2 774.300 18.5618  16
   4   4   2 778.527 16.7505   7
   6  -4   2 130.692 6.83766  11
  -6  -4  -2 142.692 9.03134   8
  -6  -4  -2 133.796 7.49239  16
   6  -4   2 146.368 7.45224   4
  -6  -4  -2 139.496 9.20154   3
   6   4   2 135.327 7.42819  10
  -6   4  -2 148.708 8.96627   3
  -6   4  -2 135.649 7.28574  16
  -6   4  -2 145.513 10.0843   8
   6   4   2 149.359 6.75328   7
  -6   4  -2 138.825 8.23228  15
   8  -4   2 462.424 15.7614  11
   8  -4   2 439.534 13.6036   7
  -8  -4  -2 448.741 19.6954   3
   8   4   2 438.905 14.0734   7
  -8   4  -2 416.472 17.8006   3
  -8   4  -2 465.721 19.9897   8
  11  -5  -2 60.7182 6.31376   7
  11  -5  -2 69.3333 6.21010  11
 -11  -5   2 50.0586 8.97581   3
 -11  -5   2 55.1478 10.1308   8
 -11   5   2 66.5282 9.27902  15
  11   5  -2 56.3754 6.10216   7
 -11   5   2 75.1621 11.1205   8
  -9  -5   2 843.721 29.2714   8
   9  -5  -2 828.540 21.7951  11
   9   5  -2 819.692 23.6279   1
  -9   5   2 805.826 26.7437  15
  -9   5   2 810.333 27.6527   8
   9   5  -2 801.667 20.4066   7
  -7  -5   2 520.758 18.8185  15
   7  -5  -2 527.788 14.5721  11
   7  -5  -2 519.595 13.8244   5
  -7   5   2 534.954 18.8214   8
   7   5  -2 518.046 13.6007   7
   7   5  -2 511.667 16.4109   1
  -7   5   2 511.046 18.8564  15
   7   5  -2 519.428 14.1537   9
   5  -5  -2 1000.56 20.4738   5
   5  -5  -2 1024.28 21.2877  11
  -5  -5   2 964.453 23.6261  13
   5  -5  -2 990.069 20.2102   4
   5   5  -2 1010.56 20.1179   7
  -5   5   2 1016.22 25.7844  15
   5   5  -2 1000.93 21.4137   9
   5   5  -2 999.241 19.2410   6
  -5   5   2 1016.22 21.9605   2
  -5   5   2 992.376 24.2627   8
  -5   5   2 966.992 20.7542   3
   5   5  -2 1022.06 23.2942   1
  -3  -5   2 2513.37 44.7382  13
   3  -5  -2 2469.82 42.8943   5
   3  -5  -2 2414.54 41.5952  12
   3  -5  -2 2508.68 43.7958  11
   3   5  -2 2457.70 41.9781   7
   3   5  -2 2411.84 41.5615   6
  -3   5   2 2470.05 44.8063   2
  -3   5   2 2461.77 47.0265  15
   3   5  -2 2443.78 43.9510   9
  -3   5   2 2473.65 44.5404   8
   3   5  -2 2457.26 44.8537   1
  -1  -5   2 98.7133 2.81873   5
  -1  -5   2 98.7506 4.35774   4
   1  -5  -2 93.0583 3.54045  12
   1  -5  -2 100.213 4.26338   5
   1  -5  -2 99.3636 4.26871  11
  -1  -5   2 98.2939 3.80617  11
   1   5  -2 94.3429 4.19198   9
  -1   5   2 114.438 5.12692  15
   1   5  -2 98.6990 3.28036   6
   1   5  -2 99.3456 4.08126   1
  -1   5   2 99.8795 3.85515   9
  -1   5   2 104.857 4.30278   6
  -1   5   2 92.2513 2.90837   8
  -1  -5  -2 1365.16 25.6182  12
   1  -5   2 1343.73 26.0561   4
   1  -5   2 1331.57 24.8440  11
   1  -5   2 1298.71 22.7402   5
  -1  -5  -2 1319.92 24.7229   3
  -1   5  -2 1343.89 27.4908   8
   1   5   2 1358.29 25.4467  10
   1   5   2 1335.74 24.4733   7
   1   5   2 1340.14 25.3879   6
  -1   5  -2 1265.11 23.4257   1
  -1   5  -2 1317.58 24.8738   3
   1   5   2 1366.20 25.7293   9
   3  -5   2 126.268 6.04727   4
   3  -5   2 124.374 5.49517  11
   3  -5   2 112.091 5.26042  14
  -3  -5  -2 117.669 5.75729   8
  -3  -5  -2 120.304 6.41568   3
  -3  -5  -2 128.594 6.49325  16
   3  -5   2 120.596 5.96021  13
   3   5   2 131.503 5.93397   9
   3   5   2 133.019 5.21964   7
  -3   5  -2 122.519 6.05959   3
  -3   5  -2 131.876 6.96073  15
  -3   5  -2 134.366 7.53290   8
   3   5   2 136.166 5.71449   6
   3   5   2 120.740 5.54736  10
   5  -5   2 25.9637 3.75160   4
  -5  -5  -2 24.7052 3.90969  16
   5  -5   2 21.3855 3.16507  11
  -5  -5  -2 21.1683 4.40139   3
   5   5   2 20.3936 3.10748  10
  -5   5  -2 20.1717 4.82026   8
  -5   5  -2 23.7535 4.13431  15
  -5   5  -2 20.1417 3.87175   3
   5   5   2 21.7843 3.18786   6
   5   5   2 21.4457 2.90012   7
  -7  -5  -2 159.182 8.64563  16
   7  -5   2 171.078 7.16924   7
   7  -5   2 175.138 8.69161   4
   7  -5   2 167.226 8.56201  11
  -7  -5  -2 177.471 11.9599   3
  -7   5  -2 176.144 10.2485  15
  -7   5  -2 180.485 12.5596   8
   7   5   2 169.993 8.69759  10
   7   5   2 159.626 7.88811   7
  -7   5  -2 170.191 10.4572   3
   9  -5   2 14.6402 4.29090  11
   9  -5   2 9.20426 2.98719   7
  -9  -5  -2 15.5156 6.12029   3
  -9   5  -2 9.80750 5.73183   8
   9   5   2 14.1665 3.59431   7
  10  -6  -2 526.889 17.5181  11
 -10  -6   2 515.185 23.4730   8
  10   6  -2 525.318 19.0796   1
 -10   6   2 523.226 22.7561   8
 -10   6   2 511.282 21.2288  15
  10   6  -2 530.137 16.2526   7
   8  -6  -2 234.204 9.98479  11
   8  -6  -2 231.279 9.28823   5
  -8  -6   2 225.110 14.2459   8
   8   6  -2 226.722 8.92133   7
   8   6  -2 237.715 11.6925   1
  -8   6   2 219.209 13.2056  15
  -8   6   2 261.966 14.3741   8
   6  -6  -2 915.300 20.0597   5
   6  -6  -2 891.929 19.6658   4
   6  -6  -2 906.847 20.8140  11
  -6  -6   2 911.759 21.0339  16
   6   6  -2 932.893 23.3484   1
  -6   6   2 876.359 24.4817   8
  -6   6   2 886.396 25.5036  15
   6   6  -2 909.346 19.5890   7
   6   6  -2 895.074 21.0202   9
   4  -6  -2 482.188 12.7464  11
   4  -6  -2 483.025 11.8789   5
   4  -6  -2 505.815 12.6861   4
  -4  -6   2 482.625 14.0643  13
  -4   6   2 488.284 14.2476   8
   4   6  -2 487.778 11.0437   6
   4   6  -2 500.481 13.2173   9
   4   6  -2 504.292 14.1177   1
   4   6  -2 500.386 11.4876   7
  -4   6   2 495.547 16.0304  15
  -2  -6   2 2362.40 42.4019  13
   2  -6  -2 2393.69 42.6686  11
   2  -6  -2 2287.10 39.9066  12
  -2  -6   2 2324.73 39.8442   5
  -2  -6   2 2419.30 41.5799  11
   2  -6  -2 2413.40 41.8297   5
   2   6  -2 2394.01 42.9550   9
  -2   6   2 2401.13 45.1715  15
   2   6  -2 2349.37 42.8197   1
  -2   6   2 2361.09 42.1092   6
  -2   6   2 2352.91 41.1592   9
   2   6  -2 2305.62 40.4042   6
  -2   6   2 2293.26 41.0777   8
   0  -6   2 36.5693 2.83632  11
   0  -6  -2 33.9901 3.23237   5
   0  -6   2 29.1742 3.34912   4
   0  -6   2 30.5471 1.71501   5
   0  -6  -2 31.4503 2.75641  12
   0   6  -2 34.0280 2.26910   6
   0   6   2 33.7433 3.18442   6
   0   6  -2 32.2388 3.57778   8
   0   6  -2 28.3377 2.11427   3
   0   6  -2 41.3433 2.91600   9
   0   6  -2 31.4209 2.21655   1
   0   6   2 33.3412 2.76216   9
   2  -6   2 3408.89 59.9361  13
  -2  -6  -2 3330.09 59.8292  12
  -2  -6  -2 3427.04 62.2883  16
  -2  -6  -2 3351.53 59.5983   3
   2  -6   2 3259.76 56.4775   5
   2  -6   2 3458.56 59.2696  11
   2  -6   2 3428.10 60.5196   4
  -2   6  -2 3436.72 63.2869  15
  -2   6  -2 3406.76 58.9673   9
   2   6   2 3418.89 59.5590  10
   2   6   2 3488.51 59.9105   6
  -2   6  -2 3334.63 58.8329   3
   2   6   2 3515.50 58.6932   7
   2   6   2 3440.75 60.2452   9
  -2   6  -2 3473.26 62.9380   8
  -4  -6  -2 1.79472 2.07018  12
   4  -6   2 2.07549 2.25786   4
  -4  -6  -2 6.22520 2.37356  16
  -4  -6  -2 2.34803 2.64917   3
   4  -6   2 3.06286 2.03782  11
   4  -6   2 1.01422 1.54656  14
   4   6   2 2.51395 1.35295  10
   4   6   2 1.23044 1.43463   7
  -4   6  -2 5.87836 2.17813  15
  -4   6  -2 5.41328 2.20944   3
   4   6   2 2.03758 1.71055   6
  -4   6  -2 4.24491 2.87311   8
   6  -6   2 1201.56 27.9290  11
  -6  -6  -2 1217.08 29.5722  16
  -6  -6  -2 1208.97 31.9728   3
   6  -6   2 1234.74 27.9814   4
  -6   6  -2 1216.88 31.0811  15
  -6   6  -2 1236.99 33.1888   8
   6   6   2 1238.29 26.8545   7
   8  -6   2 39.7548 5.64890  11
   8  -6   2 25.9381 3.86903   7
  -8  -6  -2 26.8453 6.52803   3
  -8  -6  -2 32.4881 6.34518  12
  -8   6  -2 38.6716 5.93802  15
   8   6   2 28.8245 4.06494   7
  -8   6  -2 21.9054 5.38227   8
   9  -7  -2 87.0245 6.54755  11
  -9  -7   2 69.0265 9.85189   8
   9   7  -2 95.4520 6.34515   7
   9   7  -2 97.5623 8.46397   1
  -9   7   2 77.5913 9.16287  15
  -9   7   2 99.6144 10.5107   8
   7  -7  -2 1.69894 2.04125   5
   7  -7  -2 -0.0411 1.64031  11
  -7   7   2 4.27860 2.87447  15
   7   7  -2 1.82661 2.68315   1
   7   7  -2 0.83311 2.10243   9
  -7   7   2 2.51132 3.43110   8
   7   7  -2 -2.1471 1.44037   7
   5  -7  -2 16.8409 2.73888   5
   5  -7  -2 16.0449 2.70263  11
   5  -7  -2 15.3861 2.75805   4
   5   7  -2 17.3345 3.41770   1
  -5   7   2 14.7047 4.01853  15
   5   7  -2 18.6069 2.56465   7
   5   7  -2 14.7249 2.08088   6
  -5   7   2 17.0111 3.94690   8
   5   7  -2 16.0306 3.12189   9
  -3  -7   2 222.824 6.69618   5
  -3  -7   2 235.581 7.58377  11
   3  -7  -2 238.047 7.63480   5
   3  -7  -2 228.480 8.39023   4
   3  -7  -2 250.056 8.56166  11
  -3   7   2 240.090 8.19492   6
  -3   7   2 232.764 6.95714   9
  -3   7   2 229.992 10.2070  15
   3   7  -2 243.268 8.63945   9
   3   7  -2 243.255 8.78395   1
   3   7  -2 221.886 6.74877   6
   1  -7  -2 2.99551 1.75674  11
  -1  -7   2 2.46678 1.44000  11
  -1  -7   2 -0.5851 1.50809   4
   1  -7  -2 -0.3099 1.34509   5
   1  -7  -2 1.04561 0.91809  12
  -1   7   2 0.25523 1.26410   6
  -1   7   2 -0.2395 1.47674  15
   1   7  -2 0.88041 0.91472   6
   1   7  -2 0.86665 0.99416   1
   1   7  -2 0.66578 0.91299   9
  -1   7   2 1.61669 1.01641   9
   1  -7   2 619.469 14.7137  11
  -1  -7  -2 652.279 15.3783   5
  -1  -7  -2 614.572 14.5348  12
   1  -7   2 622.098 15.8708   4
  -1   7  -2 642.036 14.1688   6
  -1   7  -2 630.390 16.9035   8
   1   7   2 643.900 15.5717   9
  -1   7  -2 631.415 15.1716   9
   1   7   2 616.462 14.4976  10
   1   7   2 629.198 15.3887   6
   3  -7   2 233.277 9.11672  14
  -3  -7  -2 255.855 10.6608  16
   3  -7   2 252.823 8.70810  11
   3  -7   2 258.890 9.57265   4
  -3  -7  -2 263.760 9.53416  12
  -3   7  -2 242.498 8.21892   9
   3   7   2 259.739 8.38376   7
  -3   7  -2 254.326 11.1116  15
   3   7   2 252.474 9.50827   9
   3   7   2 258.294 9.08353   6
  -3   7  -2 243.608 10.9721   8
   5  -7   2 260.096 10.3043  11
  -5  -7  -2 241.997 11.5788   3
  -5  -7  -2 256.871 11.0638  12
  -5  -7  -2 245.963 11.0865  16
   5  -7   2 275.248 10.9395   4
   5   7   2 253.674 9.79155   6
   5   7   2 245.653 9.13342   7
  -5   7  -2 258.213 13.0625   8
  -5   7  -2 248.312 12.1674  15
  -7  -7  -2 457.706 18.5006   3
   7  -7   2 476.606 16.0347  11
  -7  -7  -2 437.070 17.3922  12
   7  -7   2 441.670 14.9351   4
   7   7   2 457.696 14.4667   7
  -7   7  -2 463.113 19.5113   8
  -7   7  -2 436.688 17.7905  15
   8  -8  -2 1.14113 2.02008  11
   8  -8  -2 9.11646 2.85226   5
   8   8  -2 11.6391 2.89572   7
   8   8  -2 4.38693 2.86256   9
  -8   8   2 6.49559 3.61682   8
  -8   8   2 8.10734 4.30395  15
   8   8  -2 9.56269 3.85501   1
   6  -8  -2 841.252 20.3767   4
   6  -8  -2 854.365 19.8537   5
   6  -8  -2 873.000 21.5572  11
   6   8  -2 835.059 19.3544   7
  -6   8   2 846.663 25.9760  15
   6   8  -2 838.091 23.2863   1
   6   8  -2 840.154 21.6998   9
  -6   8   2 815.486 23.2828   8
   4  -8  -2 50.2398 4.95110   4
  -4  -8   2 57.9728 4.25177  11
   4  -8  -2 59.1017 5.05193  11
   4  -8  -2 63.3899 4.25233   5
   4   8  -2 55.0876 4.96424   1
   4   8  -2 54.9071 3.65006   7
  -4   8   2 56.5178 6.35755  15
  -4   8   2 54.3343 4.20436   6
   4   8  -2 66.1159 5.11175   9
  -2  -8   2 934.423 20.2182  11
  -2  -8   2 939.378 21.9905   4
   2  -8  -2 949.124 20.2375   5
   2  -8  -2 957.673 21.6940  11
  -2   8   2 978.086 24.1747  15
   2   8  -2 931.397 21.7504   9
  -2   8   2 938.137 21.0185   6
   2   8  -2 915.011 19.1869   6
   2   8  -2 936.588 20.8660   1
  -2   8   2 939.331 20.1332   9
   0  -8  -2 25.3863 3.24755  11
   0  -8   2 29.9645 3.17810  11
   0  -8   2 27.9229 3.69499   4
   0  -8  -2 26.3312 3.30596   5
   0   8   2 33.4524 3.56314   6
   0   8   2 28.5141 3.50209   9
   0   8  -2 31.0339 3.78043   9
   0   8  -2 30.0890 3.00892   6
   2  -8   2 189.774 7.85102  11
   2  -8   2 185.777 8.34507   4
  -2  -8  -2 191.882 7.91557   5
  -2  -8  -2 176.132 7.38798  12
  -2   8  -2 198.806 7.72653   9
   2   8   2 193.324 7.94077   6
   2   8   2 191.112 8.05070   9
  -2   8  -2 183.528 9.14520   8
   4  -8   2 13.0724 3.13914  11
  -4  -8  -2 13.8096 3.76106  16
  -4  -8  -2 11.9901 3.25337  12
   4  -8   2 8.35187 2.74695   4
   4  -8   2 11.4652 2.76431  14
   4   8   2 9.80053 2.95961   6
  -4   8  -2 11.5140 3.80609   8
  -4   8  -2 10.0103 2.40808   9
   4   8   2 10.3465 2.53133   7
   6  -8   2 26.2952 4.70326   4
  -6  -8  -2 19.7634 4.44089  16
  -6  -8  -2 27.0456 5.03203  12
   6  -8   2 32.0226 4.55928  11
  -6   8  -2 13.0197 4.33937  15
   6   8   2 18.9325 3.57815   7
   6   8   2 22.9908 3.94474   6
  -6   8  -2 35.1787 6.42547   8
  -8  -8  -2 40.0395 6.93068  12
   8  -8   2 32.9794 4.22255   7
   8  -8   2 38.9228 5.75204  11
   8   8   2 46.5662 5.85967   7
  -8   8  -2 34.3797 7.00854   8
   9  -9  -2 8.66436 3.07960  11
   9   9  -2 3.57238 2.44407   7
   9   9  -2 9.73859 4.26851   1
  -9   9   2 11.9285 5.06538  15
   7  -9  -2 7.23981 2.70641  11
   7  -9  -2 9.61417 2.71852   5
  -7   9   2 9.16166 4.49657  15
   7   9  -2 1.27717 1.88506   7
  -7   9   2 8.99293 3.27806   6
   7   9  -2 5.95137 2.52351   9
   7   9  -2 4.41553 2.70369   1
   5  -9  -2 5.49377 2.63602   4
  -5  -9   2 8.39639 2.37723  11
   5  -9  -2 7.86181 3.04472  11
   5  -9  -2 11.0324 2.31965   5
   5   9  -2 8.28335 2.18863   7
  -5   9   2 14.1806 4.19989  15
   5   9  -2 5.35322 2.85525   9
   5   9  -2 13.6089 3.38016   1
  -5   9   2 4.79826 2.59386   6
   3  -9  -2 2.77561 2.37426  11
  -3  -9   2 3.70385 2.26004   4
  -3  -9   2 5.56632 2.10113  11
   3  -9  -2 7.89433 2.39910   4
   3  -9  -2 4.81669 2.16651   5
  -3   9   2 1.11765 2.59503  15
   3   9  -2 7.42881 2.59061   9
   3   9  -2 3.84720 1.85233   1
  -3   9   2 9.50078 2.62259   6
  -1  -9   2 110.161 5.67592  11
   1  -9  -2 101.080 6.17015  11
  -1  -9   2 111.020 6.51953   4
   1  -9  -2 99.6980 5.60702   5
   1   9  -2 99.3522 5.17529   6
  -1   9   2 96.0323 5.57271   9
   1   9  -2 107.336 6.25389   9
  -1   9   2 107.691 6.05673   6
   1  -9   2 4.23189 2.63707   4
   1  -9   2 2.86111 2.13134  11
  -1  -9  -2 2.51978 1.62771  11
  -1  -9  -2 5.33391 2.37788   5
   1   9   2 2.98321 2.18498   9
  -1   9  -2 3.86293 1.78724   6
  -1   9  -2 4.66838 2.01365   9
   1   9   2 -1.8110 1.59478   6
   3  -9   2 104.358 7.01412  14
  -3  -9  -2 87.1383 6.15632   5
   3  -9   2 92.2010 6.39302  11
  -3  -9  -2 89.1978 7.29679  16
   3  -9   2 90.6120 7.03235   4
  -3   9  -2 103.805 6.07059   6
   3   9   2 93.1275 6.57949   9
  -3   9  -2 97.9795 7.58706   8
   3   9   2 97.3679 6.03862   6
  -3   9  -2 96.9039 5.92338   9
   5  -9   2 85.9411 7.04366  11
   5  -9   2 93.1288 6.98038   4
  -5  -9  -2 85.3551 8.38774  16
  -5  -9  -2 83.1281 7.03359  12
  -5  -9  -2 87.2919 7.04677   5
   5   9   2 89.7726 6.02332   7
  -5   9  -2 92.2931 8.68500   8
   5   9   2 86.0793 6.34267   6
  -7  -9  -2 15.3302 4.04032  12
   7  -9   2 9.58887 3.75932   4
   7  -9   2 9.39552 3.87346  11
  -7   9  -2 4.75338 4.07646   8
   7   9   2 6.25244 2.86174   7
   8 -10  -2 158.708 9.73915  11
  -8  10   2 123.885 8.81567   6
   8  10  -2 129.844 9.88628   1
   8  10  -2 151.994 7.80830   7
  -8  10   2 141.655 11.5660  15
   6 -10  -2 18.9222 3.92630   4
   6 -10  -2 25.4488 3.69183   5
   6 -10  -2 22.0632 4.62861  11
  -6  10   2 21.2957 4.26130   6
   6  10  -2 21.6830 4.50853   1
   6  10  -2 18.3989 4.27180   9
  -6  10   2 17.0346 4.50151  15
  -4 -10   2 362.814 12.0123  11
  -4 -10   2 370.106 13.5464   4
   4 -10  -2 375.091 13.4945   4
   4 -10  -2 383.115 13.3916  11
   4 -10  -2 369.235 11.3840   5
   4  10  -2 362.041 13.6945   9
  -4  10   2 382.273 16.1409  15
  -4  10   2 378.636 13.2019   6
   4  10  -2 369.284 13.1751   1
   2 -10  -2 36.6164 4.04463   5
   2 -10  -2 29.3664 4.18915   4
  -2 -10   2 33.8900 4.10869  11
  -2 -10   2 31.5636 4.77903   4
   2 -10  -2 30.5828 4.39918  11
   2  10  -2 26.3230 4.31131   9
  -2  10   2 31.2898 4.10658   6
  -2  10   2 34.3507 3.97089   9
   0 -10   2 929.905 23.9767   4
   0 -10   2 925.981 21.9196  11
   0 -10  -2 930.369 23.2347  11
   0 -10  -2 915.951 21.3986   5
   0  10   2 920.735 22.6241   6
   0  10   2 913.228 22.3093   9
   0  10  -2 936.169 23.2512   9
   0  10  -2 955.588 21.2051   6
   2 -10   2 61.3911 6.60873   4
  -2 -10  -2 53.9798 5.80590  11
   2 -10   2 59.9357 5.48409  11
  -2 -10  -2 45.2830 4.88120   5
  -2  10  -2 66.0832 6.94957   8
  -2  10  -2 51.2637 5.12068   9
   2  10   2 60.8132 5.84544   6
  -2  10  -2 62.4477 4.93347   6
   2  10   2 47.7785 5.44169   9
   4 -10   2 1102.75 26.6361  11
   4 -10   2 1120.40 28.1911   4
  -4 -10  -2 1079.80 26.4466   5
   4  10   2 1093.35 26.3630   6
  -4  10  -2 1080.75 25.7672   6
  -4  10  -2 1132.44 30.3116   8
   6 -10   2 94.1853 7.60851  11
   6 -10   2 73.4871 7.47002   4
  -6 -10  -2 92.7849 7.39021   5
  -6  10  -2 96.8418 9.18338   8
   6  10   2 86.7665 6.82026   6
   6  10   2 97.8425 6.30330   7
   7 -11  -2 186.843 10.5237  11
  -7  11   2 186.921 10.3431   6
   7  11  -2 168.421 9.87388   9
  -7  11   2 210.506 13.2806  15
   7  11  -2 184.918 11.1971   1
   5 -11  -2 233.263 11.1959   4
   5 -11  -2 241.192 11.4958  11
  -5 -11   2 229.289 11.0541   4
  -5  11   2 249.053 14.4537  15
   5  11  -2 211.622 11.1724   9
  -5  11   2 257.686 11.4431   6
   5  11  -2 249.579 11.3171   1
  -3 -11   2 222.461 9.45721  11
   3 -11  -2 212.255 8.50063   5
  -3 -11   2 215.506 10.8243   4
   3 -11  -2 228.317 10.5758  11
   3 -11  -2 231.070 11.0792   4
  -3  11   2 227.312 10.0704   6
   3  11  -2 228.642 10.9604   9
  -1 -11   2 385.637 12.6823  11
   1 -11  -2 382.504 13.7706  11
   1 -11  -2 377.226 11.9691   5
  -1 -11   2 387.064 14.7458   4
  -1  11   2 394.060 12.9566   9
   1  11  -2 369.574 13.8563   9
  -1  11   2 386.240 13.3794   6
  -1 -11  -2 217.334 10.4811  11
   1 -11   2 220.557 11.2828   4
   1 -11   2 213.919 9.61473  11
  -1 -11  -2 212.714 9.12323   5
  -1  11  -2 204.502 8.76705   6
   1  11   2 200.978 9.73170   9
  -1  11  -2 208.776 9.77749   9
   1  11   2 212.363 9.84820   6
   3 -11   2 283.267 13.1637   4
   3 -11   2 285.333 11.6219  11
   3 -11   2 262.064 12.2578  14
  -3 -11  -2 289.320 11.5605   5
  -3 -11  -2 280.186 12.3549  11
  -3  11  -2 310.744 13.7901   8
  -3  11  -2 279.299 11.3637   6
   3  11   2 287.154 12.5025   9
   3  11   2 280.531 11.5692   6
  -5 -11  -2 167.594 9.74149   5
   5 -11   2 165.799 10.4791   4
   5 -11   2 178.785 10.0177  11
  -5  11  -2 166.847 9.31790   6
  -5  11  -2 173.577 11.2074   8
   5  11   2 151.152 8.68069   6
   6 -12  -2 385.922 15.1915  11
  -6  12   2 366.622 14.7822   6
   6  12  -2 372.471 15.5013   9
   4 -12  -2 21.9163 4.38964   4
   4 -12  -2 24.6906 4.94472  11
  -4 -12   2 25.1423 4.80022   4
  -4  12   2 18.0999 4.21204   6
   4  12  -2 19.7862 4.80278   9
   2 -12  -2 433.955 15.5086  11
   2 -12  -2 465.292 16.6217   4
  -2 -12   2 426.300 13.8128  11
  -2 -12   2 444.746 16.3686   4
  -2  12   2 423.712 15.0756   6
   2  12  -2 402.784 15.6447   9
   0 -12   2 -0.3755 3.06951   4
   0 -12   2 1.28086 2.53239  11
   0 -12  -2 2.67755 2.33397  11
   0  12   2 6.00948 2.97538   6
   0  12  -2 2.43100 2.80361   9
   0  12   2 2.41163 2.58310   9
   2 -12   2 185.316 11.1503   4
  -2 -12  -2 191.897 10.4982  11
   2 -12   2 197.840 11.3001  14
   2 -12   2 189.781 9.66777  11
   2  12   2 174.111 9.90941   9
   2  12   2 178.503 9.15172   6
  -2  12  -2 166.490 9.34502   9
   4 -12   2 0.50536 3.09376  11
  -4 -12  -2 11.5135 3.71425  11
   4 -12   2 -3.2405 3.45208   4
  -4  12  -2 4.14784 3.41029   6
   4  12   2 5.41217 3.26518   6
   3 -13  -2 92.6761 8.09884  11
  -3 -13   2 81.3689 8.38679   4
   3 -13  -2 84.8136 8.72178   4
  -3  13   2 74.7065 7.73748   6
   3  13  -2 66.0055 7.39360   9
   1 -13  -2 73.0354 7.70235   4
   1 -13  -2 83.5614 7.58619  11
  -1 -13   2 80.6467 8.13318   4
  -1  13   2 90.4894 8.20220   6
   1  13  -2 78.5526 6.84527   9
  -1 -13  -2 55.2161 7.68310   4
  -1 -13  -2 47.5469 6.17712  11
   1 -13   2 43.3108 5.15037  11
   1 -13   2 59.3628 7.78507   4
   1  13   2 42.0471 5.48729   9
  -1  13  -2 40.2677 5.78250   9
   1  13   2 51.9882 6.18307   6
 -12   0   3 5.21223 5.44987   3
  12   0  -3 -0.8053 2.70786   7
 -12   0   3 0.15309 4.20344   8
 -10   0   3 -4.2211 4.75157   8
 -10   0   3 -8.3239 3.66925  15
  10   0  -3 -0.1669 1.74786   7
   8   0  -3 1.81481 1.55474   7
   8   0  -3 1.65179 1.69002   1
  -8   0   3 1.50804 3.65784   8
  -8   0   3 4.35331 4.19941  15
  -6   0   3 0.40303 1.92472   2
  -6   0   3 1.18027 3.23282  15
   6   0  -3 1.78960 1.32751  13
   6   0  -3 3.28829 1.41749   1
   6   0  -3 0.09135 1.09214   5
   6   0  -3 1.03518 0.92983   7
   6   0  -3 1.27141 0.92223  11
   4   0  -3 0.37846 0.67892   5
   4   0  -3 -0.3466 0.58118  13
   4   0  -3 0.19716 0.43894  11
  -4   0   3 -2.1126 1.34533   2
   4   0  -3 0.95019 0.77278   1
  -4   0   3 0.99996 1.89216  15
  -4   0   3 0.39858 0.77066  14
  -2   0   3 2.79102 1.05860  14
  -2   0   3 1.86003 0.48052  16
   2   0  -3 6.41770 0.86035   5
   2   0  -3 1.73321 0.77152   3
  -2   0   3 1.81738 0.48852   4
   2   0  -3 0.96789 0.69613  12
   0   0  -3 0.66996 0.68117   8
   0   0  -3 0.89019 0.87751  12
   0   0   3 1.14248 0.82122   4
   0   0   3 0.86208 0.29333   7
   0   0   3 3.36598 1.19718  14
   0   0   3 0.94225 0.55370   6
   0   0  -3 2.17291 1.18514   3
   0   0   3 3.71198 1.00198  10
   0   0   3 1.41618 0.94525   2
   0   0  -3 2.71405 0.96475  16
  -2   0  -3 2.14010 1.62877   8
  -2   0  -3 1.35489 1.16641  13
  -2   0  -3 0.25627 0.52263  15
   2   0   3 0.66823 0.99557  10
  -2   0  -3 -0.0394 1.03978   3
   2   0   3 0.89422 0.62191   7
  -2   0  -3 2.16053 1.25381  12
   2   0   3 1.47880 1.21293   4
   2   0   3 0.03500 0.98853  14
  -2   0  -3 0.54493 0.92351  16
   4   0   3 1.11691 1.04645  14
  -4   0  -3 -0.0706 1.48570  13
  -4   0  -3 1.91607 2.48986   3
   4   0   3 1.22204 1.46391   4
  -4   0  -3 -1.3608 2.24987   8
   4   0   3 -1.1002 0.74371   7
  -4   0  -3 0.92598 1.58674  16
   4   0   3 8.23179 2.24242  10
   6   0   3 -0.3101 0.82246   7
  -6   0  -3 2.49963 3.66749   3
   6   0   3 0.60867 1.68969   4
  -6   0  -3 -0.8372 1.96367  16
  -6   0  -3 3.42900 3.72832   8
  -8   0  -3 5.83283 5.25851   8
   8   0   3 0.76355 2.01494   7
  -8   0  -3 6.02178 4.77624   3
  11  -1  -3 10.5514 3.20024   7
 -11  -1   3 17.8271 6.18935  15
 -11  -1   3 18.0679 7.42734   8
 -11   1   3 11.8875 7.21851   8
 -11   1   3 1.40833 4.86762  15
 -11   1   3 10.2880 5.26423   3
  11   1  -3 8.19944 3.17757   7
  -9  -1   3 316.348 16.8827   8
  -9  -1   3 299.597 14.9184  15
   9  -1  -3 308.714 10.4584   7
   9   1  -3 320.225 10.5673   7
  -9   1   3 308.560 15.2520  15
  -9   1   3 316.103 16.5851   8
   9   1  -3 296.855 11.6941   1
  -7  -1   3 381.686 15.4794   8
  -7  -1   3 391.671 15.5011  15
   7  -1  -3 366.220 10.8018   1
  -7  -1   3 372.061 11.2263   2
   7  -1  -3 370.408 10.1884  11
  -7   1   3 380.646 15.3218  15
   7   1  -3 404.120 10.2635   7
  -7   1   3 367.004 10.8388   2
  -7   1   3 396.259 15.5249   8
   7   1  -3 378.690 11.9449   1
   5  -1  -3 258.514 7.00797   5
   5  -1  -3 252.897 6.52572  11
   5  -1  -3 251.625 9.31208  13
  -5  -1   3 250.005 10.2499  15
   5  -1  -3 244.148 7.28912   1
  -5  -1   3 246.847 8.29140   2
  -5  -1   3 240.048 5.96305  14
   5   1  -3 238.140 5.83639   9
   5   1  -3 254.366 9.16403  13
  -5   1   3 238.006 5.36739  14
   5   1  -3 249.601 6.33211   7
   5   1  -3 260.790 8.21295   1
  -5   1   3 247.704 10.5627  15
  -5   1   3 251.077 8.15013   2
   3  -1  -3 3179.74 53.5056  12
  -3  -1   3 3271.58 53.5398  14
  -3  -1   3 3117.32 53.6718  16
   3  -1  -3 3226.73 55.4068  11
   3  -1  -3 3162.06 55.9773  16
  -3  -1   3 3244.14 55.4094   2
   3  -1  -3 3206.33 53.0392   5
  -3   1   3 3277.96 55.0870   2
  -3   1   3 3220.16 56.8215  15
  -3   1   3 3271.92 53.2505  14
   3   1  -3 3191.33 62.0170  13
   3   1  -3 3218.60 52.3745   5
   3   1  -3 3154.88 51.9168   7
   3   1  -3 3206.29 53.4333  12
   3   1  -3 3149.82 54.2009   9
   3   1  -3 3174.51 54.5244   1
  -1  -1   3 13.8964 1.69911  14
  -1  -1   3 13.4383 1.33717  10
  -1  -1   3 17.1237 1.42248   4
   1  -1  -3 13.4259 1.38322  16
   1  -1  -3 16.0368 1.66682   3
  -1  -1   3 17.8286 2.08918   2
   1  -1  -3 13.4684 1.58289  12
   1  -1  -3 13.5146 1.35239   5
   1   1  -3 15.4311 1.35628  12
  -1   1   3 17.8059 1.22747   6
   1   1  -3 16.6199 1.87401   3
  -1   1   3 13.8595 1.70134  14
  -1   1   3 15.5312 1.68747  15
  -1   1   3 11.9274 1.76639   2
  -1  -1  -3 1985.72 34.8611   8
   1  -1   3 1985.17 32.8843   7
   1  -1   3 1958.06 34.8769   4
   1  -1   3 1995.82 34.9923  14
   1  -1   3 1998.89 35.8242  10
  -1  -1  -3 1984.33 35.6501  16
   1  -1   3 2005.55 34.1197  11
  -1  -1  -3 1979.24 35.4006  12
  -1  -1  -3 2036.34 36.5037   3
   1  -1   3 1936.57 33.9746   2
   1   1   3 1983.49 33.4091   7
  -1   1  -3 2046.49 35.7531  13
  -1   1  -3 1965.42 36.0208   8
   1   1   3 1948.54 34.9458  14
   1   1   3 2002.13 34.3614   6
   1   1   3 2001.87 36.0370  10
  -1   1  -3 1979.56 34.6421  12
   1   1   3 1979.87 33.4979   2
   1   1   3 1942.78 34.8602   4
  -1   1  -3 2020.80 35.6095  16
  -1   1  -3 1974.73 36.4506   3
  -3  -1  -3 369.449 12.0630   3
   3  -1   3 357.989 9.51609  11
   3  -1   3 353.256 10.6691  10
   3  -1   3 350.761 8.98912  14
  -3  -1  -3 350.122 11.1321   8
  -3  -1  -3 357.487 10.4681  16
   3  -1   3 357.482 8.40169   7
   3  -1   3 373.155 10.1200   4
  -3  -1  -3 359.068 12.1942  13
   3   1   3 356.853 9.90882   4
  -3   1  -3 364.707 11.8948   3
  -3   1  -3 369.195 10.5176  16
  -3   1  -3 365.461 12.0146   8
  -3   1  -3 359.205 11.3910  13
   3   1   3 356.830 8.69228   7
   3   1   3 358.099 10.9635  10
  -3   1  -3 346.093 9.06691  15
   3   1   3 344.384 9.00812  14
  -5  -1  -3 110.319 6.09253  16
   5  -1   3 112.268 6.73833  10
  -5  -1  -3 95.9437 7.56413   8
   5  -1   3 114.824 5.05124   7
  -5  -1  -3 116.668 8.21326   3
   5  -1   3 108.212 5.95065   4
   5   1   3 105.497 5.05693   7
   5   1   3 113.517 6.74408  10
  -5   1  -3 115.559 6.39206  16
  -5   1  -3 107.452 8.19563   8
   5   1   3 111.881 5.92498   4
  -5   1  -3 110.708 8.10026   3
  -7  -1  -3 361.308 13.2489  16
  -7  -1  -3 351.382 16.1995   8
   7  -1   3 356.172 14.2465  10
   7  -1   3 366.692 11.6435   7
   7  -1   3 370.616 12.6807   4
  -7  -1  -3 362.604 16.9118   3
   7   1   3 369.782 11.9058   7
  -7   1  -3 391.025 17.3658   3
  -7   1  -3 353.334 13.0390  16
   7   1   3 366.381 14.4086  10
  -7   1  -3 377.946 17.3397   8
  -9  -1  -3 6.12940 3.77819  12
  -9  -1  -3 -0.5111 4.91406   8
  -9  -1  -3 -0.4232 4.96253   3
   9  -1   3 4.84398 2.56819   7
   9   1   3 0.35273 2.23072   7
  -9   1  -3 1.69008 3.33426  12
  -9   1  -3 4.69639 4.91880   3
  -9   1  -3 -0.3868 4.81022   8
 -12  -2   3 235.588 18.1442   8
  12  -2  -3 214.940 10.5549   7
 -12  -2   3 165.924 19.0932   3
  12   2  -3 217.432 10.6660   7
 -12   2   3 210.628 14.5678  15
 -12   2   3 209.274 14.6012   3
 -10  -2   3 460.156 19.6878  15
  10  -2  -3 488.308 14.5664   7
 -10  -2   3 468.462 22.1417   8
  10   2  -3 478.396 16.5365   1
  10   2  -3 484.622 14.7257   7
 -10   2   3 488.685 22.0622   8
 -10   2   3 457.341 20.4118  15
  -8  -2   3 561.090 20.4522  15
   8  -2  -3 576.253 14.8248  11
  -8  -2   3 557.390 20.9104   8
  -8   2   3 555.329 20.3151  15
  -8   2   3 570.282 20.6331   8
   8   2  -3 587.174 14.5028   7
   8   2  -3 576.390 16.8433   1
  -6  -2   3 586.259 18.2138  15
   6  -2  -3 598.204 13.1683  11
   6  -2  -3 585.156 13.3653   5
  -6  -2   3 557.401 14.8039   2
   6  -2  -3 552.667 13.0048   1
   6   2  -3 546.155 12.4859   7
  -6   2   3 559.445 17.4282   8
   6   2  -3 550.632 12.1495   9
  -6   2   3 574.255 18.0967  15
   6   2  -3 594.218 15.3248   1
   6   2  -3 531.171 16.1387  13
  -6   2   3 592.201 14.3462   2
   4  -2  -3 1320.05 24.0893   1
   4  -2  -3 1310.93 23.7143  11
  -4  -2   3 1386.04 26.8233   2
  -4  -2   3 1313.06 22.4135   4
   4  -2  -3 1349.47 24.2483   5
  -4  -2   3 1324.02 24.3085  14
   4  -2  -3 1296.94 22.4880   4
   4  -2  -3 1330.82 24.4356  12
   4   2  -3 1324.35 23.2264   7
  -4   2   3 1331.89 27.0708   8
   4   2  -3 1300.12 25.9129   1
   4   2  -3 1347.14 23.8757   9
  -4   2   3 1329.95 28.2706  15
  -4   2   3 1338.77 25.9072   2
   4   2  -3 1336.05 26.3063  13
  -4   2   3 1320.94 23.4899  14
  -2  -2   3 687.732 12.8120   4
   2  -2  -3 674.119 13.5385  12
  -2  -2   3 680.037 14.1098  14
   2  -2  -3 668.773 13.0170   3
   2  -2  -3 678.279 12.9698  11
   2  -2  -3 668.471 13.3287   5
  -2   2   3 688.026 12.9855   6
  -2   2   3 691.027 15.1149  15
  -2   2   3 711.622 14.7359   2
   2   2  -3 694.304 12.8187  12
  -2   2   3 691.221 13.7789  14
   2   2  -3 693.475 12.5849  13
   2   2  -3 669.182 14.1119   3
   0  -2  -3 1415.14 25.8257   3
   0  -2   3 1404.45 25.4406  10
   0  -2  -3 1378.11 25.8454  12
   0  -2   3 1438.93 25.4324   4
   0  -2  -3 1399.55 26.1792  16
   0  -2   3 1441.82 24.2149  11
   0  -2   3 1434.49 26.0391  14
   0   2  -3 1457.34 26.0042  16
   0   2   3 1405.02 25.0499   6
   0   2   3 1419.37 26.3655  10
   0   2  -3 1380.58 26.4980   8
   0   2  -3 1414.84 24.4978  12
   0   2   3 1380.84 25.3974   2
   0   2   3 1421.83 24.1942   7
   0   2  -3 1432.67 25.7757  13
   0   2   3 1371.75 25.8295  14
   0   2  -3 1382.16 26.3571   3
   2  -2   3 1278.66 23.8466  11
  -2  -2  -3 1260.44 24.6247   8
   2  -2   3 1282.76 25.2938  10
  -2  -2  -3 1274.92 26.4029   3
   2  -2   3 1287.30 25.6715  13
  -2  -2  -3 1254.83 27.6040  13
   2  -2   3 1291.53 24.6897   4
   2  -2   3 1251.65 24.1092  14
  -2  -2  -3 1294.65 25.4862  12
  -2  -2  -3 1309.80 25.7675  16
  -2   2  -3 1260.06 26.6241   8
  -2   2  -3 1252.65 26.3582   3
   2   2   3 1237.93 25.5368  10
   2   2   3 1289.80 24.0669   6
   2   2   3 1296.07 23.2120   7
   2   2   3 1272.73 24.2625  14
  -2   2  -3 1237.29 24.3301  15
  -2   2  -3 1262.07 25.2316  13
  -2   2  -3 1269.47 23.9078  12
  -2   2  -3 1288.57 25.1822  16
  -4  -2  -3 624.729 16.2060  16
  -4  -2  -3 597.025 16.8959   8
   4  -2   3 628.928 16.5891  10
   4  -2   3 582.529 17.2945  13
   4  -2   3 618.143 14.9512  11
   4  -2   3 623.950 15.3610   4
  -4  -2  -3 625.969 18.0918   3
   4  -2   3 621.434 13.3600   7
  -4   2  -3 593.037 15.0546  15
  -4   2  -3 623.401 15.9619  16
   4   2   3 622.992 14.0682   7
   4   2   3 619.180 16.7003  10
  -4   2  -3 608.592 17.6920   3
  -4   2  -3 613.061 18.2070   8
  -6  -2  -3 709.555 22.6154   3
  -6  -2  -3 747.871 22.2554   8
   6  -2   3 727.224 18.6844   4
  -6  -2  -3 693.745 19.2372  16
   6  -2   3 712.018 20.3004  10
   6  -2   3 745.998 17.1534   7
   6   2   3 732.484 17.6425   7
  -6   2  -3 696.644 19.0798  16
  -6   2  -3 746.416 22.7276   3
  -6   2  -3 771.300 23.8762   8
   6   2   3 717.767 20.5329  10
  -8  -2  -3 345.789 16.7957   8
  -8  -2  -3 377.997 18.4638   3
   8  -2   3 349.289 12.0544   7
   8   2   3 357.685 12.4503   7
   8   2   3 352.879 14.6565  10
  -8   2  -3 346.047 17.6590   8
  -8   2  -3 334.514 16.8535   3
  11  -3  -3 299.160 11.8479   7
 -11  -3   3 290.958 19.1190   8
 -11   3   3 292.425 16.1850  15
 -11   3   3 299.802 18.6541   8
  11   3  -3 293.359 13.3781   1
  11   3  -3 285.456 11.6348   7
 -11   3   3 276.930 15.3642   3
  -9  -3   3 87.2429 9.91913  15
   9  -3  -3 84.1157 5.81091  11
  -9  -3   3 82.2668 10.1476   8
  -9   3   3 93.0176 10.1639  15
  -9   3   3 97.6966 10.9411   8
   9   3  -3 84.8003 5.61409   7
   9   3  -3 91.7998 6.71404   1
  -7  -3   3 1263.96 32.2042  15
   7  -3  -3 1197.02 24.9982   5
   7  -3  -3 1246.78 25.1372  11
  -7  -3   3 1185.72 26.5717   2
   7   3  -3 1208.93 24.0648   9
  -7   3   3 1207.83 25.7659   2
  -7   3   3 1262.36 31.4102   8
  -7   3   3 1234.81 31.6913  15
   7   3  -3 1230.57 24.4522   7
   7   3  -3 1246.12 27.9656   1
   5  -3  -3 186.034 5.00989   4
   5  -3  -3 186.565 5.45923   1
   5  -3  -3 186.362 6.06420  11
   5  -3  -3 197.143 6.24163   5
  -5  -3   3 201.408 8.05052   2
  -5  -3   3 185.622 6.04833  14
  -5  -3   3 194.245 5.36291  16
   5   3  -3 197.275 7.73659   1
  -5   3   3 202.924 9.93988  15
  -5   3   3 189.776 7.27361   2
   5   3  -3 201.523 5.75628   7
   5   3  -3 192.237 6.10391   9
  -5   3   3 199.488 8.68296   8
   5   3  -3 191.854 7.86270  13
   3  -3  -3 5115.04 86.6171  11
   3  -3  -3 4977.86 86.1858  12
  -3  -3   3 5040.05 83.7412  14
   3  -3  -3 4878.50 82.7084   5
  -3  -3   3 5036.43 82.0037   4
   3   3  -3 4978.54 84.4275   1
  -3   3   3 5004.34 82.4493   6
   3   3  -3 5082.38 84.0699   7
   3   3  -3 4993.62 86.4969   9
  -3   3   3 5141.04 84.7865   2
  -3   3   3 4987.46 83.8669   8
  -3   3   3 5082.35 86.4448  15
   3   3  -3 4972.43 90.3318  13
   1  -3  -3 12.5574 1.31548   3
   1  -3  -3 13.7200 1.75171   5
   1  -3  -3 14.5189 1.85017  12
  -1  -3   3 9.85734 1.75788  14
  -1  -3   3 11.3342 1.11938  10
  -1  -3   3 13.0685 1.08347  11
  -1  -3   3 10.5408 1.40381   4
   1   3  -3 10.5522 0.94934  12
  -1   3   3 12.0294 1.64254  14
   1   3  -3 13.2240 1.76340   3
  -1   3   3 10.8387 1.46331   6
  -1   3   3 10.3140 1.59234  15
  -1   3   3 11.2587 1.91198   2
   1  -3   3 4986.05 82.5489  14
   1  -3   3 4919.69 91.4262  13
  -1  -3  -3 4942.36 82.7607  12
  -1  -3  -3 4877.43 82.8116   3
   1  -3   3 4718.88 80.7952  11
  -1  -3  -3 5010.11 90.1182  16
   1  -3   3 4997.38 82.0864  10
   1  -3   3 4992.58 82.1859   4
  -1  -3  -3 4757.95 79.9257   8
   1   3   3 4742.27 80.9220   2
  -1   3  -3 4951.34 82.8889  16
  -1   3  -3 4984.83 84.2255   8
   1   3   3 4955.91 81.7511   6
  -1   3  -3 4889.98 82.1994  12
   1   3   3 5107.17 83.3427  10
   1   3   3 4878.13 82.3473  14
  -1   3  -3 4947.96 83.1402   3
   1   3   3 4928.03 80.6679   7
   3  -3   3 5.44568 1.46552  10
   3  -3   3 4.64760 1.67313  13
   3  -3   3 3.74745 2.05053   4
  -3  -3  -3 3.19514 1.99613  13
   3  -3   3 6.05207 1.72397  11
  -3  -3  -3 4.46095 1.59964  16
  -3  -3  -3 3.57365 1.96369   8
  -3  -3  -3 3.54418 2.28305   3
   3  -3   3 2.20320 1.42332  14
  -3   3  -3 9.99649 2.80230   3
   3   3   3 4.91654 1.74809  10
  -3   3  -3 5.41335 1.78263  15
  -3   3  -3 5.33994 1.62136  12
  -3   3  -3 1.37950 1.57219  16
   3   3   3 4.88634 1.29135   7
  -3   3  -3 2.53747 1.97881   8
   5  -3   3 1062.61 25.4397  10
  -5  -3  -3 1057.75 25.0480  16
   5  -3   3 1075.36 21.6826   7
  -5  -3  -3 1075.71 26.3740   8
   5  -3   3 1075.58 23.9823  11
  -5  -3  -3 1082.88 27.7727   3
   5  -3   3 1060.62 24.0014   4
  -5   3  -3 1047.69 24.7131  16
  -5   3  -3 1084.49 27.0797   3
   5   3   3 1077.17 25.4532  10
  -5   3  -3 1036.09 24.4453  15
  -5   3  -3 1093.00 28.4753   8
   5   3   3 1062.50 22.6219   7
  -7  -3  -3 28.9514 6.42453   8
  -7  -3  -3 21.9419 4.18223  16
  -7  -3  -3 17.1796 5.50203   3
   7  -3   3 17.7293 3.54020   4
   7  -3   3 25.4074 3.57156   7
  -7   3  -3 27.7665 5.85402   3
   7   3   3 29.3105 4.10528   7
   7   3   3 29.0323 4.84817  10
  -7   3  -3 24.4428 6.20326   8
  -7   3  -3 22.1768 3.77036  16
  -9  -3  -3 111.591 12.5486   3
   9  -3   3 126.466 7.53813   7
  -9  -3  -3 149.045 11.0079  12
  -9   3  -3 122.998 11.4207   3
  -9   3  -3 121.485 10.9211   8
   9   3   3 125.429 7.43093   7
 -10  -4   3 266.467 17.5052   8
  10  -4  -3 296.378 10.9697   7
 -10  -4   3 347.041 26.0922  15
  10  -4  -3 279.541 11.2675  11
 -10   4   3 276.377 15.9604  15
 -10   4   3 277.637 16.9936   8
  10   4  -3 293.783 13.4622   1
  10   4  -3 275.478 10.8018   7
  -8  -4   3 420.303 17.9218  15
   8  -4  -3 420.570 12.6515   5
   8  -4  -3 429.156 12.8463  11
  -8   4   3 410.680 17.5292  15
   8   4  -3 407.686 11.8473   7
   8   4  -3 434.198 15.0879   1
  -8   4   3 430.140 17.8616   8
   6  -4  -3 659.769 15.2006   5
  -6  -4   3 637.178 14.7191  14
  -6  -4   3 657.231 17.6083   2
   6  -4  -3 638.477 15.0343  11
   6   4  -3 653.917 17.6298   1
   6   4  -3 649.340 15.0936   9
   6   4  -3 661.532 14.4308   7
  -6   4   3 636.509 18.8925   8
  -6   4   3 638.198 16.2535   2
  -6   4   3 650.943 20.1456  15
  -4  -4   3 2611.45 45.1218   4
   4  -4  -3 2689.60 45.4332  12
   4  -4  -3 2655.97 46.0280  11
   4  -4  -3 2232.03 44.0791   1
   4  -4  -3 2699.26 45.9752   5
   4   4  -3 2694.62 46.3982   9
  -4   4   3 2676.13 50.8031  15
  -4   4   3 2711.20 48.0051   2
   4   4  -3 2726.33 48.4239   1
  -4   4   3 2637.37 48.2038   8
   4   4  -3 2670.76 44.5812   7
  -2  -4   3 1735.16 31.0530   4
   2  -4  -3 1738.84 31.2520  11
   2  -4  -3 1730.23 31.1584   5
   2  -4  -3 1745.71 30.7338  12
  -2  -4   3 1700.77 29.3763  11
  -2   4   3 1760.38 29.7717   9
  -2   4   3 1746.35 31.0532   6
  -2   4   3 1678.28 33.0307  15
   2   4  -3 1767.73 32.2233   1
   2   4  -3 1742.62 31.2442   9
  -2   4   3 1678.01 29.5544   8
  -2   4   3 1744.46 32.6369   2
   0  -4   3 2768.71 49.3677  14
   0  -4   3 2846.47 47.8697  13
   0  -4   3 2763.85 46.8821  11
   0  -4  -3 2789.31 48.3505   5
   0  -4   3 2810.43 47.0411  10
   0  -4  -3 2871.44 48.7985  12
   0  -4  -3 2870.45 49.9410  16
   0  -4  -3 2775.98 47.3972   3
   0  -4   3 2792.40 48.5567   4
   0   4   3 2847.64 48.2831   6
   0   4   3 2692.43 46.9241  15
   0   4   3 2792.09 47.8748   9
   0   4  -3 2644.06 45.3660  12
   0   4  -3 2826.01 48.7826   3
   0   4   3 2731.70 48.5982   2
   0   4  -3 2776.92 49.9945   8
   0   4   3 2852.43 47.1006   7
  -2  -4  -3 1707.76 33.6110  16
   2  -4   3 1682.48 31.9145   4
   2  -4   3 1675.63 31.7492  10
  -2  -4  -3 1703.49 32.8018  12
  -2  -4  -3 1631.03 30.2897   8
   2  -4   3 1694.36 30.9719  11
   2  -4   3 1638.38 31.7819  14
  -2  -4  -3 1674.98 33.0302   3
   2  -4   3 1708.83 31.9778  13
  -2   4  -3 1704.85 33.3760  15
  -2   4  -3 1597.39 29.2050  12
  -2   4  -3 1693.50 33.1259   3
  -2   4  -3 1690.88 34.6044   8
   2   4   3 1712.34 33.0206  10
  -2   4  -3 1667.08 32.9180  16
   2   4   3 1716.37 30.6047   7
   2   4   3 1697.87 31.5885   6
   4  -4   3 348.240 10.5751  11
   4  -4   3 336.413 12.1176  13
   4  -4   3 316.008 9.51636  14
   4  -4   3 329.137 10.6824   4
  -4  -4  -3 342.006 12.8339   3
   4  -4   3 339.730 11.1564  10
  -4  -4  -3 348.912 11.9498  16
  -4  -4  -3 308.568 11.0313   8
   4   4   3 350.080 11.5951  10
  -4   4  -3 356.058 12.5871   3
  -4   4  -3 318.635 9.31994  12
  -4   4  -3 343.575 11.4623  16
  -4   4  -3 341.391 13.4976   8
   4   4   3 339.850 10.1888   6
   4   4   3 320.075 9.51365   7
  -4   4  -3 319.887 11.3554  15
   6  -4   3 396.292 11.4461   7
  -6  -4  -3 400.135 16.6588   3
   6  -4   3 408.940 13.5384   4
   6  -4   3 412.756 13.6320  11
  -6  -4  -3 427.924 14.6559  16
  -6   4  -3 416.356 14.3776  15
   6   4   3 413.385 14.5180  10
  -6   4  -3 391.824 13.9798  16
  -6   4  -3 430.972 17.7279   8
   6   4   3 407.087 12.3155   7
  -6   4  -3 410.487 16.2227   3
  -8  -4  -3 67.3730 8.66667   3
   8  -4   3 71.0401 6.11888   7
  -8  -4  -3 54.3322 7.55618  12
  -8   4  -3 68.9271 9.47017   8
   8   4   3 56.5309 5.77109   7
  -8   4  -3 74.9584 8.50596   3
   8   4   3 45.6891 5.84536  10
  11  -5  -3 23.3694 4.17618   7
  11  -5  -3 12.9044 3.58747  11
 -11  -5   3 10.2691 7.24912   8
 -11   5   3 16.8373 6.08842  15
  11   5  -3 13.6493 4.54944   1
 -11   5   3 5.56895 6.11516   8
  11   5  -3 16.0698 3.18293   7
  -9  -5   3 432.969 19.4243  15
   9  -5  -3 427.872 14.1055  11
  -9  -5   3 425.743 20.5391   8
   9   5  -3 416.562 13.0404   7
  -9   5   3 464.447 19.8823  15
   9   5  -3 423.913 16.3614   1
  -9   5   3 434.309 19.2811   8
   7  -5  -3 202.299 7.70458   5
   7  -5  -3 203.825 7.94768  11
  -7  -5   3 186.245 9.19696   2
  -7  -5   3 205.198 12.1341  15
  -7   5   3 203.723 11.8657  15
  -7   5   3 189.324 8.30327   2
   7   5  -3 208.451 9.72867   1
   7   5  -3 194.332 7.16602   7
  -7   5   3 189.374 10.9842   8
   7   5  -3 189.065 7.55717   9
   5  -5  -3 961.133 20.6041  11
   5  -5  -3 945.439 19.5050   4
   5  -5  -3 988.792 20.4181   5
  -5  -5   3 957.885 22.2768  13
   5   5  -3 981.106 19.2787   7
  -5   5   3 977.765 23.3253   8
  -5   5   3 991.763 25.5568  15
   5   5  -3 1013.45 21.1606   9
   5   5  -3 992.824 23.0042   1
  -5   5   3 991.077 22.2826   2
   3  -5  -3 105.051 4.06786  12
  -3  -5   3 99.8226 3.75313  11
  -3  -5   3 108.333 4.52344   4
   3  -5  -3 108.593 4.88296   5
   3  -5  -3 110.164 4.96547  11
  -3  -5   3 107.202 4.31196  13
   3   5  -3 105.635 5.27295   1
  -3   5   3 107.427 4.70116   6
   3   5  -3 112.222 4.91428   9
  -3   5   3 117.497 5.87994   2
  -3   5   3 104.745 3.49828   9
  -3   5   3 113.817 4.81958   8
   3   5  -3 108.312 3.21812   6
  -3   5   3 109.748 6.48094  15
   3   5  -3 106.557 3.59870   7
   1  -5  -3 528.613 12.0749  12
   1  -5  -3 525.195 12.5044   5
  -1  -5   3 540.480 12.8157   4
  -1  -5   3 511.378 8.90029  13
  -1  -5   3 523.704 11.2196  11
  -1   5   3 570.830 12.7108   6
  -1   5   3 537.875 12.9768  15
   1   5  -3 522.692 10.4785   6
   1   5  -3 530.662 12.5117   9
  -1   5   3 560.784 13.6025   2
  -1   5   3 559.337 11.9610   9
   1   5  -3 552.819 12.6574   1
   1   5  -3 530.249 12.3510   3
   1  -5   3 8.04600 1.47423  10
   1  -5   3 10.7263 1.37870  13
  -1  -5  -3 6.28530 1.87228   3
   1  -5   3 7.98368 2.08174  14
  -1  -5  -3 8.62131 2.18222  16
  -1  -5  -3 7.16615 1.85256  12
   1  -5   3 6.73336 1.66307  11
   1  -5   3 11.9475 2.39131   4
   1   5   3 18.0079 2.43468  10
   1   5   3 6.78176 1.83487   6
   1   5   3 8.24497 1.56013   7
   1   5   3 8.74623 1.94960   9
  -1   5  -3 10.0025 2.49726   8
  -1   5  -3 7.51052 1.79684   3
   3  -5   3 369.777 10.5859  11
  -3  -5  -3 371.255 12.2936   3
  -3  -5  -3 357.294 11.8462  12
   3  -5   3 383.532 11.5543   4
  -3  -5  -3 366.001 12.3569  16
   3  -5   3 343.938 10.5024  14
  -3   5  -3 359.292 11.8242   3
   3   5   3 367.478 10.7181   6
  -3   5  -3 369.345 13.4507   8
   3   5   3 373.095 10.0816   7
   3   5   3 383.135 11.7737  10
  -3   5  -3 353.044 12.2740  15
  -5  -5  -3 34.6405 5.15073  12
   5  -5   3 33.2707 4.20737  11
  -5  -5  -3 23.7554 4.77108   3
  -5  -5  -3 31.6288 4.61076  16
   5  -5   3 29.6095 4.08276   4
  -5   5  -3 36.1172 5.05904   3
  -5   5  -3 33.6245 4.69379  15
   5   5   3 31.0303 4.16808  10
  -5   5  -3 31.8891 5.66618   8
   5   5   3 31.8876 3.98392   6
   5   5   3 38.1725 3.84431   7
  -7  -5  -3 365.101 15.5774  12
  -7  -5  -3 330.455 13.7090  16
   7  -5   3 335.093 13.1026  11
   7  -5   3 331.277 10.8129   7
   7  -5   3 360.927 13.3133   4
  -7  -5  -3 327.490 16.3817   3
  -7   5  -3 342.599 17.0847   8
   7   5   3 341.634 13.4677  10
  -7   5  -3 311.570 14.4527   3
   7   5   3 346.404 12.0522   7
 -10  -6   3 34.1504 8.42809   8
  10  -6  -3 50.3276 5.84989  11
  10   6  -3 46.4233 5.10210   7
  10   6  -3 27.6559 5.53504   1
 -10   6   3 48.6415 7.55692  15
 -10   6   3 56.6878 9.00282   8
  -8  -6   3 282.735 15.4273  15
   8  -6  -3 274.426 10.3269   5
   8  -6  -3 283.027 10.8593  11
   8   6  -3 277.620 9.70118   7
  -8   6   3 295.241 14.7576  15
  -8   6   3 284.246 14.3975   8
   8   6  -3 277.454 12.6072   1
   8   6  -3 269.465 10.2317   9
   6  -6  -3 951.078 21.1344  11
   6  -6  -3 921.548 20.4133   5
   6  -6  -3 893.030 19.6477   4
  -6   6   3 915.585 24.0951   8
   6   6  -3 933.894 23.5512   1
  -6   6   3 931.319 26.2286  15
   6   6  -3 913.910 21.1881   9
  -6   6   3 916.775 22.1024   2
   6   6  -3 919.173 19.4940   7
   4  -6  -3 477.917 12.3125   4
  -4  -6   3 479.743 11.2798  11
   4  -6  -3 479.874 12.2907   5
   4  -6  -3 503.268 12.8631  11
  -4  -6   3 482.929 12.3437   4
   4  -6  -3 490.875 11.0570  12
   4   6  -3 496.995 14.1545   1
   4   6  -3 485.515 13.1156   9
  -4   6   3 490.645 15.8801  15
   4   6  -3 481.971 10.9279   7
  -4   6   3 483.036 13.8879   2
  -4   6   3 473.106 12.4053   6
  -2  -6   3 2287.34 41.0897   4
   2  -6  -3 2244.14 40.9275  11
   2  -6  -3 2234.82 40.3926   5
   2  -6  -3 2176.29 38.9555  12
  -2  -6   3 2197.90 38.9010  11
  -2  -6   3 2232.21 38.2184  13
   2   6  -3 2272.49 41.1107   9
  -2   6   3 2244.74 42.2859   2
  -2   6   3 2220.08 39.1033   9
  -2   6   3 2221.83 42.6746  15
   2   6  -3 2186.54 37.8587   6
  -2   6   3 2289.24 40.6941   6
   2   6  -3 2175.53 40.9367   1
   0  -6  -3 994.533 20.5942  12
   0  -6   3 997.917 19.8144  11
   0  -6   3 1029.27 21.7476   4
   0  -6  -3 1006.63 21.0341   5
   0   6   3 1007.24 20.6946   9
   0   6  -3 1009.72 22.8163   8
   0   6   3 1046.23 21.3277   6
   0   6  -3 935.563 19.6282   1
   0   6  -3 1012.21 21.0540   9
   0   6  -3 978.503 20.3538   3
   2  -6   3 499.143 13.9166  14
  -2  -6  -3 484.959 13.2580   3
   2  -6   3 490.618 12.5269  11
   2  -6   3 506.959 13.9471   4
  -2  -6  -3 501.360 15.1296  16
  -2  -6  -3 497.227 13.7970  12
   2   6   3 501.477 12.1666   7
   2   6   3 500.143 13.6840  10
  -2   6  -3 486.595 13.1783   3
  -2   6  -3 476.911 15.2988   8
   2   6   3 506.014 13.2640   6
   4  -6   3 684.596 18.0936   4
   4  -6   3 684.211 17.1322  11
   4  -6   3 645.961 16.7482  14
  -4  -6  -3 677.381 19.0703  12
  -4  -6  -3 678.229 19.4587   3
  -4  -6  -3 712.815 19.8764  16
  -4   6  -3 713.214 20.1597  15
  -4   6  -3 665.699 18.3080   3
   4   6   3 669.063 17.9426  10
   4   6   3 694.549 16.5703   7
  -4   6  -3 698.522 21.3691   8
   4   6   3 681.266 17.2791   6
   6  -6   3 32.8760 4.92810   4
   6  -6   3 42.1058 5.35493  11
  -6  -6  -3 43.8876 6.31073  12
  -6  -6  -3 32.7160 5.08528  16
  -6  -6  -3 25.5842 5.43345   3
  -6   6  -3 27.0053 4.83399   3
   6   6   3 23.7211 5.97458  10
  -6   6  -3 33.5866 5.32955  15
   6   6   3 37.9287 4.50535   7
  -6   6  -3 41.9762 7.03384   8
   8  -6   3 87.9841 6.96720  11
   8  -6   3 82.7113 5.96553   7
  -8  -6  -3 84.9794 9.68783  12
  -8  -6  -3 84.5739 10.0864   3
   8   6   3 78.9898 6.37225   7
  -8   6  -3 81.7841 10.2189   8
   9  -7  -3 148.023 8.57456  11
  -9  -7   3 164.662 13.4246   8
   9  -7  -3 137.380 7.44450   5
   9   7  -3 148.701 7.54099   7
  -9   7   3 144.499 11.9991  15
  -9   7   3 154.494 11.5957   8
   9   7  -3 140.332 10.0412   1
   7  -7  -3 122.298 7.09404  11
   7  -7  -3 114.731 6.40365   5
  -7  -7   3 129.951 8.58681   2
   7   7  -3 102.870 6.30992   9
   7   7  -3 126.478 6.00877   7
  -7   7   3 125.685 10.1675  15
   7   7  -3 113.853 7.67844   1
  -7   7   3 113.741 8.57240   8
   5  -7  -3 783.871 18.7306  11
   5  -7  -3 752.787 17.8579   4
   5  -7  -3 732.603 17.4880   5
  -5   7   3 770.584 18.3441   6
   5   7  -3 760.634 16.4604   7
  -5   7   3 769.549 22.8376  15
   5   7  -3 771.647 20.3753   1
  -5   7   3 730.988 19.4552   8
   5   7  -3 774.679 19.0974   9
   3  -7  -3 3.97343 1.63897  11
  -3  -7   3 -0.1973 1.03326  11
  -3  -7   3 1.41559 1.52938   4
   3  -7  -3 1.33383 1.78497   5
   3   7  -3 0.22753 1.38821   1
  -3   7   3 0.62770 0.92854   9
  -3   7   3 0.75638 2.10236  15
  -3   7   3 1.42674 1.27162   6
   3   7  -3 0.52990 1.48334   9
   1  -7  -3 2342.84 44.1070  11
  -1  -7   3 2348.24 42.0669  11
  -1  -7   3 2425.22 44.5507   4
   1  -7  -3 2347.40 43.3041   5
  -1   7   3 2323.35 44.6261  15
  -1   7   3 2413.86 43.8645   6
   1   7  -3 2400.17 44.2278   9
  -1   7   3 2387.18 42.9337   9
   1   7  -3 2387.00 41.2071   6
   1   7  -3 2324.91 42.8398   1
   1  -7   3 53.9980 3.94989  11
   1  -7   3 59.0017 4.90521   4
  -1  -7  -3 59.4510 4.35109  12
  -1  -7  -3 59.0563 4.13587   5
   1  -7   3 63.1147 5.01702  14
  -1   7  -3 53.3643 3.51898   3
   1   7   3 59.5711 4.37542   9
   1   7   3 53.2028 4.17729   6
  -1   7  -3 55.8489 5.14241   8
  -1   7  -3 60.6188 4.00980   9
   1   7   3 58.6816 4.08429  10
  -3  -7  -3 1296.89 29.0446  12
  -3  -7  -3 1319.73 31.2947  16
   3  -7   3 1294.47 28.7942  14
   3  -7   3 1359.20 29.4959   4
   3  -7   3 1320.62 27.7794  11
   3   7   3 1372.90 27.1629   7
   3   7   3 1352.55 28.5269   6
  -3   7  -3 1347.67 32.1917   8
  -3   7  -3 1312.27 27.3037   9
  -5  -7  -3 9.73636 3.62750  12
  -5  -7  -3 2.11509 2.94701   3
  -5  -7  -3 1.89127 2.75642  16
   5  -7   3 5.58848 2.70053  11
   5  -7   3 6.43636 3.36657   4
   5   7   3 2.16847 2.26850   6
   5   7   3 3.90598 2.18531   7
  -5   7  -3 1.11057 3.12391   8
   7  -7   3 140.652 8.94494   4
  -7  -7  -3 134.861 10.1119  12
   7  -7   3 141.142 7.09596   7
   7  -7   3 154.890 9.25963  11
  -7  -7  -3 113.933 10.3317   3
   7   7   3 133.499 7.65201   7
  -7   7  -3 139.072 11.4562   8
  10  -8  -3 87.0742 6.92981  11
  10   8  -3 73.8829 5.94512   7
  10   8  -3 90.6191 8.25719   1
   8  -8  -3 270.945 10.3688   5
   8  -8  -3 243.521 10.5661  11
  -8  -8   3 162.471 19.3360  15
   8   8  -3 259.897 12.8800   1
  -8   8   3 253.046 14.8149  15
   8   8  -3 236.727 9.23862   7
   8   8  -3 226.230 10.4656   9
   6  -8  -3 475.229 13.8610   4
   6  -8  -3 486.854 13.8298   5
   6  -8  -3 493.376 15.0073  11
   6   8  -3 487.587 12.7747   7
  -6   8   3 497.746 14.8927   6
   6   8  -3 492.250 16.6760   1
  -6   8   3 506.883 19.2692  15
   6   8  -3 484.647 15.2447   9
   4  -8  -3 53.0941 4.50433   5
   4  -8  -3 48.8534 4.91465  11
  -4  -8   3 50.7814 4.86545   4
   4  -8  -3 53.3584 4.58636   4
   4   8  -3 62.5771 4.88034   1
   4   8  -3 52.6508 5.36705   9
  -4   8   3 50.9208 6.13865  15
  -4   8   3 53.9936 4.44473   6
   2  -8  -3 723.994 16.8742   5
  -2  -8   3 678.150 15.8002  11
   2  -8  -3 692.408 17.6185  11
  -2  -8   3 723.580 18.3051   4
   2   8  -3 679.738 17.1333   1
  -2   8   3 705.775 19.3117  15
   2   8  -3 692.622 17.9325   9
  -2   8   3 706.479 17.4398   6
  -2   8   3 720.781 16.1763   9
   0  -8   3 225.269 9.04591   4
   0  -8   3 232.216 8.02919  11
   0  -8  -3 222.837 8.97794  11
   0  -8  -3 211.268 7.44339  12
   0  -8  -3 221.525 8.49053   5
   0   8  -3 234.236 8.94600   9
   0   8  -3 236.412 7.32588   6
   0   8   3 230.810 8.50590  10
   0   8   3 226.206 8.39783   9
   0   8   3 227.266 8.69111   6
   2  -8   3 211.781 8.20811  11
   2  -8   3 206.872 9.52785  14
   2  -8   3 212.617 9.60225   4
  -2  -8  -3 216.819 10.2567  16
  -2  -8  -3 215.230 8.92721   5
  -2  -8  -3 207.336 8.59397  12
   2   8   3 217.100 8.88527   6
  -2   8  -3 211.526 8.44482   9
  -2   8  -3 221.616 10.6517   8
   2   8   3 205.003 8.63020   9
   4  -8   3 711.405 19.7600   4
  -4  -8  -3 667.602 19.6246  12
   4  -8   3 697.340 18.6100  11
  -4  -8  -3 708.900 21.6873  16
   4   8   3 722.546 17.8424   7
   4   8   3 705.911 18.9433   6
  -4   8  -3 719.817 22.9115   8
  -4   8  -3 673.320 17.7276   9
   6  -8   3 127.640 8.75206   4
   6  -8   3 111.087 7.84161  11
  -6  -8  -3 109.822 8.93373  12
  -6   8  -3 120.605 10.3529   8
   6   8   3 106.451 6.82978   7
   6   8   3 111.263 7.44612   6
   9  -9  -3 8.30489 3.49418  11
   9  -9  -3 8.92844 2.39111   5
  -9   9   3 11.2793 3.46706   6
   9   9  -3 5.85828 3.11771   1
   9   9  -3 8.45746 2.82891   7
  -9   9   3 7.36486 4.42452  15
   7  -9  -3 715.225 18.7755   5
   7  -9  -3 703.849 19.7068  11
   7   9  -3 703.034 17.5576   7
  -7   9   3 715.547 25.0311  15
   7   9  -3 715.412 20.6629   9
  -7   9   3 747.149 20.4917   6
   7   9  -3 710.321 22.3853   1
  -5  -9   3 29.0044 4.11675   4
   5  -9  -3 32.9122 4.26022   4
   5  -9  -3 33.1357 4.52248  11
   5  -9  -3 32.2957 4.00734   5
   5   9  -3 30.6347 4.64560   1
  -5   9   3 39.4974 6.11748  15
   5   9  -3 22.1971 3.97879   9
  -5   9   3 37.8793 4.72813   6
   3  -9  -3 398.268 11.9682   5
   3  -9  -3 404.773 13.0033  11
  -3  -9   3 393.594 11.3905  11
  -3  -9   3 403.198 13.0862   4
  -3   9   3 397.742 12.9071   6
  -3   9   3 403.878 15.1394  15
   3   9  -3 399.592 13.4184   9
   3   9  -3 392.183 12.6987   1
   1  -9  -3 31.3792 4.06852   5
   1  -9  -3 34.0745 4.41980  11
  -1  -9   3 28.2876 3.53655  11
  -1  -9   3 31.3540 4.08828   4
  -1   9   3 27.8854 3.85326   6
   1   9  -3 27.3219 3.85609   9
  -1   9   3 28.3671 3.59758   9
   1  -9   3 165.033 9.02317  14
   1  -9   3 171.907 8.86233   4
   1  -9   3 174.279 7.68822  11
  -1  -9  -3 163.821 7.92677   5
  -1   9  -3 174.020 7.94722   9
   1   9   3 167.013 8.06862   9
   1   9   3 174.232 8.20361   6
  -1   9  -3 172.908 6.96919   6
   3  -9   3 59.0410 6.70404   4
  -3  -9  -3 45.0658 6.11444  16
   3  -9   3 51.3081 5.21290  11
   3  -9   3 49.6236 5.79958  14
  -3  -9  -3 52.1938 5.48280   5
  -3   9  -3 54.7483 5.34706   9
  -3   9  -3 45.0349 6.35390   8
   3   9   3 49.1091 5.20272   6
   5  -9   3 369.895 14.5131   4
   5  -9   3 378.291 13.8735  11
  -5  -9  -3 368.896 14.7212  12
  -5  -9  -3 385.546 14.6394   5
   5   9   3 371.016 13.4917   6
  -5   9  -3 405.064 17.5750   8
   5   9   3 371.503 12.5632   7
  -7  -9  -3 -0.1505 3.57982  12
   7  -9   3 2.68470 3.57920   4
   7   9   3 2.55515 2.59138   7
   8 -10  -3 6.74576 3.56480  11
   8 -10  -3 6.76616 2.83990   5
   8  10  -3 4.61733 3.16745   9
   8  10  -3 9.86398 2.77959   7
  -8  10   3 19.5818 5.71256  15
   8  10  -3 4.77743 3.61992   1
  -8  10   3 9.72785 3.82550   6
   6 -10  -3 99.7848 7.60424  11
   6 -10  -3 99.8390 6.34875   5
  -6  10   3 98.0207 7.27155   6
  -6  10   3 106.950 9.16471  15
   6  10  -3 98.6970 7.84349   1
   6  10  -3 103.561 7.66696   9
   4 -10  -3 20.4208 3.64975   4
   4 -10  -3 25.9756 4.48076  11
  -4 -10   3 20.1620 3.51275   4
   4 -10  -3 18.7879 3.34195   5
   4  10  -3 14.2375 3.30781   1
   4  10  -3 19.9569 3.67353   9
  -4  10   3 23.8140 3.99689   6
  -4  10   3 29.0135 5.53577  15
  -2 -10   3 176.986 9.31641   4
   2 -10  -3 170.865 7.93106   5
  -2 -10   3 177.664 7.55186  11
   2 -10  -3 190.765 9.17054  11
  -2  10   3 176.513 8.67726   6
  -2  10   3 167.211 7.50823   9
   2  10  -3 172.903 8.93584   9
   0 -10  -3 3.11662 2.40482   5
   0 -10  -3 6.14485 2.88447  11
   0 -10   3 5.94406 2.49983  11
   0 -10   3 1.76703 2.98053   4
   0  10   3 17.8413 3.70477   6
   0  10   3 8.18172 2.31045   9
   0  10  -3 4.67793 2.52290   9
   2 -10   3 1.76358 2.34945  11
  -2 -10  -3 4.89065 2.81110   5
   2 -10   3 1.12102 3.18996   4
  -2 -10  -3 0.69877 1.76585  16
   2 -10   3 2.59828 2.76678  14
   2  10   3 -3.4395 2.14126   9
  -2  10  -3 1.87817 2.42433   8
   2  10   3 -3.7097 2.10610   6
  -2  10  -3 -0.4068 1.68222   6
  -2  10  -3 2.84044 2.29705   9
   4 -10   3 95.8127 7.16805  11
   4 -10   3 99.6286 8.40653   4
  -4 -10  -3 95.4874 7.46821   5
  -4  10  -3 89.5710 8.45692   8
   4  10   3 89.1031 7.12064   6
  -4  10  -3 84.0589 6.35579   6
   6 -10   3 31.3544 5.56729   4
   6 -10   3 30.5438 5.41177  11
  -6 -10  -3 36.2590 5.54122   5
  -6  10  -3 40.6794 7.09614   8
   6  10   3 28.6259 4.21364   6
   7 -11  -3 29.2715 4.38483   5
   7 -11  -3 40.8590 5.94139  11
  -7  11   3 29.7274 5.32032   6
   7  11  -3 26.9224 5.06824   9
  -7  11   3 38.9749 6.68481  15
   7  11  -3 25.8037 5.33141   1
  -5 -11   3 160.395 9.23162   4
   5 -11  -3 141.349 9.00515  11
   5 -11  -3 132.334 7.22941   5
   5 -11  -3 134.526 8.49486   4
  -5  11   3 145.382 8.86992   6
   5  11  -3 132.716 8.45444   1
  -5  11   3 164.139 11.5047  15
   5  11  -3 133.866 8.46840   9
   3 -11  -3 1.50469 1.95666   4
   3 -11  -3 1.27731 2.87925  11
   3 -11  -3 4.72430 2.58320   5
  -3 -11   3 2.49542 3.14431   4
   3  11  -3 0.49233 2.57089   9
  -3  11   3 3.93154 2.74927   6
  -1 -11   3 763.021 21.4601   4
   1 -11  -3 697.253 20.0467  11
   1 -11  -3 683.535 18.1426   5
  -1  11   3 694.238 19.6215   6
  -1  11   3 669.249 18.3689   9
   1  11  -3 674.344 20.1739   9
   1 -11   3 101.086 8.35526   4
  -1 -11  -3 93.4386 7.04349  11
   1 -11   3 97.1124 8.23213  14
  -1 -11  -3 97.1882 6.97530   5
   1 -11   3 95.1320 6.61559  11
   1  11   3 92.5349 6.97236   9
  -1  11  -3 95.6758 7.15332   9
   1  11   3 92.6140 7.01028   6
  -3 -11  -3 358.492 13.5828   5
   3 -11   3 357.476 14.9172  14
   3 -11   3 348.466 14.9938   4
  -3 -11  -3 363.907 14.5773  11
   3 -11   3 362.936 13.0502  11
  -3  11  -3 334.105 12.8602   9
   3  11   3 354.329 13.5922   6
  -3  11  -3 344.557 15.3519   8
   5 -11   3 20.6879 4.56125  11
  -5 -11  -3 18.3346 4.37325   5
   5 -11   3 13.3450 4.65692   4
  -5  11  -3 6.61965 3.62859   6
   5  11   3 7.26609 3.46873   6
  -5  11  -3 19.4024 4.98947   8
   6 -12  -3 23.1777 5.13608  11
  -6 -12   3 31.0232 5.36546  14
   6  12  -3 26.4969 4.77245   9
  -6  12   3 25.1412 5.21844   6
   4 -12  -3 347.599 14.0431  11
  -4 -12   3 319.398 13.6784   4
   4 -12  -3 325.697 13.7071   4
   4  12  -3 324.594 14.2625   9
  -4  12   3 328.732 13.5636   6
   2 -12  -3 9.88074 3.09305   5
   2 -12  -3 11.7031 3.95118  11
  -2 -12   3 5.52011 3.86775   4
   2 -12  -3 11.5480 3.20620   4
   2  12  -3 16.7991 4.36175   9
  -2  12   3 13.9939 3.78510   6
   0 -12   3 160.784 10.6436   4
   0 -12   3 167.970 8.57481  11
   0 -12  -3 162.746 9.71184  11
   0 -12  -3 151.416 8.47873   5
   0 -12   3 173.323 11.0158  14
   0  12   3 156.343 9.11391   6
   0  12  -3 163.357 9.31129   9
   0  12   3 160.585 8.98914   9
   2 -12   3 168.981 11.1207   4
   2 -12   3 163.404 8.98230  11
   2 -12   3 188.336 11.0407  14
  -2 -12  -3 167.401 10.2514  11
  -2 -12  -3 182.401 9.58632   5
  -2  12  -3 174.598 9.82917   9
   2  12   3 166.851 9.57692   6
   4 -12   3 8.73145 4.10270  11
  -3 -13   3 167.097 10.0151   4
  -3 -13   3 181.727 11.6408  14
   3 -13  -3 170.769 9.77426  11
   3 -13  -3 176.694 10.8543   4
  -3  13   3 175.216 10.3097   6
   3  13  -3 153.275 10.2127   9
  -1 -13   3 375.836 16.0771   4
   1 -13  -3 370.764 15.5923   4
  -1 -13   3 377.153 16.5657  14
   1 -13  -3 354.016 14.8033  11
  -1  13   3 350.809 14.5595   6
   1  13  -3 328.224 14.3097   9
   1 -13   3 292.405 14.3853   4
  -1 -13  -3 300.091 13.5967  11
   1 -13   3 291.030 14.9811  14
   1  13   3 299.922 13.1267   6
  -1  13  -3 270.712 12.8671   9
 -12   0   4 1435.76 42.2072   3
 -12   0   4 1481.73 44.5341   8
  12   0  -4 1474.63 33.2887   7
 -12   0   4 1404.14 41.4008  15
  10   0  -4 100.944 6.88412   1
 -10   0   4 99.7616 11.3104  15
  10   0  -4 107.475 6.44633   7
 -10   0   4 110.047 12.2212   8
  -8   0   4 3325.87 68.2935   8
  -8   0   4 3225.78 60.5097   2
   8   0  -4 3421.40 58.8843   7
   8   0  -4 3309.92 61.3863   1
  -8   0   4 3457.20 69.3903  15
  -6   0   4 359.653 11.5974   2
  -6   0   4 377.321 14.5551  15
   6   0  -4 355.256 8.35712  11
   6   0  -4 369.854 10.7493   1
   6   0  -4 339.105 12.0680  13
   6   0  -4 367.007 9.39981   5
  -4   0   4 2063.20 40.2376  15
  -4   0   4 2053.36 37.7162   2
   4   0  -4 2000.90 33.1318  11
   4   0  -4 2019.62 35.7171  12
   4   0  -4 2005.29 33.3057   9
   4   0  -4 1985.04 36.3769   1
   4   0  -4 2013.45 34.5508   5
  -4   0   4 1976.40 35.1627  14
  -2   0   4 1363.02 25.1511  14
   2   0  -4 1334.27 25.1935   3
   2   0  -4 1338.61 23.3175   5
  -2   0   4 1367.90 25.9980   2
   2   0  -4 1331.22 24.5300  12
  -2   0   4 1333.48 23.4345   4
  -2   0   4 1325.52 22.7155   6
   2   0  -4 1391.99 23.9027  16
   0   0   4 823.786 16.3777   4
   0   0   4 837.203 17.5734  10
   0   0  -4 789.477 17.4406   3
   0   0  -4 832.356 16.9774  16
   0   0  -4 809.192 16.6183  12
   0   0   4 816.695 16.9709  14
   0   0  -4 813.124 16.4841   8
   0   0   4 798.618 14.1433   7
   0   0   4 805.083 16.2615   2
   0   0   4 840.310 15.3236   6
   2   0   4 12.7539 1.47488   7
   2   0   4 5.59628 1.75384  14
  -2   0  -4 6.11402 2.17901   8
  -2   0  -4 9.92995 2.15950  12
   2   0   4 10.7885 2.27721  10
  -2   0  -4 4.97219 2.51835   3
  -2   0  -4 10.4942 2.29295  16
  -2   0  -4 7.09195 2.04171  13
   2   0   4 5.77646 1.54401   4
  -4   0  -4 1788.41 35.8168  12
   4   0   4 1755.06 32.4275   7
   4   0   4 1794.39 36.9373  10
   4   0   4 1683.87 32.6709  14
  -4   0  -4 1741.06 37.2274   8
  -4   0  -4 1772.43 38.5916   3
  -4   0  -4 1758.70 35.8726  16
   4   0   4 1721.44 34.7224   4
   6   0   4 24.7932 4.12012  10
  -6   0  -4 30.4048 5.61052   8
   6   0   4 25.7229 4.09997   4
  -6   0  -4 28.4648 5.67669   3
  -6   0  -4 18.4950 3.97241  16
  -6   0  -4 19.8364 4.25665  12
   6   0   4 17.3901 2.85524   7
  -8   0  -4 862.178 28.3084   8
  -8   0  -4 919.773 30.2385   3
  -8   0  -4 863.570 25.7772  12
   8   0   4 894.280 22.2822   7
  11  -1  -4 143.768 7.92578   7
 -11  -1   4 126.033 13.8642   8
 -11  -1   4 114.075 12.4528  15
  11   1  -4 131.301 8.43133   1
  11   1  -4 127.129 7.70475   7
 -11   1   4 115.295 12.2639  15
 -11   1   4 143.684 14.7233   8
   9  -1  -4 58.7472 5.45156   1
   9  -1  -4 65.0468 4.35306   7
  -9  -1   4 74.6972 9.65138  15
  -9  -1   4 57.8263 8.45790   8
   9  -1  -4 66.9043 4.61777  11
   9   1  -4 61.7407 4.54530   7
  -9   1   4 66.5123 8.95466  15
   9   1  -4 59.2066 5.35148   1
  -9   1   4 63.9596 9.04455   8
   7  -1  -4 990.342 22.0405   1
   7  -1  -4 1011.45 21.2016   5
  -7  -1   4 1046.53 28.4546  15
   7  -1  -4 988.019 20.2496  11
  -7  -1   4 1036.49 23.3125   2
   7   1  -4 1009.02 20.3602   7
  -7   1   4 1018.09 27.0471   8
   7   1  -4 1018.09 23.3886   1
  -7   1   4 1018.80 28.0130  15
  -7   1   4 1008.63 22.7579   2
  -5  -1   4 12.3810 3.61290  15
  -5  -1   4 14.6641 2.04910  14
   5  -1  -4 11.5417 1.75014   5
   5  -1  -4 14.8823 2.11207  12
   5  -1  -4 12.1943 1.87241   1
  -5  -1   4 11.1225 2.87677   2
   5  -1  -4 13.7836 1.52334  11
  -5   1   4 11.4625 2.83932   2
   5   1  -4 12.1132 1.31441   9
   5   1  -4 12.3701 1.59606   5
   5   1  -4 11.8706 1.36326   7
  -5   1   4 13.0161 3.85763  15
   5   1  -4 15.6981 2.65649  13
  -5   1   4 12.6129 1.50542  14
   5   1  -4 11.6150 1.97175   1
  -3  -1   4 792.659 16.0841  14
   3  -1  -4 774.321 14.1692  16
  -3  -1   4 774.188 17.3413   2
   3  -1  -4 782.950 14.9236   5
   3  -1  -4 771.283 13.9682  11
   3  -1  -4 784.934 15.7211  12
  -3  -1   4 762.510 13.8242   4
  -3   1   4 779.330 18.1855  15
   3   1  -4 769.400 15.3109  12
   3   1  -4 800.562 14.0740  16
  -3   1   4 783.735 15.7342  14
  -3   1   4 770.017 17.0708   2
   3   1  -4 768.242 13.2688   7
   3   1  -4 764.648 13.9942   5
  -3   1   4 788.231 14.2804   6
   1  -1  -4 399.685 9.46148  16
   1  -1  -4 402.968 9.83074   3
  -1  -1   4 410.535 10.0465  14
  -1  -1   4 400.460 8.99870   4
   1  -1  -4 397.144 8.82486   5
  -1  -1   4 380.233 9.97191   2
  -1  -1   4 410.077 9.63136  10
   1  -1  -4 397.285 9.52552  12
   1   1  -4 404.766 9.11417  12
   1   1  -4 396.712 7.70916   5
  -1   1   4 395.027 8.48390   6
  -1   1   4 384.370 9.77461  14
  -1   1   4 397.076 9.88045   2
   1   1  -4 407.438 9.43596  16
   1   1  -4 394.508 10.1002   3
  -1   1   4 396.297 8.95873   4
  -1   1   4 385.632 9.32697  15
  -1  -1  -4 170.522 6.40403  16
   1  -1   4 164.832 5.90974   4
  -1  -1  -4 160.010 5.53871   8
  -1  -1  -4 163.499 6.86879   3
   1  -1   4 157.553 5.96472  14
   1  -1   4 167.231 6.38793  10
   1  -1   4 157.281 4.04201   7
  -1  -1  -4 163.728 6.04080  12
   1  -1   4 154.679 5.09300   2
   1   1   4 161.195 4.86182   2
   1   1   4 164.352 5.21083   6
  -1   1  -4 156.711 6.32121   8
   1   1   4 163.131 5.95518  14
   1   1   4 168.513 5.90200   4
   1   1   4 167.254 6.57763  10
  -1   1  -4 164.278 6.92913   3
  -1   1  -4 160.801 5.67088  12
   1   1   4 155.168 4.37330   7
  -1   1  -4 167.323 6.29699  16
  -1   1  -4 163.117 6.13707  13
   3  -1   4 721.939 14.8714   7
  -3  -1  -4 731.241 18.0633  16
   3  -1   4 714.208 16.2446  14
   3  -1   4 747.394 17.4033   4
  -3  -1  -4 704.578 19.8547  13
  -3  -1  -4 742.461 19.7856   3
  -3  -1  -4 747.703 18.1877  12
  -3  -1  -4 738.242 18.2352   8
   3  -1   4 737.609 18.5128  10
   3   1   4 715.574 15.1881   7
  -3   1  -4 746.496 19.2456   8
  -3   1  -4 732.872 19.7437   3
  -3   1  -4 734.508 17.8331  16
   3   1   4 715.597 16.3496  14
  -3   1  -4 716.210 18.8752  13
   3   1   4 732.682 18.6679  10
  -3   1  -4 760.365 17.4802  12
   3   1   4 725.711 17.1328   4
  -5  -1  -4 3.06023 2.05211  12
  -5  -1  -4 5.11259 3.35803   8
  -5  -1  -4 4.72174 2.55875  16
  -5  -1  -4 2.51745 3.01364   3
   5  -1   4 0.69259 1.92301  10
   5  -1   4 2.56346 1.64082   4
   5  -1   4 2.15121 1.35075   7
  -5   1  -4 6.71480 2.67616  12
   5   1   4 2.81974 2.05058  10
   5   1   4 3.37563 1.63002   7
  -5   1  -4 4.08257 3.47653   8
  -5   1  -4 4.43303 1.97977  16
  -5   1  -4 4.56766 3.34745   3
  -7  -1  -4 86.8341 10.0897   3
  -7  -1  -4 90.8979 7.99744  12
  -7  -1  -4 69.1081 6.59619  16
   7  -1   4 70.7510 5.24532   7
  -7  -1  -4 82.0096 9.27787   8
   7  -1   4 84.7494 6.60905   4
   7  -1   4 68.6221 6.37256  10
   7   1   4 79.2587 5.67483   7
  -7   1  -4 70.6580 6.36037  12
   7   1   4 88.5205 7.16805  10
  -7   1  -4 90.2700 9.83061   8
  -7   1  -4 75.5605 6.26549  16
  -7   1  -4 96.4854 10.4653   3
  -9  -1  -4 106.727 10.1874  12
   9  -1   4 100.171 6.94292   7
  -9  -1  -4 98.0908 10.8195   3
   9   1   4 111.682 7.36284   7
  -9   1  -4 91.5718 10.6352   8
  -9   1  -4 134.520 14.1169   3
 -12  -2   4 -6.2674 5.98905   8
  12  -2  -4 -0.3561 2.35648   7
 -12   2   4 0.82778 5.37188  15
  12   2  -4 2.51865 2.53477   7
 -12   2   4 -3.8730 6.44006   8
 -12   2   4 -2.2399 3.88419   3
 -10  -2   4 11.5670 6.44317  15
  10  -2  -4 5.77984 2.11420   7
  10  -2  -4 5.76954 2.59318  11
 -10  -2   4 8.05497 6.25457   8
  10   2  -4 8.86547 2.81560   7
 -10   2   4 4.68551 5.42346  15
 -10   2   4 9.46384 6.35335   8
  10   2  -4 5.66330 2.99514   1
   8  -2  -4 9.01745 1.96528  11
  -8  -2   4 3.16037 2.78110   2
  -8  -2   4 3.85213 4.60535  15
   8  -2  -4 5.80312 2.05158   5
   8   2  -4 3.62575 2.14596   1
  -8   2   4 5.32975 4.50867  15
  -8   2   4 2.82799 4.03252   8
  -8   2   4 6.17859 2.49145   2
   8   2  -4 7.75949 2.01300   7
   6  -2  -4 991.922 20.6562   1
   6  -2  -4 1042.41 20.6340   5
   6  -2  -4 992.241 19.6849  11
  -6  -2   4 1039.54 23.2224   2
  -6  -2   4 966.263 19.3940  14
  -6  -2   4 997.370 26.5005  15
  -6   2   4 1006.52 22.3755   2
   6   2  -4 1008.84 22.7836   1
  -6   2   4 1013.92 26.2447  15
  -6   2   4 1005.62 24.9962   8
   6   2  -4 1015.53 19.3891   7
   6   2  -4 979.612 23.7649  13
   6   2  -4 993.353 19.1527   9
  -4  -2   4 552.577 12.5288  14
  -4  -2   4 531.222 10.0992   4
   4  -2  -4 564.772 11.9401   5
   4  -2  -4 527.652 10.5369  16
  -4  -2   4 550.419 14.3442   2
   4  -2  -4 546.282 11.1713  11
   4  -2  -4 542.086 12.2422  12
   4   2  -4 545.447 10.4425   7
   4   2  -4 546.034 13.0206  13
  -4   2   4 540.124 11.8326  14
   4   2  -4 548.359 11.4152   9
  -4   2   4 542.271 13.7574   2
  -4   2   4 559.846 15.7585  15
   4   2  -4 565.219 13.6331   1
  -2  -2   4 8315.67 138.541  14
   2  -2  -4 8317.65 145.824  16
   2  -2  -4 8248.71 138.006   3
  -2  -2   4 8356.02 142.212  10
   2  -2  -4 8179.52 148.111  12
  -2  -2   4 8140.61 140.407   4
  -2  -2   4 8275.90 135.522   2
   2  -2  -4 8023.96 142.210   5
  -2   2   4 8096.37 141.007   6
  -2   2   4 8082.23 140.512  14
   2   2  -4 8406.50 146.773  16
  -2   2   4 8430.18 134.991   2
   2   2  -4 7991.28 141.868  12
  -2   2   4 8286.90 135.080  15
   2   2  -4 8040.88 144.731   3
   0  -2  -4 179.937 6.36680  16
   0  -2   4 168.854 4.68223  11
   0  -2  -4 168.917 6.04231  12
   0  -2   4 164.873 3.53889   7
   0  -2  -4 168.813 6.20044   3
   0  -2  -4 163.331 4.30488   8
   0  -2   4 168.143 6.13862  14
   0  -2   4 176.986 5.92021  10
   0  -2   4 179.787 5.86928   4
   0   2   4 176.314 5.66286   2
   0   2   4 162.859 5.19894   6
   0   2  -4 169.882 4.88187  13
   0   2   4 171.521 4.48536   7
   0   2   4 173.005 6.40372  10
   0   2  -4 174.442 6.00438  16
   0   2  -4 169.175 5.17379  12
   0   2  -4 165.259 6.49578   3
   0   2  -4 170.857 6.43934   8
   0   2   4 168.610 5.91370  14
   2  -2   4 3133.48 53.5795  11
   2  -2   4 3084.46 54.3131  14
   2  -2   4 3173.47 54.8690   4
   2  -2   4 2955.31 52.4372   2
  -2  -2  -4 3016.56 54.0211   8
  -2  -2  -4 3159.33 57.0292   3
  -2  -2  -4 3087.00 55.4753  12
   2  -2   4 3092.32 55.8165  10
  -2  -2  -4 3143.94 55.9879  16
  -2  -2  -4 3047.51 58.3750  13
   2  -2   4 3098.57 51.5457   7
   2   2   4 3107.86 53.7046   6
  -2   2  -4 3153.09 57.0023   3
  -2   2  -4 3147.84 56.8974   8
  -2   2  -4 3002.01 53.6604  12
   2   2   4 3120.57 52.5329   7
   2   2   4 3154.20 56.4095  10
  -2   2  -4 3073.13 55.2995  13
   2   2   4 3122.34 54.4883  14
  -2   2  -4 3093.92 55.4013  16
   4  -2   4 110.904 5.68737  11
   4  -2   4 118.356 6.50238   4
  -4  -2  -4 117.490 7.11984   8
  -4  -2  -4 109.737 6.66292  16
   4  -2   4 115.002 4.76353   7
   4  -2   4 110.691 5.25245  14
  -4  -2  -4 120.707 7.11662  12
  -4  -2  -4 117.901 8.07500   3
   4  -2   4 122.041 6.97051  10
   4   2   4 120.511 7.09489  10
  -4   2  -4 119.488 8.05722   8
   4   2   4 120.039 5.25126   7
  -4   2  -4 111.717 6.54947  16
  -4   2  -4 119.387 6.16940  12
  -4   2  -4 123.209 8.21270   3
   6  -2   4 266.107 10.8380   4
   6  -2   4 254.970 8.92794   7
  -6  -2  -4 262.832 12.8215   8
  -6  -2  -4 263.343 12.1054  12
   6  -2   4 247.243 11.6185  10
  -6  -2  -4 247.046 13.7224   3
  -6  -2  -4 239.953 10.9657  16
   6   2   4 246.653 9.04977   7
  -6   2  -4 267.113 13.7381   3
  -6   2  -4 245.859 10.7708  12
  -6   2  -4 241.986 10.6563  16
  -6   2  -4 258.606 13.7303   8
   6   2   4 253.756 11.6147  10
  -8  -2  -4 86.0041 7.87485  12
   8  -2   4 74.5306 5.88195   7
  -8  -2  -4 79.6486 10.5945   3
  -8   2  -4 87.6190 10.9111   3
  -8   2  -4 68.6682 9.18868   8
   8   2   4 74.9037 7.42179  10
  -8   2  -4 80.2088 8.44260  12
   8   2   4 82.4570 6.15919   7
 -11  -3   4 63.2335 10.7954   8
  11  -3  -4 38.9951 5.01389   7
 -11  -3   4 35.2721 8.37050  15
  11   3  -4 46.4449 6.13360   1
  11   3  -4 49.5673 5.36729   7
 -11   3   4 63.0221 10.4240   8
 -11   3   4 42.2731 7.03833   3
 -11   3   4 41.9852 7.50545  15
  -9  -3   4 148.257 12.1113  15
  -9  -3   4 148.449 12.1401   8
   9  -3  -4 131.897 6.80692  11
   9   3  -4 147.845 6.83887   7
  -9   3   4 124.226 11.3102  15
  -9   3   4 119.311 11.1493   8
   9   3  -4 132.313 8.28917   1
   7  -3  -4 93.2821 4.79321  11
  -7  -3   4 92.6004 8.72958  15
  -7  -3   4 90.1110 6.52153   2
   7  -3  -4 94.0746 5.08296   5
   7   3  -4 99.6598 6.34751   1
  -7   3   4 92.2762 8.47835  15
  -7   3   4 100.839 8.06967   8
   7   3  -4 88.4361 4.22221   9
   7   3  -4 93.6565 4.41552   7
  -7   3   4 99.4315 6.07793   2
   5  -3  -4 185.600 5.98743   1
  -5  -3   4 193.613 8.47805   2
   5  -3  -4 186.969 4.90655   4
   5  -3  -4 234.318 6.95521   5
   5  -3  -4 197.873 6.08354  11
  -5  -3   4 192.123 6.66620  14
   5  -3  -4 187.281 6.41921  12
  -5   3   4 193.074 7.80317   2
   5   3  -4 183.652 7.31496  13
  -5   3   4 199.185 10.0154  15
  -5   3   4 189.998 8.35646   8
   5   3  -4 194.511 6.14912   9
   5   3  -4 185.478 7.63532   1
   5   3  -4 200.045 5.44778   7
  -3  -3   4 481.113 11.8713  14
   3  -3  -4 469.063 10.8528  12
  -3  -3   4 461.023 9.96382   4
   3  -3  -4 464.580 10.3452  11
   3  -3  -4 476.937 10.8324   5
  -3   3   4 463.308 10.3558   6
   3   3  -4 462.026 8.61452   7
  -3   3   4 469.601 11.0670  14
  -3   3   4 459.205 12.2916   2
   3   3  -4 452.889 10.0420  12
  -3   3   4 474.992 13.2889  15
   3   3  -4 468.296 10.5247   9
   3   3  -4 468.852 9.86819  13
   3   3  -4 463.215 11.9626   1
  -3   3   4 451.975 10.8220   8
  -1  -3   4 630.709 14.5334  14
   1  -3  -4 617.960 14.1767  16
   1  -3  -4 621.397 13.4010   5
   1  -3  -4 603.011 12.9351   3
   1  -3  -4 608.605 13.7769  12
  -1  -3   4 595.319 11.4279  11
  -1  -3   4 619.130 12.7698  10
  -1  -3   4 618.605 13.3153   4
   1   3  -4 611.774 14.4872   8
   1   3  -4 607.032 14.1877   3
   1   3  -4 610.294 11.9979  12
  -1   3   4 607.492 13.0273   6
  -1   3   4 610.177 14.0016  14
   1   3  -4 617.285 13.8014  16
  -1   3   4 615.462 14.2083   2
  -1   3   4 611.959 13.0010  15
  -1  -3  -4 6.37862 2.04842   3
   1  -3   4 8.18694 1.70838  10
   1  -3   4 9.84274 2.20310  14
  -1  -3  -4 3.73609 1.02257   8
  -1  -3  -4 6.15820 2.03313  12
  -1  -3  -4 4.89943 1.53249  16
   1  -3   4 9.64496 1.63188  11
   1  -3   4 7.25535 1.74721   4
   1   3   4 5.90898 1.18159   7
   1   3   4 4.19913 1.17231   2
  -1   3  -4 6.53496 1.40991  12
   1   3   4 6.95240 1.86542  10
  -1   3  -4 4.71446 1.49445  16
  -1   3  -4 2.70779 1.89860   3
   1   3   4 6.16301 1.63964   6
   1   3   4 4.62332 1.61405  14
  -1   3  -4 12.3087 2.62792   8
   3  -3   4 601.581 12.8722   7
  -3  -3  -4 622.984 16.7211  12
   3  -3   4 624.699 15.8143   4
  -3  -3  -4 632.726 16.7497  16
   3  -3   4 601.372 14.9308  14
   3  -3   4 650.141 16.7592  10
   3  -3   4 633.959 15.0850  11
  -3  -3  -4 636.458 17.8188   3
  -3  -3  -4 603.995 15.2962   8
  -3   3  -4 618.190 17.5319   3
  -3   3  -4 598.707 16.2389  16
   3   3   4 618.777 14.9550   6
   3   3   4 608.164 16.9477  10
  -3   3  -4 630.604 18.0687   8
  -3   3  -4 607.119 14.4420  12
   3   3   4 633.718 13.9995   7
   5  -3   4 2.37407 1.40468   7
  -5  -3  -4 1.54618 2.34768  16
  -5  -3  -4 1.73687 1.96332  12
   5  -3   4 0.92345 2.08530  10
   5  -3   4 -0.2102 1.95434  11
  -5  -3  -4 3.55883 3.41817   3
   5  -3   4 2.17703 2.46676   4
  -5   3  -4 5.08990 3.64567   8
   5   3   4 2.49420 2.07153  10
   5   3   4 3.23122 1.69706   7
  -5   3  -4 1.93488 1.92675  12
  -5   3  -4 5.54797 2.55938  16
  -5   3  -4 3.64649 2.68878   3
  -7  -3  -4 22.2783 5.34509  12
   7  -3   4 22.5846 4.25404   4
  -7  -3  -4 23.2762 5.64662   3
   7  -3   4 18.6405 3.19922   7
  -7  -3  -4 16.1400 4.12407  16
   7   3   4 22.4200 4.69602  10
  -7   3  -4 18.3101 5.62074   3
   7   3   4 26.2431 3.82103   7
  -7   3  -4 15.6212 3.88951  16
  -7   3  -4 22.6039 5.53934   8
 -10  -4   4 1018.43 32.4668  15
  10  -4  -4 929.706 23.3510  11
 -10  -4   4 952.720 32.9477   8
 -10   4   4 966.930 31.5989   8
  10   4  -4 950.051 26.6301   1
 -10   4   4 932.953 30.9134  15
  10   4  -4 940.036 22.7073   7
   8  -4  -4 0.98083 1.31029   5
  -8  -4   4 1.23028 2.87133   2
   8  -4  -4 -3.7941 1.27006  11
  -8  -4   4 3.35623 4.36093  15
  -8   4   4 -0.5611 1.78888   2
   8   4  -4 0.53571 1.35541   7
  -8   4   4 -2.0762 3.36894   8
   8   4  -4 -1.4096 1.13484   1
  -8   4   4 4.01611 4.22060  15
   6  -4  -4 1819.79 32.9686  11
  -6  -4   4 1753.66 36.8127   2
  -6  -4   4 1708.02 33.2243  14
   6  -4  -4 1766.30 33.2223   5
  -6   4   4 1700.29 37.1962   8
   6   4  -4 1737.83 31.7357   7
  -6   4   4 1750.09 39.6137  15
  -6   4   4 1744.46 35.3206   2
   6   4  -4 1745.14 33.0355   9
   6   4  -4 1787.46 36.5886   1
  -4  -4   4 564.452 12.2537   4
   4  -4  -4 570.236 13.0654  11
   4  -4  -4 594.468 13.3798   5
   4  -4  -4 581.458 13.0355  12
  -4  -4   4 589.124 14.3486  14
  -4   4   4 619.836 15.5012   2
   4   4  -4 599.092 13.4700   9
  -4   4   4 585.989 13.1138   6
   4   4  -4 596.167 15.0767   1
  -4   4   4 553.675 14.1429   8
   4   4  -4 568.603 11.4111   7
  -4   4   4 584.204 16.9090  15
   2  -4  -4 1795.11 31.9743   3
   2  -4  -4 1900.51 33.9334  12
  -2  -4   4 1850.70 31.5567  10
   2  -4  -4 1927.69 34.0928   5
  -2  -4   4 1882.56 35.3601  14
   2  -4  -4 1904.91 33.9460  11
  -2  -4   4 1866.03 33.5878   4
  -2  -4   4 1792.89 31.1805  11
   2   4  -4 1886.96 34.8129   1
  -2   4   4 1896.67 35.4561  15
   2   4  -4 1858.86 34.7245   3
   2   4  -4 1813.08 31.7908  12
   2   4  -4 1867.01 33.7579   9
  -2   4   4 1881.21 35.5226   2
  -2   4   4 1878.15 33.6626   6
   0  -4  -4 947.861 19.7707   3
   0  -4   4 981.560 18.5321  11
   0  -4  -4 1019.26 21.9024  16
   0  -4  -4 975.636 20.6787  12
   0  -4   4 965.933 21.1791  14
   0  -4   4 1001.31 20.4261   4
   0  -4  -4 984.847 20.1988   5
   0  -4   4 987.755 19.3924  10
   0   4   4 982.005 19.9769   6
   0   4  -4 1022.04 21.3336  16
   0   4  -4 974.506 21.0289   3
   0   4  -4 965.937 17.6101  12
   0   4   4 993.747 21.4354  10
   0   4  -4 997.020 21.9781   8
   0   4   4 988.393 18.6456   7
   0   4   4 926.628 20.0529   2
  -2  -4  -4 2364.60 45.3003   3
   2  -4   4 2388.29 44.1802  10
   2  -4   4 2377.30 42.6152  11
  -2  -4  -4 2402.53 45.0767  12
   2  -4   4 2346.94 43.8794  14
  -2  -4  -4 2366.09 45.6494  16
   2  -4   4 2397.21 44.0293   4
  -2   4  -4 2245.52 41.1320  12
   2   4   4 2406.24 45.6597  10
  -2   4  -4 2347.74 46.7034   8
   2   4   4 2417.58 43.4903   6
  -2   4  -4 2427.46 45.6279   3
   2   4   4 2373.32 41.9981   7
  -2   4  -4 2443.48 45.3361  16
   4  -4   4 54.6290 4.88490  10
   4  -4   4 65.5253 4.49650  11
  -4  -4  -4 62.2615 5.51360  16
  -4  -4  -4 62.8883 5.63886  12
   4  -4   4 60.3746 4.78799   4
   4  -4   4 54.8515 3.33250   7
  -4  -4  -4 61.0617 6.58906   3
   4   4   4 58.9387 4.52989   6
   4   4   4 56.6742 5.15465  10
  -4   4  -4 62.9198 6.94009   8
  -4   4  -4 54.9850 6.04485   3
   4   4   4 55.3345 3.91560   7
  -4   4  -4 56.8323 5.18310  16
  -6  -4  -4 1357.44 32.7748  16
   6  -4   4 1393.78 31.6243   4
   6  -4   4 1401.01 28.4200   7
  -6  -4  -4 1422.47 34.2371  12
  -6  -4  -4 1376.17 36.2331   3
   6  -4   4 1372.73 31.3111  11
   6   4   4 1397.12 29.6243   7
  -6   4  -4 1394.79 36.5621   8
  -6   4  -4 1393.49 34.9563   3
  -6   4  -4 1327.07 32.3663  16
   6   4   4 1360.65 33.2920  10
  -8  -4  -4 0.37992 4.38682   3
   8  -4   4 -1.0975 1.94159   7
  -8  -4  -4 8.44950 4.53276  12
  -8   4  -4 8.55435 4.42027   3
   8   4   4 1.28361 1.90530  10
   8   4   4 0.00512 2.09620   7
  -8   4  -4 -4.1927 3.73899   8
  11  -5  -4 17.9445 3.99722  11
 -11  -5   4 12.2725 7.41773   8
  11  -5  -4 15.5529 3.63704   7
  11   5  -4 13.5669 3.44625   7
  11   5  -4 17.7738 4.79220   1
 -11   5   4 11.9030 6.06409  15
 -11   5   4 17.0087 6.82762   8
   9  -5  -4 171.596 8.37391   5
   9  -5  -4 162.324 8.13379  11
  -9  -5   4 169.772 13.2497  15
  -9   5   4 178.128 13.0842  15
  -9   5   4 198.316 13.2132   8
   9   5  -4 173.007 7.58205   7
   9   5  -4 168.390 10.1913   1
   7  -5  -4 12.0981 2.60676   5
   7  -5  -4 10.1565 2.13657  11
  -7  -5   4 14.4189 3.79382   2
   7   5  -4 8.90106 1.98221   7
   7   5  -4 12.5661 2.87028   1
  -7   5   4 9.36079 3.18993   2
   7   5  -4 11.8795 2.40646   9
  -7   5   4 8.61170 4.11837   8
  -7   5   4 14.0436 3.92603  15
  -5  -5   4 1085.27 23.2100  14
   5  -5  -4 1047.87 21.2412  12
   5  -5  -4 1044.64 20.7268   4
   5  -5  -4 1060.38 21.7443  11
  -5  -5   4 1020.33 20.6445   4
   5  -5  -4 1108.05 22.0637   5
   5   5  -4 1047.91 24.3776   1
  -5   5   4 1051.99 23.9844   2
  -5   5   4 1069.02 26.4485  15
   5   5  -4 997.984 19.7949   7
  -5   5   4 1071.85 21.8991   6
  -5   5   4 992.104 23.5588   8
   5   5  -4 1063.17 22.3739   9
   3  -5  -4 463.134 11.7357   5
  -3  -5   4 448.696 9.45332  11
  -3  -5   4 481.730 13.2174  14
  -3  -5   4 455.373 11.3026   4
   3  -5  -4 479.256 11.8517  11
   3  -5  -4 464.250 11.2389  12
   3   5  -4 471.712 12.0168   9
  -3   5   4 465.865 11.6857   6
   3   5  -4 482.251 12.8986   1
  -3   5   4 486.065 13.4580   2
  -3   5   4 482.425 14.2319  15
   1  -5  -4 860.850 18.4306   5
   1  -5  -4 756.745 16.4065   3
  -1  -5   4 837.159 16.2988  11
  -1  -5   4 872.939 18.5543   4
   1  -5  -4 859.748 19.6658  16
   1  -5  -4 879.647 18.4618  12
  -1  -5   4 886.865 19.9965  14
   1   5  -4 876.961 18.8897   3
   1   5  -4 869.834 18.2912   9
  -1   5   4 851.513 19.2476   2
   1   5  -4 845.641 18.3150   1
  -1   5   4 857.424 17.9589  15
   1   5  -4 856.564 15.5547   6
  -1   5   4 900.074 18.5399   6
   1  -5   4 2045.79 37.3166  11
   1  -5   4 2082.48 40.0262  14
  -1  -5  -4 2054.36 39.5915  12
   1  -5   4 2124.17 39.5770   4
   1  -5   4 2077.25 38.0005  10
  -1  -5  -4 2115.77 41.3542  16
  -1  -5  -4 2033.74 38.6179   3
  -1  -5  -4 2091.79 39.2798   5
   1   5   4 2067.61 37.1438   7
   1   5   4 2082.82 40.3436  10
  -1   5  -4 2058.90 41.7224   8
  -1   5  -4 2165.00 40.1425   3
   1   5   4 2097.50 38.8910   6
   3  -5   4 330.185 11.2196   4
  -3  -5  -4 327.013 12.1438  16
  -3  -5  -4 325.326 12.0321   3
  -3  -5  -4 334.857 11.8781  12
   3  -5   4 315.122 10.4907  14
   3  -5   4 335.071 10.3232  11
   3  -5   4 329.442 10.8620  10
   3   5   4 342.812 11.9695  10
   3   5   4 324.169 9.57545   7
   3   5   4 330.511 10.6219   6
  -3   5  -4 320.728 13.0213   8
  -3   5  -4 321.064 11.7831   3
  -3   5  -4 318.350 11.5064  16
  -5  -5  -4 851.028 23.4975  12
   5  -5   4 823.374 18.3384   7
   5  -5   4 829.621 21.6450   4
  -5  -5  -4 812.741 23.0504  16
   5  -5   4 880.021 21.5933  11
  -5  -5  -4 841.633 24.7696   3
  -5   5  -4 810.236 22.6809  16
  -5   5  -4 849.821 25.8147   8
   5   5   4 835.783 20.7814   6
   5   5   4 829.303 22.6125  10
   5   5   4 839.349 19.9583   7
  -5   5  -4 811.960 23.4820   3
   7  -5   4 213.138 8.74315   7
   7  -5   4 213.321 10.7222   4
  -7  -5  -4 217.745 12.4986  12
   7  -5   4 233.663 10.8607  11
  -7  -5  -4 216.120 13.6619   3
   7   5   4 198.342 10.7015  10
   7   5   4 221.484 9.49387   7
  -7   5  -4 214.581 12.5458   3
  -7   5  -4 220.132 14.0684   8
 -10  -6   4 163.788 13.7085  15
 -10  -6   4 176.404 14.6355   8
  10  -6  -4 155.748 8.72624  11
  10   6  -4 157.986 7.76019   7
  10   6  -4 160.563 10.8678   1
 -10   6   4 164.174 12.9838  15
  -8  -6   4 590.717 19.1886   2
  -8  -6   4 606.455 23.4695  15
   8  -6  -4 616.057 16.6796   5
   8  -6  -4 599.653 16.5788  11
  -8   6   4 595.013 20.5883   8
  -8   6   4 606.873 22.6639  15
   8   6  -4 612.560 16.4550   9
   8   6  -4 591.039 19.2560   1
   8   6  -4 600.249 15.0170   7
   6  -6  -4 56.7933 4.48340   5
   6  -6  -4 59.1659 4.58406  11
  -6  -6   4 53.9043 4.71909  14
  -6   6   4 51.6994 4.31685   6
   6   6  -4 49.0906 3.41776   7
  -6   6   4 47.0000 5.64593   8
  -6   6   4 50.7926 6.61405  15
  -6   6   4 59.5259 5.76335   2
   6   6  -4 48.2129 5.47069   1
   6   6  -4 56.6119 4.43304   9
   4  -6  -4 2767.45 49.5406  11
   4  -6  -4 2717.35 49.0617   5
   4  -6  -4 2756.03 47.9462  12
  -4  -6   4 2721.26 51.1583  14
  -4  -6   4 2722.12 48.7233   4
   4   6  -4 2767.29 51.6453   1
   4   6  -4 2721.76 50.0322   9
  -4   6   4 2752.30 51.7552   2
  -4   6   4 2757.60 53.9043  15
  -4   6   4 2746.12 49.2723   6
   4   6  -4 2639.97 46.2042   7
  -2  -6   4 12.2343 2.82834  14
  -2  -6   4 10.8856 2.07217   4
   2  -6  -4 8.81808 1.98345   5
   2  -6  -4 10.6634 1.99535  12
  -2  -6   4 9.39912 1.51885  11
   2  -6  -4 9.88082 2.21987  11
  -2   6   4 9.95245 2.34894  15
  -2   6   4 7.45496 2.41308   2
   2   6  -4 10.8956 2.16096   1
   2   6  -4 6.91710 1.87068   9
  -2   6   4 12.5564 2.35249   6
   0  -6  -4 3355.79 58.6365   5
   0  -6   4 3259.72 60.0920  14
   0  -6   4 3200.92 56.1441  11
   0  -6  -4 3332.87 58.4154  12
   0  -6   4 3330.44 58.9556   4
   0  -6  -4 3293.14 60.8206  16
   0   6   4 3331.64 58.3747   6
   0   6  -4 3324.06 61.0200   8
   0   6   4 3306.87 59.4399  10
   0   6  -4 3269.29 58.4229   3
   0   6  -4 3117.30 56.8774   1
   0   6  -4 3309.26 58.1134   9
   2  -6   4 61.5621 4.71947  14
   2  -6   4 69.6600 4.95566   4
  -2  -6  -4 67.9639 5.38070  12
   2  -6   4 59.4312 3.95559  11
  -2  -6  -4 67.2134 5.04122   3
  -2  -6  -4 68.2803 5.65456  16
  -2   6  -4 59.8641 4.80509   3
   2   6   4 63.4566 4.90491  10
  -2   6  -4 54.4114 6.01054   8
   2   6   4 63.3896 3.74425   7
   2   6   4 63.0786 4.75893   6
   4  -6   4 987.866 22.9211  11
  -4  -6  -4 964.892 24.9007  12
  -4  -6  -4 949.561 25.1477   3
   4  -6   4 931.169 23.7188   4
  -4  -6  -4 984.852 25.9236  16
   4   6   4 971.052 21.6516   7
   4   6   4 974.000 22.9268   6
  -4   6  -4 973.000 27.3975   8
   4   6   4 975.878 24.3958  10
  -4   6  -4 952.197 24.3527   3
   6  -6   4 239.625 10.7915  11
   6  -6   4 198.598 8.01733   7
  -6  -6  -4 207.805 12.4481   3
   6  -6   4 225.776 10.9584   4
  -6  -6  -4 234.908 12.3760  12
  -6   6  -4 210.497 11.2457   3
   6   6   4 211.516 10.5136  10
  -6   6  -4 206.381 13.1233   8
   6   6   4 241.786 9.70843   7
  -9  -7   4 327.519 18.5253  15
   9  -7  -4 315.802 12.2635  11
   9  -7  -4 331.523 12.2781   5
   9   7  -4 313.471 10.6958   7
   9   7  -4 328.906 15.0207   1
  -9   7   4 321.850 17.0914  15
   9   7  -4 318.531 12.0560   9
  -9   7   4 319.806 15.7261   8
  -7  -7   4 79.2747 8.17011   2
   7  -7  -4 64.7229 5.57095  11
   7  -7  -4 68.1118 5.26041   5
   7   7  -4 66.0093 5.03754   9
   7   7  -4 77.3741 4.46764   7
   7   7  -4 67.4988 6.03132   1
  -7   7   4 71.4284 5.62566   6
  -7   7   4 78.3426 8.97903  15
  -7   7   4 67.9983 5.97859   2
   5  -7  -4 440.225 12.3354   4
  -5  -7   4 450.907 12.5201   4
   5  -7  -4 448.348 12.4982   5
  -5  -7   4 458.322 14.3746  14
   5  -7  -4 464.158 13.1517  11
   5   7  -4 444.396 13.6820   9
  -5   7   4 455.632 16.7998  15
  -5   7   4 473.038 14.8836   2
   5   7  -4 446.476 10.8503   7
   5   7  -4 437.973 14.6389   1
  -5   7   4 463.613 13.2563   6
   3  -7  -4 48.0721 4.13109   5
  -3  -7   4 46.5379 5.02915  14
   3  -7  -4 55.3421 4.34223  11
  -3  -7   4 49.8706 4.18748   4
   3  -7  -4 42.3350 3.09710  12
  -3   7   4 49.9468 5.24111   2
   3   7  -4 40.9522 4.16992   9
   3   7  -4 46.5216 4.10750   1
  -3   7   4 53.3844 5.14816  15
  -3   7   4 50.9722 4.09958   6
  -1  -7   4 23.5860 2.59616  11
  -1  -7   4 21.4339 3.72483  14
   1  -7  -4 25.1596 3.26918  11
  -1  -7   4 25.3742 3.41699   4
   1  -7  -4 21.6666 3.22257   5
   1  -7  -4 24.4261 3.04367  12
   1   7  -4 26.0212 3.03188   1
  -1   7   4 23.6813 2.91605   9
   1   7  -4 25.8970 3.31496   9
  -1   7   4 20.9752 3.16489   6
  -1  -7  -4 132.586 7.76675  16
  -1  -7  -4 133.785 6.80452  12
  -1  -7  -4 127.951 6.39202   5
   1  -7   4 123.759 5.68881  11
   1  -7   4 129.241 7.14380   4
   1  -7   4 126.381 7.27403  14
  -1   7  -4 120.375 6.09825   3
  -1   7  -4 133.719 6.47111   9
   1   7   4 128.947 6.67694  10
   1   7   4 135.005 6.71032   6
  -1   7  -4 123.268 7.66955   8
   3  -7   4 12.3982 2.88093  11
   3  -7   4 10.5891 2.79975   4
   3  -7   4 14.5606 3.20963  14
  -3  -7  -4 11.9948 3.60989  16
  -3  -7  -4 14.5161 3.71206  12
   3   7   4 11.4211 2.48986   7
   3   7   4 12.4269 2.94058  10
  -3   7  -4 5.82140 2.50370   3
  -3   7  -4 12.4374 3.75540   8
   3   7   4 6.06448 2.56081   6
   5  -7   4 86.9765 6.15169  11
  -5  -7  -4 98.1491 8.07563  16
  -5  -7  -4 89.5603 7.29819  12
   5  -7   4 73.3192 6.27259   4
   5   7   4 91.3080 6.58997   6
   5   7   4 79.5469 5.69078   7
  -5   7  -4 88.4657 9.57535   8
  -7  -7  -4 16.1457 4.40074  12
   7  -7   4 17.7574 4.39356   4
   7  -7   4 15.5463 3.56111  11
   7   7   4 19.8066 3.73741   7
  -7   7  -4 16.6508 5.55833   8
  10  -8  -4 122.816 8.44900  11
 -10   8   4 130.354 11.8549  15
  10   8  -4 123.976 10.2726   1
 -10   8   4 136.928 8.93804   6
   8  -8  -4 173.290 9.03047  11
   8  -8  -4 167.049 8.44343   5
   8   8  -4 166.657 10.4395   1
   8   8  -4 151.698 8.65585   9
   8   8  -4 162.729 7.24582   7
  -8   8   4 147.322 11.1647  15
  -8   8   4 158.988 8.92543   6
  -6  -8   4 38.1144 5.03132  14
   6  -8  -4 45.7321 5.04605  11
   6  -8  -4 43.7437 4.67020   5
  -6   8   4 52.2082 7.48508  15
   6   8  -4 50.1176 3.54591   7
   6   8  -4 40.4935 4.95912   9
   6   8  -4 46.8631 5.84184   1
  -6   8   4 44.0789 4.75791   6
   4  -8  -4 228.232 8.54800   5
   4  -8  -4 246.118 9.42888  11
  -4  -8   4 238.975 9.32985   4
   4   8  -4 249.536 9.92638   9
  -4   8   4 238.383 9.32988   6
   4   8  -4 244.872 10.2335   1
  -4   8   4 234.940 11.4759  15
  -2  -8   4 9.33655 1.93835  11
   2  -8  -4 8.72909 2.59901  11
  -2  -8   4 8.41159 3.08312  14
  -2  -8   4 6.90243 2.57048   4
   2  -8  -4 10.1586 2.79753   5
   2   8  -4 11.0355 2.38395   9
   2   8  -4 9.46963 2.46935   1
  -2   8   4 10.3962 2.77555  15
  -2   8   4 7.23086 1.85306   9
  -2   8   4 11.1019 2.62110   6
   0  -8   4 359.876 12.2182   4
   0  -8   4 367.332 13.3968  14
   0  -8  -4 382.746 13.7293  16
   0  -8  -4 370.578 11.2237  12
   0  -8   4 357.992 10.3987  11
   0  -8  -4 373.998 11.9779   5
   0   8  -4 392.973 12.3628   9
   0   8   4 353.549 11.7306  10
   0   8   4 362.726 11.8986   6
  -2  -8  -4 2.39371 2.68796  12
   2  -8   4 11.3340 3.79355   4
   2  -8   4 5.07492 2.25905  11
  -2  -8  -4 4.90437 2.86075  16
  -2  -8  -4 4.29998 2.58605   5
   2  -8   4 8.57163 3.08772  14
   2   8   4 5.37715 2.51170   6
  -2   8  -4 7.91347 3.41803   8
  -2   8  -4 9.71993 2.64049   9
  -4  -8  -4 446.332 17.1368  16
  -4  -8  -4 443.959 15.5046   5
  -4  -8  -4 430.449 15.7032  12
   4  -8   4 454.626 15.4212   4
   4  -8   4 433.916 14.2551  11
   4   8   4 441.569 13.3777   7
  -4   8  -4 419.119 13.6038   9
  -4   8  -4 469.729 18.5095   8
   4   8   4 444.572 14.6433   6
   6  -8   4 9.05415 3.98309   4
  -6  -8  -4 16.0251 5.14821  12
   6  -8   4 9.68296 3.58727  11
   6   8   4 13.4378 3.36286   7
  -6   8  -4 7.83760 4.35294   8
   9  -9  -4 8.64465 3.07526   5
   9  -9  -4 14.0449 3.82044  11
  -9   9   4 8.23640 3.95347  15
   9   9  -4 8.12899 4.29082   1
   9   9  -4 4.62565 3.19889   9
  -9   9   4 12.0371 4.13648   6
   7  -9  -4 112.242 7.54861  11
   7  -9  -4 107.210 6.91603   5
   7   9  -4 101.864 7.46951   9
  -7   9   4 105.784 10.7023  15
   7   9  -4 90.4259 7.89611   1
  -7   9   4 93.0834 7.18387   6
  -5  -9   4 1.00266 2.48660  14
   5  -9  -4 -0.4723 2.37743  11
   5  -9  -4 2.36468 2.25717   4
   5  -9  -4 4.10475 2.49209   5
  -5  -9   4 1.89116 2.17153   4
  -5   9   4 1.80969 2.36132   6
   5   9  -4 -2.5547 1.70363   1
   5   9  -4 0.62651 1.41747   9
  -5   9   4 -1.8411 2.75723  15
   3  -9  -4 25.6160 3.88862   5
   3  -9  -4 31.4546 4.00274  11
  -3  -9   4 27.9084 4.16974   4
  -3   9   4 23.4083 4.41954  15
   3   9  -4 27.2852 3.95981   9
  -3   9   4 26.2213 3.94259   6
   3   9  -4 30.2093 4.32092   1
  -1  -9   4 8.08128 3.28029  14
   1  -9  -4 1.58518 2.43632   5
  -1  -9   4 6.57952 2.07384  11
  -1  -9   4 5.86598 2.96203   4
   1  -9  -4 2.05851 1.88985  11
  -1   9   4 7.74649 2.20621   6
  -1   9   4 9.29123 3.00544  10
   1   9  -4 9.01922 2.73794   9
  -1   9   4 2.76690 1.86497   9
  -1  -9  -4 7.36470 2.88945   5
   1  -9   4 12.4392 3.73076  14
  -1  -9  -4 6.40742 2.43682  12
  -1  -9  -4 8.99175 3.30589  16
   1  -9   4 6.04704 2.27098  11
   1  -9   4 13.5415 3.81033   4
  -1   9  -4 9.32226 2.79049   9
   1   9   4 6.53045 2.69232   6
   3  -9   4 34.2689 4.62926  11
   3  -9   4 27.9833 4.86749  14
  -3  -9  -4 34.2361 4.93644   5
   3  -9   4 32.4352 5.31645   4
  -3  -9  -4 30.5630 5.13133  16
  -3  -9  -4 30.1432 4.91889  12
  -3   9  -4 29.1098 4.07756   9
  -3   9  -4 29.0278 5.18306   8
   3   9   4 31.7603 4.74431   6
   5  -9   4 5.91261 3.15048  11
  -5  -9  -4 8.74115 4.02284  12
   5  -9   4 3.42613 3.70744   4
  -5  -9  -4 12.3369 4.00254   5
   5   9   4 6.77476 2.85609   7
  -5   9  -4 8.98300 4.39351   8
   5   9   4 4.82646 3.22106   6
   8 -10  -4 151.324 8.40189   5
   8 -10  -4 154.539 8.84796  11
   8  10  -4 131.007 10.1466   1
  -8  10   4 146.944 9.32828   6
  -8  10   4 176.584 12.8161  15
   8  10  -4 141.417 8.71579   9
   6 -10  -4 725.668 20.4961  11
   6 -10  -4 724.850 19.1828   5
  -6 -10   4 731.524 22.2761  14
  -6  10   4 713.435 20.5071   6
   6  10  -4 719.612 21.4103   9
  -6  10   4 746.485 25.3441  15
   6  10  -4 721.325 22.0162   1
   4 -10  -4 24.4898 3.91572   5
  -4 -10   4 19.1379 3.88334   4
   4 -10  -4 19.4059 4.00378  11
  -4 -10   4 22.3602 4.52188  14
   4 -10  -4 31.0077 4.50940   4
   4  10  -4 18.5991 4.19855   9
  -4  10   4 21.5330 3.63174   6
   4  10  -4 19.5569 3.87563   1
  -4  10   4 24.0753 4.91644  15
  -2 -10   4 761.143 22.9979  14
   2 -10  -4 803.949 21.4098  11
  -2 -10   4 822.617 22.0994   4
   2 -10  -4 814.976 20.3548   5
  -2  10   4 810.324 21.3654   6
   2  10  -4 811.854 22.1732   9
   0 -10   4 5.41212 2.34403  11
   0 -10  -4 3.45269 2.11073  16
   0 -10  -4 3.43137 2.03602  11
   0 -10   4 5.45152 3.32814  14
   0 -10   4 0.68188 2.96888   4
   0 -10  -4 4.45393 2.90501   5
   0  10   4 2.11098 2.50105   6
   0  10  -4 7.07776 2.72435   9
   2 -10   4 430.136 16.3874  14
   2 -10   4 426.346 13.7927  11
   2 -10   4 460.313 16.4877   4
  -2 -10  -4 430.397 15.0030   5
  -2  10  -4 418.610 14.6579   9
   2  10   4 438.868 15.0874   6
  -2  10  -4 457.448 17.4169   8
   4 -10   4 1.90820 2.68826  11
   4 -10   4 3.42988 3.79700   4
  -4 -10  -4 0.44520 2.84065   5
   4  10   4 -0.2426 2.03272   6
  -4  10  -4 -0.8903 3.03872   8
   7 -11  -4 261.176 10.7938   5
   7 -11  -4 257.682 12.2476  11
   7  11  -4 255.591 13.0253   1
  -7  11   4 252.691 14.7893  15
  -7  11   4 242.970 12.0354   6
   7  11  -4 258.231 12.3824   9
   5 -11  -4 202.891 10.0925  11
  -5 -11   4 201.180 11.2892  14
  -5 -11   4 190.019 9.74062   4
   5 -11  -4 214.037 9.39212   5
   5 -11  -4 206.788 10.2330   4
   5  11  -4 205.744 10.9620   9
  -5  11   4 214.895 10.7719   6
  -5  11   4 220.845 13.0529  15
   3 -11  -4 347.130 13.5038  11
   3 -11  -4 329.414 11.9632   5
   3 -11  -4 347.360 13.7449   4
  -3 -11   4 325.482 14.8629  14
  -3 -11   4 314.937 13.3051   4
   3  11  -4 324.509 13.7132   9
  -3  11   4 334.046 13.2505   6
   1 -11  -4 282.544 11.4280   5
   1 -11  -4 263.556 11.9216  11
  -1 -11   4 309.095 14.4659  14
  -1 -11   4 297.308 13.2604   4
   1  11  -4 285.676 12.5551   9
  -1  11   4 283.623 12.1538   6
   1 -11   4 196.321 9.04657  11
  -1 -11  -4 217.983 11.1186  11
  -1 -11  -4 223.630 10.4914   5
   1 -11   4 209.573 11.4553   4
   1 -11   4 200.902 11.7713  14
   1  11   4 212.203 10.5002   6
  -1  11  -4 206.684 10.4344   9
   3 -11   4 223.689 10.5493  11
   3 -11   4 215.667 12.1808   4
  -3 -11  -4 244.687 11.5319   5
   3 -11   4 213.379 12.1623  14
  -3  11  -4 218.808 10.7444   9
   3  11   4 227.448 11.1349   6
  -6 -12   4 6.38443 3.24126  14
   6 -12  -4 -1.7751 3.04269  11
   6 -12  -4 -1.3348 2.14558   5
   6  12  -4 -2.6518 2.75469   9
  -6  12   4 1.80788 2.50193   6
  -4 -12   4 278.545 14.5201  14
   4 -12  -4 274.963 10.8696   5
   4 -12  -4 257.843 11.8915  11
   4 -12  -4 266.811 12.4756   4
  -4 -12   4 276.350 12.6501   4
  -4  12   4 273.389 12.6194   6
   4  12  -4 271.042 13.0940   9
   2 -12  -4 26.1665 4.16270   5
  -2 -12   4 29.2533 6.00475  14
  -2 -12   4 30.6957 5.15296   4
   2 -12  -4 24.0626 4.74275  11
  -2  12   4 43.1013 5.95618   6
   2  12  -4 30.1406 5.44941   9
   0 -12   4 362.042 16.1367  14
   0 -12   4 366.086 15.6029   4
   0 -12  -4 352.833 13.3499   5
   0 -12  -4 370.777 15.1110  11
   0  12   4 384.282 14.7969   6
   0  12  -4 372.944 15.0734   9
  -2 -12  -4 58.3230 6.58578   5
   2 -12   4 57.5945 7.97202   4
   2 -12   4 60.0233 7.93230  14
  -2 -12  -4 53.2275 6.96772  11
   2  12   4 58.5107 6.37762   6
  -2  12  -4 40.0129 5.82239   9
  -3 -13   4 74.3312 8.40507  14
   3 -13  -4 58.8532 7.00090  11
  -3 -13   4 62.5143 6.88090   4
   3 -13  -4 66.6680 7.48619   4
   3  13  -4 64.6463 7.73618   9
  -3  13   4 55.2721 6.63541   6
   1 -13  -4 57.3916 7.12908   5
  -1 -13   4 67.7887 8.25936  14
  -1 -13   4 75.5428 8.51585   4
   1 -13  -4 61.7776 7.20481  11
  -1  13   4 63.1809 6.93503   6
   1  13  -4 63.6058 7.10873   9
 -12   0   5 1.03299 4.41720   8
 -12   0   5 1.79363 6.31489  15
  12   0  -5 4.10842 2.78960   7
 -10   0   5 6.73419 5.79751  15
  10   0  -5 -0.6050 1.79738   7
  10   0  -5 1.78592 2.10543   1
 -10   0   5 -0.0376 4.69322   8
  -8   0   5 -0.8697 3.20516   8
  -8   0   5 -1.7768 2.81637  15
  -8   0   5 2.04736 2.86257   2
   8   0  -5 -1.0927 1.18548   7
   8   0  -5 2.27263 1.77232   1
   6   0  -5 0.48159 1.36629  13
  -6   0   5 -0.5212 2.55868   2
   6   0  -5 0.44369 1.08778   5
  -6   0   5 1.18067 2.32353  15
   6   0  -5 0.20854 1.17857   1
  -6   0   5 -0.5176 0.90700  14
  -4   0   5 -0.2748 2.09358  15
  -4   0   5 0.19695 0.50621   6
   4   0  -5 0.30697 0.77032   5
  -4   0   5 -1.4586 1.32880  14
   4   0  -5 -0.8613 0.93286  12
  -4   0   5 2.16472 2.41985   2
   2   0  -5 1.85263 1.02309  16
  -2   0   5 1.07538 1.90797   2
   2   0  -5 0.89332 0.86864   3
  -2   0   5 2.49618 1.67884  14
   2   0  -5 1.65773 0.82666   5
  -2   0   5 2.11622 0.62894   6
  -2   0   5 1.65779 0.91325   4
   2   0  -5 0.81224 1.13345  12
   0   0  -5 4.30626 1.62114  16
   0   0  -5 1.72837 1.70953   3
   0   0   5 2.27080 0.97284   4
   0   0   5 0.60318 1.10863  10
   0   0   5 2.02520 1.30654  14
   0   0  -5 9.68912 1.82988   8
   0   0   5 1.58057 0.53317   7
   0   0   5 5.34158 1.74330   2
   0   0   5 3.68974 1.03654   6
   0   0  -5 0.83831 1.43351  12
   2   0   5 -0.0131 1.43939  14
  -2   0  -5 -0.4651 1.56336  16
   2   0   5 1.02531 1.50125   4
  -2   0  -5 1.43000 1.77382  12
   2   0   5 3.78984 1.83181  10
  -2   0  -5 1.01003 1.18212  13
   2   0   5 1.61398 0.95069   7
  -2   0  -5 0.39406 1.65303   8
  -2   0  -5 1.09114 2.26379   3
   4   0   5 3.48883 1.48373   7
  -4   0  -5 0.21808 1.97476  12
  -4   0  -5 0.39085 2.79741   3
   4   0   5 -1.7919 1.19639  14
   4   0   5 2.94119 2.01438  10
   4   0   5 0.90225 1.98196   4
  -4   0  -5 1.48170 2.26295  16
  -4   0  -5 1.67059 2.50706   8
  -6   0  -5 -0.3383 2.89810   3
  -6   0  -5 -2.3503 2.38161  16
   6   0   5 0.35496 1.72841   7
   6   0   5 -1.0347 2.26204   4
  -6   0  -5 -0.6709 2.64109  12
  -6   0  -5 -1.1623 3.17403   8
   6   0   5 -1.2932 2.02120  10
  -8   0  -5 -0.8610 5.02056   8
   8   0   5 0.58298 3.08378  10
  -8   0  -5 2.31383 3.55708  12
  -8   0  -5 2.23575 5.21957   3
   8   0   5 -0.0436 1.86729   7
  11  -1  -5 541.913 16.0846   7
 -11  -1   5 546.348 25.1319   8
 -11  -1   5 518.297 23.5671  15
 -11   1   5 520.890 23.4602  15
 -11   1   5 561.288 24.7686   8
  11   1  -5 567.006 16.2989   7
  -9  -1   5 41.3814 5.79208   2
   9  -1  -5 46.9930 4.35522   1
   9  -1  -5 50.6709 4.59679   7
  -9  -1   5 45.6197 7.80332   8
  -9  -1   5 35.2113 8.04177  15
  -9   1   5 44.2003 7.87866   8
  -9   1   5 45.1226 5.46653   2
   9   1  -5 39.7336 5.03773   1
   9   1  -5 54.0696 4.63865   7
  -9   1   5 56.0926 8.75753  15
  -7  -1   5 1475.56 36.5761  15
  -7  -1   5 1483.10 31.9051   2
   7  -1  -5 1420.78 26.8244  11
   7  -1  -5 1489.71 28.5156   5
   7  -1  -5 1468.66 29.9965   1
  -7   1   5 1462.24 31.2926   2
  -7   1   5 1441.33 36.0957  15
   7   1  -5 1464.37 31.1725   1
   7   1  -5 1434.29 27.1299   7
   5  -1  -5 11.8970 1.84519   5
   5  -1  -5 11.9434 1.31468  11
  -5  -1   5 11.4312 3.23597   2
   5  -1  -5 10.8646 1.99699  12
  -5  -1   5 25.2923 4.63413  15
   5  -1  -5 12.9398 2.13001   1
  -5  -1   5 12.8184 2.20826  14
  -5   1   5 13.8897 2.00751  14
  -5   1   5 14.9506 3.42289   2
   5   1  -5 14.1185 2.50297  13
   5   1  -5 15.2304 2.54237   1
  -5   1   5 12.0239 3.22704  15
   5   1  -5 13.0096 1.60343   5
   5   1  -5 9.72719 1.16021   7
   5   1  -5 13.8198 2.00371  12
   5   1  -5 14.1298 1.45384   9
   3  -1  -5 1844.74 33.7437   3
   3  -1  -5 1833.35 32.1489   5
   3  -1  -5 1822.34 33.3656  12
   3  -1  -5 1841.30 31.9437  16
   3  -1  -5 1778.02 30.8777  11
  -3  -1   5 1805.27 31.4315   4
  -3  -1   5 1864.21 34.1258  14
  -3  -1   5 1829.30 35.4021   2
   3   1  -5 1815.43 34.3324   3
   3   1  -5 1859.42 31.8679  16
  -3   1   5 1836.57 31.4011   6
   3   1  -5 1870.13 33.0867  12
  -3   1   5 1805.97 35.7745  15
  -3   1   5 1876.27 35.2422   2
  -3   1   5 1862.24 33.8130  14
   3   1  -5 1790.67 30.9176   5
  -1  -1   5 204.662 7.44662   2
  -1  -1   5 216.387 6.60386   4
  -1  -1   5 237.777 7.90655  14
   1  -1  -5 217.952 6.30040   5
   1  -1  -5 225.204 7.25576  12
   1  -1  -5 225.084 7.55496   3
  -1  -1   5 240.563 7.56234  10
   1  -1  -5 224.103 7.13162  16
   1   1  -5 223.155 6.97948  16
  -1   1   5 228.544 7.50303   2
   1   1  -5 229.405 7.88484   3
  -1   1   5 226.685 6.66196   4
   1   1  -5 224.981 6.78092  12
  -1   1   5 223.758 5.99363   6
  -1   1   5 219.736 6.68922  15
   1   1  -5 229.486 5.43160   5
  -1   1   5 230.061 7.77051  10
  -1   1   5 222.962 7.43061  14
  -1  -1  -5 688.822 18.0872  13
   1  -1   5 721.676 16.5613  14
  -1  -1  -5 660.394 15.2301   8
   1  -1   5 684.417 12.9727   7
  -1  -1  -5 690.265 17.6035   3
  -1  -1  -5 696.229 16.7528  16
   1  -1   5 708.229 16.1299   4
   1  -1   5 704.218 17.1443  10
   1  -1   5 675.636 14.6661   2
  -1  -1  -5 708.598 16.6119  12
   1   1   5 696.694 17.5182  10
  -1   1  -5 698.990 16.7043   8
   1   1   5 669.440 16.1045  14
  -1   1  -5 699.988 15.8489  12
   1   1   5 664.311 14.2085   2
   1   1   5 669.196 13.3960   7
  -1   1  -5 704.240 17.9873   3
  -1   1  -5 688.201 16.6342  13
   1   1   5 685.660 15.9193   4
   1   1   5 704.203 14.8806   6
  -1   1  -5 683.353 16.5047  16
  -3  -1  -5 341.636 13.2706   3
   3  -1   5 319.022 11.8130  10
  -3  -1  -5 335.085 11.5841   8
   3  -1   5 313.087 8.37175   7
  -3  -1  -5 332.700 11.6013  16
  -3  -1  -5 339.622 11.3208  12
   3  -1   5 308.304 9.97726  14
   3  -1   5 326.572 10.8345   4
  -3   1  -5 306.929 11.7035  13
   3   1   5 328.806 8.78201   7
  -3   1  -5 328.928 12.9307   3
   3   1   5 337.840 10.9849   4
  -3   1  -5 319.445 11.3784  16
   3   1   5 317.250 10.1692  14
  -3   1  -5 304.577 11.6669   8
   3   1   5 325.541 11.9457  10
  -3   1  -5 340.496 10.9322  12
  -5  -1  -5 126.196 8.66426   8
  -5  -1  -5 132.711 9.33228   3
   5  -1   5 141.484 6.18265   7
  -5  -1  -5 138.838 8.44441  12
  -5  -1  -5 142.311 8.61428  16
   5  -1   5 128.368 8.07165  10
   5  -1   5 149.960 8.22506   4
   5   1   5 138.664 6.29507   7
  -5   1  -5 134.051 7.84406  12
  -5   1  -5 144.217 10.2686   3
   5   1   5 137.852 8.55958  10
  -5   1  -5 145.453 9.73278   8
  -5   1  -5 135.421 8.15944  16
   7  -1   5 91.2309 7.89549  10
   7  -1   5 97.7254 7.51411   4
  -7  -1  -5 112.122 8.90164  12
   7  -1   5 101.714 6.28845   7
  -7  -1  -5 116.319 11.8903   3
   7   1   5 95.6933 6.19793   7
  -7   1  -5 98.4306 8.07367  12
   7   1   5 106.412 8.64073  10
  -7   1  -5 107.988 10.6869   3
  12  -2  -5 376.927 13.5955   7
 -12  -2   5 360.791 21.6146   8
 -12  -2   5 392.181 21.2450  15
 -12   2   5 376.673 20.4536  15
 -12   2   5 373.690 21.0930   8
  12   2  -5 362.792 13.2234   7
  12   2  -5 334.145 16.4447   1
 -10  -2   5 880.554 30.6635   8
 -10  -2   5 864.937 30.5062  15
  10  -2  -5 885.258 20.8937   7
 -10   2   5 823.211 28.7381  15
 -10   2   5 806.315 28.6506   8
  10   2  -5 846.896 23.8560   1
  10   2  -5 874.329 20.6323   7
  -8  -2   5 981.623 24.6755   2
  -8  -2   5 967.575 29.6064  15
   8  -2  -5 987.652 21.7803   5
   8  -2  -5 952.802 20.4169  11
  -8   2   5 972.415 28.8936  15
  -8   2   5 981.380 23.6963   2
  -8   2   5 969.154 27.9958   8
   8   2  -5 976.952 24.4462   1
   8   2  -5 965.572 20.3135   7
  -6  -2   5 1829.89 33.8831  14
   6  -2  -5 1829.83 34.8335   1
  -6  -2   5 1841.98 41.8281  15
  -6  -2   5 1864.75 37.9809   2
   6  -2  -5 1871.70 34.1118   5
   6  -2  -5 1882.03 34.9686  12
   6  -2  -5 1828.13 32.7201  11
  -6   2   5 1835.42 40.8243  15
   6   2  -5 1802.71 37.3117  13
  -6   2   5 1857.72 36.9788   2
   6   2  -5 1873.20 37.0710   1
   6   2  -5 1854.05 32.8166   9
  -6   2   5 1787.06 32.8787  14
   6   2  -5 1834.14 32.3589   7
  -6   2   5 1876.13 39.2201   8
   4  -2  -5 2212.86 37.4670  16
  -4  -2   5 2122.27 36.7893   4
  -4  -2   5 2191.84 39.9352  14
   4  -2  -5 2219.01 38.6197   5
   4  -2  -5 2281.62 39.7047  12
   4  -2  -5 2197.90 37.4864  11
  -4  -2   5 2235.81 42.4081   2
   4   2  -5 2199.74 38.9511  12
  -4   2   5 2198.21 41.5497   2
  -4   2   5 2150.54 37.8145   6
   4   2  -5 2186.37 39.4502  13
  -4   2   5 2255.61 39.5237  14
   4   2  -5 2142.21 36.0874   7
   4   2  -5 2115.81 36.7412   5
   4   2  -5 2234.30 41.1146   1
   4   2  -5 2175.44 37.9745   9
  -4   2   5 2209.54 43.5597  15
  -2  -2   5 1684.40 31.9687  14
  -2  -2   5 1658.49 30.0136   4
  -2  -2   5 1677.34 32.9158   2
   2  -2  -5 1656.92 30.8899   3
   2  -2  -5 1646.06 31.1468  12
  -2  -2   5 1696.82 30.7243  10
   2  -2  -5 1755.12 31.0164  16
   2  -2  -5 1655.79 30.2417   5
  -2   2   5 1680.92 31.6439  14
   2   2  -5 1605.85 27.4484   5
  -2   2   5 1638.31 31.6586  15
  -2   2   5 1693.54 32.1696   2
   2   2  -5 1739.14 30.7301  16
  -2   2   5 1691.50 29.7879   6
   2   2  -5 1639.24 30.0405  12
   2   2  -5 1667.15 32.1135   3
   0  -2   5 1814.71 34.3319   2
   0  -2  -5 1866.75 34.9485  16
   0  -2  -5 1818.48 34.9433   3
   0  -2  -5 1738.70 31.5504   8
   0  -2  -5 1814.08 33.3883   5
   0  -2  -5 1854.28 34.7678  12
   0  -2   5 1878.01 34.9295  14
   0  -2   5 1851.99 34.6245  10
   0  -2   5 1849.28 33.7964   4
   0   2  -5 1855.09 35.7240   3
   0   2   5 1792.65 34.5463  14
   0   2   5 1759.00 31.1897   7
   0   2   5 1812.94 32.9409   6
   0   2   5 1899.91 35.8503  10
   0   2   5 1832.17 33.5947   2
   0   2  -5 1813.99 35.0195   8
   0   2  -5 1780.48 32.6330  13
   0   2  -5 1857.90 34.6146  16
   0   2  -5 1793.38 32.9631  12
  -2  -2  -5 687.599 17.3321  12
   2  -2   5 686.283 16.6597   4
   2  -2   5 674.565 13.4656   7
  -2  -2  -5 684.915 17.5153  16
  -2  -2  -5 639.536 21.7058  13
   2  -2   5 699.606 17.7737  10
  -2  -2  -5 679.447 18.6129   3
  -2  -2  -5 659.982 15.5400   8
   2  -2   5 673.745 16.4736  14
   2   2   5 675.982 14.2782   7
  -2   2  -5 671.947 17.1159  16
  -2   2  -5 687.859 18.7273   3
  -2   2  -5 684.034 16.9837  13
   2   2   5 692.190 15.6528   6
   2   2   5 705.070 18.3174  10
  -2   2  -5 679.808 15.9178  12
   2   2   5 657.038 16.3279  14
  -2   2  -5 677.370 18.1293   8
  -4  -2  -5 470.236 15.2116  12
  -4  -2  -5 456.357 15.0953  16
   4  -2   5 456.579 15.4285  10
   4  -2   5 488.183 14.6360   4
   4  -2   5 454.101 11.4854   7
  -4  -2  -5 470.767 16.9982   3
  -4  -2  -5 440.327 14.3621   8
   4   2   5 474.945 15.9773  10
  -4   2  -5 474.646 16.3901   8
  -4   2  -5 461.497 14.9764  16
   4   2   5 447.069 12.8585  14
   4   2   5 467.723 12.2141   7
  -4   2  -5 479.118 13.9937  12
  -4   2  -5 472.315 16.7865   3
   6  -2   5 302.288 12.4559   4
   6  -2   5 313.653 10.3835   7
  -6  -2  -5 286.544 15.4609   3
   6  -2   5 302.651 13.6318  10
  -6  -2  -5 294.536 13.0944  16
  -6  -2  -5 298.710 13.4537  12
  -6   2  -5 298.863 12.9185  16
  -6   2  -5 297.835 12.1580  12
   6   2   5 316.340 10.7764   7
  -6   2  -5 310.492 15.4873   3
   6   2   5 304.900 13.7843  10
  -6   2  -5 301.517 15.0060   8
  -8  -2  -5 114.599 8.97380  12
  -8  -2  -5 94.4888 11.8062   3
  -8   2  -5 91.8969 10.3653   8
   8   2   5 86.8013 6.02760   7
  -8   2  -5 107.354 11.6015   3
   8   2   5 71.6776 8.18253  10
 -11  -3   5 -1.5942 6.18026  15
 -11  -3   5 -7.3002 5.28284   8
  11  -3  -5 0.75944 2.24202   7
  11   3  -5 0.52317 2.12129   7
 -11   3   5 -2.4046 5.83633   8
  11   3  -5 1.15427 2.17278   1
 -11   3   5 1.94822 5.64786  15
   9  -3  -5 376.095 11.8122  11
  -9  -3   5 356.107 18.7147  15
   9  -3  -5 377.912 12.2444   5
  -9   3   5 366.544 18.1868  15
   9   3  -5 381.044 11.2100   7
   9   3  -5 370.133 14.4164   1
  -9   3   5 371.774 17.3457   8
  -9   3   5 354.767 13.0560   2
  -7  -3   5 100.776 7.33921   2
  -7  -3   5 78.0300 7.41036  15
   7  -3  -5 75.5448 4.67470   5
   7  -3  -5 70.4469 4.06652  11
   7   3  -5 80.4534 5.94720   1
   7   3  -5 78.6333 3.93496   9
   7   3  -5 85.4542 4.01357   7
  -7   3   5 81.7992 7.68241  15
  -7   3   5 86.4509 6.16308   2
  -7   3   5 93.5217 7.55846   8
   5  -3  -5 1496.39 27.4787  11
   5  -3  -5 1517.46 28.8816  12
  -5  -3   5 1500.17 32.3045   2
  -5  -3   5 1512.50 29.5043  14
   5  -3  -5 1447.18 26.5853  16
   5  -3  -5 1556.69 28.5659   5
  -5   3   5 1508.91 31.2602   2
  -5   3   5 1528.48 27.9027   6
  -5   3   5 1528.08 28.4560  14
  -5   3   5 1495.16 33.7063  15
   5   3  -5 1522.99 28.0064   9
  -5   3   5 1450.15 30.8908   8
   5   3  -5 1457.59 26.0952   7
   5   3  -5 1573.76 31.5462   1
   5   3  -5 1449.75 29.4403  13
  -3  -3   5 178.229 5.49470   4
   3  -3  -5 182.169 6.22583   5
  -3  -3   5 185.164 5.56909  10
   3  -3  -5 172.649 5.53513  11
   3  -3  -5 191.759 6.18843  16
   3  -3  -5 188.807 6.55866  12
  -3  -3   5 175.895 6.85202  14
  -3  -3   5 182.499 8.06618   2
  -3   3   5 171.225 7.39963   2
   3   3  -5 178.701 5.77230   9
  -3   3   5 177.027 7.75104  15
   3   3  -5 172.145 5.48641  12
  -3   3   5 172.737 5.63928   6
   3   3  -5 175.792 4.34777  13
  -3   3   5 177.708 6.57577  14
  -1  -3   5 2142.65 40.0641  14
  -1  -3   5 2185.68 38.5212   4
   1  -3  -5 2144.24 39.6522  16
  -1  -3   5 2139.48 38.4347  10
  -1  -3   5 2078.98 36.0234  11
   1  -3  -5 2182.93 39.5428  12
   1  -3  -5 2120.56 38.5031   5
   1  -3  -5 2099.54 38.6180   3
  -1   3   5 2164.49 39.6771   2
  -1   3   5 2120.81 38.0574   6
   1   3  -5 2165.97 40.3869   3
  -1   3   5 2142.55 39.7191  14
   1   3  -5 2184.02 39.4051  16
   1   3  -5 2113.01 40.0822   8
   1   3  -5 2106.07 37.1709  12
  -1   3   5 2081.08 37.0588  15
  -1  -3  -5 33.6917 4.01938   3
   1  -3   5 32.8046 2.66821  11
   1  -3   5 36.8049 3.81911   4
  -1  -3  -5 35.0971 3.83808  12
   1  -3   5 34.2453 3.32501  10
  -1  -3  -5 35.1285 3.88595  16
   1  -3   5 33.4910 3.70127  14
  -1   3  -5 34.5990 2.70423  12
   1   3   5 37.0541 4.06196  10
  -1   3  -5 34.4322 4.23963   3
   1   3   5 30.3162 2.25133   7
  -1   3  -5 39.0744 3.80290  16
   1   3   5 36.8872 3.81018  14
   1   3   5 31.0635 2.63022   2
  -1   3  -5 33.9334 4.20669   8
   1   3   5 39.8776 3.19008   6
  -3  -3  -5 1061.11 25.4719  16
   3  -3   5 1045.10 23.0194  11
   3  -3   5 1037.07 23.3029  14
   3  -3   5 1094.58 24.6702   4
  -3  -3  -5 1039.14 25.2134  12
   3  -3   5 1080.17 20.7155   7
   3  -3   5 1079.30 25.2815  10
  -3  -3  -5 1104.49 27.0695   3
   3   3   5 1041.21 25.9348  10
   3   3   5 1104.02 23.3426   6
  -3   3  -5 1074.14 25.2535  16
   3   3   5 1092.33 21.8147   7
  -3   3  -5 1049.27 26.6440   8
  -3   3  -5 1085.41 22.9544  12
  -3   3  -5 1074.85 26.7298   3
  -5  -3  -5 141.025 9.08449  12
  -5  -3  -5 137.590 10.3889   3
   5  -3   5 118.161 7.72988   4
  -5  -3  -5 130.684 8.58162  16
   5  -3   5 139.968 6.02009   7
   5  -3   5 126.344 8.18341  10
   5   3   5 135.039 6.46873   7
  -5   3  -5 125.671 7.88344  16
   5   3   5 127.076 8.47073  10
  -5   3  -5 128.636 9.79022   8
  -5   3  -5 117.398 7.25044  12
  -5   3  -5 140.596 9.79262   3
   7  -3   5 414.013 15.3297   4
  -7  -3  -5 417.279 17.3231  12
  -7  -3  -5 466.819 20.4927   3
   7   3   5 416.033 17.0337  10
   7   3   5 444.819 14.0989   7
  -7   3  -5 452.700 18.8865   3
  -7   3  -5 416.084 18.8163   8
 -10  -4   5 71.9904 10.7290  15
 -10  -4   5 62.1761 10.0196   8
 -10   4   5 92.2718 10.6786  15
  10   4  -5 74.5879 8.12621   1
 -10   4   5 77.6325 10.1774   8
  10   4  -5 80.3484 5.42539   7
   8  -4  -5 0.07146 1.54162  11
   8  -4  -5 2.97370 2.23488   5
  -8  -4   5 3.21962 4.51315  15
  -8  -4   5 1.48573 3.24134   2
  -8   4   5 -2.5394 4.45708   8
   8   4  -5 2.98147 2.44387   1
  -8   4   5 0.14751 4.09945  15
  -8   4   5 1.47902 2.42231   2
   8   4  -5 -0.4893 1.20670   7
  -6  -4   5 131.430 6.19961  14
   6  -4  -5 118.031 5.26604  11
   6  -4  -5 128.062 5.78166  12
   6  -4  -5 121.339 5.79060   5
  -6  -4   5 127.555 8.07918   2
  -6   4   5 124.547 7.38866   8
   6   4  -5 115.363 5.25295   9
  -6   4   5 109.547 8.77529  15
   6   4  -5 115.346 4.35674   7
  -6   4   5 113.838 7.00237   2
  -6   4   5 119.569 5.21219   6
   6   4  -5 127.176 6.96444   1
   4  -4  -5 216.704 7.17247   5
  -4  -4   5 181.818 7.56757  14
  -4  -4   5 184.467 5.92410   4
   4  -4  -5 186.112 6.71270  12
   4  -4  -5 184.027 6.29086  16
   4  -4  -5 182.881 6.24033  11
  -4   4   5 179.311 8.15204   2
  -4   4   5 187.856 6.41117   6
   4   4  -5 202.495 8.14783   1
  -4   4   5 165.342 6.49028   8
  -4   4   5 175.314 8.82528  15
   4   4  -5 188.964 6.56589   9
  -2  -4   5 117.543 5.19786   4
  -2  -4   5 122.825 4.32237  10
   2  -4  -5 129.319 5.57296   5
   2  -4  -5 119.922 4.52477   3
  -2  -4   5 128.309 6.49287  14
   2  -4  -5 126.820 5.74663  16
   2  -4  -5 119.235 5.53995  12
   2   4  -5 116.109 5.70233   3
  -2   4   5 123.451 5.08347   6
  -2   4   5 120.070 5.63048  15
  -2   4   5 122.290 6.29540   2
  -2   4   5 126.583 5.73208  14
   0  -4  -5 983.587 21.0575   3
   0  -4   5 985.698 19.1834  11
   0  -4  -5 980.603 22.5808  16
   0  -4   5 1021.39 22.5442  14
   0  -4   5 981.988 20.7895  10
   0  -4  -5 1018.44 21.2764   5
   0  -4  -5 1003.03 22.0487  12
   0  -4   5 1016.25 21.4682   4
   0   4  -5 982.813 23.0211   8
   0   4  -5 999.373 22.5004   3
   0   4   5 988.158 20.8646   6
   0   4   5 1016.51 21.2919   2
   0   4   5 994.542 19.1709   7
   0   4   5 994.048 22.5641  10
   0   4  -5 983.155 18.7812  12
   0   4  -5 992.272 22.1790  16
   0   4   5 998.390 22.1766  14
  -2  -4  -5 414.090 13.6208   3
  -2  -4  -5 432.379 13.5360  12
   2  -4   5 427.062 12.8167  14
   2  -4   5 422.125 12.7836  10
   2  -4   5 414.066 11.3259  11
  -2  -4  -5 416.514 13.7693  16
   2  -4   5 425.175 12.9311   4
   2   4   5 418.922 12.0591   6
   2   4   5 413.403 13.6031  10
  -2   4  -5 418.905 14.0773   8
   2   4   5 408.950 10.5599   7
  -2   4  -5 430.816 13.8739   3
  -2   4  -5 421.976 13.4434  16
  -4  -4  -5 503.197 17.6679   3
  -4  -4  -5 498.605 16.5032  12
  -4  -4  -5 493.462 16.3796  16
   4  -4   5 469.967 15.2578   4
   4  -4   5 511.663 14.6182  11
   4  -4   5 492.661 15.9158  10
  -4   4  -5 470.797 17.0435   3
  -4   4  -5 483.637 16.0894  16
   4   4   5 502.765 16.6883  10
   4   4   5 504.091 13.3201   7
  -4   4  -5 498.956 17.9805   8
   4   4   5 482.940 14.2528   6
   6  -4   5 456.215 16.0802   4
  -6  -4  -5 445.109 17.1554  12
  -6  -4  -5 454.203 19.2531   3
   6   4   5 457.603 17.2641  10
  -6   4  -5 485.239 19.6214   8
   6   4   5 472.617 14.0687   7
  -6   4  -5 482.428 19.0257   3
 -11  -5   5 270.192 18.5178   8
 -11  -5   5 256.495 17.4201  15
 -11   5   5 230.648 15.7263   8
  11   5  -5 252.628 13.4855   1
 -11   5   5 236.980 15.4299  15
  -9  -5   5 20.1784 6.67875  15
   9  -5  -5 10.5657 3.01642   5
   9  -5  -5 13.8968 2.88235  11
   9   5  -5 8.58570 2.16942   7
  -9   5   5 10.1816 3.08586   2
  -9   5   5 9.42201 5.48899  15
   9   5  -5 8.27951 3.57671   1
  -9   5   5 15.9648 5.66268   8
   7  -5  -5 293.855 9.83102   5
  -7  -5   5 300.072 13.1310   2
   7  -5  -5 312.443 9.95371  11
   7   5  -5 299.229 9.78834   9
  -7   5   5 303.981 9.98211   6
  -7   5   5 271.736 14.2122  15
   7   5  -5 305.404 12.4901   1
  -7   5   5 305.538 11.8253   2
  -7   5   5 305.074 13.0160   8
   7   5  -5 305.227 8.52702   7
  -5  -5   5 2.25516 2.05599  14
   5  -5  -5 4.81669 1.62816  12
   5  -5  -5 6.71309 2.09185   5
   5  -5  -5 7.57619 1.94795  11
  -5   5   5 10.0114 3.65162  15
   5   5  -5 4.26949 0.96501   7
   5   5  -5 -0.5610 1.48738   1
  -5   5   5 2.91425 1.62420   6
  -5   5   5 1.10151 2.04425   2
   5   5  -5 1.38378 1.38438   9
   3  -5  -5 483.628 12.3888  11
   3  -5  -5 507.839 12.8775   5
  -3  -5   5 492.783 14.2052  14
  -3  -5   5 509.090 12.3522   4
   3  -5  -5 484.101 13.0474  16
   3  -5  -5 487.791 12.4381  12
  -3   5   5 499.110 12.5310   6
  -3   5   5 495.565 14.4812  15
   3   5  -5 479.098 12.5454   9
   3   5  -5 510.465 14.0335   1
  -3   5   5 502.283 14.3918   2
   1  -5  -5 64.8716 4.46474   5
  -1  -5   5 60.8679 2.94007  11
  -1  -5   5 68.4069 5.43924  14
  -1  -5   5 64.3916 4.23632   4
   1  -5  -5 65.7790 4.80607  16
   1  -5  -5 64.6073 3.47177   3
   1  -5  -5 62.7644 4.51401  12
  -1   5   5 62.4668 4.68678   2
  -1   5   5 66.4430 4.03773   6
   1   5  -5 71.4240 4.78635   3
   1  -5   5 697.930 16.7986  10
   1  -5   5 704.348 18.2916  14
   1  -5   5 704.931 15.7901  11
   1  -5   5 690.893 17.5798   4
  -1  -5  -5 724.408 18.4859  12
  -1  -5  -5 714.818 17.6131   3
  -1  -5  -5 709.682 17.6521   5
  -1  -5  -5 724.667 19.2765  16
   1   5   5 744.614 19.0967  10
  -1   5  -5 703.141 18.6248  16
   1   5   5 737.295 17.3696   6
   1   5   5 730.451 15.5909   7
  -1   5  -5 715.091 18.5833   3
  -1   5  -5 708.673 19.5944   8
  -3  -5  -5 207.558 9.89823  16
  -3  -5  -5 202.814 9.84740  12
   3  -5   5 201.112 8.95547  10
   3  -5   5 215.191 8.36376  11
  -3  -5  -5 203.507 10.2316   3
   3  -5   5 207.983 9.06878   4
   3  -5   5 189.743 8.56011  14
  -3   5  -5 203.787 9.74713  16
  -3   5  -5 207.132 9.93734   3
  -3   5  -5 203.716 10.7131   8
   3   5   5 202.724 8.49837   6
   3   5   5 203.446 9.71453  10
   3   5   5 209.836 7.57034   7
   5  -5   5 356.152 12.8971  11
   5  -5   5 358.296 13.8278   4
  -5  -5  -5 378.999 14.9657  12
  -5  -5  -5 334.129 15.0235   3
  -5  -5  -5 364.513 14.9232  16
  -5   5  -5 347.676 16.1444   8
  -5   5  -5 340.636 13.8361  16
  -5   5  -5 379.492 15.4436   3
   5   5   5 377.190 11.7838   7
   5   5   5 362.761 14.4630  10
  -7  -5  -5 17.3832 5.82695   3
   7  -5   5 40.9111 5.80473   4
  -7  -5  -5 27.9161 6.11639  12
  -7   5  -5 26.4350 5.66215   3
  -7   5  -5 18.7129 6.13535   8
   7   5   5 22.5880 4.48075  10
   7   5   5 28.4112 4.15778   7
 -10  -6   5 4.93942 6.24106  15
  10  -6  -5 23.8260 4.22218   5
  10  -6  -5 17.9287 3.61452  11
 -10   6   5 9.21395 5.28839   8
  10   6  -5 11.2879 4.57553   1
 -10   6   5 13.0263 4.87928  15
  -8  -6   5 77.0640 8.28956   2
   8  -6  -5 86.0877 5.76865  11
   8  -6  -5 88.8573 5.96928   5
   8   6  -5 76.4880 5.33165   9
  -8   6   5 57.0137 6.97232   8
   8   6  -5 54.7938 4.04385   7
  -8   6   5 78.7310 6.50653   2
   8   6  -5 82.7320 7.16337   1
  -8   6   5 80.1893 5.86567   6
  -8   6   5 85.2585 10.0270  15
  -6  -6   5 1.08150 2.07652  14
   6  -6  -5 0.39169 1.72618   5
  -6  -6   5 2.11178 2.87900   2
   6  -6  -5 2.96744 1.94284  11
  -6   6   5 1.03772 1.63611   2
   6   6  -5 0.82919 1.49828   9
  -6   6   5 -0.5437 1.65413   6
  -6   6   5 1.72565 3.27835  15
   6   6  -5 3.74043 2.27362   1
   4  -6  -5 44.9429 3.61342  11
   4  -6  -5 54.1693 4.33697   5
  -4  -6   5 36.3536 4.49080  14
   4  -6  -5 45.3104 3.51983  12
  -4  -6   5 39.9977 3.63310   4
  -4   6   5 44.2359 3.76552   6
   4   6  -5 36.2189 4.30478   1
  -4   6   5 65.6451 5.92572  15
  -4   6   5 52.0725 5.38800   2
   4   6  -5 41.8155 4.10781   9
   2  -6  -5 473.368 12.6630   5
   2  -6  -5 438.648 13.4049  16
  -2  -6   5 464.141 14.3110  14
   2  -6  -5 430.567 12.0155  12
   2  -6  -5 445.472 12.4394  11
  -2  -6   5 456.901 12.5723   4
   2   6  -5 444.753 12.9517   1
  -2   6   5 427.137 12.3387  15
  -2   6   5 455.187 13.6932   2
   2   6  -5 446.071 12.5295   9
  -2   6   5 454.245 12.4540   6
   0  -6   5 71.4923 3.84260  11
   0  -6  -5 65.6537 5.43245  16
   0  -6   5 74.5190 5.95895  14
   0  -6   5 68.1183 5.34144   4
   0  -6  -5 71.9015 5.19654  12
   0  -6  -5 67.8516 4.94104   5
   0   6   5 73.5845 4.65788   6
   0   6  -5 73.2006 6.03097   8
   0   6   5 56.1254 4.74360  10
   0   6  -5 61.1248 4.80352   3
   2  -6   5 616.255 17.3984  14
  -2  -6  -5 590.508 16.7116   5
  -2  -6  -5 584.515 16.6349   3
   2  -6   5 632.594 17.3711   4
  -2  -6  -5 568.429 18.1408  16
   2  -6   5 616.250 16.0012  10
  -2  -6  -5 642.649 17.9412  12
   2  -6   5 641.973 15.5934  11
  -2   6  -5 652.885 18.0056   3
   2   6   5 626.511 16.6404   6
  -2   6  -5 624.938 19.6131   8
   2   6   5 604.854 17.8506  10
   2   6   5 590.473 14.6435   7
  -4  -6  -5 314.006 13.9043   3
   4  -6   5 325.564 12.4857   4
  -4  -6  -5 332.364 14.0636  16
  -4  -6  -5 330.084 13.8157  12
   4  -6   5 334.798 11.7144  11
   4   6   5 322.328 13.1931  10
  -4   6  -5 327.910 13.5429   3
  -4   6  -5 343.539 15.2220   8
   4   6   5 334.348 11.8245   6
   4   6   5 322.089 10.8534   7
   6  -6   5 165.709 9.31198  11
  -6  -6  -5 152.876 11.5218   3
   6  -6   5 146.954 9.08438   4
  -6  -6  -5 153.016 10.1295  12
  -6   6  -5 146.135 10.0345   3
  -6   6  -5 161.166 12.0717   8
   6   6   5 152.497 9.68073  10
   6   6   5 151.908 7.89993   7
   9  -7  -5 10.7409 3.38637   5
  -9  -7   5 15.7623 6.48323  15
   9  -7  -5 8.87912 3.30523  11
   9   7  -5 7.16508 3.86085   1
  -9   7   5 14.5877 3.77976   6
  -9   7   5 17.8262 6.13192  15
   7  -7  -5 505.664 14.5848  11
   7  -7  -5 510.122 14.6201   5
  -7  -7   5 520.876 19.2826   2
  -7  -7   5 488.498 15.5575  14
  -7   7   5 516.808 16.8770   2
  -7   7   5 500.649 15.1448   6
   7   7  -5 515.933 17.6204   1
   7   7  -5 502.509 15.2208   9
  -7   7   5 504.053 19.7994  15
   5  -7  -5 191.481 7.94849  11
  -5  -7   5 218.359 9.90539  14
   5  -7  -5 196.094 7.24555  12
  -5  -7   5 194.232 7.64583   4
   5  -7  -5 198.245 8.05565   5
  -5   7   5 210.622 8.56555   6
  -5   7   5 208.488 9.98460   2
  -5   7   5 210.311 11.1800  15
   5   7  -5 200.551 8.63346   9
   5   7  -5 223.312 10.0555   1
   3  -7  -5 1033.87 23.4545  11
   3  -7  -5 1037.97 22.1895  12
  -3  -7   5 1102.19 26.0943  14
  -3  -7   5 1058.30 23.3798   4
   3  -7  -5 1087.31 23.5739   5
   3   7  -5 1041.84 24.3857   1
  -3   7   5 1060.84 23.5648   6
  -3   7   5 1077.17 25.6110   2
   3   7  -5 1054.89 24.0443   9
   1  -7  -5 35.9233 3.98826  16
  -1  -7   5 33.3510 4.69781  14
   1  -7  -5 45.9151 4.40564  12
   1  -7  -5 40.9346 4.25918   5
  -1  -7   5 38.6476 4.58885   4
  -1   7   5 37.6762 4.18724   6
  -1   7   5 43.5476 4.62649  10
   1   7  -5 34.6793 4.06792   9
   1   7  -5 40.4807 3.92326   3
   1   7  -5 40.3126 3.54797   1
  -1  -7  -5 467.586 16.1793  16
   1  -7   5 467.611 14.4994   4
   1  -7   5 492.109 15.7460  14
  -1  -7  -5 471.747 14.6354  12
   1  -7   5 505.371 12.9688  11
  -1  -7  -5 497.554 14.7542   5
  -1   7  -5 489.759 14.6988   3
  -1   7  -5 488.748 16.6384   8
   1   7   5 471.407 15.0960  10
   1   7   5 479.201 14.2314   6
   3  -7   5 80.0595 5.72270  11
   3  -7   5 79.2425 5.92807  14
  -3  -7  -5 76.3362 6.96577  12
   3  -7   5 82.9823 6.30300   4
  -3  -7  -5 73.4283 6.20156   5
  -3  -7  -5 75.0722 7.12447  16
   3   7   5 86.1139 6.34244   6
  -3   7  -5 79.0931 8.42259   8
   3   7   5 69.3560 6.04193  10
   3   7   5 72.4870 5.03196   7
  -3   7  -5 70.2360 6.10415   3
   5  -7   5 171.346 10.1674   4
   5  -7   5 164.757 8.73719  11
  -5  -7  -5 180.737 11.0664  12
   5   7   5 176.449 9.30031   6
  -5   7  -5 190.219 12.6219   8
   5   7   5 181.157 8.39503   7
  10  -8  -5 212.998 10.3688  11
  10  -8  -5 202.122 10.1243   5
  10   8  -5 195.207 12.1007   1
 -10   8   5 181.106 10.2727   6
 -10   8   5 204.746 14.0554  15
   8  -8  -5 972.982 24.0376  11
  -8  -8   5 967.957 28.8421   2
   8  -8  -5 985.475 23.9148   5
   8   8  -5 952.788 24.3000   9
  -8   8   5 969.568 30.7019  15
   8   8  -5 961.923 27.7094   1
  -8   8   5 964.448 24.6531   6
   6  -8  -5 548.785 15.4727   5
   6  -8  -5 543.085 15.8005  11
  -6  -8   5 535.077 17.3247  14
   6   8  -5 564.149 18.2303   1
  -6   8   5 544.811 17.5504   2
  -6   8   5 547.028 20.1154  15
   6   8  -5 535.335 16.3217   9
  -6   8   5 520.870 15.9071   6
   4  -8  -5 688.400 17.8730  11
  -4  -8   5 636.305 19.4649  14
   4  -8  -5 666.825 17.2822   5
  -4  -8   5 650.776 17.1036   4
  -4   8   5 658.011 19.3994   2
   4   8  -5 656.197 18.2841   9
  -4   8   5 662.397 20.1728  15
  -4   8   5 649.537 17.5141   6
   4   8  -5 649.486 18.6659   1
   2  -8  -5 1077.44 23.2854  12
   2  -8  -5 1098.72 25.3465  11
  -2  -8   5 1121.67 27.6601  14
  -2  -8   5 1081.69 25.1168   4
   2  -8  -5 1105.87 24.8849   5
   2   8  -5 1108.12 25.6487   9
  -2   8   5 1127.75 25.2926   6
   2   8  -5 1045.33 24.4920   1
   0  -8   5 154.112 8.41193   4
   0  -8   5 179.308 9.51612  14
   0  -8  -5 160.058 8.01381   5
   0  -8   5 145.604 6.22838  11
   0  -8  -5 145.339 8.72348  16
   0   8  -5 162.437 7.67346   9
   0   8   5 141.374 7.66043   6
   0   8   5 149.082 7.86739  10
   2  -8   5 471.520 13.6669  11
  -2  -8  -5 482.313 17.5596  16
  -2  -8  -5 461.106 15.3506  12
  -2  -8  -5 489.647 15.5845   5
   2  -8   5 451.620 15.5353  14
   2  -8   5 501.359 16.4277   4
  -2   8  -5 478.159 14.6722   9
  -2   8  -5 502.356 18.1165   8
   2   8   5 465.280 15.4892  10
   2   8   5 478.842 15.2888   6
  -4  -8  -5 148.372 8.82410   5
   4  -8   5 156.645 8.20057  11
  -4  -8  -5 138.999 9.68882  12
   4  -8   5 171.706 9.82565   4
  -4   8  -5 155.347 7.92135   9
   4   8   5 145.965 7.46135   7
   4   8   5 163.041 8.95303   6
  -4   8  -5 155.726 11.2209   8
   6  -8   5 22.8716 4.33267   4
  -6  -8  -5 28.9703 5.95797  12
  -6  -8  -5 31.0646 5.35441   5
   6  -8   5 33.3457 5.00528  11
   6   8   5 27.2875 4.10044   7
  -6   8  -5 27.3276 6.60338   8
   9  -9  -5 688.360 19.4687   5
   9  -9  -5 683.365 19.9128  11
  -9  -9   5 634.527 27.0449  15
   9   9  -5 679.310 23.2126   1
   9   9  -5 611.427 19.1954   9
  -9   9   5 646.976 19.7622   6
  -9   9   5 687.686 25.9671  15
  -7  -9   5 341.754 14.2186  14
  -7  -9   5 355.004 16.5330   2
   7  -9  -5 318.996 12.3699  11
   7  -9  -5 317.624 11.9635   5
  -7   9   5 325.599 12.9479   6
   7   9  -5 320.261 12.9915   9
   7   9  -5 335.332 14.2996   1
  -7   9   5 303.844 15.8964  15
   5  -9  -5 619.904 17.0043   4
   5  -9  -5 626.310 16.9762   5
  -5  -9   5 535.894 16.3803   4
  -5  -9   5 611.849 19.6606  14
   5  -9  -5 603.910 17.3260  11
  -5   9   5 636.932 21.1589  15
   5   9  -5 582.954 18.5567   1
   5   9  -5 600.739 18.3060   9
  -5   9   5 602.646 17.7402   6
  -3  -9   5 343.950 12.4916   4
   3  -9  -5 351.553 12.0527   5
  -3  -9   5 341.689 14.1901  14
   3  -9  -5 349.825 12.4467  11
   3   9  -5 326.400 12.4984   9
  -3   9   5 354.822 13.4472  15
   3   9  -5 327.623 11.9888   1
  -3   9   5 315.812 11.8347   6
   1  -9  -5 773.384 20.0716   5
  -1  -9   5 772.879 20.8627   4
  -1  -9   5 729.570 21.8341  14
   1  -9  -5 741.474 22.1733  16
   1  -9  -5 766.413 20.5533  11
   1   9  -5 756.753 20.5445   9
  -1   9   5 736.594 20.3814  10
  -1   9   5 729.141 19.9651   6
  -1  -9  -5 5.23539 2.73072  12
  -1  -9  -5 -0.2675 2.60127   5
   1  -9   5 1.72791 3.27269  14
  -1  -9  -5 2.43256 2.90514  16
   1  -9   5 2.59731 1.66542  11
   1  -9   5 5.69606 3.60223   4
   1   9   5 2.54126 2.49394   6
  -1   9  -5 3.03738 2.49207   9
  -3  -9  -5 639.190 19.5149  12
   3  -9   5 651.818 18.0570  11
   3  -9   5 629.457 20.0458  14
   3  -9   5 660.931 20.5865   4
  -3  -9  -5 675.051 20.2710   5
  -3   9  -5 660.464 22.8827   8
  -3   9  -5 640.437 18.7668   9
   3   9   5 672.588 19.5529   6
   5  -9   5 21.4959 5.00191   4
   5  -9   5 35.6335 5.05636  11
  -5  -9  -5 43.7179 6.32364   5
  -5  -9  -5 28.3754 5.59333  12
   5   9   5 40.7081 5.24471   6
  -5   9  -5 25.5182 5.54833   8
   8 -10  -5 63.4321 6.33549   5
   8 -10  -5 59.8176 6.41896  11
  -8 -10   5 68.2608 8.95303   2
  -8  10   5 67.2921 8.95594  15
  -8  10   5 58.1077 6.79960   6
   8  10  -5 68.2454 7.62007   1
   8  10  -5 57.6757 6.34878   9
   6 -10  -5 3.89753 2.72888   5
  -6 -10   5 2.28630 3.18535  14
   6 -10  -5 9.35262 3.39135  11
  -6  10   5 6.48325 3.44273   6
   6  10  -5 6.07350 2.70227   9
  -6  10   5 8.68524 4.28640  15
   6  10  -5 3.20255 2.98864   1
   4 -10  -5 0.74312 2.48665   5
  -4 -10   5 -0.1903 2.73948   4
  -4 -10   5 4.72797 3.37294  14
   4 -10  -5 -0.0692 2.67554  11
   4  10  -5 3.74311 2.71596   9
  -4  10   5 -0.6316 2.38018  15
   4  10  -5 -0.2963 2.33744   1
  -4  10   5 0.35250 2.39952   6
  -2 -10   5 125.054 9.48736  14
   2 -10  -5 113.862 7.53268  11
   2 -10  -5 117.977 7.48184   5
  -2 -10   5 114.382 7.63257   4
   2 -10  -5 125.520 8.41107  16
   2  10  -5 113.288 7.77075   9
  -2  10   5 107.402 7.42132   6
   0 -10  -5 15.4547 4.00613   5
   0 -10  -5 18.0271 3.60948  11
   0 -10   5 23.8268 4.97369   4
   0 -10   5 23.0866 5.16226  14
   0  10  -5 23.8543 4.40633   9
   0  10   5 14.9874 3.70756   6
  -2 -10  -5 117.836 8.19931   5
   2 -10   5 84.8767 6.22993  11
   2 -10   5 114.314 8.34872   4
   2 -10   5 116.240 9.08420  14
  -2  10  -5 104.051 7.14712   9
   2  10   5 95.2276 7.52046   6
   4 -10   5 8.58539 3.05382  11
   4 -10   5 9.19645 4.36291   4
  -4 -10  -5 15.2402 4.55391   5
  -4  10  -5 12.9941 4.61070   8
   4  10   5 15.8389 4.19887   6
   7 -11  -5 45.2572 6.12781  11
   7 -11  -5 34.6537 4.81698   5
   7  11  -5 41.1344 6.28991   9
  -7  11   5 43.1568 7.13551  15
   7  11  -5 33.3513 5.84956   1
  -7  11   5 37.6976 5.69931   6
  -5 -11   5 370.467 16.2375  14
   5 -11  -5 392.854 13.4737   5
   5 -11  -5 343.575 13.7886   4
   5 -11  -5 365.787 14.1421  11
  -5  11   5 379.283 14.3692   6
  -5  11   5 408.996 17.3708  15
   5  11  -5 383.855 15.3107   9
   3 -11  -5 177.098 8.68666   5
  -3 -11   5 200.930 12.2047  14
  -3 -11   5 201.112 10.6770   4
   3 -11  -5 179.632 9.88074  11
  -3  11   5 176.326 9.92673   6
   3  11  -5 184.905 10.4457   9
   1 -11  -5 95.3525 7.84100  11
   1 -11  -5 100.342 7.58433   5
  -1 -11   5 97.8777 7.74524   4
  -1 -11   5 97.8998 9.01850  14
   1  11  -5 92.1708 7.59454   9
  -1  11   5 110.548 7.98320   6
  -1 -11  -5 52.2069 6.21377   5
   1 -11   5 61.3108 7.91111  14
  -1 -11  -5 64.9213 6.77371  11
   1 -11   5 60.2884 7.49689   4
  -1  11  -5 69.6658 6.91402   9
   1  11   5 70.9479 7.13450   6
   3 -11   5 29.0405 5.93929   4
  -3 -11  -5 27.1789 5.09687   5
   3  11   5 29.1142 5.21479   6
  -3  11  -5 20.2039 4.50022   9
  -6 -12   5 239.483 13.3038  14
   6 -12  -5 280.171 12.3616  11
   6 -12  -5 272.063 11.5119   5
  -6  12   5 277.394 14.8011   6
   6  12  -5 284.960 13.6275   9
   4 -12  -5 219.436 10.3591   5
  -4 -12   5 225.511 11.6235   4
   4 -12  -5 249.437 11.7102   4
   4 -12  -5 255.476 12.2374  11
  -4 -12   5 257.550 14.1826  14
   4  12  -5 254.063 12.7564   9
  -4  12   5 254.656 12.3253   6
  -2 -12   5 68.1559 8.50866  14
   2 -12  -5 58.9396 6.18996   5
  -2 -12   5 57.5907 7.18483   4
   2 -12  -5 65.3181 6.81917  11
   2  12  -5 62.6454 7.22679   9
  -2  12   5 70.5112 7.03544   6
   0 -12  -5 405.296 16.1207  11
   0 -12   5 402.481 17.1583  14
   0 -12  -5 368.790 14.5469   5
   0 -12   5 389.012 16.5145   4
   0  12   5 425.112 15.9196   6
   0  12  -5 392.848 15.8383   9
  -2 -12  -5 24.6571 5.59176  11
  -2  12  -5 33.4225 5.34550   9
  12   0  -6 116.267 7.31617   7
 -12   0   6 122.823 14.5200   8
 -12   0   6 104.314 12.9506  15
 -10   0   6 1128.90 35.1872  15
 -10   0   6 1094.91 34.3332   8
  10   0  -6 1086.76 24.0974   7
  10   0  -6 1055.24 26.7871   1
   8   0  -6 1382.60 30.5236   1
  -8   0   6 1376.62 31.5521   2
   8   0  -6 1363.20 26.4895   7
   8   0  -6 1359.47 27.7239   5
  -8   0   6 1395.83 36.8948  15
   6   0  -6 3007.30 53.2101  12
   6   0  -6 2921.55 54.3868   1
  -6   0   6 3023.75 60.3269  15
   6   0  -6 2944.36 51.2238   5
   6   0  -6 2887.32 56.0716  13
  -6   0   6 2983.10 56.1544   2
  -6   0   6 2940.35 52.0314  14
  -4   0   6 2093.80 42.8084  15
  -4   0   6 2073.10 35.2828   6
   4   0  -6 2092.39 36.5006   5
   4   0  -6 2115.97 35.9933  16
  -4   0   6 2120.61 41.3900   2
   4   0  -6 2149.31 38.5841  12
  -4   0   6 2101.19 39.0231  14
  -2   0   6 7888.09 129.150  14
   2   0  -6 7535.39 128.425   5
   2   0  -6 7573.95 129.314   3
  -2   0   6 7746.55 126.851   4
   2   0  -6 7863.20 134.397  12
  -2   0   6 7924.02 129.426  10
  -2   0   6 7627.79 126.743   6
  -2   0   6 7826.53 129.756   2
   2   0  -6 7844.46 135.607  16
   0   0   6 204.450 7.29783   2
   0   0   6 207.608 7.52149   4
   0   0  -6 205.322 8.16952  13
   0   0  -6 205.767 7.37708   8
   0   0  -6 208.133 6.41426   5
   0   0   6 221.241 8.59581  10
   0   0   6 201.553 8.19160  14
   0   0  -6 207.442 7.95532  16
   0   0  -6 221.057 7.94894  12
   0   0  -6 214.534 8.88801   3
   0   0   6 220.917 6.37905   6
  -2   0  -6 4469.48 79.2810  16
   2   0   6 4465.97 80.5297  10
  -2   0  -6 4599.06 78.5705  12
  -2   0  -6 4250.62 80.2856  13
   2   0   6 4306.74 73.5380   7
  -2   0  -6 4469.77 81.3335   3
   2   0   6 4481.93 77.9402  14
   2   0   6 4408.21 77.9476   4
  -4   0  -6 40.3657 5.05493  16
   4   0   6 41.3355 3.32984   7
   4   0   6 29.9773 4.83738  10
  -4   0  -6 62.3411 6.39457  12
  -4   0  -6 48.2310 6.76735   3
   4   0   6 48.9325 5.18435   4
  -4   0  -6 44.3235 5.62092   8
  -6   0  -6 699.655 21.4177  12
  -6   0  -6 621.225 21.5179   8
  -6   0  -6 653.958 23.6021   3
   6   0   6 663.916 22.1681  10
  11  -1  -6 4.32043 2.49773   7
 -11  -1   6 2.36211 5.68925   8
 -11  -1   6 -0.8842 6.16012  15
  11   1  -6 6.01409 2.63660   7
 -11   1   6 3.86632 6.19017  15
  11   1  -6 5.70756 3.12979   1
 -11   1   6 12.1162 6.77180   8
   9  -1  -6 459.970 13.4023   5
  -9  -1   6 475.699 21.1178  15
   9  -1  -6 466.811 14.5030   1
  -9  -1   6 465.339 15.9733   2
   9  -1  -6 466.371 12.4645   7
  -9   1   6 422.722 19.2378  15
   9   1  -6 437.342 15.2190   1
  -9   1   6 441.066 15.3842   2
  -9   1   6 406.419 18.6397   8
   9   1  -6 457.554 12.2155   7
  -7  -1   6 393.147 16.7858  15
   7  -1  -6 361.747 11.6657   1
   7  -1  -6 387.745 10.6684   5
  -7  -1   6 409.275 14.3747   2
  -7   1   6 369.959 15.7188  15
   7   1  -6 367.848 9.13194   7
  -7   1   6 382.708 13.6575   2
   7   1  -6 386.508 12.7631   1
   7   1  -6 362.050 9.93436   5
  -5  -1   6 105.041 7.36643  15
   5  -1  -6 94.9199 4.90883  12
  -5  -1   6 108.269 7.17348   2
   5  -1  -6 100.744 4.34143   5
  -5  -1   6 103.614 5.56023  14
  -5   1   6 94.0760 4.93614  14
   5   1  -6 100.217 3.69917   9
  -5   1   6 98.6266 3.66676   6
  -5   1   6 104.003 7.89400  15
  -5   1   6 105.287 6.40612   2
   5   1  -6 102.151 3.84150   5
   5   1  -6 100.014 4.89643  12
   5   1  -6 99.2085 5.60781   1
  -3  -1   6 1897.51 34.1196   4
   3  -1  -6 1978.57 36.6903   3
   3  -1  -6 1912.21 33.1316  11
  -3  -1   6 1919.72 36.8585  14
   3  -1  -6 1933.19 34.3698   5
   3  -1  -6 1994.02 34.9155  16
   3  -1  -6 1995.43 36.2579  12
  -3  -1   6 1931.90 38.3228   2
  -3   1   6 1965.90 36.7458  14
   3   1  -6 1951.16 33.1355   5
   3   1  -6 1988.93 34.8414  16
  -3   1   6 1898.31 38.0646  15
   3   1  -6 1931.15 37.1738   3
  -3   1   6 1932.90 37.8502   2
  -3   1   6 1954.98 33.6221   6
   3   1  -6 1935.39 35.5296  12
   1  -1  -6 39.6877 3.49973  16
   1  -1  -6 43.5939 3.46749  12
  -1  -1   6 34.7243 3.93768   2
  -1  -1   6 44.5051 3.49882   4
   1  -1  -6 37.4577 3.98138   3
  -1  -1   6 36.6290 4.19382  14
   1  -1  -6 33.0389 2.62841   5
  -1  -1   6 38.8644 3.51924  10
  -1   1   6 33.0712 2.78838  15
   1   1  -6 39.0543 2.14723   5
  -1   1   6 40.5448 4.15088  14
   1   1  -6 42.1200 4.33173   3
  -1   1   6 42.8800 3.25765   4
   1   1  -6 35.4917 3.33760  16
  -1   1   6 45.7790 4.30489   2
  -1   1   6 37.3549 2.51724   6
  -1   1   6 39.1611 3.41511  10
   1   1  -6 36.4296 3.15704  12
  -1  -1  -6 478.454 13.9508  16
  -1  -1  -6 485.518 15.0460   3
   1  -1   6 510.628 13.5230   4
   1  -1   6 475.258 14.2539  10
   1  -1   6 441.704 11.5291   2
  -1  -1  -6 494.510 13.9324  12
  -1  -1  -6 468.322 12.3226   8
   1  -1   6 491.937 13.6635  14
  -1  -1  -6 470.118 14.8894  13
   1   1   6 491.225 13.1382   4
   1   1   6 467.143 10.1956   7
  -1   1  -6 468.117 13.6215   8
  -1   1  -6 485.012 14.7851   3
   1   1   6 473.622 13.4634  14
  -1   1  -6 465.418 13.5011  13
   1   1   6 482.754 11.8441   6
  -1   1  -6 473.260 12.8153  12
   1   1   6 459.255 14.3966  10
  -1   1  -6 470.123 13.6144  16
  -3  -1  -6 357.492 12.8925  16
  -3  -1  -6 342.789 11.9644   8
  -3  -1  -6 349.356 12.6868  12
   3  -1   6 356.694 12.3633   4
   3  -1   6 350.826 11.4960  14
  -3  -1  -6 336.452 13.8793   3
   3  -1   6 342.299 13.1819  10
   3   1   6 353.680 12.2522   4
   3   1   6 352.465 9.45944   7
  -3   1  -6 343.904 13.8948   3
  -3   1  -6 351.028 12.7948  16
   3   1   6 369.719 11.8558  14
  -3   1  -6 357.063 13.1165   8
   3   1   6 355.789 13.5708  10
  -3   1  -6 359.804 12.1687  12
  -5  -1  -6 1.99803 3.08821  12
  -5  -1  -6 3.92196 3.09445  16
   5  -1   6 4.72557 2.70309   4
   5  -1   6 1.47996 2.08083  10
  -5  -1  -6 2.67496 4.10468   3
   5   1   6 5.26376 1.76474   7
   5   1   6 8.74937 3.14680  10
  -5   1  -6 2.38988 3.14374   8
  -5   1  -6 0.85485 2.84195  12
  -5   1  -6 5.60783 4.17183   3
  -5   1  -6 3.58266 2.95067  16
  -7  -1  -6 199.893 14.1056   3
   7  -1   6 172.162 11.3086  10
  -7  -1  -6 179.510 11.4675  12
  -7   1  -6 167.003 10.6337  12
  -7   1  -6 170.430 11.7667   8
   7   1   6 188.419 11.8094  10
  -7   1  -6 189.603 13.3812   3
  12  -2  -6 120.304 7.66177   7
 -12  -2   6 113.741 13.7272  15
 -12  -2   6 105.162 13.7120   8
  12   2  -6 122.201 9.16914   1
 -12   2   6 132.427 14.1689   8
 -12   2   6 136.920 14.1985  15
 -10  -2   6 110.585 12.2944   8
  10  -2  -6 140.466 6.95656   7
 -10  -2   6 142.509 13.6224  15
 -10   2   6 135.591 12.3291   8
 -10   2   6 140.551 13.3171  15
  10   2  -6 131.723 8.74468   1
   8  -2  -6 657.962 17.2342   1
   8  -2  -6 676.598 16.6176   5
  -8  -2   6 664.938 20.1928   2
  -8  -2   6 669.175 24.2058  15
  -8   2   6 658.776 23.1110  15
   8   2  -6 676.940 19.4103   1
  -8   2   6 675.287 22.2045   8
  -8   2   6 676.520 19.3431   2
   8   2  -6 656.064 14.8399   7
   6  -2  -6 1147.92 22.7950   5
   6  -2  -6 1156.81 23.8574  12
  -6  -2   6 1129.52 30.2278  15
   6  -2  -6 1146.38 24.1094   1
  -6  -2   6 1122.07 23.4869  14
  -6  -2   6 1122.67 26.9798   2
  -6   2   6 1114.70 26.0297   2
   6   2  -6 1115.10 21.4513   9
  -6   2   6 1119.91 29.3008  15
   6   2  -6 1085.87 25.1469  13
  -6   2   6 1093.48 21.5159   6
   6   2  -6 1099.39 25.5333   1
  -6   2   6 1070.94 22.3480  14
   4  -2  -6 639.441 13.8660   5
  -4  -2   6 622.593 15.4496  14
  -4  -2   6 632.074 17.2867   2
   4  -2  -6 600.667 12.9111  16
   4  -2  -6 638.328 14.8442  12
  -4  -2   6 598.611 12.4294   4
   4  -2  -6 585.043 12.3060  11
   4   2  -6 597.568 13.8271  12
   4   2  -6 618.522 13.1855   9
  -4   2   6 619.815 13.0142   6
  -4   2   6 641.043 17.6849  15
   4   2  -6 605.571 13.8439  13
  -4   2   6 626.161 16.5667   2
  -4   2   6 617.301 14.7943  14
   4   2  -6 586.909 11.6378   5
   2  -2  -6 414.069 11.4487   3
  -2  -2   6 441.316 12.4546  14
  -2  -2   6 421.751 11.3171  10
  -2  -2   6 430.149 12.6299   2
   2  -2  -6 414.472 11.0250  16
   2  -2  -6 411.279 11.5001  12
   2  -2  -6 422.793 10.5824   5
  -2  -2   6 421.944 10.5818   4
  -2   2   6 411.096 9.99623   6
   2   2  -6 408.410 10.4713  12
   2   2  -6 410.782 12.2699   3
  -2   2   6 417.767 11.9302  14
  -2   2   6 436.987 12.3516   2
   2   2  -6 441.868 11.2346  16
  -2   2   6 397.573 11.2454  15
   0  -2  -6 58.8737 4.68921  12
   0  -2   6 64.9070 5.20226  14
   0  -2  -6 64.8493 4.73922  16
   0  -2   6 67.3367 4.57806  10
   0  -2   6 68.1673 4.59903   2
   0  -2  -6 70.1828 5.08589   3
   0  -2  -6 64.2611 4.05534   5
   0  -2   6 73.8167 4.69166   4
   0   2  -6 70.1828 2.96849   5
   0   2   6 65.5325 5.06363  10
   0   2   6 61.9742 3.99977   2
   0   2   6 67.6258 3.84629   6
   0   2   6 64.4295 2.77805   7
   0   2  -6 82.7156 4.36293  12
   0   2   6 65.8664 4.83763  14
   0   2  -6 66.9811 5.27517   3
   0   2  -6 67.9229 3.67318  13
   0   2  -6 69.5627 4.70574  16
   0   2  -6 75.2879 5.00041   8
  -2  -2  -6 10.7312 3.47924   3
   2  -2   6 6.84704 2.55813  14
   2  -2   6 8.24448 2.46716  10
  -2  -2  -6 19.9895 3.67614  12
   2  -2   6 12.7328 2.96726   4
  -2  -2  -6 11.7325 3.03516  16
  -2   2  -6 7.93771 2.69284  16
   2   2   6 10.7264 2.87312  10
  -2   2  -6 7.80735 3.12997   8
   2   2   6 7.77942 2.12187   6
  -2   2  -6 12.4514 3.07228   3
   2   2   6 8.65502 1.63020   7
   2   2   6 20.1717 3.06069  14
  -2   2  -6 7.49278 2.24980  12
  -4  -2  -6 156.415 9.99478   3
  -4  -2  -6 166.348 9.38313  12
   4  -2   6 150.110 9.05378  10
   4  -2   6 154.901 8.61246   4
  -4  -2  -6 145.656 8.90301  16
  -4   2  -6 151.246 7.97733  12
  -4   2  -6 140.140 8.27292  16
   4   2   6 158.376 9.25163  10
  -4   2  -6 149.576 10.0823   3
   4   2   6 152.404 6.41568   7
  -4   2  -6 153.568 10.0733   8
  -6  -2  -6 -0.6331 3.12495   3
   6  -2   6 3.46463 3.11406   4
   6  -2   6 6.97416 3.45927  10
  -6  -2  -6 -3.1535 1.98697  12
  -6   2  -6 -3.0931 3.74926   3
   6   2   6 2.26707 1.93171   7
  -6   2  -6 1.43189 3.35681   8
   6   2   6 0.78110 2.01004  10
  11  -3  -6 108.586 6.82073   7
 -11  -3   6 106.799 13.3421   8
 -11  -3   6 94.5418 12.6642  15
  11   3  -6 103.305 8.69205   1
 -11   3   6 122.476 11.7274  15
 -11   3   6 119.831 12.8715   8
  -9  -3   6 5.91937 5.44756  15
   9  -3  -6 -0.8979 1.87199   5
  -9  -3   6 -2.8468 3.57312   2
   9   3  -6 -0.8513 1.20143   7
  -9   3   6 -2.0859 4.86091  15
  -9   3   6 -4.3908 3.66533   8
  -9   3   6 4.79119 3.14577   2
   9   3  -6 4.35389 2.74732   1
  -7  -3   6 78.7958 7.78998   2
   7  -3  -6 71.2560 4.63194   5
   7  -3  -6 74.8531 3.93032  11
  -7  -3   6 78.7858 9.13613  15
   7  -3  -6 82.1897 5.54849   1
  -7   3   6 74.2431 4.23640   6
  -7   3   6 72.7566 6.37694   2
   7   3  -6 71.9342 5.58710   1
  -7   3   6 71.6127 6.85812   8
  -7   3   6 78.3241 8.34251  15
  -5  -3   6 503.578 15.7434   2
   5  -3  -6 492.842 11.2451  11
  -5  -3   6 506.250 13.7130  14
   5  -3  -6 429.072 11.7926  16
   5  -3  -6 521.305 12.7043   5
   5  -3  -6 501.847 12.9223  12
  -5   3   6 496.707 12.7604  14
  -5   3   6 500.185 16.4316  15
   5   3  -6 498.720 11.9554   9
  -5   3   6 516.782 11.9147   6
  -5   3   6 505.951 15.0919   2
  -5   3   6 475.780 13.9838   8
   5   3  -6 509.339 14.7583   1
   3  -3  -6 20.6750 2.55229  16
  -3  -3   6 17.9988 3.67373   2
   3  -3  -6 20.1521 2.58217   3
   3  -3  -6 15.0093 1.95587  11
  -3  -3   6 16.9602 2.28767   4
  -3  -3   6 20.3276 3.30062  14
   3  -3  -6 26.7432 3.05610  12
   3  -3  -6 20.2540 2.75345   5
  -3  -3   6 19.8012 2.33452  10
   3   3  -6 20.2808 3.03774   3
  -3   3   6 17.6882 3.19474  15
  -3   3   6 23.3881 2.49049   6
   3   3  -6 19.9436 2.29276  12
  -3   3   6 20.7977 3.02373  14
  -3   3   6 22.6720 3.63669   2
   3   3  -6 15.5295 0.84564  13
   1  -3  -6 603.206 14.4323   5
  -1  -3   6 608.744 14.7003   4
  -1  -3   6 610.894 16.4343   2
  -1  -3   6 634.341 16.3417  14
   1  -3  -6 601.898 15.0116   3
   1  -3  -6 595.010 15.4837  16
   1  -3  -6 608.691 15.4529  12
  -1  -3   6 573.364 14.5176  10
  -1   3   6 588.593 15.5729  14
   1   3  -6 602.689 15.3355  16
  -1   3   6 598.896 13.9867   6
  -1   3   6 611.560 15.3954   2
   1   3  -6 629.083 16.5462   3
   1   3  -6 579.002 13.4144  12
  -1   3   6 608.862 16.4530  10
  -1  -3  -6 16.4410 3.39440   3
  -1  -3  -6 15.0887 3.10929  16
   1  -3   6 15.2459 3.33233  14
   1  -3   6 13.0499 2.57829   4
   1  -3   6 14.3666 2.64890  10
   1  -3   6 11.8354 2.39741   2
  -1  -3  -6 17.4562 3.44255  12
   1   3   6 30.9420 3.50793   6
   1   3   6 13.2238 1.94144   7
   1   3   6 11.3420 2.69728  14
  -1   3  -6 19.0510 2.62305  12
  -1   3  -6 25.6470 4.05669   8
   1   3   6 14.7343 2.92787  10
  -1   3  -6 14.8159 3.49274   3
  -1   3  -6 15.4746 2.80991  16
  -3  -3  -6 1.60055 3.07875   3
   3  -3   6 2.10162 1.84146  10
  -3  -3  -6 5.83824 2.50466  16
   3  -3   6 1.29610 2.14191  14
   3  -3   6 -0.6224 1.42526   4
  -3  -3  -6 5.16897 3.08456  12
  -3   3  -6 4.75734 2.50191   3
   3   3   6 0.45714 1.17257   7
  -3   3  -6 4.14795 2.71476   8
   3   3   6 2.49804 1.90921  14
   3   3   6 5.78376 2.18978   6
  -3   3  -6 4.50831 2.07036  12
   3   3   6 3.21411 2.39771  10
  -3   3  -6 3.12573 2.44904  16
   5  -3   6 60.0232 6.96876  10
  -5  -3  -6 62.2832 8.09644   3
  -5  -3  -6 53.4989 6.54424  16
  -5  -3  -6 66.2413 7.47452  12
   5  -3   6 72.4156 7.16048   4
  -5   3  -6 51.9069 6.49420  16
   5   3   6 59.5754 4.62206   7
   5   3   6 59.9897 6.84728  10
  -5   3  -6 68.4567 8.39921   8
  -5   3  -6 66.5836 8.51230   3
  -7  -3  -6 92.5292 10.9738   3
  -7  -3  -6 74.3031 8.66834  12
   7  -3   6 59.1021 6.70470   4
   7   3   6 73.7045 8.08781  10
   7   3   6 44.5040 4.80287   7
  -7   3  -6 61.1550 8.41393   8
  12  -4  -6 367.022 13.3291   7
 -12  -4   6 365.828 22.0041  15
  12   4  -6 350.815 16.0423   1
 -12   4   6 378.191 20.7272   8
  10  -4  -6 105.278 6.56644   5
 -10  -4   6 95.7268 11.6041  15
  10   4  -6 98.1704 8.40688   1
 -10   4   6 105.117 12.2550  15
 -10   4   6 96.8303 10.6042   8
   8  -4  -6 346.971 10.6602  11
  -8  -4   6 355.587 14.9048   2
  -8  -4   6 352.678 17.9494  15
   8  -4  -6 371.156 11.7323   5
   8   4  -6 368.543 14.3180   1
  -8   4   6 368.492 17.4724  15
  -8   4   6 346.766 15.0063   8
  -8   4   6 329.596 10.7024   6
  -8   4   6 371.637 13.9186   2
  -6  -4   6 197.028 10.3410   2
   6  -4  -6 191.618 6.66414  11
   6  -4  -6 187.237 7.51747  12
   6  -4  -6 205.678 7.59029   5
  -6  -4   6 179.752 7.95008  14
  -6   4   6 211.232 9.75303   2
  -6   4   6 215.409 11.3871  15
  -6   4   6 197.782 7.09186   6
   6   4  -6 191.753 8.95480   1
  -6   4   6 176.762 8.88691   8
   6   4  -6 196.263 7.16781   9
   4  -4  -6 1045.88 22.2385  12
  -4  -4   6 1071.14 26.1573   2
   4  -4  -6 1010.22 20.8184  11
  -4  -4   6 1025.48 20.4920   4
   4  -4  -6 1012.45 21.4202  16
   4  -4  -6 1049.03 21.9199   5
  -4  -4   6 1056.95 23.8604  14
   4   4  -6 1038.87 21.5969   9
   4   4  -6 1036.27 24.1725   1
  -4   4   6 1052.59 25.2591  15
  -4   4   6 1067.24 22.8995  14
  -4   4   6 1052.00 21.3913   6
  -4   4   6 1034.09 24.4657   2
  -2  -4   6 6.29063 1.72069   4
   2  -4  -6 11.1494 2.13575   5
   2  -4  -6 4.39928 1.71680  16
  -2  -4   6 5.80714 2.58226  14
   2  -4  -6 2.15120 1.43184  12
  -2  -4   6 3.28470 1.11720  10
   2  -4  -6 6.98924 1.72436   3
  -2   4   6 1.98944 2.09276   2
  -2   4   6 4.41258 1.91932  14
   2   4  -6 2.09706 1.32909   3
  -2   4   6 1.81056 1.37955   6
   2   4  -6 1.29418 1.06438  12
  -2   4   6 1.92701 1.57871  15
   0  -4   6 2393.10 42.5959  11
   0  -4   6 2446.16 45.6523   4
   0  -4  -6 2397.38 45.6628   3
   0  -4  -6 2455.68 46.4898  12
   0  -4  -6 2428.48 47.1102  16
   0  -4  -6 2488.99 45.2967   5
   0  -4   6 2441.47 45.2876  10
   0  -4   6 2410.12 46.7205  14
   0   4  -6 2386.42 46.4304  16
   0   4  -6 2433.27 47.6705   8
   0   4  -6 2494.45 47.6294   3
   0   4   6 2400.74 44.9446   2
   0   4   6 2488.67 44.8000   6
   0   4   6 2386.53 47.6611  10
   0   4   6 2463.19 46.7192  14
   2  -4   6 19.3291 3.56973   4
  -2  -4  -6 20.2035 3.95988  12
  -2  -4  -6 23.7198 4.18272  16
   2  -4   6 21.7945 3.89356  14
   2  -4   6 17.5916 2.71368  11
   2  -4   6 18.3755 3.20395  10
  -2  -4  -6 13.4150 3.60090   3
  -2   4  -6 18.8737 3.70832  16
   2   4   6 15.0271 3.26199  10
  -2   4  -6 18.7183 4.09304   8
   2   4   6 17.0849 2.34022   7
  -2   4  -6 14.8645 3.70701   3
   2   4   6 16.8686 3.00417   6
   4  -4   6 1209.64 29.1929   4
  -4  -4  -6 1190.25 30.4716  16
   4  -4   6 1214.32 29.7524  10
  -4  -4  -6 1221.90 31.8622   3
  -4  -4  -6 1267.07 31.0145  12
   4   4   6 1207.73 30.9095  10
  -4   4  -6 1182.97 30.1161  16
  -4   4  -6 1213.21 31.4893   3
  -4   4  -6 1205.62 31.9838   8
   4   4   6 1190.68 25.5687   7
   6  -4   6 47.6298 6.48412   4
  -6  -4  -6 45.2184 7.32658   3
  -6  -4  -6 45.5428 7.01430  12
   6   4   6 37.9755 6.14954  10
  -6   4  -6 33.6720 6.52243   8
   6   4   6 49.8165 5.01454   7
  -6   4  -6 54.4371 7.66395   3
 -11  -5   6 208.177 15.5851  15
 -11  -5   6 200.432 16.8244   8
 -11   5   6 204.195 9.71877   6
  11   5  -6 216.262 12.6323   1
 -11   5   6 226.998 15.8391  15
 -11   5   6 202.153 14.6014   8
  -9  -5   6 7.90337 4.71628   2
  -9  -5   6 8.77924 5.90322  15
   9  -5  -6 7.69256 2.84775   5
   9   5  -6 5.96688 3.31697   1
  -9   5   6 4.55630 2.56806   6
  -9   5   6 12.7759 5.67990  15
  -9   5   6 9.17379 3.41596   2
  -9   5   6 7.46189 4.60256   8
  -7  -5   6 30.3373 4.13821  14
   7  -5  -6 37.6276 3.78149  11
  -7  -5   6 33.1437 6.01386   2
   7  -5  -6 27.5713 3.38723   5
   7   5  -6 27.1801 4.29546   1
  -7   5   6 33.6562 3.92802   6
  -7   5   6 30.6537 5.70202  15
  -7   5   6 30.7609 4.88617   2
   7   5  -6 28.4216 3.36144   9
   5  -5  -6 131.340 5.73670  16
  -5  -5   6 130.771 6.96700  14
   5  -5  -6 132.654 5.79130  11
   5  -5  -6 135.319 6.32807   5
  -5  -5   6 133.202 8.39052   2
   5  -5  -6 138.596 6.18466  12
   5   5  -6 145.713 7.70604   1
   5   5  -6 131.541 6.12275   9
  -5   5   6 132.569 5.97585   6
  -5   5   6 130.458 8.56108  15
  -5   5   6 133.204 7.42074   2
   3  -5  -6 75.4552 4.92875   5
  -3  -5   6 72.5153 4.62752   4
   3  -5  -6 72.6865 4.74267  16
  -3  -5   6 72.4601 5.77544  14
   3  -5  -6 78.9362 4.92124  12
   3  -5  -6 71.6655 4.18729  11
   3   5  -6 75.0139 4.61548   9
  -3   5   6 76.0543 5.49452  15
  -3   5   6 63.7946 5.04306   2
  -3   5   6 73.1460 4.44422   6
   3   5  -6 76.3452 5.25798   1
   1  -5  -6 240.985 9.71837  16
   1  -5  -6 266.029 9.18355   5
  -1  -5   6 254.051 9.22990   4
   1  -5  -6 248.214 9.40919  12
  -1  -5   6 266.170 10.5166  14
   1  -5  -6 228.556 7.88195   3
   1   5  -6 255.169 9.95053   3
  -1   5   6 252.091 10.2249  10
  -1   5   6 250.900 8.74403   6
  -1   5   6 258.253 9.64409   2
   1  -5   6 33.2152 4.48801   4
  -1  -5  -6 38.2017 4.78653  12
   1  -5   6 37.2485 4.73260  14
  -1  -5  -6 34.9304 4.55132  16
  -1  -5  -6 41.7798 4.75033   3
   1  -5   6 38.3347 3.68317  10
   1  -5   6 35.8439 3.19797  11
  -1  -5  -6 35.6019 4.20422   5
  -1   5  -6 26.5049 4.40107   8
   1   5   6 33.7067 3.14466   7
  -1   5  -6 38.8284 4.96654   3
  -1   5  -6 30.2891 4.35734  16
   1   5   6 35.3146 4.51583  10
   1   5   6 43.4707 4.32472   6
  -3  -5  -6 70.2794 6.24890  16
  -3  -5  -6 78.3126 6.96199   3
  -3  -5  -6 84.0301 6.61968  12
   3  -5   6 80.8054 6.43867  14
   3  -5   6 77.7874 5.97396  10
   3  -5   6 77.4175 5.44945  11
   3  -5   6 81.8178 6.27290   4
   3   5   6 76.9077 6.76558  10
   3   5   6 81.8651 5.82241   6
  -3   5  -6 63.7691 7.34131   8
  -3   5  -6 73.9286 6.50727   3
  -3   5  -6 69.7087 6.01770  16
   3   5   6 67.7075 4.52580   7
   5  -5   6 308.316 13.0912   4
  -5  -5  -6 311.482 14.5864  12
  -5  -5  -6 295.588 14.8299   3
   5   5   6 297.317 13.8028  10
   5   5   6 309.731 10.8361   7
  -5   5  -6 300.217 15.2238   8
  -5   5  -6 310.564 14.4798   3
  10  -6  -6 722.465 20.0809   5
 -10  -6   6 674.507 28.4400  15
  10   6  -6 707.328 23.5064   1
 -10   6   6 697.286 26.6630  15
 -10   6   6 672.037 19.2592   6
  -8  -6   6 9.04029 4.78909   2
   8  -6  -6 5.27920 2.61048   5
   8  -6  -6 2.69769 2.20878  11
  -8   6   6 -1.0243 4.33781  15
   8   6  -6 1.41439 1.69937   9
  -8   6   6 0.80259 2.68825   2
  -8   6   6 1.65098 2.21047   6
   8   6  -6 2.76506 2.66812   1
   6  -6  -6 1721.63 33.8974  11
   6  -6  -6 1706.96 33.9298  12
   6  -6  -6 1740.87 34.5748   5
  -6  -6   6 1729.30 36.5140  14
  -6  -6   6 1754.68 40.7626   2
  -6   6   6 1739.12 34.6682   6
   6   6  -6 1693.42 38.0660   1
  -6   6   6 1713.31 37.7764   2
  -6   6   6 1738.08 40.6825  15
   6   6  -6 1699.38 34.8834   9
   4  -6  -6 6.18991 2.14396  12
  -4  -6   6 4.70589 2.04686   4
  -4  -6   6 7.34687 2.44076  14
   4  -6  -6 5.96156 2.00308  11
   4  -6  -6 5.88489 1.90432   5
   4  -6  -6 4.90492 1.79126  16
   4   6  -6 7.94480 2.23352   1
  -4   6   6 5.45215 2.03315   6
   4   6  -6 15.6710 2.72324   9
  -4   6   6 3.82108 2.59600   2
  -4   6   6 8.84420 3.02945  15
   2  -6  -6 1214.78 27.9764  16
   2  -6  -6 1268.15 26.6899  12
  -2  -6   6 1227.10 26.4292   4
   2  -6  -6 1241.30 26.6697   5
  -2  -6   6 1221.61 28.6722  14
   2  -6  -6 1233.58 26.5419  11
   2   6  -6 1246.97 27.4879   1
   2   6  -6 1267.12 27.8636   3
  -2   6   6 1258.58 28.3814   2
  -2   6   6 1220.42 26.2827   6
   2   6  -6 1279.50 26.9144   9
   0  -6   6 203.335 9.66866  14
   0  -6   6 193.403 8.69301   4
   0  -6   6 151.266 6.94696  11
   0  -6  -6 176.308 9.10141  16
   0  -6  -6 177.225 8.48631  12
   0  -6  -6 181.952 8.24933   5
   0   6   6 179.666 8.96114  10
   0   6  -6 191.846 9.62158   8
   0   6   6 176.160 7.87499   2
   0   6   6 186.690 7.86320   6
   0   6  -6 190.639 8.85245   3
  -2  -6  -6 486.150 16.1605  12
   2  -6   6 507.909 15.7957   4
   2  -6   6 472.021 13.4306  11
   2  -6   6 472.465 14.3572  10
  -2  -6  -6 484.989 16.8794  16
  -2  -6  -6 479.165 15.3010   5
   2  -6   6 474.962 15.5486  14
  -2   6  -6 477.280 17.2773   8
   2   6   6 479.313 16.3479  10
   2   6   6 467.370 12.6706   7
  -2   6  -6 491.082 16.2762   3
   2   6   6 471.702 14.6902   6
   4  -6   6 131.623 7.65598  11
   4  -6   6 146.215 8.84641   4
  -4  -6  -6 133.562 8.88464  12
   4   6   6 125.419 8.72881  10
   4   6   6 134.865 8.05265   6
   4   6   6 124.429 6.61540   7
  -4   6  -6 134.024 10.2712   8
  -4   6  -6 125.115 8.93196   3
   6  -6   6 322.672 14.2172   4
  -6  -6  -6 345.906 16.0475  12
  -6   6  -6 329.005 16.9523   8
   6   6   6 310.272 14.4205  10
  -6   6  -6 285.264 14.7695   3
   6   6   6 316.696 11.8025   7
  -9  -7   6 157.617 11.7144   2
   9  -7  -6 162.971 8.75177   5
  -9  -7   6 156.476 14.1645  15
   9  -7  -6 158.878 8.25903  11
  -9   7   6 144.972 8.44568   6
   9   7  -6 154.513 10.7943   1
  -9   7   6 152.010 11.6950  15
  -9   7   6 173.055 9.97488   2
   7  -7  -6 415.677 13.3605   5
   7  -7  -6 395.334 12.6756  11
  -7  -7   6 423.850 17.7970   2
  -7  -7   6 397.281 14.1549  14
  -7   7   6 405.038 15.1501   2
   7   7  -6 414.931 15.8845   1
  -7   7   6 391.303 17.3843  15
  -7   7   6 388.065 13.0699   6
   7   7  -6 378.156 13.0148   9
   5  -7  -6 847.238 20.6586   5
  -5  -7   6 884.423 23.4949  14
   5  -7  -6 861.551 19.9236  12
   5  -7  -6 883.023 20.7521  11
  -5   7   6 884.365 24.8472  15
  -5   7   6 875.357 23.5837   2
   5   7  -6 852.414 21.5342   9
   5   7  -6 899.533 23.6848   1
  -5   7   6 871.413 21.1307   6
   3  -7  -6 289.086 11.1501  16
   3  -7  -6 306.286 10.8132   5
  -3  -7   6 315.328 12.3867  14
  -3  -7   6 295.083 10.2752   4
   3  -7  -6 311.198 10.7114  11
   3  -7  -6 313.589 10.3010  12
  -3   7   6 311.653 12.2808   2
   3   7  -6 312.202 11.4049   1
  -3   7   6 312.255 11.8344  15
   3   7  -6 322.257 11.2906   9
  -3   7   6 300.578 10.6610   6
   1  -7  -6 823.979 22.5761  16
   1  -7  -6 867.436 21.0206  12
   1  -7  -6 850.793 20.9269   5
  -1  -7   6 873.091 21.4229   4
  -1  -7   6 853.648 23.1042  14
   1   7  -6 832.489 20.9672   9
   1   7  -6 891.579 21.8447   3
  -1   7   6 842.206 22.5166  10
   1   7  -6 806.638 20.2316   1
  -1   7   6 868.648 20.9561   6
   1  -7   6 209.574 7.95271  11
   1  -7   6 210.584 10.0648   4
   1  -7   6 225.574 11.0455  14
  -1  -7  -6 226.759 10.0519   5
  -1  -7  -6 217.799 10.9187  16
  -1  -7  -6 232.230 10.0485  12
   1   7   6 199.147 9.32744   6
  -1   7  -6 231.371 11.7551   8
  -1   7  -6 221.584 10.0224   3
   1   7   6 213.538 10.3243  10
   3  -7   6 102.275 6.50938  11
   3  -7   6 103.179 7.91024  14
  -3  -7  -6 103.408 8.43010  12
   3  -7   6 91.4314 8.03993   4
  -3  -7  -6 102.495 7.62677   5
   3   7   6 104.511 7.71013  10
   3   7   6 100.979 5.88970   7
  -3   7  -6 100.250 8.86536   8
   3   7   6 110.358 7.38431   6
  -3   7  -6 99.5816 7.70760   3
   5  -7   6 136.761 9.62016   4
   5  -7   6 141.900 8.55772  11
  -5  -7  -6 151.780 9.99262   5
  -5  -7  -6 139.550 10.3842  12
   5   7   6 135.994 7.52408   7
  -5   7  -6 147.532 11.4026   8
 -10  -8   6 21.4963 6.53839  15
  10  -8  -6 30.5016 4.46263   5
 -10   8   6 31.8098 7.50101  15
 -10   8   6 31.3526 4.75251   6
  10   8  -6 31.9218 6.29578   1
  -8  -8   6 23.4756 6.40187   2
   8  -8  -6 19.6288 3.95674  11
   8  -8  -6 20.5908 3.66002   5
  -8   8   6 28.5388 4.68367   6
  -8   8   6 26.0516 6.38968  15
  -8   8   6 20.9559 4.03806   2
   8   8  -6 12.7351 3.74095   1
   8   8  -6 22.7946 4.19999   9
  -6  -8   6 13.9085 4.30582  14
   6  -8  -6 11.6920 3.10707  11
   6  -8  -6 12.1846 3.13942   5
  -6   8   6 13.0052 4.38140  15
  -6   8   6 10.7690 3.26565   6
  -6   8   6 15.8008 4.13903   2
   6   8  -6 15.1775 3.95444   1
   6   8  -6 13.7740 3.23224   9
   4  -8  -6 123.384 6.14070  12
   4  -8  -6 136.779 7.44523  11
   4  -8  -6 119.569 7.20860  16
  -4  -8   6 126.282 8.78701  14
  -4  -8   6 121.626 7.00309   4
   4  -8  -6 119.428 6.85596   5
  -4   8   6 134.085 8.34070  15
   4   8  -6 130.856 7.92725   1
  -4   8   6 130.778 8.18976   2
   4   8  -6 136.106 7.63603   9
  -4   8   6 124.998 7.10214   6
  -2  -8   6 112.611 8.42252  14
   2  -8  -6 107.273 6.25355  12
   2  -8  -6 112.106 7.50012  16
  -2  -8   6 106.807 7.12008   4
   2  -8  -6 101.781 6.31874  11
   2  -8  -6 104.963 6.82805   5
   2   8  -6 94.1481 6.18436   1
  -2   8   6 109.798 6.77820   6
   2   8  -6 109.341 7.00511   9
   0  -8   6 273.612 11.6035   4
   0  -8  -6 262.356 10.7987  12
   0  -8  -6 260.918 10.8820   5
   0  -8   6 260.615 12.3033  14
   0  -8  -6 271.823 12.4913  16
   0   8  -6 281.838 11.1343   9
   0   8   6 273.990 11.0851   6
   0   8  -6 251.780 10.5557   3
   0   8   6 267.415 11.6934  10
  -2  -8  -6 217.791 10.4847   5
   2  -8   6 235.161 11.6380   4
  -2  -8  -6 226.441 11.0660  12
   2  -8   6 226.028 9.27378  11
   2  -8   6 241.757 11.7462  14
   2   8   6 232.256 11.1973  10
  -2   8  -6 240.015 12.9144   8
   2   8   6 247.981 10.9470   6
  -2   8  -6 225.980 10.2205   9
   4  -8   6 76.9887 6.26313  11
   4  -8   6 82.3892 8.20677   4
  -4  -8  -6 94.3530 8.85678  12
  -4  -8  -6 83.6398 8.15161   5
   4   8   6 90.6683 8.05037   6
  -4   8  -6 79.6202 9.33639   8
  -4   8  -6 74.5142 6.38231   9
  -9  -9   6 64.8467 10.0301  15
   9  -9  -6 80.4076 6.91376  11
   9  -9  -6 87.2390 7.10133   5
  -9   9   6 75.3425 7.61709   6
  -9   9   6 101.687 11.2322  15
   9   9  -6 84.7893 7.99885   1
   7  -9  -6 87.3544 6.80002  11
  -7  -9   6 66.3874 7.38441  14
  -7  -9   6 81.3875 10.2370   2
   7  -9  -6 78.8944 6.39854   5
   7   9  -6 68.8118 7.79473   1
  -7   9   6 79.3742 9.13154  15
   7   9  -6 76.9283 6.77193   9
  -7   9   6 75.8993 7.35450   6
  -5  -9   6 48.4678 6.66038  14
   5  -9  -6 45.9372 5.17928  11
   5  -9  -6 60.3962 6.05812   5
   5   9  -6 53.8214 6.25977   9
  -5   9   6 53.9788 6.72636  15
  -5   9   6 59.4853 6.12646   6
   5   9  -6 48.4454 5.97201   1
   3  -9  -6 194.083 9.28619  11
  -3  -9   6 202.301 9.78914   4
   3  -9  -6 193.634 9.32882   5
  -3  -9   6 189.776 10.6365  14
   3  -9  -6 184.015 9.74899  16
  -3   9   6 180.241 9.14414   6
   3   9  -6 185.718 9.64926   9
  -1  -9   6 14.2335 4.61175  14
   1  -9  -6 12.4172 3.04400  12
  -1  -9   6 13.4118 4.12041   4
   1  -9  -6 10.0138 3.11591   5
   1  -9  -6 18.5991 3.82676  11
   1  -9  -6 12.4778 3.64518  16
   1   9  -6 15.2907 3.37054   9
  -1   9   6 16.1376 3.58838   6
  -1   9   6 12.5165 3.29818  10
   1  -9   6 64.0032 6.70859   4
   1  -9   6 69.3761 7.56937  14
  -1  -9  -6 65.4935 6.73002  12
  -1  -9  -6 63.5492 6.23200   5
  -1   9  -6 71.7304 5.94373   9
   1   9   6 76.8283 6.15192   6
  -3  -9  -6 16.2540 4.65654   5
   3  -9   6 11.1875 4.87564   4
  -3  -9  -6 14.3074 4.17299  12
  -3   9  -6 18.9296 3.95973   9
   3   9   6 19.2267 4.37875   6
  -3   9  -6 18.7966 5.15463   8
   8 -10  -6 821.146 22.6225  11
   8 -10  -6 824.586 22.2619   5
   8  10  -6 807.117 25.5420   1
  -8  10   6 818.830 23.3434   6
  -6 -10   6 165.117 10.9742  14
   6 -10  -6 154.262 8.60389   5
   6 -10  -6 165.855 8.82440  11
   6  10  -6 152.923 9.01530   9
  -6  10   6 177.433 11.5633  15
  -6  10   6 167.853 9.60484   6
   6  10  -6 162.503 10.1345   1
   4 -10  -6 1316.01 30.2097   5
  -4 -10   6 1348.90 31.0379   4
   4 -10  -6 1345.95 31.2278  11
  -4 -10   6 1333.73 34.6276  14
  -4  10   6 1320.45 31.4071   6
   4  10  -6 1370.63 33.0889   9
  -2 -10   6 284.707 14.1555  14
   2 -10  -6 272.427 11.6345   5
   2 -10  -6 285.502 12.1049  11
  -2 -10   6 268.073 12.2963   4
  -2  10   6 260.880 11.6413   6
   2  10  -6 247.289 11.7662   9
   0 -10   6 839.916 25.5806  14
   0 -10   6 842.164 23.9109   4
   0 -10  -6 860.788 23.3038   5
   0 -10  -6 860.119 23.9407  11
   0  10  -6 848.765 23.6065   9
   0  10   6 829.767 23.0998   6
   2 -10   6 178.873 10.4746   4
  -2 -10  -6 181.195 9.86258   5
   2 -10   6 167.885 10.8926  14
  -2  10  -6 175.540 9.57092   9
   2  10   6 200.896 10.7135   6
   7 -11  -6 164.844 9.14621   5
  -7 -11   6 169.965 13.4819   2
   7 -11  -6 176.006 10.0579  11
  -7  11   6 168.077 9.73049   6
  -7  11   6 183.183 12.3149  15
   7  11  -6 166.797 10.8548   1
   7  11  -6 185.574 10.7976   9
   5 -11  -6 171.839 9.91313  11
  -5 -11   6 180.752 12.1055  14
   5 -11  -6 188.385 9.53583   5
  -5  11   6 204.850 10.9591   6
   5  11  -6 189.503 11.0212   9
   3 -11  -6 339.893 13.9260  11
  -3 -11   6 313.903 13.5545   4
   3 -11  -6 336.332 13.2420   5
  -3 -11   6 339.026 16.1720  14
  -3  11   6 308.458 13.0235   6
   3  11  -6 335.870 14.5292   9
   1 -11  -6 200.777 10.8850  11
   1 -11  -6 212.051 10.7413   5
  -1 -11   6 173.845 10.9398   4
  -1 -11   6 200.789 12.7327  14
  -1  11   6 195.034 10.6892   6
   1  11  -6 197.619 10.5712   9
   1 -11   6 281.412 13.2876   4
  -1 -11  -6 272.806 12.5727   5
   1 -11   6 282.413 14.2989  14
  -1 -11  -6 249.580 12.7256  11
   1  11   6 282.980 12.8340   6
  -1  11  -6 284.531 12.9094   9
  -4 -12   6 23.4600 6.05495   4
  -4 -12   6 30.9584 6.53304  14
   4 -12  -6 30.8581 5.16644  11
   4 -12  -6 25.7242 4.08103   4
   4 -12  -6 21.6691 4.46332   5
   4  12  -6 38.1106 5.88459   9
  -4  12   6 27.0975 4.74187   6
   2 -12  -6 52.7938 6.60379  11
   2 -12  -6 59.6522 6.39304   5
  -2 -12   6 62.5362 7.97847  14
  -2 -12   6 47.2422 6.95196   4
   2  12  -6 51.4153 6.67168   9
  -2  12   6 53.8496 6.58763   6
   0 -12   6 8.37510 4.59774  14
   0 -12  -6 23.5412 4.44878   5
   0 -12   6 16.5791 5.15277   4
   0 -12  -6 11.0349 4.19879  11
   0  12  -6 15.1595 4.49495   9
   0  12   6 28.8810 5.32714   6
 -12   0   7 2.15011 6.89248   8
 -12   0   7 -2.3217 6.12920  15
 -10   0   7 4.95568 3.76325   2
 -10   0   7 -1.2357 4.33756   8
  10   0  -7 2.40264 2.43176   1
 -10   0   7 4.77057 6.10189  15
   8   0  -7 0.41058 1.76925   1
   8   0  -7 -1.2803 1.20419   5
  -8   0   7 -3.2388 4.38636  15
  -8   0   7 2.79580 3.81801   2
  -6   0   7 1.44831 3.24467   2
   6   0  -7 -1.2151 1.32519  12
   6   0  -7 0.60526 1.17985   5
   6   0  -7 1.52310 1.66006   1
  -6   0   7 0.79931 3.27042  15
  -6   0   7 -0.1040 1.58965  14
   4   0  -7 0.41020 0.99552  12
   4   0  -7 1.16797 1.06214  16
  -4   0   7 1.72055 2.07600  14
  -4   0   7 1.03167 2.88773   2
   4   0  -7 -1.6751 1.22531   3
   4   0  -7 0.33957 1.04515   5
  -4   0   7 1.43071 2.54766  15
  -2   0   7 -0.0016 1.55320  14
  -2   0   7 0.20054 0.87943   4
   2   0  -7 1.81148 1.75810  12
   2   0  -7 -0.4619 1.30118  16
   2   0  -7 0.26479 0.96932   5
  -2   0   7 -0.0114 1.26530  10
  -2   0   7 -1.4062 2.20972   2
  -2   0   7 1.15886 0.88151   6
   2   0  -7 1.97621 1.94189   3
   0   0  -7 1.33386 1.37837  13
   0   0   7 2.21696 1.80275   4
   0   0  -7 1.47262 1.42341  16
   0   0  -7 2.05076 1.47163   8
   0   0   7 2.04920 2.14791   2
   0   0  -7 0.14873 1.93775  12
   0   0   7 1.55624 1.73346  10
   0   0   7 4.13521 2.41816  14
   0   0  -7 1.28027 1.38873   5
   0   0  -7 0.63991 2.22372   3
  -2   0  -7 0.61092 2.20259  16
   2   0   7 0.92039 2.14634  10
   2   0   7 0.78765 2.07728  14
  -2   0  -7 2.10663 2.06899   8
  -2   0  -7 -0.1104 2.06913   3
  -2   0  -7 0.74450 1.78796  12
   2   0   7 1.42894 2.06202   4
  -4   0  -7 -0.0574 2.76183   3
   4   0   7 0.80962 2.39479  10
  -4   0  -7 -3.4259 2.59209  12
  -4   0  -7 1.67595 3.13514  16
  -4   0  -7 4.21312 3.18456   8
   4   0   7 6.51905 3.06893   4
  -6   0  -7 0.55215 4.27490   3
   6   0   7 -2.1094 1.93754  10
  -6   0  -7 3.07755 3.51788  12
 -11  -1   7 36.0130 9.26385  15
 -11  -1   7 40.3340 8.94482   8
  11  -1  -7 43.7210 4.86369   7
 -11   1   7 36.4510 9.30215  15
  11   1  -7 30.1792 5.28187   1
 -11   1   7 46.1860 9.38021   8
  -9  -1   7 226.612 14.5674  15
  -9  -1   7 233.113 12.2787   2
   9  -1  -7 237.524 10.2984   1
   9  -1  -7 233.340 7.95331   7
   9  -1  -7 239.322 9.15149   5
  -9   1   7 231.093 11.8298   2
   9   1  -7 217.647 10.7206   1
  -9   1   7 225.768 15.4918  15
  -9   1   7 249.824 14.4058   8
  -7  -1   7 16.3829 5.08843  15
  -7  -1   7 13.7108 2.70963  14
  -7  -1   7 17.4639 4.71703   2
   7  -1  -7 11.3908 2.52248  12
   7  -1  -7 16.0171 2.50480   5
   7  -1  -7 18.5493 3.21454   1
  -7   1   7 17.5552 5.48480  15
   7   1  -7 22.0647 3.82788   1
  -7   1   7 8.48943 3.73312   2
   7   1  -7 14.4622 2.13936   5
  -5  -1   7 1263.24 29.1652   2
   5  -1  -7 1236.90 25.7454  12
  -5  -1   7 1271.17 26.6348  14
  -5  -1   7 1266.12 31.2834  15
   5  -1  -7 1236.43 23.9744   5
  -5   1   7 1233.94 28.5781   2
   5   1  -7 1230.09 23.0052   5
   5   1  -7 1231.77 23.1553   9
   5   1  -7 1254.62 25.5353  12
  -5   1   7 1227.63 26.0184  14
  -5   1   7 1216.23 30.2805  15
  -3  -1   7 1.97521 2.75006   2
  -3  -1   7 2.48857 1.54013  10
   3  -1  -7 1.46049 1.68750   3
   3  -1  -7 0.83897 1.31457   5
   3  -1  -7 2.52239 1.39203  16
  -3  -1   7 2.55763 1.23742   4
   3  -1  -7 2.89513 1.92206  12
  -3  -1   7 3.69987 2.52192  14
  -3   1   7 2.38548 2.63881   2
  -3   1   7 1.50574 0.98867   6
  -3   1   7 1.99250 1.97915  15
   3   1  -7 2.99278 0.89919   5
   3   1  -7 0.10650 1.53653   3
  -3   1   7 0.29802 1.97510  14
   3   1  -7 1.71011 1.56900  12
   3   1  -7 1.51204 1.18914  16
   1  -1  -7 1886.64 38.0367   3
   1  -1  -7 1883.61 36.9192  12
  -1  -1   7 1872.58 37.1580   2
   1  -1  -7 1909.59 37.0295  16
  -1  -1   7 1917.09 36.1445   4
   1  -1  -7 1903.37 34.7710   5
  -1  -1   7 1934.15 38.0508  10
  -1  -1   7 1918.83 37.9098  14
   1   1  -7 1797.52 33.0345   5
   1   1  -7 1815.65 35.9790  13
   1   1  -7 1950.54 37.1311  16
   1   1  -7 1931.61 36.2743  12
  -1   1   7 1913.15 34.2279   6
  -1   1   7 1869.61 37.6339  14
  -1   1   7 1898.39 36.1172   4
   1   1  -7 1927.14 38.7235   3
  -1   1   7 1852.89 38.4099  10
  -1   1   7 1879.35 36.8874   2
  -1  -1  -7 21.5044 4.79057   8
   1  -1   7 12.8048 3.26282  14
   1  -1   7 18.4599 3.35049   4
  -1  -1  -7 14.4300 3.44485  16
  -1  -1  -7 15.3324 3.68938   3
  -1  -1  -7 14.8268 3.48248  12
   1  -1   7 16.6018 3.11679  10
  -1   1  -7 18.1754 3.63156   3
   1   1   7 16.6014 3.13632   4
   1   1   7 15.7428 3.31755  10
  -1   1  -7 15.3871 3.40928  16
   1   1   7 18.5860 3.39600  14
  -1   1  -7 15.9387 3.34316   8
  -1   1  -7 16.0459 3.21861  12
  -3  -1  -7 715.045 22.5512   3
   3  -1   7 702.971 18.9413  14
   3  -1   7 738.041 21.6330  10
  -3  -1  -7 733.262 20.5658  12
   3  -1   7 687.674 19.6365   4
  -3  -1  -7 695.719 20.6864  16
  -3   1  -7 701.887 22.3292   3
   3   1   7 700.077 19.0096  14
  -3   1  -7 673.616 20.1640  16
  -3   1  -7 716.514 19.6058  12
  -3   1  -7 704.060 20.3947   8
   3   1   7 706.984 21.6483  10
   5  -1   7 9.83752 3.56055   4
  -5  -1  -7 2.40975 2.60029  12
   5  -1   7 5.10535 3.53279  10
  -5  -1  -7 6.66581 4.72460   3
   5   1   7 2.29244 2.89456  10
  -5   1  -7 9.96980 3.11495  12
  -5   1  -7 7.21160 4.77560   3
  -5   1  -7 4.21428 4.05952   8
 -12  -2   7 216.730 17.5070  15
  12  -2  -7 163.237 8.86155   7
 -12  -2   7 234.410 17.6186   8
  12   2  -7 197.109 11.4462   1
 -12   2   7 183.895 16.0959  15
 -12   2   7 208.591 16.3063   8
 -10  -2   7 330.000 14.6462   2
  10  -2  -7 335.298 10.8448   7
 -10  -2   7 336.495 19.5616  15
  10  -2  -7 361.463 12.3105   5
  10   2  -7 347.144 14.5953   1
 -10   2   7 337.163 17.6521   8
 -10   2   7 347.790 14.2860   2
 -10   2   7 342.079 19.6289  15
  -8  -2   7 531.857 21.9564  15
   8  -2  -7 537.059 14.4906   5
  -8  -2   7 544.938 18.8562   2
   8  -2  -7 527.911 15.4298   1
   8   2  -7 528.839 17.1304   1
  -8   2   7 559.846 18.0710   2
  -8   2   7 583.690 22.0273  15
  -8   2   7 512.128 19.0558   8
  -6  -2   7 1267.12 30.0292   2
   6  -2  -7 1260.89 24.9649   5
  -6  -2   7 1214.25 32.8221  15
   6  -2  -7 1251.69 26.4475  12
  -6  -2   7 1224.41 26.3922  14
  -6   2   7 1240.09 25.9132  14
   6   2  -7 1338.17 24.8732   5
  -6   2   7 1209.16 28.8415   2
   6   2  -7 1222.42 28.3121   1
  -6   2   7 1216.47 31.7277  15
  -6   2   7 1198.66 23.6161   6
  -4  -2   7 1151.66 22.3684   4
  -4  -2   7 1183.76 25.9751  14
   4  -2  -7 1195.16 24.9712  12
  -4  -2   7 1187.24 27.7492   2
   4  -2  -7 1189.66 23.4984   5
   4  -2  -7 1155.70 22.9335  16
   4   2  -7 1175.52 24.0202  12
  -4   2   7 1180.89 22.5244   6
  -4   2   7 1162.58 27.5150  15
  -4   2   7 1197.99 25.4605  14
   4   2  -7 1186.62 22.8866  16
  -4   2   7 1183.72 26.9367   2
  -2  -2   7 1669.68 33.1546  10
   2  -2  -7 1674.75 33.1886  12
   2  -2  -7 1669.86 33.3331   3
  -2  -2   7 1659.51 34.1043  14
  -2  -2   7 1647.23 31.6025   4
  -2  -2   7 1638.17 34.3156   2
   2  -2  -7 1668.29 32.6309  16
   2  -2  -7 1646.84 31.2951   5
  -2   2   7 1659.21 34.6881  10
   2   2  -7 1681.76 34.5841   3
  -2   2   7 1627.47 33.5779  14
   2   2  -7 1657.29 31.7937  12
  -2   2   7 1619.47 33.4832   2
   2   2  -7 1662.14 32.5342  16
  -2   2   7 1660.95 30.6108   6
   0  -2   7 1529.19 30.8460   4
   0  -2   7 1492.15 31.8570  10
   0  -2  -7 1429.21 29.0916   5
   0  -2   7 1430.73 30.1542   2
   0  -2   7 1551.24 32.1054  14
   0  -2  -7 1465.12 31.4251  16
   0  -2  -7 1472.63 32.2564   3
   0  -2  -7 1465.83 31.2122  12
   0   2  -7 1464.57 31.1716  16
   0   2  -7 1468.38 32.6656   3
   0   2   7 1476.85 29.4829   2
   0   2   7 1463.67 31.4054  14
   0   2   7 1476.58 28.7015   6
   0   2  -7 1487.43 29.5719  12
   0   2  -7 1463.02 31.3739   8
   0   2   7 1497.04 33.0412  10
   2  -2   7 815.530 20.9408   4
  -2  -2  -7 802.459 21.8123  16
  -2  -2  -7 828.993 23.3993   3
  -2  -2  -7 860.717 22.2109  12
   2  -2   7 802.791 22.1725  10
   2  -2   7 803.929 20.8697  14
  -2   2  -7 768.665 21.3142  16
  -2   2  -7 802.854 19.8195  12
  -2   2  -7 791.214 21.9392   8
   2   2   7 821.971 23.2165  10
  -2   2  -7 813.490 23.1342   3
   2   2   7 829.010 21.1213  14
  -4  -2  -7 724.622 23.3396   3
   4  -2   7 671.722 21.6206  10
  -4  -2  -7 648.164 20.7040  12
   4  -2   7 697.538 20.3716   4
  -4  -2  -7 676.131 21.2659  16
   4   2   7 653.667 21.7270  10
  -4   2  -7 673.563 19.2210  12
  -4   2  -7 665.870 21.3387   8
  -4   2  -7 687.218 22.8586   3
  -4   2  -7 658.719 20.7024  16
  -6  -2  -7 293.296 14.0104  12
  -6  -2  -7 302.152 15.9844   3
   6  -2   7 295.226 13.2731   4
   6  -2   7 287.766 14.4483  10
   6   2   7 288.536 14.7433  10
  -6   2  -7 316.897 16.5759   3
 -11  -3   7 613.306 27.4771   8
  11  -3  -7 635.937 17.1265   7
 -11  -3   7 641.232 27.9660  15
  11   3  -7 597.231 20.9073   1
 -11   3   7 602.791 24.9573   8
 -11   3   7 643.066 26.3957  15
  -9  -3   7 -1.8632 4.04927   2
   9  -3  -7 7.08092 2.43914   5
  -9  -3   7 5.88428 5.40246  15
  -9   3   7 -2.2837 5.16879  15
  -9   3   7 3.38166 3.40799   2
  -9   3   7 1.51762 3.88062   8
   9   3  -7 5.84829 2.79819   1
   7  -3  -7 976.306 21.5812   5
  -7  -3   7 967.219 26.5221   2
   7  -3  -7 954.042 22.4052  12
  -7  -3   7 997.091 30.1550  15
   7  -3  -7 979.595 22.6304   1
  -7  -3   7 989.287 22.4815  14
  -7   3   7 951.643 20.4349   6
  -7   3   7 1009.58 28.7730  15
  -7   3   7 993.045 25.4259   2
  -7   3   7 942.687 25.5670   8
   7   3  -7 974.801 25.0972   1
  -5  -3   7 4.54108 3.38916   2
   5  -3  -7 4.65221 1.53314  11
  -5  -3   7 5.04574 2.77700  14
   5  -3  -7 3.11059 1.78638   5
   5  -3  -7 3.09360 1.49179  12
  -5   3   7 9.29057 3.55838  15
   5   3  -7 4.29395 1.38706   9
  -5   3   7 5.29265 2.46064   2
   5   3  -7 5.49325 1.72402  12
  -5   3   7 5.02733 2.17423  14
  -5   3   7 2.73420 1.32350   6
   5   3  -7 2.37195 1.83916   1
  -3  -3   7 623.909 14.6309   4
   3  -3  -7 618.098 15.3064  16
  -3  -3   7 631.229 17.3350  14
   3  -3  -7 651.949 15.2444   5
   3  -3  -7 673.965 16.5005  12
  -3  -3   7 612.778 18.0326   2
   3  -3  -7 630.523 15.5471   3
  -3  -3   7 618.878 15.2917  10
   3   3  -7 634.458 15.4398  16
  -3   3   7 652.081 17.4717   2
  -3   3   7 625.624 16.4978  15
  -3   3   7 652.714 14.5458   6
  -3   3   7 630.142 16.6942  14
   3   3  -7 614.021 14.5241  12
   3   3  -7 634.821 17.2446   3
  -1  -3   7 12.3480 2.48878  10
   1  -3  -7 7.87340 2.40430  16
   1  -3  -7 8.58439 2.31603   5
   1  -3  -7 8.76393 2.74921  12
  -1  -3   7 13.4988 3.49978  14
   1  -3  -7 8.52446 2.44620   3
  -1  -3   7 9.07232 2.36398   4
  -1  -3   7 12.0680 3.27620   2
   1   3  -7 7.96706 2.30771  16
  -1   3   7 11.0809 2.83077  14
  -1   3   7 6.48062 2.38351   2
   1   3  -7 9.52277 2.06485  12
   1   3  -7 10.8063 2.98878   3
  -1   3   7 8.52880 2.54983  10
  -1   3   7 10.9480 2.18787   6
  -1  -3  -7 386.856 13.8184   3
  -1  -3  -7 403.000 13.9599  16
   1  -3   7 371.469 13.2237  14
  -1  -3  -7 404.401 12.3545   5
   1  -3   7 404.430 13.0425   4
   1  -3   7 392.651 13.2292  10
  -1  -3  -7 389.451 13.5047  12
   1   3   7 401.155 11.6065   6
  -1   3  -7 390.383 13.7924   8
   1   3   7 416.837 14.8917  10
  -1   3  -7 392.086 13.4886  16
  -1   3  -7 397.079 14.3604   3
   1   3   7 414.692 13.4257  14
  -1   3  -7 382.154 11.3334  12
   1   3   7 372.878 9.63855   7
   3  -3   7 2.60750 2.61500  14
   3  -3   7 9.14106 3.25632   4
  -3  -3  -7 4.58991 3.56508   3
  -3  -3  -7 3.81525 3.27246  12
  -3  -3  -7 7.50576 3.43496  16
   3  -3   7 7.07374 2.49263  10
  -3   3  -7 8.45267 3.87112   3
   3   3   7 4.81145 2.93684  10
  -3   3  -7 7.90637 3.55931   8
  -3   3  -7 4.78037 2.38096  16
   3   3   7 6.54676 1.74666   7
   3   3   7 9.25412 2.75634  14
  -5  -3  -7 295.442 13.7420  12
  -5  -3  -7 285.906 15.3034   3
   5  -3   7 316.662 13.6262   4
   5  -3   7 305.677 14.1460  10
  -5   3  -7 306.636 15.4516   3
   5   3   7 299.789 14.4386  10
  -5   3  -7 322.498 15.2840   8
  10  -4  -7 271.037 11.0343   5
 -10  -4   7 282.714 18.8368  15
 -10  -4   7 268.371 13.9001   2
  10   4  -7 261.430 12.9211   1
 -10   4   7 251.140 12.2749   2
 -10   4   7 259.193 15.1004   8
 -10   4   7 258.443 16.9683  15
   8  -4  -7 171.838 7.89070   5
  -8  -4   7 180.046 12.6494  15
  -8  -4   7 162.833 11.3910   2
   8   4  -7 165.564 9.68601   1
  -8   4   7 190.601 10.3379   2
  -8   4   7 175.318 12.8667  15
  -8   4   7 177.455 7.37852   6
  -8   4   7 150.622 10.0755   8
   6  -4  -7 418.920 11.8894   5
   6  -4  -7 401.961 12.1015  12
  -6  -4   7 402.967 15.5398   2
  -6  -4   7 403.892 13.2244  14
   6  -4  -7 363.060 10.3971  11
  -6   4   7 406.633 14.3656   2
  -6   4   7 398.594 15.9762  15
  -6   4   7 419.217 11.3789   6
   6   4  -7 394.784 11.2107   9
   6   4  -7 421.438 14.5633   1
  -4  -4   7 33.7972 5.25009   2
  -4  -4   7 33.0662 3.22721   4
   4  -4  -7 39.0251 4.02027   5
   4  -4  -7 40.9646 4.12887  12
   4  -4  -7 37.1476 2.96071  11
   4  -4  -7 40.6954 3.52487  16
  -4  -4   7 31.7797 4.08436  14
  -4   4   7 28.6946 3.10747   6
   4   4  -7 34.0545 4.47016   1
  -4   4   7 33.1516 4.46334   2
   4   4  -7 32.8235 3.39227   9
  -4   4   7 33.2078 4.65616  15
  -4   4   7 32.1761 3.80045  14
   4   4  -7 33.8663 2.91142  12
  -2  -4   7 96.3579 7.12322   2
  -2  -4   7 94.5278 4.94491  10
  -2  -4   7 93.7226 6.24582  14
  -2  -4   7 104.367 5.74332   4
   2  -4  -7 96.7352 5.89660  16
   2  -4  -7 96.1349 6.02980  12
   2  -4  -7 85.2196 5.29691   5
   2  -4  -7 94.3229 5.19899   3
  -2   4   7 104.092 6.00148  14
   2   4  -7 91.7418 4.41540  12
   2   4  -7 91.4475 6.22080   3
  -2   4   7 85.6864 4.89957   6
   2   4  -7 94.1813 5.40149  16
  -2   4   7 101.750 6.41400   2
   0  -4  -7 75.5575 5.48371   3
   0  -4   7 79.8416 5.29031  10
   0  -4  -7 82.2801 5.50730   5
   0  -4   7 83.7569 6.01990   4
   0  -4  -7 88.1949 6.29493  16
   0  -4   7 84.0504 6.56828  14
   0  -4  -7 92.5187 6.45110  12
   0  -4   7 82.5822 6.02656   2
   0   4  -7 86.0387 6.47783   8
   0   4  -7 82.5671 6.41815   3
   0   4   7 89.1570 6.65466  10
   0   4   7 81.6876 5.10463   2
   0   4   7 81.9241 5.20530   6
   0   4   7 89.7606 5.85221  14
   0   4  -7 80.4223 5.94170  16
   2  -4   7 3.84231 2.32930  10
  -2  -4  -7 9.60660 2.86094   5
  -2  -4  -7 5.84688 3.01195  16
  -2  -4  -7 2.53306 3.04919   3
   2  -4   7 7.45707 2.98373   4
  -2  -4  -7 3.79606 2.37659  12
   2  -4   7 8.14660 3.34041  14
   2   4   7 3.99592 1.52102   7
  -2   4  -7 8.37059 3.59745   3
  -2   4  -7 8.17871 3.31509   8
   2   4   7 0.76415 2.03579   6
   2   4   7 2.77219 2.49908  10
  -2   4  -7 6.91042 2.86886  16
   4  -4   7 97.7119 7.36209  10
  -4  -4  -7 96.9441 8.68264  12
   4  -4   7 112.864 8.42485   4
  -4  -4  -7 95.7837 9.03993   3
   4   4   7 89.7370 5.39890   7
   4   4   7 88.2881 8.06512  10
  -4   4  -7 97.2807 8.86306   8
  -4   4  -7 99.0124 9.09500   3
   6  -4   7 26.8110 5.41009   4
  -6  -4  -7 26.9015 6.53687   3
  -6  -4  -7 19.4368 5.35706  12
  -6   4  -7 19.4292 5.61563   8
   6   4   7 15.1155 4.80570  10
  -6   4  -7 21.1652 5.91683   3
 -11  -5   7 7.19066 5.64451  15
  11  -5  -7 7.06770 3.01235   5
  11   5  -7 3.18187 2.85784   1
 -11   5   7 -1.1893 5.51201  15
  -9  -5   7 120.640 10.9951   2
  -9  -5   7 103.731 12.6066  15
   9  -5  -7 112.931 6.72428   5
  -9   5   7 136.546 12.2928  15
  -9   5   7 116.663 6.83905   6
   9   5  -7 117.190 9.07684   1
  -9   5   7 110.582 8.62760   2
  -7  -5   7 4.98356 4.15929   2
   7  -5  -7 0.15043 1.25465  12
   7  -5  -7 -0.2378 1.96625   5
  -7  -5   7 2.58984 2.57690  14
  -7   5   7 1.40126 2.19913   2
   7   5  -7 1.97384 1.66417   9
  -7   5   7 -2.0043 3.55541  15
   7   5  -7 5.32190 2.74768   1
  -7   5   7 1.71501 1.84992   6
   5  -5  -7 649.941 16.6206  12
  -5  -5   7 641.307 20.4839   2
   5  -5  -7 640.767 15.4902  11
   5  -5  -7 679.485 16.7749   5
  -5  -5   7 660.534 18.5719  14
  -5   5   7 671.579 19.5639   2
  -5   5   7 650.840 16.1329   6
   5   5  -7 654.607 19.0390   1
   5   5  -7 636.182 16.4218   9
  -5   5   7 651.324 19.8858  15
  -3  -5   7 102.064 7.18162  14
   3  -5  -7 112.520 5.58428  11
   3  -5  -7 109.421 6.14843   5
  -3  -5   7 103.746 5.66639   4
   3  -5  -7 109.043 6.23745  12
  -3  -5   7 107.049 8.09887   2
   3  -5  -7 99.6081 5.90845  16
   3   5  -7 106.927 5.83054   9
   3   5  -7 109.043 6.74942   3
   3   5  -7 117.600 6.68142   1
  -3   5   7 113.650 7.28729   2
  -3   5   7 113.268 5.82098   6
   1  -5  -7 909.970 23.3873  16
  -1  -5   7 928.376 24.3584   2
  -1  -5   7 960.143 22.2779   4
   1  -5  -7 964.606 22.0732   5
  -1  -5   7 943.595 23.8871  14
   1  -5  -7 960.848 23.0058  12
  -1   5   7 938.816 21.6180   6
  -1   5   7 963.544 22.9419   2
  -1   5   7 959.927 24.4862  10
   1   5  -7 973.358 24.2922   3
  -1  -5  -7 83.4345 5.95760   5
   1  -5   7 76.2969 5.45668  10
  -1  -5  -7 76.5994 6.65446  16
   1  -5   7 76.8623 6.87847  14
   1  -5   7 73.1183 4.52806  11
   1  -5   7 78.2148 6.36822   4
  -1  -5  -7 80.6848 6.71874  12
  -1   5  -7 82.1835 6.89203   3
  -1   5  -7 78.0222 6.86038   8
   1   5   7 77.5818 5.69917   6
   1   5   7 81.4818 6.91626  10
  -1   5  -7 73.6122 5.89519  16
   3  -5   7 242.059 11.5970   4
  -3  -5  -7 214.126 10.3428   5
   3  -5   7 214.784 10.5826  14
  -3  -5  -7 237.374 12.1871  12
  -3  -5  -7 249.852 12.5408  16
   3  -5   7 250.645 11.2260  10
  -3   5  -7 244.240 12.4920   3
   3   5   7 250.618 10.4426   6
   3   5   7 233.330 12.0620  10
  -3   5  -7 209.389 11.0685  16
   3   5   7 230.481 8.42962   7
  -3   5  -7 256.551 12.9552   8
  -5  -5  -7 -4.6801 3.28126   3
   5  -5   7 1.53008 3.35459   4
  -5  -5  -7 7.86838 4.40004  12
   5   5   7 -2.0953 2.60993  10
  -5   5  -7 -0.1545 3.24554   3
  -5   5  -7 3.77364 3.63738   8
   5   5   7 -0.7507 1.81343   7
 -10  -6   7 187.708 16.0108  15
  10  -6  -7 170.435 8.73120   5
 -10   6   7 176.465 10.3273   2
 -10   6   7 182.532 14.1155  15
 -10   6   7 177.137 9.05810   6
  10   6  -7 165.197 10.8242   1
  -8  -6   7 245.207 14.0588   2
   8  -6  -7 243.104 10.0260   5
  -8   6   7 228.187 9.66997   6
  -8   6   7 237.799 11.8858   2
   8   6  -7 230.702 12.4314   1
  -8   6   7 227.603 13.6150  15
   6  -6  -7 10.6638 2.21822  11
   6  -6  -7 10.2891 2.86692   5
   6  -6  -7 7.89828 2.10242  12
  -6  -6   7 9.35394 4.52308   2
  -6  -6   7 4.45431 3.23258  14
   6   6  -7 8.45824 3.12458   1
   6   6  -7 9.60781 2.51619   9
  -6   6   7 15.2037 4.09905   2
  -6   6   7 14.9745 3.04890   6
  -6   6   7 13.1845 4.34013  15
   4  -6  -7 159.817 7.41517  12
  -4  -6   7 149.111 9.45455   2
   4  -6  -7 160.730 7.58741  16
   4  -6  -7 159.548 7.05378  11
  -4  -6   7 163.655 7.12933   4
   4  -6  -7 161.483 7.61358   5
  -4  -6   7 167.144 9.35452  14
   4   6  -7 166.603 7.74076   9
   4   6  -7 153.339 8.39499   1
  -4   6   7 170.786 9.18426   2
  -4   6   7 161.184 7.37791   6
  -4   6   7 154.842 8.64852  15
  -2  -6   7 7.62952 3.47300  14
   2  -6  -7 1.99479 2.09033  16
  -2  -6   7 5.25244 2.13426   4
   2  -6  -7 6.51221 2.71500  12
   2  -6  -7 7.61869 2.81317   5
  -2   6   7 2.94258 2.46133   2
  -2   6   7 4.75629 2.44460  10
   2   6  -7 7.28735 2.24953   9
   2   6  -7 2.32126 2.22876   3
   2   6  -7 3.79383 2.20824   1
  -2   6   7 2.88542 2.08750   6
   0  -6  -7 -2.0304 1.83610   5
   0  -6  -7 0.87263 2.75053  12
   0  -6   7 -0.8476 2.00718  14
   0  -6   7 1.13347 2.15884   4
   0  -6  -7 0.69904 2.49586  16
   0   6   7 1.08766 2.25347   6
   0   6  -7 0.98801 2.36480   3
   0   6   7 2.69668 2.50627  10
  -2  -6  -7 63.2048 6.36392  16
  -2  -6  -7 76.8740 7.79977  12
   2  -6   7 90.1724 6.90671   4
  -2  -6  -7 74.7011 6.30611   5
   2  -6   7 78.7656 5.21634  11
   2  -6   7 83.1504 7.58029  14
  -2   6  -7 69.4952 6.81804   3
   2   6   7 65.8940 5.34379   6
  -2   6  -7 71.6950 8.00603   8
   2   6   7 78.0615 7.01625  10
  -4  -6  -7 3.61820 3.09542   5
   4  -6   7 4.11869 3.56398   4
  -4  -6  -7 3.38376 3.70459  12
   4   6   7 -0.9628 2.62285  10
   4   6   7 4.72290 2.33954   7
  -4   6  -7 1.05572 2.26659   3
  -4   6  -7 5.67154 3.85067   8
   9  -7  -7 588.632 17.8585   5
  -9  -7   7 657.616 27.9267  15
  -9  -7   7 610.475 22.8592   2
  -9   7   7 611.299 24.1774  15
   9   7  -7 608.916 21.8492   1
  -9   7   7 577.836 17.7804   6
  -9   7   7 604.069 20.4741   2
   7  -7  -7 8.71092 2.76434  11
   7  -7  -7 4.96636 2.19580   5
  -7  -7   7 4.62545 3.42591  14
  -7  -7   7 14.2278 5.46710   2
   7  -7  -7 8.72122 2.46276  12
  -7   7   7 10.4254 4.22904  15
   7   7  -7 8.01364 3.52214   1
  -7   7   7 14.6296 3.78798   2
  -7   7   7 7.60452 2.90009   6
   7   7  -7 9.21854 2.78351   9
  -5  -7   7 418.131 15.3228  14
  -5  -7   7 414.665 17.3852   2
   5  -7  -7 429.563 13.4353   5
   5  -7  -7 402.017 12.7208  11
   5  -7  -7 407.530 12.4545  12
   5   7  -7 418.255 15.1897   1
  -5   7   7 390.875 12.9364   6
   5   7  -7 408.934 13.5631   9
  -5   7   7 389.395 15.2912  15
  -5   7   7 430.496 15.7362   2
   3  -7  -7 11.9293 2.92990  11
   3  -7  -7 9.50039 2.70998   5
   3  -7  -7 14.2877 3.16243  16
  -3  -7   7 9.83824 3.75986  14
   3  -7  -7 9.75113 2.75538  12
  -3  -7   7 12.6988 3.31494   4
   3   7  -7 6.93426 2.57160   1
  -3   7   7 10.5374 2.90267   6
  -3   7   7 7.96415 3.21743   2
   3   7  -7 8.22522 2.57818   9
   1  -7  -7 117.647 8.01233  16
  -1  -7   7 125.997 9.11531  14
  -1  -7   7 122.299 7.22921   4
   1  -7  -7 137.475 7.90549  12
   1  -7  -7 121.902 7.52677   5
   1   7  -7 137.010 7.61239   9
   1   7  -7 141.503 8.21286   3
   1   7  -7 121.872 7.33728   1
  -1   7   7 120.795 7.39694   2
  -1   7   7 114.732 7.81692  10
  -1   7   7 131.450 7.47147   6
  -1  -7  -7 3.72339 3.16746  16
   1  -7   7 -4.9023 2.74377  14
   1  -7   7 4.66109 3.60554   4
  -1  -7  -7 1.04829 2.67583   5
  -1  -7  -7 4.00561 3.23968  12
  -1   7  -7 -3.4021 2.45272   8
   1   7   7 0.16856 1.77950  10
   1   7   7 -1.3916 2.39949   6
  -1   7  -7 0.09200 2.48769   3
  -3  -7  -7 145.336 8.68065   5
   3  -7   7 178.884 10.1111   4
  -3  -7  -7 158.160 10.3408  12
   3   7   7 148.987 9.82542  10
  -3   7  -7 157.898 10.1663   3
  -3   7  -7 152.327 11.0106   8
   3   7   7 143.959 8.79638   6
   5   7   7 28.9004 4.03232   7
 -10  -8   7 152.495 18.6542  15
  10   8  -7 183.347 12.2559   1
 -10   8   7 215.818 16.9105  15
 -10   8   7 162.703 9.63996   6
   8  -8  -7 490.682 15.1763  11
  -8  -8   7 472.568 20.6241   2
   8  -8  -7 483.146 15.6197   5
  -8   8   7 484.667 20.5648  15
   8   8  -7 465.779 15.7245   9
  -8   8   7 484.878 18.0843   2
   8   8  -7 479.716 18.6542   1
  -8   8   7 495.321 16.1138   6
   6  -8  -7 223.600 9.38736  11
   6  -8  -7 240.968 10.2400   5
  -6  -8   7 241.439 13.7833   2
  -6  -8   7 230.198 11.8314  14
  -6   8   7 238.396 12.6935  15
  -6   8   7 219.424 9.75803   6
   6   8  -7 219.431 10.2575   9
   6   8  -7 223.409 11.8617   1
  -6   8   7 240.239 12.1477   2
   4  -8  -7 1066.00 24.6438  12
   4  -8  -7 1081.42 25.5059  11
   4  -8  -7 1101.42 25.9964   5
  -4  -8   7 1129.03 29.2684  14
  -4  -8   7 1113.19 25.4264   4
  -4   8   7 1083.51 26.0359   6
   4   8  -7 1099.82 27.7248   1
   4   8  -7 1081.08 26.7792   9
  -4   8   7 1090.56 28.5222   2
  -2  -8   7 644.498 20.7349  14
   2  -8  -7 625.318 17.6549  12
   2  -8  -7 643.412 18.3546   5
  -2  -8   7 630.955 18.3191   4
   2  -8  -7 648.559 18.3476  11
   2  -8  -7 616.549 19.5700  16
   2   8  -7 678.940 20.7383   1
  -2   8   7 644.480 18.4009   6
   2   8  -7 641.994 18.8324   9
  -2   8   7 624.957 20.0061  10
   0  -8   7 507.708 17.7986  14
   0  -8  -7 493.566 18.0216  16
   0  -8  -7 522.478 16.7086  12
   0  -8  -7 518.173 16.6977   5
   0  -8   7 504.491 16.5221   4
   0   8  -7 495.965 16.3251   9
   0   8   7 498.946 17.6441  10
   0   8   7 495.090 15.8962   6
   0   8  -7 520.567 16.9147   3
   2  -8   7 765.505 23.1927  14
   2  -8   7 786.896 22.8121   4
  -2  -8  -7 755.718 22.7059  12
  -2  -8  -7 768.964 22.3250   5
  -2   8  -7 746.231 21.2279   9
  -2   8  -7 818.087 25.9683   8
   2   8   7 755.364 23.3947  10
   2   8   7 725.747 21.4594   6
   4  -8   7 154.279 10.5638   4
  -4  -8  -7 142.755 9.58769  12
  -4  -8  -7 124.573 8.79647   5
  -4   8  -7 124.220 10.6096   8
   4   8   7 133.749 9.16361   6
  -4   8  -7 117.836 8.19178   9
  -9  -9   7 73.8381 10.1702   2
   9  -9  -7 86.5032 7.73117   5
   9   9  -7 106.808 8.87770   1
  -9   9   7 98.6397 10.8224  15
  -9   9   7 68.9801 7.09695   6
  -7  -9   7 330.542 14.5941  14
   7  -9  -7 321.904 12.4047  11
   7  -9  -7 359.917 13.2536   5
  -7  -9   7 349.113 18.1575   2
  -7   9   7 337.522 16.3147  15
   7   9  -7 333.151 13.4420   9
   7   9  -7 359.229 15.6423   1
  -7   9   7 343.514 13.5363   6
  -5  -9   7 65.8423 7.35607  14
   5  -9  -7 72.8602 6.70266   5
   5  -9  -7 61.1242 5.94640  11
   5   9  -7 60.5201 6.55334   9
  -5   9   7 63.5759 6.60870   6
   5   9  -7 59.9537 6.79734   1
  -3  -9   7 1349.80 34.1647  14
   3  -9  -7 1344.53 30.4942   5
   3  -9  -7 1355.47 30.8452  11
   3  -9  -7 1291.54 32.4905  16
  -3  -9   7 1341.43 30.7067   4
  -3   9   7 1338.11 31.3209   6
   3   9  -7 1319.03 31.7362   9
   1  -9  -7 25.3496 4.40362  11
   1  -9  -7 30.7743 5.05680   5
  -1  -9   7 24.8341 4.98479   4
  -1  -9   7 31.9146 5.99006  14
   1  -9  -7 20.9594 3.65451  12
  -1   9   7 22.6587 4.25639   6
   1   9  -7 23.0801 3.98008   9
  -1   9   7 21.2884 4.39106  10
   1  -9   7 1105.61 28.9870   4
   1  -9   7 1112.89 29.9086  14
  -1  -9  -7 1114.50 28.3068   5
   1   9   7 1073.81 27.8833   6
  -1   9  -7 1092.91 28.0213   9
   3  -9   7 85.6510 8.86110   4
  -3  -9  -7 81.4765 8.03996   5
  -3  -9  -7 85.3250 8.73052  12
  -3   9  -7 81.4144 7.17064   9
   3   9   7 104.421 8.12192   6
  -3   9  -7 89.6901 9.69734   8
  -8 -10   7 31.2843 7.59601   2
   8 -10  -7 27.7001 4.78643  11
   8 -10  -7 29.1298 4.91533   5
  -8  10   7 24.8559 5.51640  15
   8  10  -7 18.4559 4.42139   9
  -8  10   7 27.1575 5.03610   6
   8  10  -7 29.3901 5.38602   1
   6 -10  -7 44.9433 5.53331   5
  -6 -10   7 38.2721 6.64802  14
   6 -10  -7 39.2936 5.33918  11
  -6 -10   7 46.2300 8.20078   2
   6  10  -7 34.4612 5.75325   9
  -6  10   7 55.0496 6.51116   6
   4 -10  -7 47.8932 5.95422   5
  -4 -10   7 41.3374 5.62305   4
  -4 -10   7 41.1807 6.92213  14
   4 -10  -7 55.2321 6.11903  11
  -4  10   7 43.9001 5.87165   6
   4  10  -7 52.4895 6.26849   9
   2 -10  -7 2.32575 2.01407  11
  -2 -10   7 4.69824 4.48517  14
   2 -10  -7 5.14423 3.58004   5
  -2 -10   7 6.26833 2.90763   4
   2  10  -7 4.72680 3.05440   9
  -2  10   7 2.40348 3.32079   6
  -2  10   7 3.21300 3.01644  10
   0 -10  -7 6.00445 3.86975   5
   0 -10   7 7.94143 3.86703  14
   0 -10   7 9.24567 4.38363   4
   0 -10  -7 7.85293 3.17115  11
   0  10  -7 4.20589 3.31567   9
   0  10   7 1.89719 3.21144   6
   2 -10   7 37.5025 6.59340  14
  -2 -10  -7 53.0683 6.71190   5
   2 -10   7 43.8582 6.49216   4
  -2  10  -7 35.1541 5.67259   9
   2  10   7 34.0398 5.77311   6
   5 -11  -7 10.1897 3.70342  11
   5 -11  -7 16.1847 4.19264   5
  -5 -11   7 12.2146 4.21083  14
   5  11  -7 14.5545 3.72225   9
  -5  11   7 13.4615 4.13613   6
   3 -11  -7 35.7986 5.55220   5
   3 -11  -7 33.0643 5.38417  11
  -3 -11   7 34.2222 5.81149   4
  -3 -11   7 41.2891 6.48547  14
   3  11  -7 30.7545 5.50086   9
  -3  11   7 46.1764 6.26404   6
   1 -11  -7 37.0665 6.02972  11
  -1 -11   7 34.1212 6.52790  14
  -1 -11   7 24.8779 5.63955   4
   1 -11  -7 36.7656 5.98060   5
  -1  11   7 42.2677 5.82703   6
   1  11  -7 21.5457 4.37060   9
   1 -11   7 35.9731 5.92629  14
   1 -11   7 34.5880 6.43636   4
  -1 -11  -7 39.6381 6.40978  11
   1  11   7 45.6068 6.39412   6
  -1  11  -7 33.8727 5.26555   9
 -12   0   8 78.2226 12.4974  15
 -12   0   8 81.5027 12.0797   8
 -10   0   8 90.9720 12.5373  15
  10   0  -8 82.3194 6.98503   1
 -10   0   8 82.3707 10.5725   8
 -10   0   8 90.9460 9.09905   2
   8   0  -8 833.337 22.3895   1
  -8   0   8 847.989 24.2678   2
   8   0  -8 861.697 19.2952   5
  -8   0   8 845.472 28.0865  15
  -6   0   8 6.66730 2.62004  14
  -6   0   8 3.50886 3.52707  15
  -6   0   8 2.20851 3.30732   2
   6   0  -8 1.11462 1.12548   5
   6   0  -8 1.24943 1.79892  12
  -4   0   8 3320.16 65.4652  15
   4   0  -8 3486.04 61.6638  12
  -4   0   8 3552.49 63.2862  14
  -4   0   8 3376.55 64.4227   2
   4   0  -8 3402.30 58.2021   5
   4   0  -8 3419.13 63.2138   3
   4   0  -8 3414.02 59.3275  16
  -2   0   8 37.9444 3.78995   4
   2   0  -8 34.4297 4.42967   3
   2   0  -8 31.9298 4.00737  12
  -2   0   8 31.2190 4.09243  10
   2   0  -8 35.8995 2.76636   5
  -2   0   8 40.1897 4.91054  14
   2   0  -8 37.3276 3.77664  16
  -2   0   8 36.0975 4.93283   2
   0   0   8 2644.23 51.7377  14
   0   0  -8 2665.82 50.5973  12
   0   0  -8 2614.85 51.3335  16
   0   0  -8 2646.63 47.5147   5
   0   0  -8 2639.42 53.1047   3
   0   0   8 2696.57 50.5984   4
   0   0   8 2677.78 53.2130  10
   2   0   8 563.684 19.0742  10
   2   0   8 564.688 17.3673   4
  -2   0  -8 566.928 17.3125  12
  -2   0  -8 546.055 17.9250  16
   2   0   8 593.844 17.5885  14
  -2   0  -8 559.559 19.4661   3
   4   0   8 725.317 23.7307  10
  -4   0  -8 758.987 22.2166  12
  -4   0  -8 720.830 24.8066   3
 -11  -1   8 9.63609 6.51425   8
 -11  -1   8 0.09310 7.15597  15
  11   1  -8 8.34655 3.33902   1
 -11   1   8 4.41732 4.81234   2
 -11   1   8 19.5518 6.53100   8
 -11   1   8 5.12662 7.02395  15
  -9  -1   8 352.022 15.6828   2
  -9  -1   8 359.714 19.6087  15
   9  -1  -8 356.127 11.5369   5
   9  -1  -8 351.757 13.2970   1
   9   1  -8 338.642 13.9080   1
  -9   1   8 336.954 16.7971   8
  -9   1   8 323.502 14.6413   2
  -9   1   8 361.461 19.0851  15
   7  -1  -8 -2.0383 1.21315   5
  -7  -1   8 4.13693 4.16110  15
  -7  -1   8 6.95221 4.37636   2
  -7  -1   8 1.18082 2.20067  14
   7  -1  -8 2.08584 1.84330  12
   7  -1  -8 1.46900 1.87348   1
   7   1  -8 2.24257 1.46381   5
   7   1  -8 0.86540 2.04791   1
  -7   1   8 5.64212 3.84196   2
  -7   1   8 2.69925 1.82146  14
  -7   1   8 2.57924 4.23557  15
  -5  -1   8 382.010 12.4538  14
  -5  -1   8 381.592 14.4574   2
   5  -1  -8 372.452 9.93771   5
   5  -1  -8 372.437 11.4806  12
  -5  -1   8 365.125 14.7525  15
   5   1  -8 373.483 11.3731  12
  -5   1   8 365.515 13.4756   2
  -5   1   8 345.348 14.1702  15
  -5   1   8 375.780 12.2588  14
   3  -1  -8 300.099 11.0377   3
   3  -1  -8 311.434 9.76558  16
   3  -1  -8 335.784 10.9445  12
  -3  -1   8 316.710 10.9066  10
  -3  -1   8 309.689 11.4374  14
  -3  -1   8 312.977 9.34649   4
   3  -1  -8 312.024 8.88231   5
  -3  -1   8 321.703 12.2829   2
  -3   1   8 323.210 11.4924  14
  -3   1   8 303.261 11.3021  15
   3   1  -8 308.309 11.3878   3
   3   1  -8 325.673 10.3928  12
  -3   1   8 309.608 11.5421  10
  -3   1   8 320.809 12.0105   2
   3   1  -8 312.878 9.85700  16
   1  -1  -8 34.1572 4.27391  12
   1  -1  -8 32.4972 3.63656  16
   1  -1  -8 34.1474 3.35485   5
  -1  -1   8 31.9917 4.35632   2
  -1  -1   8 28.2239 3.71322   4
   1  -1  -8 29.9033 4.35751   3
  -1  -1   8 35.2647 4.49993  10
  -1  -1   8 33.6741 4.86323  14
  -1   1   8 42.0544 3.35599   6
  -1   1   8 34.9801 4.14452   4
   1   1  -8 46.3047 4.53329  12
   1   1  -8 39.3493 4.25338  16
  -1   1   8 29.5067 4.30619   2
  -1   1   8 32.0668 4.23341  14
  -1   1   8 29.1653 4.26889  10
   1   1  -8 34.8958 4.88541   3
   1  -1   8 616.983 18.0850  14
  -1  -1  -8 591.475 17.9916  16
  -1  -1  -8 618.249 15.7005   5
   1  -1   8 593.567 18.6877  10
  -1  -1  -8 604.400 17.7442  12
  -1  -1  -8 623.218 19.5699   3
   1  -1   8 587.458 17.1625   4
   1   1   8 604.233 17.6585  14
   1   1   8 604.751 17.3604   4
   1   1   8 608.794 19.2250  10
  -1   1  -8 596.215 19.0273   3
  -1   1  -8 578.447 16.6534  12
  -1   1  -8 603.203 17.2481   8
  -1   1  -8 569.818 17.6930  16
   3  -1   8 33.3203 4.84294   4
  -3  -1  -8 43.5791 6.02186  12
   3  -1   8 39.7739 5.64503  10
  -3  -1  -8 37.2741 6.43496   3
  -3  -1  -8 32.0915 5.52260  16
   3  -1   8 32.0240 4.69099  14
  -3   1  -8 45.1699 6.80809   3
   3   1   8 39.4354 5.61906  10
   3   1   8 36.8052 4.90921  14
  -3   1  -8 35.2742 5.15356  12
  -3   1  -8 32.5372 4.84355   8
  -3   1  -8 34.5867 5.42641  16
   5  -1   8 109.557 9.22378  10
  -5  -1  -8 102.202 8.11273  12
  -5  -1  -8 103.645 9.43891   3
   5   1   8 101.608 9.05984  10
  -5   1  -8 115.825 11.7822   3
 -12  -2   8 3.69338 7.32448  15
 -12  -2   8 -2.6989 6.14676   8
  12   2  -8 1.58763 3.01921   1
 -12   2   8 4.47831 6.69010   8
 -12   2   8 1.97060 6.53579  15
 -10  -2   8 842.279 31.2395  15
  10  -2  -8 876.140 21.6742   5
 -10  -2   8 849.838 26.1079   2
 -10   2   8 886.545 31.0564  15
  10   2  -8 892.427 25.7417   1
 -10   2   8 832.862 28.7053   8
 -10   2   8 836.120 25.1098   2
  -8  -2   8 31.5787 6.56500   2
   8  -2  -8 21.9186 3.60331   1
  -8  -2   8 27.9233 6.20021  15
   8  -2  -8 25.4561 3.19936   5
  -8   2   8 24.0410 5.31688   8
  -8   2   8 28.1249 4.98451   2
   8   2  -8 26.0930 4.43849   1
  -8   2   8 24.9808 6.03571  15
  -6  -2   8 508.695 17.6711   2
   6  -2  -8 492.191 14.1720  12
  -6  -2   8 468.063 19.1207  15
   6  -2  -8 494.812 12.7375   5
  -6  -2   8 467.729 14.6254  14
  -6   2   8 489.670 16.2900   2
   6   2  -8 488.463 13.7431  12
  -6   2   8 484.303 18.3700  15
  -6   2   8 488.410 14.2492  14
   6   2  -8 511.252 16.1947   1
  -4  -2   8 82.1652 6.53655  14
   4  -2  -8 89.6189 5.39950  12
   4  -2  -8 85.3711 4.76076   5
   4  -2  -8 81.9433 4.45429  16
  -4  -2   8 88.5274 7.58750   2
  -4  -2   8 81.6437 5.15211  10
   4  -2  -8 80.4873 5.31791   3
  -4  -2   8 78.6430 4.13421   4
  -4   2   8 87.9739 6.03683  14
   4   2  -8 86.1342 6.10233   3
   4   2  -8 86.4249 5.00860  12
  -4   2   8 85.4125 6.59977  15
  -4   2   8 77.5492 6.69820   2
   4   2  -8 87.6699 4.59242  16
  -4   2   8 91.2245 4.24038   6
   2  -2  -8 178.372 6.92128   5
  -2  -2   8 171.512 7.28011   4
  -2  -2   8 167.371 7.71611  10
  -2  -2   8 176.794 9.17515  14
   2  -2  -8 169.849 7.77547  12
   2  -2  -8 183.496 8.45385   3
   2  -2  -8 176.699 7.80988  16
  -2  -2   8 161.680 8.84491   2
  -2   2   8 178.399 8.89697  10
  -2   2   8 173.492 6.35798   6
   2   2  -8 160.010 8.56757   3
  -2   2   8 179.334 8.64010  14
   2   2  -8 167.303 7.53665  16
  -2   2   8 191.801 8.94901   2
   2   2  -8 171.100 7.23443  12
   0  -2   8 43.8365 4.87072   4
   0  -2   8 44.3503 5.11419  10
   0  -2  -8 40.8415 4.10466   5
   0  -2  -8 46.6194 5.11714  16
   0  -2   8 40.4115 4.92740  14
   0  -2  -8 52.2153 5.75961  12
   0  -2  -8 44.2272 5.14022   3
   0   2  -8 48.6755 5.91402   3
   0   2  -8 44.0929 3.87204  12
   0   2   8 42.0113 5.34839  10
   0   2  -8 39.3862 4.87877  16
   0   2  -8 40.4037 4.74785   8
   0   2   8 41.9146 3.91158   6
   0   2   8 44.2310 5.31399  14
   2  -2   8 251.049 11.2595   4
  -2  -2  -8 252.115 9.99149   5
   2  -2   8 261.937 11.3724  14
   2  -2   8 256.116 12.1054  10
  -2  -2  -8 270.389 12.8724   3
  -2  -2  -8 263.526 11.7427  12
  -2  -2  -8 248.966 11.7321  16
  -2   2  -8 274.497 13.2535   3
   2   2   8 240.439 12.3055  10
  -2   2  -8 260.386 11.6098   8
  -2   2  -8 231.006 11.2334  16
   2   2   8 261.758 11.3794  14
  -2   2  -8 242.469 10.1856  12
  -4  -2  -8 211.243 11.3404  12
   4  -2   8 205.405 11.8569  10
   4  -2   8 227.169 11.5481   4
  -4  -2  -8 221.780 13.3217   3
  -4   2  -8 220.452 12.0840   8
  -4   2  -8 223.117 13.2046   3
   4   2   8 201.838 12.1151  10
 -11  -3   8 0.04896 4.69326  15
 -11   3   8 5.01403 3.77688   2
 -11   3   8 3.08591 6.80165  15
 -11   3   8 -1.4412 5.22701   8
  11   3  -8 4.86470 3.67150   1
   9  -3  -8 239.372 9.35543   5
  -9  -3   8 243.582 16.8315  15
  -9  -3   8 221.678 13.5644   2
  -9   3   8 241.920 16.0288  15
   9   3  -8 232.034 12.0794   1
  -9   3   8 214.040 13.1183   8
  -9   3   8 215.647 12.0987   2
  -7  -3   8 15.1426 5.18995   2
  -7  -3   8 19.0795 5.83918  15
   7  -3  -8 16.6751 3.11127   1
  -7  -3   8 16.7145 3.63193  14
   7  -3  -8 13.6080 2.84371   5
   7  -3  -8 12.7774 3.00781  12
  -7   3   8 12.3413 2.56286  14
   7   3  -8 15.0333 3.68463   1
  -7   3   8 17.2207 4.00798   2
  -7   3   8 15.3670 5.38847  15
  -5  -3   8 96.1863 7.04551  14
  -5  -3   8 115.826 8.80613   2
   5  -3  -8 100.078 6.08910  12
   5  -3  -8 100.115 5.42194   5
  -5   3   8 96.8368 6.20009  14
  -5   3   8 93.0723 7.99558  15
   5   3  -8 109.403 7.16335   1
   5   3  -8 91.1431 4.89034   9
  -5   3   8 102.104 5.01490   6
   5   3  -8 102.337 5.46015  12
  -5   3   8 95.3390 7.44399   2
   3  -3  -8 13.4447 2.75206   5
   3  -3  -8 17.8563 3.45476  12
  -3  -3   8 12.0017 2.47888   4
   3  -3  -8 11.9840 2.48847  16
  -3  -3   8 11.2899 2.30546  10
   3  -3  -8 7.24539 2.27505   3
  -3  -3   8 10.9520 3.57639  14
  -3  -3   8 17.2044 4.33480   2
  -3   3   8 18.6108 2.53139   6
   3   3  -8 12.8768 3.16763   3
   3   3  -8 13.7920 2.46110  12
  -3   3   8 13.2108 2.90101  14
   3   3  -8 10.5924 2.24825  16
  -3   3   8 11.2523 3.35750   2
  -1  -3   8 135.970 7.18150   4
  -1  -3   8 147.053 8.73094  14
   1  -3  -8 131.229 7.42596  16
   1  -3  -8 137.710 6.61981   5
   1  -3  -8 129.645 7.52552  12
  -1  -3   8 140.932 7.41426  10
  -1  -3   8 137.007 8.04766   2
   1  -3  -8 126.126 7.32460   3
  -1   3   8 123.529 6.93169   2
   1   3  -8 130.847 7.09351  16
  -1   3   8 127.876 6.06356   6
   1   3  -8 140.428 8.30639   3
  -1   3   8 122.683 7.88747  10
  -1   3   8 126.642 7.67722  14
   1   3  -8 142.330 6.60488  12
  -1  -3  -8 22.1218 3.47586   5
  -1  -3  -8 22.4338 4.61822  12
   1  -3   8 22.6187 4.53947  14
  -1  -3  -8 17.1326 4.02388   3
  -1  -3  -8 25.3382 4.81608  16
   1  -3   8 17.7612 3.64208  10
   1  -3   8 31.6882 4.73815   4
  -1   3  -8 21.0050 3.19074  12
   1   3   8 22.2929 4.26768  14
  -1   3  -8 22.6414 4.59435   3
   1   3   8 18.2039 3.21422   6
  -1   3  -8 20.9064 4.22758   8
  -1   3  -8 16.0524 3.24195  16
   1   3   8 22.6607 4.17841  10
  -3  -3  -8 142.428 10.2511   3
  -3  -3  -8 134.485 9.52579  12
   3  -3   8 124.735 8.78422  10
   3  -3   8 130.252 9.05894   4
  -3   3  -8 143.004 9.60384   8
  -3   3  -8 151.406 10.5945   3
   3   3   8 134.772 9.69041  10
  -5  -3  -8 19.5030 4.56605  12
   5  -3   8 19.6305 4.38261  10
  -5  -3  -8 18.8448 5.75379   3
   5  -3   8 13.3613 4.24430   4
  -5   3  -8 14.0973 4.51977   8
  -5   3  -8 6.38192 4.75803   3
   5   3   8 18.5732 5.14875  10
 -10  -4   8 472.533 19.6527   2
  10  -4  -8 484.310 15.4169   5
 -10  -4   8 515.818 25.3123  15
 -10   4   8 500.942 23.0863  15
  10   4  -8 485.425 18.9204   1
 -10   4   8 519.597 18.6866   2
   8  -4  -8 114.016 6.51340   5
  -8  -4   8 110.902 10.9145  15
  -8  -4   8 110.324 9.21163   2
   8   4  -8 104.127 8.18960   1
  -8   4   8 115.946 11.7484  15
  -8   4   8 106.787 8.83961   2
  -6  -4   8 1816.35 41.5874   2
   6  -4  -8 1771.00 36.3568  12
  -6  -4   8 1752.73 37.3169  14
   6  -4  -8 1785.11 35.1603   5
  -6   4   8 1730.08 40.7182  15
  -6   4   8 1810.39 36.5243  14
  -6   4   8 1765.21 34.2137   6
   6   4  -8 1731.17 34.4956   9
   6   4  -8 1813.56 39.8437   1
  -6   4   8 1776.12 39.6144   2
   4  -4  -8 6.03610 2.31780   5
   4  -4  -8 6.04497 2.46554  12
  -4  -4   8 5.10009 1.91596   4
  -4  -4   8 7.35819 2.69313  14
  -4  -4   8 12.7285 4.05348   2
   4  -4  -8 8.34687 1.87235  11
   4  -4  -8 5.61708 1.84371  16
   4   4  -8 7.74791 1.82582  12
  -4   4   8 9.21103 2.79682  14
  -4   4   8 7.81258 2.30534   6
  -4   4   8 12.4176 3.59823   2
   4   4  -8 4.09653 1.82814   9
  -2  -4   8 1682.61 36.3083  10
  -2  -4   8 1769.06 38.8783   2
  -2  -4   8 1818.34 35.8058   4
   2  -4  -8 1780.96 36.9511  16
  -2  -4   8 1788.73 38.3773  14
   2  -4  -8 1822.71 37.2561  12
   2  -4  -8 1734.81 35.7829   3
   2  -4  -8 1851.59 35.8310   5
  -2   4   8 1787.90 37.4897   2
   2   4  -8 1769.15 33.9051  12
  -2   4   8 1804.76 34.8333   6
   2   4  -8 1791.72 38.7367   3
  -2   4   8 1773.58 37.6195  14
  -2   4   8 1812.51 39.5335  10
   0  -4  -8 1.74514 2.36829  16
   0  -4   8 2.99450 2.00548  10
   0  -4   8 6.44401 4.24819   2
   0  -4   8 2.61498 1.92501   4
   0  -4  -8 0.64008 2.19594   3
   0  -4  -8 3.35351 2.33247   5
   0  -4  -8 2.84468 2.24911  12
   0  -4   8 0.78412 2.17102  14
   0   4  -8 2.76199 2.28411  16
   0   4   8 -1.0006 1.96925  14
   0   4   8 1.98402 2.31869  10
   0   4  -8 3.04776 2.69305   3
   0   4   8 6.14073 2.43634   6
   2  -4   8 415.026 14.9369  14
   2  -4   8 453.455 15.5817   4
  -2  -4  -8 434.503 14.3821   5
  -2  -4  -8 416.039 15.8251   3
   2  -4   8 426.957 15.4319  10
  -2  -4  -8 416.440 15.9780  16
  -2  -4  -8 427.187 16.0827  12
  -2   4  -8 424.168 16.8377   3
  -2   4  -8 401.914 15.5023  16
  -2   4  -8 428.565 16.5595   8
   2   4   8 427.874 17.0524  10
   2   4   8 422.285 13.6698   6
  -4  -4  -8 89.5067 7.35521   5
  -4  -4  -8 79.8549 9.06213  12
  -4  -4  -8 89.8509 8.91099   3
   4  -4   8 78.3151 7.04299   4
   4  -4   8 74.0988 7.21205  10
   4   4   8 91.2020 8.44805  10
  -4   4  -8 99.1992 9.17781   3
  -4   4  -8 72.5821 8.34383   8
 -11  -5   8 448.850 24.7151  15
  11  -5  -8 439.708 15.2913   5
  11   5  -8 421.241 17.8421   1
 -11   5   8 426.948 21.6044  15
  -9  -5   8 182.733 13.1222   2
   9  -5  -8 199.184 9.47152   5
  -9  -5   8 226.747 16.8947  15
  -9   5   8 195.364 11.4722   2
  -9   5   8 211.867 14.7097  15
   9   5  -8 212.299 12.1421   1
   7  -5  -8 894.418 21.9952  12
  -7  -5   8 908.919 27.5430   2
   7  -5  -8 896.669 21.4263   5
  -7  -5   8 846.381 22.9338  14
  -7   5   8 886.563 25.3545   2
  -7   5   8 901.564 27.4092  15
  -7   5   8 867.132 20.6317   6
   7   5  -8 882.028 21.1062   9
   7   5  -8 884.453 25.2904   1
   5  -5  -8 252.855 8.67197  11
   5  -5  -8 277.223 10.4716  12
  -5  -5   8 268.183 11.8824  14
  -5  -5   8 263.304 13.5580   2
   5  -5  -8 267.436 9.86342   5
  -5   5   8 254.857 11.8231  15
  -5   5   8 268.217 9.50545   6
   5   5  -8 266.794 9.84769   9
   5   5  -8 282.904 12.3183   1
  -5   5   8 280.531 12.0990   2
  -3  -5   8 241.031 11.3721  14
  -3  -5   8 223.543 8.91524   4
  -3  -5   8 233.547 12.0004   2
   3  -5  -8 212.379 8.22762  11
   3  -5  -8 228.465 9.31723   5
   3  -5  -8 232.759 9.87512  12
   3  -5  -8 229.247 9.51340  16
  -3   5   8 223.666 10.0698  14
   3   5  -8 237.257 10.7549   3
   3   5  -8 229.552 9.08636   9
  -3   5   8 238.542 8.89575   6
  -3   5   8 227.785 10.5442   2
   1  -5  -8 317.746 11.5453   5
  -1  -5   8 324.773 11.9201   4
   1  -5  -8 330.721 12.3489  12
   1  -5  -8 323.638 12.6678  16
  -1  -5   8 318.085 13.3932  14
  -1  -5   8 321.152 13.3149   2
  -1   5   8 326.870 13.6676  10
  -1   5   8 322.736 11.8756   2
  -1   5   8 325.043 11.2838   6
   1   5  -8 339.055 13.5117   3
  -1   5   8 332.535 13.0017  14
  -1  -5  -8 2.19805 2.93765   3
  -1  -5  -8 0.70789 2.74961  16
  -1  -5  -8 -0.3190 2.24328   5
   1  -5   8 -2.2995 1.57776  10
  -1  -5  -8 0.99789 3.02528  12
   1  -5   8 0.63030 3.11763  14
   1  -5   8 -1.9524 2.63649   4
  -1   5  -8 -5.3902 2.02417   8
   1   5   8 -1.4040 2.09418   6
   1   5   8 -0.5304 2.46439  10
  -1   5  -8 4.52749 2.78103  16
  -1   5  -8 -1.0026 2.63443   3
  -3  -5  -8 100.021 7.45061   5
   3  -5   8 82.5733 7.10782  10
   3  -5   8 98.6438 8.55865   4
  -3  -5  -8 76.5587 8.13564  12
  -3   5  -8 82.7204 8.20658   3
  -3   5  -8 85.2802 9.12959   8
   3   5   8 87.0463 8.17437  10
  10  -6  -8 18.3924 3.75061   5
 -10  -6   8 36.5443 9.49107  15
 -10  -6   8 21.1118 7.01475   2
 -10   6   8 23.9099 7.01056  15
  10   6  -8 31.2997 5.66761   1
 -10   6   8 25.9415 5.21126   2
   8  -6  -8 846.990 21.5057   5
  -8  -6   8 824.153 27.1495   2
  -8   6   8 815.738 27.5689  15
  -8   6   8 832.206 21.1342   6
   8   6  -8 842.247 25.8646   1
  -8   6   8 834.264 25.0400   2
  -6  -6   8 251.758 11.8563  14
  -6  -6   8 243.350 13.1629   2
   6  -6  -8 249.952 9.95656  12
   6  -6  -8 247.675 10.0704   5
  -6   6   8 216.467 9.17000   6
  -6   6   8 245.509 12.5525  15
   6   6  -8 242.894 11.9531   1
   6   6  -8 231.207 9.56292   9
  -6   6   8 246.283 12.1972   2
   4  -6  -8 713.153 18.6726   5
  -4  -6   8 738.083 23.5975   2
   4  -6  -8 679.764 18.9628  16
   4  -6  -8 699.007 18.9046  12
  -4  -6   8 713.902 21.2218  14
   4  -6  -8 691.464 17.6496  11
  -4   6   8 696.293 20.8937   2
  -4   6   8 724.558 18.4332   6
   4   6  -8 737.241 19.0947   9
   4   6  -8 737.098 21.3262   1
  -2  -6   8 260.020 12.5839  14
   2  -6  -8 285.583 11.1142   5
   2  -6  -8 285.144 11.5418  12
  -2  -6   8 295.931 13.7333   2
  -2  -6   8 275.777 11.0664   4
   2  -6  -8 271.048 11.5863  16
  -2   6   8 279.883 10.6370   6
  -2   6   8 278.803 11.7156   2
   2   6  -8 283.152 12.1580   3
   2   6  -8 286.896 10.9521   9
  -2   6   8 280.028 12.6778  10
   0  -6  -8 727.337 20.9564  12
   0  -6   8 652.601 20.7162   2
   0  -6  -8 711.773 19.7021   5
   0  -6  -8 683.778 21.0949  16
   0  -6   8 710.383 21.6820  14
   0  -6   8 722.083 20.3207   4
   0   6   8 701.387 22.1676  10
   0   6  -8 727.741 21.7401   3
   0   6   8 707.585 19.1898   6
  -2  -6  -8 26.7220 5.34059  12
   2  -6   8 27.7677 5.17513  14
   2  -6   8 26.2944 4.58461   4
  -2  -6  -8 23.6344 4.68171   5
  -2   6  -8 27.1943 5.35081   3
  -2   6  -8 24.0283 5.34908   8
   2   6   8 16.6003 4.42977  10
   2   6   8 21.1092 4.25039   6
  -4  -6  -8 502.084 18.9365  12
  -4  -6  -8 525.712 18.0035   5
   4  -6   8 534.851 19.0616   4
  -4   6  -8 504.463 19.4743   3
   4   6   8 464.446 18.9000  10
  -4   6  -8 505.612 20.5131   8
  -9  -7   8 9.04856 6.44041  15
   9  -7  -8 5.98045 2.55238   5
  -9  -7   8 0.68431 4.99697   2
  -9   7   8 3.26782 2.80537   6
   9   7  -8 5.15912 3.95453   1
  -9   7   8 10.8801 5.23693  15
  -9   7   8 3.83506 3.38683   2
  -7  -7   8 117.263 8.27112  14
  -7  -7   8 133.260 11.6913   2
   7  -7  -8 124.296 7.14202  12
   7  -7  -8 140.959 7.59357   5
  -7   7   8 146.531 10.7060  15
   7   7  -8 133.915 7.75317   9
  -7   7   8 140.040 7.81317   6
   7   7  -8 167.499 10.5548   1
  -7   7   8 138.165 9.78719   2
   5  -7  -8 36.8598 4.38391  11
   5  -7  -8 34.7440 4.14151  12
  -5  -7   8 21.7342 6.33742   2
  -5  -7   8 37.4935 5.97902  14
   5  -7  -8 39.3078 4.90350   5
  -5   7   8 38.9429 4.91336   6
  -5   7   8 48.7937 6.64941   2
   5   7  -8 45.3247 6.03370   1
   5   7  -8 43.2317 5.20561   9
   3  -7  -8 155.378 7.99691   5
  -3  -7   8 152.334 8.13342   4
   3  -7  -8 152.257 8.29477  12
  -3  -7   8 149.190 10.7374   2
   3  -7  -8 139.702 7.31748  11
   3  -7  -8 127.869 7.86843  16
  -3  -7   8 152.141 10.0489  14
   3   7  -8 151.000 8.96842   1
  -3   7   8 134.491 7.65872   6
   3   7  -8 147.044 8.19203   9
  -3   7   8 144.230 8.99203   2
  -1  -7   8 385.921 15.8035  14
   1  -7  -8 399.718 13.8619   5
   1  -7  -8 379.940 15.0811  16
  -1  -7   8 378.113 14.2094   4
   1  -7  -8 392.084 14.3283  12
  -1  -7   8 374.537 15.9331   2
   1   7  -8 407.647 15.2104   3
  -1   7   8 381.576 13.4212   6
   1   7  -8 387.231 13.6331   9
  -1   7   8 373.820 15.3155  10
   1  -7   8 94.8037 8.67773  14
   1  -7   8 94.0663 7.44587   4
  -1  -7  -8 102.669 7.68076   5
  -1  -7  -8 93.4942 8.02676  12
  -1   7  -8 98.8221 8.06473   3
   1   7   8 79.7207 7.54822  10
   1   7   8 90.4449 7.25719   6
  -3  -7  -8 334.393 15.2119  12
  -3  -7  -8 321.290 14.0401   5
   3  -7   8 334.669 14.4875   4
   3   7   8 311.813 13.0835   6
   3   7   8 307.390 14.9629  10
  -3   7  -8 330.276 16.3271   8
  -3   7  -8 347.700 15.3524   3
   8  -8  -8 285.814 11.8519   5
  -8  -8   8 288.176 16.6182   2
   8   8  -8 270.003 13.8846   1
  -8   8   8 266.274 15.1613  15
  -8   8   8 278.799 13.8933   2
  -8   8   8 276.997 11.8032   6
  -6  -8   8 15.1336 5.92308   2
  -6  -8   8 18.2709 4.29393  14
   6  -8  -8 15.5389 3.96822   5
   6  -8  -8 16.1964 3.19519  12
   6  -8  -8 9.29261 3.13670  11
  -6   8   8 8.20293 3.33703   6
  -6   8   8 20.8491 4.39489   2
   6   8  -8 12.5350 3.53138   9
   6   8  -8 17.6207 4.62916   1
  -4  -8   8 463.501 17.9642  14
  -4  -8   8 452.020 19.3367   2
   4  -8  -8 437.704 14.4019  11
   4  -8  -8 483.173 15.1851   5
  -4  -8   8 443.630 14.5810   4
   4  -8  -8 428.391 14.2446  12
   4   8  -8 440.869 15.5289   9
  -4   8   8 451.200 16.7253   2
  -4   8   8 452.373 15.0793   6
   4   8  -8 454.131 16.4929   1
   2  -8  -8 99.1425 6.83436  11
   2  -8  -8 99.7617 6.71530  12
   2  -8  -8 97.5162 7.61045   5
  -2  -8   8 98.1425 7.57932   4
   2  -8  -8 86.1258 7.27396  16
  -2  -8   8 95.5979 9.43445  14
  -2  -8   8 87.5534 9.24580   2
  -2   8   8 82.5251 7.34620  10
  -2   8   8 99.4644 7.12120   6
   2   8  -8 92.2562 7.16803   9
   0  -8   8 167.329 11.3186  14
   0  -8  -8 149.823 9.44487  12
   0  -8   8 216.392 13.9836   2
   0  -8   8 155.902 10.1448   4
   0  -8  -8 166.621 9.23306   5
   0   8  -8 161.512 9.79385   3
   0   8  -8 160.274 9.37586   9
   0   8   8 158.717 10.2042  10
   0   8   8 176.378 9.55452   6
  -2  -8  -8 39.7905 6.04537   5
  -2  -8  -8 36.5174 5.53604  12
   2  -8   8 41.0751 5.94908   4
   2   8   8 31.1438 5.95636  10
   2   8   8 43.2298 5.45678   6
  -2   8  -8 41.5165 5.47573   9
   7  -9  -8 2.53756 2.94431  11
  -7  -9   8 5.55072 4.13859   2
  -7  -9   8 -5.3607 3.36861  14
   7  -9  -8 0.79196 2.79895   5
   7   9  -8 0.35972 2.72996   9
  -7   9   8 5.95101 3.53075   6
  -7   9   8 4.19021 3.77935   2
   7   9  -8 -1.4137 1.94720   1
   5  -9  -8 45.7940 5.13085  11
  -5  -9   8 67.1898 9.13974   2
  -5  -9   8 31.8030 5.76691  14
   5  -9  -8 47.7453 5.27949   5
  -5   9   8 46.5446 5.92115   6
   5   9  -8 36.1435 5.76423   1
   5   9  -8 45.9309 5.94428   9
  -5   9   8 60.6611 7.39017   2
  -3  -9   8 35.9618 5.17442   4
  -3  -9   8 34.8480 6.73132  14
   3  -9  -8 31.8382 5.04944   5
   3  -9  -8 35.0879 4.62895  12
   3  -9  -8 41.2902 5.06011  11
  -3   9   8 40.6257 6.13812  10
   3   9  -8 30.0619 4.75525   9
  -3   9   8 44.0472 5.63993   6
  -1  -9   8 28.9012 6.05602  14
  -1  -9   8 19.6855 4.91382   4
   1  -9  -8 18.4819 4.21140  12
   1  -9  -8 16.5211 4.41377   5
   1  -9  -8 20.4053 4.10757  11
   1   9  -8 21.8763 4.60992   9
  -1   9   8 23.8013 4.76432   6
  -1  -9  -8 91.5336 7.99731  12
   1  -9   8 119.974 9.55328   4
   1  -9   8 103.857 9.55758  14
  -1  -9  -8 94.1250 8.51982   5
   1   9   8 104.379 8.28299   6
  -1   9  -8 97.7909 7.61348   9
   6 -10  -8 268.543 11.6524  11
  -6 -10   8 246.466 14.2716  14
  -6 -10   8 262.739 15.8970   2
   6 -10  -8 252.371 11.1467   5
  -6  10   8 255.405 12.1993   6
   6  10  -8 251.004 13.1630   1
   6  10  -8 273.757 12.9064   9
  -4 -10   8 53.3834 7.65968  14
  -4 -10   8 69.6431 9.32887   2
   4 -10  -8 76.1385 7.17827   5
   4 -10  -8 74.5226 6.64727  11
  -4  10   8 54.3813 6.63654  10
  -4  10   8 70.6038 7.14273   6
   4  10  -8 87.2190 8.39478   9
  -2 -10   8 405.601 18.0777  14
   2 -10  -8 411.868 15.4958   5
  -2 -10   8 427.109 15.9384   4
   2 -10  -8 418.703 15.5510  11
  -2  10   8 409.511 15.4424   6
   2  10  -8 412.049 16.2572   9
  -2  10   8 393.533 16.4968  10
   0 -10  -8 134.186 8.84934   5
   0 -10   8 137.830 10.9910  14
   0 -10   8 133.553 10.3258   4
   0 -10  -8 141.319 9.19558  11
   0  10  -8 141.994 9.67571   9
   0  10   8 123.651 9.08179   6
   5 -11  -8 157.863 9.55979  11
  -5 -11   8 171.492 12.3716  14
   5 -11  -8 156.491 9.10312   5
  -5 -11   8 172.339 14.2512   2
   5  11  -8 152.171 9.85551   9
  -5  11   8 161.057 10.2059   6
   3 -11  -8 123.777 8.73408  11
  -3 -11   8 115.473 8.89766   4
  -3 -11   8 117.257 10.1006  14
   3 -11  -8 111.424 8.57161   5
   3  11  -8 130.363 9.63306   9
  -3  11   8 112.622 8.79402   6
   1 -11  -8 106.813 10.5215  11
   1  11  -8 103.771 8.82272   9
 -12   0   9 6.74368 6.58802   8
 -12   0   9 -5.6096 6.76746  15
 -10   0   9 5.15958 4.86511  15
 -10   0   9 3.57582 4.74573   8
  10   0  -9 1.55158 2.60629   1
 -10   0   9 -2.0149 4.27956   2
  -8   0   9 -1.7827 4.93030  15
  -8   0   9 0.74145 4.17710   2
   8   0  -9 0.29537 1.39735   5
   8   0  -9 1.90625 2.24853   1
  -6   0   9 1.58799 1.88771  14
  -6   0   9 -0.4177 3.74349   2
  -6   0   9 -0.6073 3.54601  15
   6   0  -9 5.11241 2.23194  12
   4   0  -9 -0.5963 1.88470  12
   4   0  -9 2.12421 2.11416   3
  -4   0   9 3.92723 3.59630   2
  -4   0   9 -0.9812 2.46959  15
  -4   0   9 -0.8390 2.45937  14
  -4   0   9 0.58531 1.75159  10
  -2   0   9 6.04264 2.54164  10
   2   0  -9 1.08759 2.16310  12
   2   0  -9 -0.4645 1.59230  16
  -2   0   9 1.16602 2.72315  14
   2   0  -9 -0.5917 1.48225   3
  -2   0   9 -0.7637 2.76676   2
  -2   0   9 -1.0614 1.40737   4
   0   0  -9 3.28841 2.73292  12
   0   0   9 0.50925 2.67964  14
   0   0   9 1.82439 2.48364  10
   0   0  -9 1.73104 2.61280  16
   0   0   9 -1.9270 2.06109   4
   0   0  -9 1.45789 2.91033   3
   2   0   9 3.13767 2.65586   4
  -2   0  -9 -0.3272 3.23770   3
   2   0   9 -0.1433 2.02672  14
   2   0   9 2.77489 2.34475  10
  -2   0  -9 2.06423 3.03457  12
  -4   0  -9 -2.3235 2.99682  12
   4   0   9 4.13326 3.46322  10
  -4   0  -9 1.84337 3.77398   3
 -11  -1   9 62.9690 8.30870   2
 -11  -1   9 71.9199 10.6615   8
 -11  -1   9 81.4158 11.8853  15
 -11   1   9 56.9756 9.37444   8
 -11   1   9 70.8192 11.8455  15
 -11   1   9 54.6805 7.38863   2
  11   1  -9 65.9618 7.51894   1
   9  -1  -9 158.295 9.18079   1
   9  -1  -9 159.229 7.41707   5
  -9  -1   9 168.030 12.0354   2
  -9  -1   9 162.420 14.4880  15
   9   1  -9 167.773 9.93228   1
  -9   1   9 149.968 14.0630  15
  -9   1   9 164.880 11.2329   2
  -7  -1   9 106.551 10.0245   2
   7  -1  -9 110.709 7.28937   1
   7  -1  -9 95.0157 5.12811   5
  -7  -1   9 90.2854 6.62158  14
  -7  -1   9 90.0248 9.85858  15
   7  -1  -9 93.7974 6.01317  12
   7   1  -9 94.3291 6.90692   1
  -7   1   9 102.783 9.68740   2
   7   1  -9 100.957 6.34019  12
  -7   1   9 96.9242 6.36695  14
  -7   1   9 86.1388 9.78662  15
  -5  -1   9 334.310 12.6552  14
  -5  -1   9 352.810 14.6696   2
   5  -1  -9 320.592 9.45603   5
   5  -1  -9 351.722 11.8945  12
  -5  -1   9 343.660 15.1985  15
   5   1  -9 341.437 11.1929  12
  -5   1   9 303.290 13.6360  15
  -5   1   9 333.532 12.3370  14
  -5   1   9 318.299 13.5856   2
  -3  -1   9 176.618 9.87022   2
  -3  -1   9 168.465 9.20479  14
   3  -1  -9 161.104 7.42106  16
   3  -1  -9 151.285 6.21109   5
   3  -1  -9 166.848 8.15384  12
   3  -1  -9 169.417 8.70060   3
  -3  -1   9 157.584 6.97745   4
  -3  -1   9 160.130 8.17016  10
   3   1  -9 167.330 7.75528  12
   3   1  -9 161.997 7.39109  16
  -3   1   9 196.278 9.93165   2
   3   1  -9 163.801 8.63511   3
  -3   1   9 160.502 8.73912  10
  -3   1   9 162.780 8.48638  14
   1  -1  -9 109.309 7.10424  16
   1  -1  -9 101.742 6.88743  12
  -1  -1   9 112.198 8.12864  14
   1  -1  -9 101.500 5.40679   5
   1  -1  -9 109.972 7.80356   3
  -1  -1   9 94.8064 7.40236   2
  -1  -1   9 111.383 6.71583   4
  -1  -1   9 116.265 7.69386  10
   1   1  -9 100.542 6.66670  16
  -1   1   9 101.147 7.19261  10
  -1   1   9 120.694 7.85350  14
   1   1  -9 103.034 6.54747  12
   1   1  -9 114.035 8.13796   3
  -1   1   9 96.0219 6.82710   2
   1  -1   9 192.541 10.7037  10
   1  -1   9 211.949 10.1846  14
  -1  -1  -9 195.728 11.2896   3
  -1  -1  -9 201.940 9.85797  12
   1  -1   9 210.923 10.2866   4
  -1  -1  -9 192.299 10.3915  16
  -1   1  -9 200.122 9.56358  12
   1   1   9 200.739 10.5222  14
  -1   1  -9 187.821 11.3041   3
  -1   1  -9 183.250 9.69092  16
   1   1   9 194.239 11.0840  10
   3  -1   9 4.72195 2.30031   4
   3  -1   9 0.42489 2.76675  10
  -3  -1  -9 5.49575 4.29550   3
  -3  -1  -9 6.31839 3.73244  12
  -3   1  -9 1.66894 3.32796  12
   3   1   9 2.47976 3.15034  10
  -3   1  -9 2.02729 3.93891   3
  10  -2  -9 193.994 9.00250   5
 -10  -2   9 214.986 17.0955  15
 -10  -2   9 179.828 12.6872   2
 -10   2   9 181.527 11.8348   2
 -10   2   9 170.496 15.1428  15
 -10   2   9 200.911 13.8914   8
  10   2  -9 190.967 11.4713   1
  -8  -2   9 383.375 19.6841  15
   8  -2  -9 350.676 11.3745   5
   8  -2  -9 349.046 12.5547  12
   8  -2  -9 350.028 13.3828   1
  -8  -2   9 347.993 16.3150   2
   8   2  -9 312.858 13.7122   1
  -8   2   9 346.465 14.8436   2
  -8   2   9 362.550 18.0236  15
  -6  -2   9 385.053 17.3281  15
  -6  -2   9 354.074 13.2124  14
  -6  -2   9 349.167 15.5174   2
   6  -2  -9 377.107 10.9932   5
   6  -2  -9 380.965 12.7368  12
  -6   2   9 384.008 15.2656   2
   6   2  -9 370.219 12.1696  12
   6   2  -9 381.818 14.4530   1
  -6   2   9 352.635 15.8788  15
  -6   2   9 375.563 13.0837  14
   4  -2  -9 321.800 11.5748  12
  -4  -2   9 337.516 13.1152  14
   4  -2  -9 314.548 11.6652   3
  -4  -2   9 316.056 11.4703  10
  -4  -2   9 305.110 13.6402   2
   4  -2  -9 306.566 9.72985   5
  -4   2   9 311.207 12.8600   2
  -4   2   9 326.170 12.2724  14
   4   2  -9 315.447 12.6381   3
   4   2  -9 308.948 10.5557  12
   2  -2  -9 501.727 15.1693  16
   2  -2  -9 522.282 15.9833  12
  -2  -2   9 525.959 16.8444   2
  -2  -2   9 551.917 15.0534   4
  -2  -2   9 533.181 16.6055  10
  -2  -2   9 541.717 17.3086  14
   2  -2  -9 507.684 16.1765   3
   2  -2  -9 516.073 13.8403   5
  -2   2   9 528.932 17.6659  10
   2   2  -9 510.327 14.6110  12
  -2   2   9 521.148 13.2123   6
  -2   2   9 520.217 16.0170   2
   2   2  -9 514.973 15.4304  16
  -2   2   9 532.128 16.7699  14
   2   2  -9 532.463 17.5165   3
   0  -2  -9 343.422 13.2779  12
   0  -2   9 365.307 13.1168   4
   0  -2  -9 334.633 13.0056  16
   0  -2  -9 328.205 13.6663   3
   0  -2  -9 321.054 11.0898   5
   0  -2   9 343.155 13.8998  14
   0  -2   9 352.605 13.9621  10
   0   2   9 349.583 10.9008   6
   0   2  -9 337.862 13.1554  16
   0   2   9 349.861 14.8487  10
   0   2  -9 358.198 14.7430   3
   0   2  -9 322.093 11.5826  12
   0   2   9 364.020 13.9558  14
   2  -2   9 341.419 14.8099  10
   2  -2   9 318.162 13.0073  14
   2  -2   9 361.393 14.2271   4
  -2  -2  -9 334.573 15.5009   3
  -2  -2  -9 336.218 12.0653   5
  -2  -2  -9 328.983 14.2324  12
  -2   2  -9 339.038 12.7190  12
  -2   2  -9 365.336 16.1534   3
   2   2   9 352.096 13.9795  14
   2   2   9 329.439 15.2406  10
   4  -2   9 291.327 13.7693   4
  -4  -2  -9 299.399 15.7706   3
  -4  -2  -9 283.094 14.0451  12
   4  -2   9 285.132 14.4081  10
  -4   2  -9 270.084 15.0959   3
   4   2   9 269.661 14.4132  10
 -11  -3   9 37.8902 10.0737  15
 -11  -3   9 43.1531 7.50422   2
  11  -3  -9 51.0759 5.51222   5
 -11   3   9 53.7284 9.31092  15
  11   3  -9 54.9394 7.69212   1
 -11   3   9 43.7244 6.87842   2
  -9  -3   9 655.539 23.2381   2
   9  -3  -9 686.942 18.4439   5
  -9  -3   9 676.911 28.0433  15
  -9   3   9 723.675 23.2456   2
   9   3  -9 735.028 23.2457   1
  -9   3   9 689.590 26.7096  15
  -7  -3   9 200.586 12.7826   2
  -7  -3   9 219.020 10.3544  14
   7  -3  -9 213.816 9.58016  12
   7  -3  -9 183.042 9.00164   1
  -7  -3   9 215.263 14.2077  15
   7  -3  -9 204.601 8.36040   5
   7   3  -9 223.978 11.3475   1
  -7   3   9 218.860 11.8408   2
  -7   3   9 192.296 12.7757  15
  -7   3   9 196.160 8.89803  14
   5  -3  -9 1104.39 25.6697  12
  -5  -3   9 1083.76 27.1751  14
  -5  -3   9 1107.36 29.6255   2
   5  -3  -9 1070.47 23.4032   5
  -5   3   9 1077.75 27.8926   2
  -5   3   9 1035.03 27.5775  15
   5   3  -9 1119.01 24.5318  12
  -5   3   9 1097.21 26.2727  14
   5   3  -9 1082.42 23.4546   9
   3  -3  -9 95.0428 6.06078  16
  -3  -3   9 102.485 8.70826   2
   3  -3  -9 108.636 6.06523   5
   3  -3  -9 87.0837 6.13865   3
   3  -3  -9 92.9544 6.69679  12
  -3  -3   9 101.079 5.89254   4
  -3  -3   9 112.851 8.36604  14
  -3  -3   9 98.1535 6.26368  10
   3   3  -9 109.522 5.98797  12
  -3   3   9 97.1988 7.16056  14
  -3   3   9 108.757 5.64576   6
   3   3  -9 98.3897 6.03051  16
  -3   3   9 112.036 7.69362   2
   3   3  -9 110.475 7.60417   3
  -3   3   9 93.5612 7.38403  10
  -1  -3   9 952.732 23.4118   4
  -1  -3   9 968.004 25.8575  14
  -1  -3   9 948.582 24.6106   2
  -1  -3   9 988.606 24.9203  10
   1  -3  -9 982.603 25.2051   3
   1  -3  -9 969.754 24.6811  12
   1  -3  -9 919.032 24.2699  16
   1  -3  -9 969.328 22.5774   5
  -1   3   9 977.601 25.3858  14
   1   3  -9 1011.10 26.6915   3
  -1   3   9 932.838 26.4013  10
  -1   3   9 945.664 21.5667   6
   1   3  -9 940.054 24.2786  16
   1   3  -9 961.409 22.1081  12
  -1  -3  -9 1.94312 3.06511   3
   1  -3   9 0.71936 1.82332   4
  -1  -3  -9 -1.0225 2.12957   5
  -1  -3  -9 1.01385 2.15048  16
   1  -3   9 -0.1042 2.65453  10
   1  -3   9 0.70904 3.07997  14
  -1  -3  -9 -0.4092 2.97131  12
  -1   3  -9 -2.6110 2.24776  16
   1   3   9 4.07454 2.96202  14
   1   3   9 -0.8180 2.16191   6
   1   3   9 -0.9469 2.35882  10
  -1   3  -9 1.29292 2.44256   8
  -1   3  -9 -1.8973 1.52210   3
  -3  -3  -9 358.014 15.5044  12
  -3  -3  -9 332.859 12.9250   5
   3  -3   9 350.193 14.5021   4
   3  -3   9 364.258 15.7030  10
  -3  -3  -9 363.774 16.5373   3
  -3   3  -9 342.861 15.1086   8
   3   3   9 345.075 16.0778  10
  -3   3  -9 360.788 16.7694   3
 -10  -4   9 191.003 13.7505   2
  10  -4  -9 204.702 9.71775   5
 -10  -4   9 207.318 17.0369  15
 -10   4   9 195.900 12.0765   2
 -10   4   9 208.201 15.5361  15
  10   4  -9 208.289 12.0522   1
   8  -4  -9 629.300 18.3433  12
  -8  -4   9 641.466 26.4088  15
  -8  -4   9 639.659 23.1199   2
   8  -4  -9 608.201 16.9182   5
   8   4  -9 636.940 21.3477   1
  -8   4   9 591.556 21.0813   2
  -8   4   9 621.047 23.6813  15
   6  -4  -9 692.614 17.8553   5
   6  -4  -9 689.902 18.9705  12
  -6  -4   9 719.277 20.8267  14
  -6  -4   9 698.279 23.4896   2
  -6   4   9 671.148 22.0596  15
  -6   4   9 715.205 19.6265  14
   6   4  -9 688.689 17.4758   9
  -6   4   9 714.891 22.0706   2
   6   4  -9 731.785 22.1288   1
  -4  -4   9 487.208 16.8965  14
   4  -4  -9 486.249 13.9245   5
   4  -4  -9 493.368 15.3651  12
  -4  -4   9 480.452 17.8302   2
  -4   4   9 467.412 13.1374   6
  -4   4   9 482.635 16.7657   2
  -4   4   9 464.633 15.3417  14
   4   4  -9 474.702 13.8259   9
   4   4  -9 467.541 13.2193  12
  -2  -4   9 705.830 21.0588  14
   2  -4  -9 718.812 18.6334   5
   2  -4  -9 718.780 19.4468   3
   2  -4  -9 759.166 20.6428  12
  -2  -4   9 712.271 18.9559   4
   2  -4  -9 681.500 19.6357  16
  -2  -4   9 724.457 21.6730   2
  -2   4   9 719.290 17.9724   6
  -2   4   9 701.836 19.9502   2
  -2   4   9 730.145 22.0389  10
   2   4  -9 737.162 21.8014   3
   2   4  -9 730.218 20.1990  16
  -2   4   9 725.703 20.6483  14
   0  -4   9 205.457 10.0390  10
   0  -4   9 194.989 10.6749  14
   0  -4   9 219.977 10.6446   4
   0  -4  -9 206.594 10.7349  12
   0  -4  -9 195.412 10.5443  16
   0  -4  -9 203.583 10.3165   3
   0  -4  -9 212.221 9.46993   5
   0   4   9 224.835 11.1656  14
   0   4  -9 205.784 11.4737   3
   0   4   9 213.504 9.01833   6
   0   4   9 203.661 11.6708  10
   0   4  -9 198.805 10.0524  16
  -2  -4  -9 146.818 8.17280   5
   2  -4   9 146.701 9.40373  10
  -2  -4  -9 147.541 10.3937  12
   2  -4   9 166.031 9.98953   4
  -2  -4  -9 145.103 9.88046   3
   2  -4   9 165.088 10.0561  14
   2   4   9 148.506 10.5062  10
  -2   4  -9 153.142 10.2226   8
  -2   4  -9 149.333 10.6253   3
   4  -4   9 82.2869 7.97702  10
  -4  -4  -9 82.7716 9.54595   3
  -4  -4  -9 99.7048 8.41126  12
   4  -4   9 100.559 8.80844   4
  -4  -4  -9 94.5141 7.51079   5
  -4   4  -9 118.743 10.1769   3
  -4   4  -9 96.7228 8.79534   8
   4   4   9 91.7896 8.77695  10
 -11  -5   9 92.8522 10.7365   2
 -11  -5   9 105.784 13.5659  15
  11  -5  -9 94.2298 7.14829   5
 -11   5   9 103.725 8.97951   2
 -11   5   9 113.758 11.0278  15
  11   5  -9 91.2775 9.88695   1
   9  -5  -9 54.8787 5.43997   5
  -9  -5   9 55.7728 9.26787   2
  -9  -5   9 64.2672 11.4406  15
  -9   5   9 54.5567 7.43918   2
  -9   5   9 55.2595 8.76199  15
   9   5  -9 55.7586 7.36015   1
  -7  -5   9 376.170 17.7660   2
   7  -5  -9 392.261 12.8463   5
  -7  -5   9 389.803 15.0445  14
   7  -5  -9 378.966 13.5161  12
   7   5  -9 420.776 16.7736   1
  -7   5   9 396.037 16.4593   2
  -7   5   9 387.483 16.6433  15
  -5  -5   9 133.032 10.4244   2
   5  -5  -9 95.2892 6.39969   5
  -5  -5   9 101.693 7.74069  14
   5  -5  -9 109.065 7.20704  12
   5   5  -9 99.9475 6.29759   9
  -5   5   9 101.696 8.52179   2
   5   5  -9 116.182 8.50408   1
  -5   5   9 107.921 6.24655   6
  -3  -5   9 370.895 15.8719   2
   3  -5  -9 376.473 11.6616  11
   3  -5  -9 366.060 13.3463  12
   3  -5  -9 368.939 12.7424   5
  -3  -5   9 353.958 14.9082  14
   3  -5  -9 350.687 12.8991  16
  -3  -5   9 355.947 12.2381   4
  -3   5   9 369.067 11.9939   6
  -3   5   9 377.319 13.9873  14
  -3   5   9 403.132 15.8185  10
   3   5  -9 392.368 14.9865   3
  -3   5   9 371.610 14.2558   2
  -1  -5   9 0.06226 3.26560   2
  -1  -5   9 -0.9593 2.87600   4
  -1  -5   9 2.10011 3.78764  14
   1  -5  -9 -0.1842 2.47804  16
   1  -5  -9 0.88273 3.00078  12
   1  -5  -9 3.51012 2.78191   5
  -1   5   9 1.54630 2.24807   6
  -1   5   9 5.54885 3.25367  10
   1   5  -9 5.12400 3.24907   3
  -1  -5  -9 121.739 7.88479   5
  -1  -5  -9 123.779 9.22768  12
   1  -5   9 104.942 9.02749  14
   1  -5   9 116.767 8.73164   4
   1   5   9 106.352 7.16558   6
   1   5   9 120.576 8.93024  10
  -1   5  -9 111.002 8.56835   3
  -3  -5  -9 3.08736 3.08950  12
   3  -5   9 7.41091 3.21018   4
   3  -5   9 9.39622 5.06864  10
  -3  -5  -9 4.85193 2.61804   5
   3   5   9 3.64528 3.37619  10
  -3   5  -9 11.7910 4.62647   3
  -3   5  -9 8.29941 4.05947   8
  10  -6  -9 395.038 14.2485   5
 -10  -6   9 404.012 23.8660  15
 -10  -6   9 380.993 18.9792   2
 -10   6   9 390.850 16.9561   2
 -10   6   9 369.998 19.6109  15
  10   6  -9 362.340 17.3809   1
   8  -6  -9 248.373 10.7825  12
  -8  -6   9 256.305 14.8403   2
   8  -6  -9 250.186 10.3856   5
  -8   6   9 254.445 14.9567  15
   8   6  -9 243.150 13.4221   1
  -8   6   9 260.832 13.5719   2
  -6  -6   9 364.270 17.0833   2
   6  -6  -9 398.126 13.6165  12
   6  -6  -9 415.435 13.6991   5
  -6  -6   9 378.838 15.5160  14
   6   6  -9 377.401 13.1490   9
  -6   6   9 394.257 12.9271   6
  -6   6   9 379.007 15.5398   2
   6   6  -9 367.048 15.6511   1
   4  -6  -9 647.552 18.4990  11
   4  -6  -9 609.350 17.6498   5
  -4  -6   9 640.632 21.1608  14
  -4  -6   9 647.904 22.6556   2
   4  -6  -9 638.133 18.3964  12
   4   6  -9 634.277 18.0793   9
  -4   6   9 626.695 17.3115   6
   4   6  -9 684.142 21.2781   1
  -4   6   9 620.581 20.1873   2
  -2  -6   9 142.240 10.1693  14
  -2  -6   9 147.574 8.62849   4
   2  -6  -9 143.017 8.23952   5
   2  -6  -9 126.710 8.35314  16
  -2  -6   9 146.908 10.5021   2
   2  -6  -9 131.547 8.61059  12
  -2   6   9 152.493 8.78282   2
  -2   6   9 123.504 7.47464   6
   2   6  -9 146.262 9.52171   3
  -2   6   9 131.976 8.97343  10
   0  -6   9 294.030 14.0314  14
   0  -6  -9 277.306 11.8478   5
   0  -6  -9 271.241 12.7575  12
   0  -6   9 279.271 12.7547   4
   0   6   9 297.520 11.8561   6
   0   6  -9 277.554 13.4718   3
   0   6   9 277.333 14.1063  10
   2  -6   9 78.2274 8.29713   4
  -2  -6  -9 69.6938 7.19427   5
  -2  -6  -9 76.1844 8.26158  12
  -2   6  -9 71.5812 8.18999   3
   2   6   9 70.8844 6.75889   6
   2   6   9 68.6463 7.96635  10
  -9  -7   9 56.3871 10.6283  15
   9  -7  -9 64.1174 6.12557   5
  -9  -7   9 55.9793 9.68868   2
  -9   7   9 45.7042 8.01130  15
   9   7  -9 56.7270 7.88960   1
  -9   7   9 47.7239 7.15011   2
  -7  -7   9 239.441 15.5922   2
   7  -7  -9 244.628 10.4887  12
  -7  -7   9 260.681 13.0338  14
   7  -7  -9 238.329 10.4912   5
   7   7  -9 238.496 12.8674   1
  -7   7   9 259.212 13.0782   2
  -7   7   9 248.365 10.5551   6
   7   7  -9 230.954 10.5445   9
  -5  -7   9 110.325 9.67731  14
   5  -7  -9 109.145 7.24732  12
  -5  -7   9 128.151 11.1376   2
   5  -7  -9 122.859 7.78890   5
   5   7  -9 104.951 7.35664   9
  -5   7   9 111.234 9.08961   2
   5   7  -9 124.130 9.07324   1
  -5   7   9 108.404 7.18151   6
  -3  -7   9 466.692 18.4134  14
   3  -7  -9 444.226 15.9814  16
   3  -7  -9 483.572 15.7084   5
   3  -7  -9 471.934 15.8738  12
  -3  -7   9 450.751 18.8594   2
  -3  -7   9 453.299 14.9551   4
   3  -7  -9 465.592 14.7331  11
  -3   7   9 443.006 17.6578  10
  -3   7   9 442.816 14.8217   6
  -3   7   9 481.699 17.0491   2
   3   7  -9 465.660 16.8850   1
   3   7  -9 451.032 15.5195   9
  -1  -7   9 -2.6487 3.61676   2
  -1  -7   9 1.05486 4.05889  14
   1  -7  -9 1.63173 2.35725   5
   1  -7  -9 0.15478 2.95560  12
  -1  -7   9 1.20094 2.44737   4
  -1   7   9 3.18962 2.95541   6
  -1   7   9 0.61451 1.78086  10
   1   7  -9 1.15136 1.90975   9
   1   7  -9 0.80253 2.54041   3
  -1  -7  -9 497.201 16.7120   5
   1  -7   9 485.321 18.4435  14
  -1  -7  -9 473.991 17.5219  12
   1  -7   9 472.851 17.2307   4
   1   7   9 473.121 18.8849  10
  -1   7  -9 481.135 18.6275   3
   1   7   9 459.189 15.8690   6
   8  -8  -9 54.7619 5.96782   5
  -8  -8   9 48.4459 8.49781   2
  -8   8   9 43.1873 5.58485   6
  -8   8   9 49.8500 7.48335   2
   8   8  -9 51.1097 7.62638   1
  -6  -8   9 98.2519 9.42088  14
  -6  -8   9 119.285 12.3846   2
   6  -8  -9 97.8610 6.54975  12
   6  -8  -9 96.2910 7.46203   5
  -6   8   9 100.875 9.79370   2
  -6   8   9 106.317 7.43109   6
   6   8  -9 108.455 7.80486   9
   6   8  -9 107.217 8.50562   1
   4  -8  -9 317.874 12.5567  12
   4  -8  -9 323.607 12.1759  11
   4  -8  -9 342.174 12.8800   5
  -4  -8   9 328.123 16.9264   2
  -4  -8   9 313.480 15.4197  14
   4   8  -9 334.508 14.3922   1
  -4   8   9 332.348 12.8223   6
  -4   8   9 297.338 14.4403  10
  -4   8   9 338.333 14.7415   2
   4   8  -9 341.402 13.8387   9
   2  -8  -9 65.7311 7.05415  12
  -2  -8   9 47.3667 5.66297   4
   2  -8  -9 55.3248 6.08843  11
  -2  -8   9 55.3976 8.04644   2
   2  -8  -9 71.4890 7.45479   5
  -2  -8   9 51.2559 7.66570  14
  -2   8   9 56.2220 6.15199   6
  -2   8   9 58.4390 7.59882  10
   2   8  -9 67.0541 6.80109   9
   0  -8   9 367.745 16.6194  14
   0  -8  -9 347.962 14.0335   5
   0  -8  -9 347.018 14.6079  12
   0  -8   9 363.330 15.1853   4
   0   8  -9 360.265 14.6336   9
   0   8   9 348.848 16.1750  10
   0   8   9 364.222 14.2620   6
   0   8  -9 368.463 15.5404   3
  -7  -9   9 40.4407 8.45167   2
  -7  -9   9 59.1695 7.25569  14
   7  -9  -9 56.3243 5.86229   5
  -7   9   9 53.3579 6.27749   6
  -7   9   9 52.8310 7.35462   2
   7   9  -9 41.1188 6.75020   1
   7   9  -9 59.1704 6.82833   9
   5  -9  -9 353.548 13.8466   5
  -5  -9   9 390.593 17.3852  14
  -5  -9   9 380.847 19.1756   2
   5  -9  -9 345.000 13.1086  11
  -5   9   9 361.207 13.9690   6
   5   9  -9 361.727 14.4709   9
   5   9  -9 358.629 15.6029   1
  -5   9   9 379.103 15.8815   2
   3  -9  -9 3.49217 2.18367  11
   3  -9  -9 8.29660 3.08392  12
  -3  -9   9 14.8233 5.66808   2
  -3  -9   9 4.93553 3.70755   4
  -3  -9   9 7.83903 4.99123  14
   3  -9  -9 7.29368 3.71834   5
   3   9  -9 6.27700 3.28773   9
  -3   9   9 13.8661 4.00867   6
  -3   9   9 7.22104 3.22712  10
  -1  -9   9 153.520 11.8285  14
   1  -9  -9 154.364 9.60618  12
  -1  -9   9 170.330 12.1874   2
   1  -9  -9 164.628 9.57929  11
   1  -9  -9 161.355 9.89743   5
  -1  -9   9 149.101 9.98362   4
   1   9  -9 152.947 9.49573   9
  -1   9   9 153.589 9.56793   6
  -1   9   9 151.358 10.5408  10
   6 -10  -9 -1.2096 3.49802   5
  -6 -10   9 14.2074 5.38222  14
  -6  10   9 -0.9617 3.08062   6
   6  10  -9 0.83003 3.69856   1
   6  10  -9 3.77808 3.18354   9
  -4 -10   9 42.7705 7.77115  14
   4 -10  -9 58.9384 6.51571  11
   4 -10  -9 50.0592 6.24584   5
  -4 -10   9 68.6405 10.1379   2
  -4  10   9 54.2735 6.53932   6
   4  10  -9 55.6588 6.92599   9
  -4  10   9 51.5225 7.21559  10
   2 -10  -9 22.4096 5.13596   5
  -2 -10   9 25.9804 6.62004   2
  -2 -10   9 14.6542 3.87253   4
   2 -10  -9 20.0187 3.84847  11
  -2 -10   9 24.8526 6.24979  14
   2  10  -9 22.0345 4.99188   9
  -2  10   9 10.1727 4.02554  10
  -2  10   9 17.0992 4.41716   6
  10   0 -10 1248.30 32.8136   1
 -10   0  10 1347.43 41.8060  15
 -10   0  10 1275.27 35.0426   2
   8   0 -10 0.74375 2.43965   1
  -8   0  10 3.44416 5.31551  15
  -8   0  10 10.9938 5.23526   2
   6   0 -10 1167.64 26.9916  12
  -6   0  10 1187.04 28.3698  14
  -6   0  10 1173.05 31.1271   2
  -6   0  10 1106.02 32.1678  15
  -4   0  10 30.5994 5.78535   2
  -4   0  10 32.0457 4.73958  10
  -4   0  10 43.3623 5.51908  14
   4   0 -10 39.0281 4.82425  12
   4   0 -10 40.0031 5.40763   3
   2   0 -10 339.133 14.1213   3
  -2   0  10 325.741 13.7592  10
   2   0 -10 348.016 12.7216  12
  -2   0  10 326.500 13.3771  14
   2   0 -10 345.142 12.5657  16
  -2   0  10 322.472 12.9777   2
   0   0  10 159.009 9.84517  14
   0   0 -10 134.592 8.37151  12
   0   0  10 136.049 9.22003  10
   0   0 -10 129.050 9.08046   3
   0   0 -10 141.605 8.93899  16
   0   0  10 150.985 8.78079   4
   2   0  10 220.977 12.6976  10
  -2   0 -10 225.818 11.3849  12
   2   0  10 214.742 11.4051  14
  -2   0 -10 216.523 13.0872   3
 -11  -1  10 213.606 16.4596  15
 -11  -1  10 228.446 13.9721   2
 -11  -1  10 203.520 15.9446   8
 -11   1  10 200.240 16.7059  15
 -11   1  10 219.287 13.3760   2
 -11   1  10 155.454 13.9718   8
  11   1 -10 222.213 12.3702   1
  -9  -1  10 143.444 12.6506   2
  -9  -1  10 106.388 11.9736  15
   9  -1 -10 103.347 7.96329   1
  -9   1  10 121.270 11.7055  15
   9   1 -10 104.916 8.54129   1
  -9   1  10 112.767 10.8912   2
   7  -1 -10 20.5920 4.05800   1
   7  -1 -10 29.5183 4.52261  12
  -7  -1  10 16.6351 6.07896   2
  -7  -1  10 24.1166 6.58673  15
  -7  -1  10 23.5582 4.42797  14
   7   1 -10 27.0131 4.21299  12
  -7   1  10 28.4797 6.40646   2
  -7   1  10 17.5414 3.66585  14
  -7   1  10 20.4797 6.53283  15
   7   1 -10 21.2070 4.33123   1
  -5  -1  10 390.741 14.2493  10
   5  -1 -10 404.485 13.5849  12
  -5  -1  10 387.266 14.8925  14
  -5  -1  10 404.971 16.5655   2
  -5  -1  10 388.130 16.9658  15
  -5   1  10 408.319 16.2575   2
  -5   1  10 404.084 15.1161  10
   5   1 -10 415.190 13.3578  12
  -5   1  10 406.110 14.6381  14
  -3  -1  10 0.84637 2.20977  10
   3  -1 -10 4.36762 2.21351  16
  -3  -1  10 -0.1652 3.62989   2
  -3  -1  10 1.14903 3.39081  14
  -3  -1  10 2.13454 1.86393   4
   3  -1 -10 4.40706 2.81785  12
   3  -1 -10 6.21629 2.93462   3
   3   1 -10 3.99445 2.37908  12
  -3   1  10 0.51968 2.69252  10
  -3   1  10 8.38856 3.52646  14
   3   1 -10 1.35747 1.91137  16
   3   1 -10 1.69411 2.49803   3
  -3   1  10 1.16850 3.53532   2
   1  -1 -10 121.376 8.37062   3
  -1  -1  10 136.187 9.34696  14
  -1  -1  10 133.854 7.83871   4
   1  -1 -10 122.201 7.51936  12
   1  -1 -10 114.424 7.72415  16
  -1  -1  10 114.809 8.27872  10
  -1   1  10 129.016 9.34324  10
   1   1 -10 125.913 8.05300  16
   1   1 -10 128.355 7.64252  12
   1   1 -10 145.907 9.67127   3
  -1   1  10 130.467 8.94945  14
   1  -1  10 91.1200 8.18249  10
  -1  -1 -10 92.5426 7.72759  12
   1  -1  10 104.841 8.29401  14
  -1  -1 -10 98.8652 8.28395   3
   1  -1  10 97.1466 7.82763   4
  -1   1 -10 93.4799 7.08868  12
  -1   1 -10 115.057 9.54831   3
   1   1  10 114.024 8.02658  14
   1   1  10 110.180 8.69507  10
   3  -1  10 -1.8248 2.04974  10
  -3  -1 -10 -2.7698 3.15422  12
  -3  -1 -10 -1.2780 2.38605   3
  -3   1 -10 0.20547 3.95809   3
   3   1  10 -0.9734 3.02369  10
 -10  -2  10 26.4014 7.53793  15
  10  -2 -10 27.6911 3.94156   5
 -10  -2  10 20.9101 6.89931   2
 -10   2  10 39.4329 8.45330  15
  10   2 -10 22.9873 5.35025   1
 -10   2  10 39.2776 6.64030   2
  -8  -2  10 181.826 14.3722  15
   8  -2 -10 151.563 8.31429  12
   8  -2 -10 143.117 8.90616   1
  -8  -2  10 161.786 12.4696   2
   8  -2 -10 151.833 7.24535   5
  -8   2  10 156.878 11.3585   2
   8   2 -10 156.272 10.1920   1
  -8   2  10 148.074 12.7925  15
   6  -2 -10 57.9403 4.43784   5
  -6  -2  10 66.0687 7.04263  14
   6  -2 -10 60.3506 5.99975  12
  -6  -2  10 66.2532 8.81623   2
  -6  -2  10 56.2385 8.28291  15
  -6   2  10 45.1699 6.92102  15
   6   2 -10 55.9065 6.50902   1
  -6   2  10 68.7959 6.84045  14
  -6   2  10 65.7573 8.01043   2
   6   2 -10 59.3509 5.21522  12
  -4  -2  10 828.247 25.1232   2
  -4  -2  10 865.375 24.0424  14
   4  -2 -10 881.705 22.5064  12
   4  -2 -10 869.611 23.0981   3
   4  -2 -10 833.438 19.4466   5
  -4  -2  10 871.793 22.8386  10
   4   2 -10 867.330 24.4076   3
   4   2 -10 866.963 21.2299  12
  -4   2  10 825.912 23.8447   2
  -4   2  10 860.586 23.3534  14
  -4   2  10 884.661 24.8316  10
  -2  -2  10 4.79512 2.44161  10
  -2  -2  10 6.07651 3.77535   2
   2  -2 -10 2.64538 2.03727   5
   2  -2 -10 4.87533 2.69116  16
   2  -2 -10 8.14033 2.70222   3
  -2  -2  10 3.14807 1.90880   4
  -2  -2  10 2.07401 2.64130  14
   2  -2 -10 8.40875 2.70788  12
  -2   2  10 1.40941 2.83015  14
   2   2 -10 2.64915 2.32223  12
  -2   2  10 6.06472 3.20205   2
   2   2 -10 7.67718 2.73447   3
   2   2 -10 4.15515 2.43049  16
  -2   2  10 5.45542 3.02168  10
   0  -2  10 946.751 24.7453   4
   0  -2  10 907.878 25.9490  10
   0  -2 -10 957.531 25.4086  12
   0  -2 -10 927.694 26.3369   3
   0  -2  10 914.629 25.8481  14
   0  -2 -10 873.726 25.1061  16
   0   2 -10 858.799 24.8712  16
   0   2  10 894.828 27.1051  10
   0   2 -10 904.624 23.0288  12
   0   2  10 920.441 25.4578  14
   0   2 -10 992.375 28.1817   3
   2  -2  10 9.78393 3.81602   4
  -2  -2 -10 6.54473 3.95702  12
  -2  -2 -10 12.0384 4.62350   3
   2  -2  10 8.24769 3.70849  14
   2  -2  10 8.97211 4.00507  10
   2   2  10 7.39345 3.16898  14
   2   2  10 6.29693 3.74160  10
  -2   2 -10 13.8659 4.82387   3
 -11  -3  10 5.56638 5.36361   2
 -11  -3  10 1.55587 7.28271  15
  11  -3 -10 6.34599 2.72229   5
 -11   3  10 5.90159 4.52408   2
 -11   3  10 2.46279 4.87239  15
  11   3 -10 2.99789 3.47719   1
  -9  -3  10 1.80532 5.50346   2
  -9  -3  10 3.98250 4.59594  15
   9  -3 -10 0.66217 2.26531   5
   9   3 -10 0.94979 2.42687   1
  -9   3  10 0.54560 5.27969  15
  -9   3  10 3.27152 4.05983   2
   7  -3 -10 6.57935 2.51778  12
  -7  -3  10 5.98262 4.26427   2
   7  -3 -10 5.85276 2.45390   5
  -7  -3  10 5.69164 2.83059  14
  -7  -3  10 3.53200 5.18118  15
  -7   3  10 6.76601 4.78563  15
   7   3 -10 12.2457 4.01408   1
  -7   3  10 5.99989 4.27767   2
  -7   3  10 8.23286 2.78368  14
   5  -3 -10 199.100 9.41065  12
  -5  -3  10 183.573 10.7886  14
   5  -3 -10 190.904 8.02859   5
  -5  -3  10 196.072 12.6227   2
  -5   3  10 188.005 9.96481  14
   5   3 -10 194.914 8.10871   9
  -5   3  10 182.787 10.9435   2
   5   3 -10 204.268 8.77754  12
   3  -3 -10 2.46020 2.23432   5
   3  -3 -10 0.09976 2.24878  16
   3  -3 -10 -1.4674 1.83916   3
  -3  -3  10 -0.2515 3.97542   2
  -3  -3  10 3.52048 2.26720   4
  -3  -3  10 4.00494 2.86105  14
  -3  -3  10 3.52099 2.41668  10
   3  -3 -10 0.80010 2.69654  12
  -3   3  10 0.82225 2.63053  14
  -3   3  10 4.38959 3.19098   2
  -3   3  10 0.53873 2.54797  10
   3   3 -10 -0.2318 2.64480   3
   3   3 -10 0.71053 1.91308  12
   1  -3 -10 92.6879 7.54111   3
  -1  -3  10 80.8900 6.72603   4
   1  -3 -10 90.5068 6.28312   5
  -1  -3  10 84.5461 6.86103  10
   1  -3 -10 93.9913 7.68339  12
  -1  -3  10 85.1463 7.55727  14
   1  -3 -10 82.3121 6.93920  16
   1   3 -10 80.8394 7.98173   3
  -1   3  10 98.9559 8.10293  14
   1   3 -10 82.0222 6.78916  16
  -1   3  10 70.8143 5.25592   6
  -1   3  10 79.6766 7.93204  10
  -1  -3 -10 59.9621 7.39479  12
  -1  -3 -10 48.7602 6.89323   3
  -1  -3 -10 45.3395 5.37625   5
   1  -3  10 45.5430 6.44991  14
   1  -3  10 72.5032 7.57869   4
   1  -3  10 44.8067 6.01395  10
   1   3  10 57.4118 7.94167  10
   1   3  10 55.1433 6.69633  14
  -1   3 -10 55.5875 7.58290   3
   3  -3  10 5.29580 3.50054   4
  -3  -3 -10 2.54227 2.95606   3
   3  -3  10 -0.6719 3.11394  10
  -3  -3 -10 6.75585 4.40473  12
  -3   3 -10 3.20123 4.11752   3
   3   3  10 -1.3077 2.32268  10
 -10  -4  10 1.23116 5.38565   2
 -10  -4  10 2.52683 6.65961  15
  10  -4 -10 2.38070 2.45021   5
  10   4 -10 0.26722 3.05789   1
 -10   4  10 1.52717 4.00531   2
 -10   4  10 3.63481 5.76774  15
   8  -4 -10 1170.24 26.7929   5
  -8  -4  10 1148.88 37.7034  15
  -8  -4  10 1207.82 34.3954   2
   8  -4 -10 1199.81 28.9537  12
  -8   4  10 1176.54 32.4984   2
  -8   4  10 1153.24 34.2745  15
   8   4 -10 1195.11 32.6920   1
  -6  -4  10 50.2631 6.64087  14
   6  -4 -10 48.0110 5.53663  12
  -6  -4  10 48.7042 8.22122   2
   6  -4 -10 43.2152 4.66896   5
  -6   4  10 46.8154 7.10201   2
   6   4 -10 41.5351 4.70949   9
   6   4 -10 55.7283 7.24471   1
  -6   4  10 48.7621 5.79003  14
   4  -4 -10 973.011 24.9416  12
  -4  -4  10 963.511 28.3084   2
  -4  -4  10 943.000 26.7718  14
   4  -4 -10 962.052 22.7251   5
  -4   4  10 931.355 27.1807  10
  -4   4  10 979.706 25.7719  14
  -4   4  10 944.123 26.2562   2
   2  -4 -10 279.096 10.7350   5
   2  -4 -10 259.634 12.1351  12
   2  -4 -10 257.442 11.2619   3
  -2  -4  10 282.240 13.8744  14
  -2  -4  10 281.859 13.5441   2
  -2  -4  10 274.522 11.2751   4
  -2   4  10 263.342 13.6029  10
  -2   4  10 271.111 11.7415   2
  -2   4  10 277.221 12.7034  14
   2   4 -10 266.877 11.6325  16
   2   4 -10 275.728 13.3157   3
  -2   4  10 256.510 9.99018   6
   0  -4  10 361.009 15.6575  14
   0  -4  10 387.861 14.8302   4
   0  -4 -10 399.614 13.8686   5
   0  -4 -10 396.861 15.8489  12
   0  -4  10 424.211 17.9053  10
   0   4 -10 394.392 16.7845   3
   0   4  10 381.797 16.9783  10
   0   4  10 371.538 15.5370  14
   0   4  10 374.115 12.8625   6
   2  -4  10 144.194 9.89854   4
  -2  -4 -10 128.123 8.34381   5
  -2  -4 -10 147.830 10.2075   3
   2  -4  10 125.942 9.21914  10
  -2  -4 -10 132.344 10.0966  12
   2  -4  10 123.400 14.2413  14
  -2   4 -10 144.817 11.1414   3
   2   4  10 135.531 10.6115  10
  -9  -5  10 166.390 13.6737   2
   9  -5 -10 151.229 8.47642   5
  -9  -5  10 155.994 14.0732  15
  -9   5  10 156.749 11.3063   2
  -9   5  10 156.404 12.8892  15
   9   5 -10 153.411 11.2571   1
  -7  -5  10 433.068 16.7988  14
   7  -5 -10 442.075 15.1631  12
  -7  -5  10 465.527 20.4687   2
   7  -5 -10 467.209 14.5383   5
  -7   5  10 458.054 18.4284   2
   7   5 -10 464.815 18.1245   1
   5  -5 -10 184.139 9.32407  12
  -5  -5  10 194.570 11.6280  14
  -5  -5  10 185.453 12.8366   2
   5  -5 -10 179.630 8.74970   5
   5   5 -10 184.982 11.2885   1
   5   5 -10 178.826 8.64645   9
  -5   5  10 187.388 11.2030   2
  -3  -5  10 745.986 23.4305  14
   3  -5 -10 772.140 21.9539  12
   3  -5 -10 728.125 19.6857   5
  -3  -5  10 740.229 20.0334   4
  -3  -5  10 760.348 24.2750   2
   3   5 -10 742.340 23.2836   3
  -3   5  10 729.562 19.1425   6
  -3   5  10 749.603 22.1987   2
  -3   5  10 760.278 22.6135  14
  -3   5  10 742.203 23.8091  10
  -1  -5  10 288.209 12.3073   4
   1  -5 -10 291.052 11.9274   5
  -1  -5  10 316.243 15.0639  14
   1  -5 -10 283.472 13.1790  12
  -1   5  10 308.000 11.5417   6
   1   5 -10 315.624 14.7139   3
  -1   5  10 291.218 14.5957  10
   1  -5  10 195.981 11.7947  14
   1  -5  10 212.873 11.5739   4
  -1  -5 -10 203.452 11.8979  12
  -1  -5 -10 199.624 10.1839   5
  -1   5 -10 183.602 11.8380   3
   1   5  10 204.413 12.6730  10
   1   5  10 195.096 9.78253   6
 -10   6  10 188.109 13.6730  15
  10   6 -10 204.763 12.7519   1
  -8  -6  10 154.711 13.4091   2
   8  -6 -10 155.497 8.53219  12
   8  -6 -10 155.322 8.60795   5
   8   6 -10 152.594 11.0556   1
  -8   6  10 142.479 10.6571   2
  -6  -6  10 474.871 18.5530  14
   6  -6 -10 492.746 15.5929   5
  -6  -6  10 492.960 20.2076   2
   6  -6 -10 467.857 15.8037  12
   6   6 -10 512.695 19.4462   1
   6   6 -10 463.225 15.2081   9
  -6   6  10 490.668 18.6851   2
  -4  -6  10 61.4385 8.04038  14
  -4  -6  10 67.2749 8.52063   2
   4  -6 -10 78.3893 6.39155   5
   4  -6 -10 68.1576 6.99995  12
   4   6 -10 78.0082 6.35456   9
   4   6 -10 66.5207 7.60631   1
  -4   6  10 64.4515 7.85457  10
  -4   6  10 72.5311 7.84530   2
  -4   6  10 62.6084 5.86740   6
  -2  -6  10 906.573 26.9422  14
   2  -6 -10 918.960 25.2796  12
  -2  -6  10 907.260 24.0225   4
   2  -6 -10 887.452 23.4799   5
  -2  -6  10 904.989 26.9324   2
   2   6 -10 936.658 27.1837   3
  -2   6  10 901.659 23.0063   6
  -2   6  10 836.477 27.1364  10
   0  -6 -10 15.9852 4.34828   5
   0  -6  10 12.5163 4.25350   4
   0  -6 -10 13.0113 4.60511  12
   0  -6  10 15.7925 5.57969  14
   0   6  10 7.67254 4.13310  10
   0   6 -10 13.3181 4.33024   3
   0   6  10 10.9495 3.59390   6
  -9  -7  10 51.4102 9.59546  15
  -9  -7  10 51.3615 9.89997   2
   9  -7 -10 54.9388 6.04440   5
  -9   7  10 56.1005 7.74771   2
   9   7 -10 40.8084 6.94959   1
  -7  -7  10 67.5466 7.74925  14
   7  -7 -10 66.2043 5.71800  12
  -7  -7  10 79.7129 10.2733   2
   7  -7 -10 64.0447 6.06183   5
  -7   7  10 79.0996 9.02814   2
   7   7 -10 73.5979 8.70093   1
   5  -7 -10 1.50295 2.85025   5
   5  -7 -10 0.24744 1.76786  12
  -5  -7  10 8.03129 5.53801   2
  -5  -7  10 -0.3863 2.73341  14
   5   7 -10 3.18603 2.97320   1
  -5   7  10 1.56340 3.12209   2
   5   7 -10 5.17168 3.22192   9
  -5   7  10 0.18598 2.64801   6
  -3  -7  10 64.3900 8.51048  14
  -3  -7  10 55.3098 5.97193   4
   3  -7 -10 66.4914 6.15972  12
   3  -7 -10 70.6807 6.05430   5
  -3  -7  10 69.3033 8.77754   2
  -3   7  10 58.7000 6.94416   2
   3   7 -10 61.0675 7.37278   1
  -3   7  10 67.3972 7.84144  10
  -3   7  10 59.8859 6.18152   6
   3   7 -10 61.2905 6.82455   9
   1  -7 -10 5.35084 3.34226   5
  -1  -7  10 -0.0508 3.12778   4
  -1  -7  10 8.89560 4.68679  14
   1  -7 -10 7.41777 4.12722  12
  -1   7  10 -4.7096 3.07177  10
  -1   7  10 2.36315 3.13844   6
   1   7 -10 1.81415 2.20560   9
   1   7 -10 4.58524 3.19426   3
  -1  -7 -10 2.90590 3.68186  12
  -1  -7 -10 2.37629 3.51179   5
   1  -7  10 5.09563 3.13953   4
   1  -7  10 -0.5253 3.71953  14
  -1   7 -10 12.0125 4.09128   3
   1   7  10 3.79023 3.68126  10
   1   7  10 8.03488 3.55273   6
  -8  -8  10 45.7769 9.37798   2
   8  -8 -10 43.8361 6.01669   5
   8   8 -10 34.9441 6.82897   1
  -8   8  10 38.1778 6.62297   2
   6  -8 -10 258.614 11.2630  12
  -6  -8  10 266.737 14.6438  14
   6  -8 -10 255.160 11.8402   5
  -6  -8  10 245.770 16.0745   2
   6   8 -10 253.289 13.4864   1
  -6   8  10 253.794 13.6873   2
   6   8 -10 266.468 12.2133   9
  -4  -8  10 -2.0171 4.38786  14
   4  -8 -10 -1.9053 2.36286  12
   4  -8 -10 -3.8887 2.65281   5
  -4  -8  10 0.48035 4.87824   2
  -4   8  10 5.11758 3.14872   2
   4   8 -10 -2.9949 2.52887   9
  -4   8  10 1.86673 2.83908   6
   4   8 -10 4.09498 2.93600   1
  -4   8  10 -0.0848 2.91888  10
  -2  -8  10 168.715 12.4007  14
   2  -8 -10 170.158 10.2547  12
   2  -8 -10 174.078 9.30732  11
   2  -8 -10 162.904 10.0035   5
  -2   8  10 141.288 10.6182  10
   2   8 -10 171.882 9.80649   9
  -2   8  10 156.001 9.38959   6
   0  -8 -10 28.6221 5.76763  12
   0  -8  10 16.5303 5.88096  14
   0  -8  10 26.5021 5.61090   4
   0  -8 -10 32.7237 5.75115   5
   0   8 -10 19.4492 6.68715   3
   0   8  10 17.0398 5.24580  10
   0   8  10 18.3827 4.61540   6
   0   8 -10 20.7054 4.84372   9
  -5  -9  10 12.6197 5.63904  14
  -5  -9  10 20.5157 7.15834   2
   5  -9 -10 6.62957 3.55225   5
   5   9 -10 11.2678 4.44542   1
  -5   9  10 10.4604 3.77725   6
   5   9 -10 11.1774 4.01217   9
  -5   9  10 11.8852 4.25130   2
  -5   9  10 2.51437 3.69549  10
   3  -9 -10 8.12494 3.52162  12
   3  -9 -10 8.15642 3.81995   5
  -3  -9  10 13.3811 5.78055   2
  -3  -9  10 14.4358 6.04911  14
  -3   9  10 10.1512 3.96753   6
   3   9 -10 10.7497 3.40916   9
  -3   9  10 6.45520 4.06446  10
 -10   0  11 6.24634 6.82820  15
 -10   0  11 10.1148 5.70285   2
  10   0 -11 -1.4417 2.88577   1
   8   0 -11 0.08327 2.62705   1
  -8   0  11 -0.1598 5.20636  15
  -8   0  11 -5.8003 4.20330   2
   8   0 -11 -0.0103 2.19169  12
  -6   0  11 5.04503 4.82108   2
  -6   0  11 0.60127 3.05324  14
  -6   0  11 4.32251 2.68859  10
   6   0 -11 -1.9129 2.26703  12
  -4   0  11 -1.9853 3.04620  14
  -4   0  11 -1.8170 3.90634   2
  -4   0  11 -2.2463 2.33937  10
   4   0 -11 2.16646 2.54864  12
   4   0 -11 1.74787 2.60997   3
   2   0 -11 -1.2875 2.14835  12
  -2   0  11 4.45227 3.77423  14
   2   0 -11 0.35279 2.31051  16
   2   0 -11 1.24028 2.89191   3
  -2   0  11 0.19914 2.73290  10
   0   0 -11 1.70524 2.95877  12
   0   0 -11 4.80412 3.76360   3
   0   0  11 -3.5660 1.45330  10
   0   0  11 -1.5162 2.86571  14
  -2   0 -11 1.32039 3.56293   3
   2   0  11 3.07050 2.78961  10
  -2   0 -11 -0.3528 2.93326  12
 -11  -1  11 21.0599 7.11686   2
 -11  -1  11 7.44394 8.28733  15
  11   1 -11 14.1528 4.64732   1
 -11   1  11 24.9822 8.92622  15
 -11   1  11 21.3058 6.44288   2
   9  -1 -11 402.765 16.1494   1
  -9  -1  11 408.881 21.8063  15
  -9  -1  11 413.152 18.1634   2
  -9   1  11 397.302 20.7119  15
   9   1 -11 379.775 16.1110   1
  -9   1  11 398.087 18.3186   2
   7  -1 -11 -2.6809 2.11768  12
  -7  -1  11 -0.0465 2.88294  14
  -7  -1  11 3.29042 5.03918  15
  -7  -1  11 2.05106 2.47672  10
  -7  -1  11 0.11490 3.54070   2
   7   1 -11 2.04444 2.88226   1
  -7   1  11 1.45825 3.16339   2
  -7   1  11 3.98332 4.75647  15
   7   1 -11 0.46049 2.30946  12
  -7   1  11 4.49931 2.97006  14
   5  -1 -11 271.438 11.6059  12
  -5  -1  11 242.901 13.6679   2
  -5  -1  11 262.247 12.1711  10
  -5  -1  11 262.119 12.7597  14
  -5   1  11 273.607 12.6478  14
  -5   1  11 257.924 12.4224  10
  -5   1  11 245.044 13.3033   2
   5   1 -11 259.195 10.8372  12
  -3  -1  11 39.8510 6.27836  14
   3  -1 -11 35.2987 5.61935   3
  -3  -1  11 29.8041 5.21478  10
   3  -1 -11 38.4713 5.51007  12
  -3  -1  11 39.1069 6.24637   2
  -3   1  11 33.5723 5.87553   2
   3   1 -11 27.6879 4.36890  12
  -3   1  11 34.8034 5.76395  14
  -3   1  11 38.5173 6.01064  10
   3   1 -11 42.0156 6.12329   3
  -1  -1  11 73.7837 8.08202  14
  -1  -1  11 77.4745 7.21045   4
   1  -1 -11 83.2600 7.23716  12
   1  -1 -11 74.2668 7.97032   3
  -1  -1  11 81.7685 8.65949  10
   1   1 -11 73.9294 6.52061  12
   1   1 -11 81.2663 8.99765   3
  -1   1  11 79.9358 8.50588  14
  -1   1  11 81.7240 7.97468  10
  -1  -1 -11 71.4012 7.51719  12
   1  -1  11 63.1934 7.48409  14
  -1  -1 -11 74.7585 8.98406   3
   1  -1  11 62.6861 7.85477  10
   1   1  11 68.2131 8.25488  10
  -1   1 -11 65.0526 6.85793  12
  -1   1 -11 79.3831 8.95034   3
   1   1  11 79.4379 7.93063  14
 -10  -2  11 401.665 22.6206  15
 -10  -2  11 382.550 18.9061   2
  10   2 -11 422.258 17.8582   1
 -10   2  11 419.389 18.7799   2
 -10   2  11 402.765 21.6771  15
  -8  -2  11 586.646 25.5220  15
  -8  -2  11 595.033 22.9536   2
   8  -2 -11 581.215 19.7720   1
   8  -2 -11 602.712 18.8535  12
   8   2 -11 604.914 21.5078   1
  -8   2  11 589.339 21.9280   2
  -8   2  11 605.588 23.7145  15
   6  -2 -11 442.073 15.2826  12
  -6  -2  11 424.177 16.5569  14
  -6  -2  11 432.375 18.7059   2
  -6  -2  11 435.584 19.9620  15
  -6   2  11 452.951 16.0810  14
  -6   2  11 430.804 17.7744   2
   6   2 -11 441.836 14.6736  12
   4  -2 -11 446.120 16.1187   3
  -4  -2  11 438.506 15.8224  10
  -4  -2  11 443.825 17.8828   2
  -4  -2  11 434.828 16.6680  14
   4  -2 -11 442.361 15.5069  12
  -4   2  11 428.028 16.9615  10
  -4   2  11 420.805 16.4618   2
   4   2 -11 446.339 17.2191   3
   4   2 -11 437.747 14.2652  12
  -4   2  11 430.723 16.6136  14
  -2  -2  11 320.358 14.0060  10
   2  -2 -11 347.529 13.9198  12
  -2  -2  11 334.852 12.7284   4
   2  -2 -11 363.153 14.8469   3
   2  -2 -11 310.239 13.0451  16
  -2  -2  11 344.623 15.4256  14
   2   2 -11 295.309 12.7396  16
  -2   2  11 341.826 14.5500  14
  -2   2  11 335.781 15.4336  10
   2   2 -11 326.843 12.1781  12
   2   2 -11 322.990 14.7044   3
   0  -2 -11 167.574 11.0322   3
   0  -2  11 152.459 9.08123   4
   0  -2 -11 146.507 9.76090  12
   0  -2  11 178.371 11.1158  14
   0  -2  11 151.793 10.2496  10
   0   2 -11 146.815 10.3676   3
   0   2  11 157.107 10.3060  14
   0   2  11 154.920 11.1086  10
   2  -2  11 155.705 10.0307   4
  -2  -2 -11 134.647 11.4614  12
   2  -2  11 154.979 10.3115  10
  -2  -2 -11 133.314 14.4984   3
   2   2  11 142.368 10.6746  10
  -2   2 -11 189.870 15.5166   3
  -9  -3  11 8.00093 4.73863   2
   9  -3 -11 1.34018 2.31011   5
  -9  -3  11 -3.4839 5.67725  15
  -9   3  11 3.34591 5.60190  15
  -9   3  11 10.2917 5.28750   2
   9   3 -11 4.87009 2.79826   1
  -7  -3  11 391.962 19.7209  15
   7  -3 -11 391.991 12.6772   5
   7  -3 -11 430.245 15.1245  12
  -7  -3  11 423.042 19.1209   2
  -7  -3  11 411.779 16.0789  14
  -7   3  11 418.913 15.1941  14
   7   3 -11 416.415 17.5323   1
  -7   3  11 424.953 17.9189   2
  -5  -3  11 8.31151 5.46519   2
   5  -3 -11 5.98152 2.53214  12
  -5  -3  11 2.89441 3.66537  14
   5  -3 -11 2.48216 2.32810   5
  -5  -3  11 4.99036 4.17426  15
  -5   3  11 4.90751 3.67462  10
  -5   3  11 2.45327 3.12535  14
   5   3 -11 3.48216 2.03839   9
  -5   3  11 5.09813 3.98287   2
   5   3 -11 7.32840 2.62487  12
  -3  -3  11 735.556 23.4395  14
   3  -3 -11 694.817 21.0807   3
   3  -3 -11 715.674 21.4511  12
  -3  -3  11 753.284 23.4436   2
  -3   3  11 722.729 22.2667  14
   3   3 -11 722.622 23.2911   3
  -3   3  11 699.297 23.7163  10
  -1  -3  11 15.0163 3.86600  10
   1  -3 -11 22.9930 4.54201  12
  -1  -3  11 16.0798 5.25898  14
  -1  -3  11 18.3598 4.46348   4
   1  -3 -11 22.5365 4.72242   3
  -1   3  11 22.2656 4.93507  14
   1   3 -11 19.1528 5.15131   3
  -1   3  11 18.4859 4.93080  10
  -1  -3 -11 381.013 16.8134   3
   1  -3  11 377.424 15.4294   4
   1  -3  11 347.656 15.7198  10
  -1  -3 -11 376.555 15.5397  12
  -1   3 -11 420.517 18.3703   3
   1   3  11 407.192 16.4211  14
   1   3  11 388.440 18.0132  10
 -10  -4  11 7.93981 5.17004   2
  10  -4 -11 7.19640 2.67771   5
 -10  -4  11 -0.9895 6.57224  15
 -10   4  11 -3.5199 4.90947  15
 -10   4  11 6.25269 4.56877   2
  10   4 -11 8.04888 4.64345   1
   8  -4 -11 108.628 6.74209   5
  -8  -4  11 130.530 12.5145  15
   8  -4 -11 119.538 8.19372  12
  -8  -4  11 99.3543 10.9171   2
  -8  -4  11 96.6318 8.78178  14
  -8   4  11 127.398 12.2170   2
   8   4 -11 117.850 9.93595   1
   6  -4 -11 61.0385 5.63235  12
  -6  -4  11 58.3107 8.97873   2
  -6  -4  11 69.1498 7.80430  14
   6  -4 -11 51.9067 5.10262   5
  -6   4  11 46.9600 5.67628  14
   6   4 -11 54.7497 7.25796   1
  -6   4  11 70.9325 8.45163   2
  -4  -4  11 194.358 11.5356  14
   4  -4 -11 207.005 10.4258  12
  -4  -4  11 200.270 12.9805   2
   4  -4 -11 196.777 9.11913   5
  -4   4  11 195.581 11.5588  10
  -4   4  11 212.490 11.5996   2
  -4   4  11 218.145 11.5154  14
  -2  -4  11 260.312 11.6239   4
  -2  -4  11 280.803 14.2453  14
   2  -4 -11 272.603 12.4930  12
   2  -4 -11 269.570 11.0059   5
  -2   4  11 268.861 14.4036  10
   2   4 -11 265.723 13.4445   3
  -2   4  11 269.501 13.4362  14
   0  -4 -11 136.579 8.44365   5
   0  -4  11 143.421 9.51266   4
   0  -4  11 155.103 11.0607  14
   0  -4 -11 161.044 10.6268  12
   0   4 -11 144.427 10.9431   3
   0   4  11 140.245 10.8888  10
   0   4  11 138.238 9.95779  14
  -9  -5  11 158.984 14.3006   2
   9  -5 -11 197.639 9.59354   5
  -9  -5  11 174.663 16.7201  15
  -9   5  11 189.117 12.6709   2
   9   5 -11 186.945 12.6305   1
   7  -5 -11 4.80729 3.11137  12
  -7  -5  11 21.2341 7.17850  15
   7  -5 -11 12.2464 3.31523   5
  -7  -5  11 14.9702 4.17640  14
  -7  -5  11 10.7501 6.42177   2
  -7   5  11 10.0391 4.75670   2
   7   5 -11 3.29019 3.54411   1
  -5  -5  11 84.4278 9.17318  14
   5  -5 -11 83.7237 7.34486  12
   5  -5 -11 83.5011 6.56325   5
  -5  -5  11 79.8275 10.5357   2
  -5   5  11 93.0390 9.31383   2
   5   5 -11 72.2395 6.08610   9
  -5   5  11 69.4994 8.23225  10
   5   5 -11 83.6800 9.26891   1
   3  -5 -11 3.76427 3.39354  12
   3  -5 -11 -1.3808 2.71244   5
  -3  -5  11 3.18666 4.58098   2
  -3  -5  11 0.33613 3.19531  14
   3   5 -11 1.76971 3.38227   3
  -3   5  11 3.81380 3.15666   2
  -3   5  11 -0.3548 2.66270  10
   1  -5 -11 56.6963 6.25300   5
   1  -5 -11 81.1863 8.53650  12
  -1  -5  11 61.8905 6.81427   4
  -1  -5  11 62.4793 8.08297  14
   1   5 -11 64.4684 8.02987   3
  -1   5  11 70.2623 8.92625  10
  -8  -6  11 8.59709 5.99400  15
  -8  -6  11 -3.3957 3.32128  14
   8  -6 -11 -0.3246 2.41152  12
  -8  -6  11 -2.8127 5.54633   2
   8  -6 -11 1.81449 2.77135   5
  -8   6  11 -1.3208 3.89057   2
   8   6 -11 -1.5808 2.86840   1
   6  -6 -11 152.719 9.10431  12
   6  -6 -11 144.503 8.51290   5
  -6  -6  11 148.057 13.3701   2
  -6  -6  11 147.178 10.3817  14
  -6   6  11 144.622 10.3714   2
   6   6 -11 141.445 10.7616   1
  -4  -6  11 116.099 9.74785  14
  -4  -6  11 104.454 11.1468   2
   4  -6 -11 78.8635 7.08108   5
   4  -6 -11 99.6004 7.94822  12
  -4   6  11 94.9797 8.34248   2
   4   6 -11 89.8860 7.39251   9
  -4   6  11 97.2102 8.58360  10
   4   6 -11 105.408 9.10474   1
  -2  -6  11 111.778 8.34923   4
   2  -6 -11 115.220 7.66293   5
  -2  -6  11 115.468 10.6524  14
   2  -6 -11 117.615 9.14838  12
   2   6 -11 117.734 9.57757   3
  -2   6  11 116.058 8.37204   6
  -2   6  11 111.514 9.26027  10
   2   6 -11 117.033 8.35215   9
   0  -6  11 251.031 14.0613  14
   0  -6  11 268.199 13.0625   4
   0  -6 -11 247.789 11.4063   5
   0  -6 -11 215.994 14.8110  12
   0   6  11 267.952 14.9259  10
   0   6  11 271.262 11.6440   6
   0   6 -11 287.604 14.8290   3
  -7  -7  11 8.42737 4.89395  14
   7  -7 -11 8.77259 3.42334  12
   7  -7 -11 8.38380 3.29083   5
  -7  -7  11 8.90015 5.47560   2
  -7   7  11 7.32320 4.08491   2
   7   7 -11 7.20640 3.99317   1
  -5  -7  11 316.641 17.5379   2
   5  -7 -11 313.175 12.8845   5
  -5  -7  11 302.984 15.8178  14
   5  -7 -11 314.063 13.4905  12
  -5   7  11 283.807 15.3390  10
  -5   7  11 318.924 15.0267   2
   5   7 -11 328.846 15.4701   1
   5   7 -11 309.417 13.0913   9
  -3  -7  11 27.2752 6.98746  14
   3  -7 -11 24.0013 4.78019   5
   3  -7 -11 23.0779 4.80713  12
  -3  -7  11 23.5428 6.56335   2
  -3   7  11 25.1128 5.95660  10
   3   7 -11 24.8492 5.05399   9
   3   7 -11 15.7721 4.56477   1
  -3   7  11 20.9487 4.29266   6
   1  -7 -11 327.900 15.2051  12
   1  -7 -11 306.609 13.2483   5
  -1  -7  11 287.879 13.6704   4
  -1  -7  11 313.475 15.4016  14
  -1   7  11 270.189 11.9356   6
   1   7 -11 315.134 15.3218   3
   1   7 -11 301.768 13.6173   9
   6  -8 -11 338.859 13.8895   5
   6  -8 -11 325.517 13.4140  12
  -6  -8  11 248.551 18.9626   2
  -6  -8  11 325.685 18.4949  14
  -6   8  11 272.876 17.0857   2
   6   8 -11 340.008 14.0428   9
  -6   8  11 334.659 16.5724  10
   6   8 -11 370.575 17.0255   1
  -4  -8  11 126.071 12.4371   2
   4  -8 -11 121.553 8.15328   5
  -4  -8  11 110.491 10.0229  14
   4  -8 -11 109.938 8.28464  12
   4   8 -11 101.080 14.9691   1
  -4   8  11 104.737 7.92164   6
  -4   8  11 103.730 9.52565  10
 -10   0  12 335.003 20.2186  15
  10   0 -12 300.976 14.8329   1
 -10   0  12 247.373 15.9549   2
  -8   0  12 979.320 30.1065   2
  -8   0  12 807.048 26.1226  10
   8   0 -12 1035.56 29.3531   1
   8   0 -12 966.845 25.6756  12
   6   0 -12 715.670 20.7004  12
  -6   0  12 702.122 22.3162  14
  -6   0  12 688.389 22.3900  10
  -6   0  12 713.267 24.1064   2
   4   0 -12 776.456 24.1706   3
  -4   0  12 758.435 24.1601  10
  -4   0  12 762.166 23.8660  14
  -4   0  12 714.597 23.5481   2
   4   0 -12 746.557 21.3916  12
  -2   0  12 238.467 12.8929  10
   2   0 -12 256.962 11.8144  12
  -2   0  12 249.010 13.2582  14
   2   0 -12 251.478 13.4954   3
   0   0 -12 568.151 19.0025  12
   0   0  12 630.987 21.5140  14
   0   0 -12 610.652 22.3244   3
   0   0  12 572.093 21.7086  10
  -9  -1  12 19.4545 7.67722  15
   9  -1 -12 25.6238 5.35445   1
  -9  -1  12 33.3192 7.07750   2
  -9   1  12 11.8869 6.87836  15
  -9   1  12 33.6095 7.63349   2
   9   1 -12 24.3440 5.55018   1
  -7  -1  12 246.195 14.9589   2
   7  -1 -12 273.806 12.2149  12
  -7  -1  12 257.250 12.8843  14
  -7   1  12 259.820 14.6759   2
   7   1 -12 246.038 11.4402  12
   7   1 -12 278.914 13.9445   1
  -7   1  12 238.941 12.9695  10
  -7   1  12 273.879 13.0256  14
  -5  -1  12 162.527 10.1900  10
  -5  -1  12 175.617 12.0529   2
   5  -1 -12 179.059 9.85880  12
  -5  -1  12 152.831 10.0868  14
   5   1 -12 180.145 9.49226  12
  -5   1  12 191.321 11.9076   2
  -5   1  12 167.872 10.8739  10
  -5   1  12 171.745 10.8076  14
  -3  -1  12 28.9533 6.02090  14
   3  -1 -12 27.1749 4.93575  12
  -3  -1  12 29.1605 5.30423  10
   3  -1 -12 31.2142 5.54900   3
  -3   1  12 32.9426 5.93698  10
  -3   1  12 36.1782 6.35672  14
   3   1 -12 21.6963 4.85257   3
   3   1 -12 25.0892 4.44945  12
  -1  -1  12 218.673 12.6967  14
   1  -1 -12 230.954 13.0825   3
   1  -1 -12 245.542 12.1750  12
  -1  -1  12 234.685 13.1186  10
   1   1 -12 223.964 10.9003  12
   1   1 -12 224.382 13.1839   3
  -1   1  12 229.382 12.7215  14
  -1   1  12 230.219 13.4861  10
 -10  -2  12 37.2451 10.8470  15
 -10   2  12 28.6053 8.66176  15
  10   2 -12 29.4191 6.21448   1
   8  -2 -12 173.174 10.9441   1
  -8  -2  12 161.444 13.4655   2
  -8  -2  12 156.668 10.1130  14
  -8  -2  12 147.949 14.4286  15
   8  -2 -12 160.528 9.69089  12
  -8   2  12 162.828 11.4724   2
   8   2 -12 187.178 11.7902   1
  -6  -2  12 206.165 13.8873   2
   6  -2 -12 238.290 11.3706  12
  -6  -2  12 223.323 12.5558  14
  -6   2  12 242.917 11.9052  14
  -6   2  12 220.088 12.7062  10
   6   2 -12 230.971 10.6288  12
  -6   2  12 259.643 13.9069   2
  -4  -2  12 141.122 10.9952   2
   4  -2 -12 153.833 9.80536   3
  -4  -2  12 152.536 10.2355  14
   4  -2 -12 151.773 9.45918  12
  -4   2  12 163.420 10.6855  14
  -4   2  12 151.326 11.0561  10
   4   2 -12 156.008 10.3562   3
   4   2 -12 161.347 8.64635  12
  -4   2  12 160.670 10.4936   2
  -2  -2  12 180.948 9.80980   4
   2  -2 -12 195.938 11.0357  12
  -2  -2  12 166.844 10.7253  10
   2  -2 -12 188.621 11.3999   3
  -2  -2  12 182.249 11.8781  14
  -2   2  12 183.785 12.2633  10
  -2   2  12 206.368 12.0212  14
   2   2 -12 214.942 12.6723   3
   0  -2  12 -1.2477 2.72221  10
   0  -2  12 2.90420 3.71723  14
   0  -2 -12 -6.9481 2.79954  12
   0  -2  12 -0.1619 2.87595   4
   0  -2 -12 -1.5943 3.17867   3
   0   2  12 0.59683 2.30717  14
   0   2  12 -0.5353 3.79281  10
   0   2 -12 7.81195 4.09817   3
  -9  -3  12 143.322 15.0253  15
  -9  -3  12 180.993 14.0488   2
   9   3 -12 159.297 11.7180   1
  -9   3  12 162.276 12.1909   2
  -7  -3  12 14.7526 4.80818  14
  -7  -3  12 9.97964 6.15101  15
   7  -3 -12 12.7592 3.84645  12
  -7  -3  12 8.34134 6.36644   2
   7   3 -12 13.1317 5.17477   1
  -7   3  12 11.7030 4.36209  10
  -7   3  12 3.73646 4.45001   2
  -7   3  12 6.90550 3.23685  14
   5  -3 -12 28.4787 5.08713  12
  -5  -3  12 23.7065 6.37354   2
  -5  -3  12 26.0825 5.39889  14
  -5   3  12 26.5296 5.56022  10
   5   3 -12 27.0028 4.38179  12
  -5   3  12 31.9311 5.11163  14
  -5   3  12 27.5494 5.95364   2
   3  -3 -12 87.3400 7.58795   3
  -3  -3  12 79.8985 9.07262  14
   3  -3 -12 89.8059 7.78543  12
  -3   3  12 85.9470 8.92095  14
   3   3 -12 82.6943 9.28326   3
  -3   3  12 80.8038 8.02848  10
  -1  -3  12 17.0401 3.81530   4
   1  -3 -12 10.1155 4.20424  12
   1  -3 -12 18.6013 4.64245   3
  -1  -3  12 20.9776 4.61234  14
  -1   3  12 15.1945 3.88744  14
  -1   3  12 18.3888 4.75254  10
   1   3 -12 17.4862 5.56284   3
  -8  -4  12 40.0969 8.91089   2
  -8  -4  12 54.7496 10.3213  15
   8  -4 -12 45.5559 6.28093  12
  -8  -4  12 41.1487 6.06911  14
   8   4 -12 44.6975 7.15593   1
  -8   4  12 49.2566 7.43390   2
  -6  -4  12 112.919 16.2112  15
  -6  -4  12 187.932 14.0747   2
   6  -4 -12 182.896 10.2577  12
  -6  -4  12 187.390 12.1187  14
   6   4 -12 198.784 12.6374   1
  -6   4  12 164.017 11.5662  10
  -6   4  12 183.136 10.9726  14
  -6   4  12 179.589 11.9507   2
  -4  -4  12 105.337 10.6158  14
  -4  -4  12 114.578 11.2012   2
   4  -4 -12 104.122 8.37432  12
  -4   4  12 111.007 9.13319  14
   4   4 -12 114.924 7.62210   9
  -4   4  12 110.356 9.85091  10
   2  -4 -12 335.572 14.9464  12
  -2  -4  12 318.098 13.3107   4
  -2  -4  12 287.877 14.6991  14
   2   4 -12 304.247 15.0270   3
  -2   4  12 277.627 15.5662  10
  -2   4  12 328.716 15.2336  14
  -7  -5  12 -2.2913 5.85706   2
  -7  -5  12 -0.3566 3.71156  14
   7  -5 -12 -0.6258 2.30306   5
  -7  -5  12 4.17343 5.72317  15
   7  -5 -12 -0.5619 2.48375  12
  -7   5  12 3.47231 4.08703   2
   7   5 -12 0.09724 3.30756   1
   5  -5 -12 7.42931 2.63263   5
  -5  -5  12 13.1899 6.06354   2
  -5  -5  12 16.8063 5.45232  14
   5  -5 -12 9.21688 3.72407  12
  -5   5  12 15.7484 4.38940  10
   5   5 -12 8.63547 4.54876   1
  -5   5  12 18.6074 4.98683   2
   5   5 -12 10.7852 3.38894   9
   3  -5 -12 83.3159 6.77801   5
   3  -5 -12 68.5503 7.41897  12
  -3  -5  12 92.5078 10.0967  14
   3   5 -12 103.324 9.27444   3
   3   5 -12 85.6417 7.25501   9
  -3   5  12 84.4914 9.73767  10
  -6  -6  12 -3.7516 4.38558  14
   6  -6 -12 6.25270 3.23161   5
   6  -6 -12 5.85688 3.19136  12
  -6  -6  12 -4.6291 5.61807   2
   6   6 -12 2.50221 3.79120   1
  -6   6  12 9.39318 4.16666   2
  -6   6  12 -0.3787 3.80686  10
  -4  -6  12 467.390 19.7985  14
   4  -6 -12 497.911 17.8896  12
  -4  -6  12 446.277 20.3021   2
   4   6 -12 506.870 20.0761   1
  -4   6  12 465.862 20.1921  10
   4   6 -12 465.186 16.6342   9
  -8   0  13 5.82827 5.89749   2
   8   0 -13 -4.0684 1.90368   1
   8   0 -13 1.40484 2.71093  12
  -6   0  13 -3.3285 4.80768   2
   6   0 -13 0.79523 2.71568  12
  -6   0  13 0.45973 3.51907  14
  -6   0  13 -0.9976 2.03661  10
  -4   0  13 -0.3627 2.43452  10
  -4   0  13 1.32331 3.64025  14
   4   0 -13 5.89084 2.69064  12
   2   0 -13 2.12997 2.66285   3
  -2   0  13 1.60726 3.77360  14
   2   0 -13 -0.2766 2.07362  12
  -2   0  13 -1.0386 3.38065  10
  -7  -1  13 274.073 13.9660  14
   7  -1 -13 313.056 13.5539  12
  -7  -1  13 303.344 16.7367   2
  -7   1  13 308.388 16.0069   2
  -7   1  13 323.675 14.6100  14
   7   1 -13 311.401 15.4178   1
  -7   1  13 283.026 14.5355  10
   7   1 -13 322.236 13.3789  12
  -5  -1  13 23.6683 4.94525  14
   5  -1 -13 27.8498 5.03294  12
  -5  -1  13 26.4030 6.62310   2
  -5   1  13 20.8005 5.23086  14
  -5   1  13 18.7957 5.32989  10
  -5   1  13 15.7477 5.10900   2
   5   1 -13 29.6449 4.94576  12
  -3  -1  13 321.842 15.7846  14
   3  -1 -13 329.782 15.5291   3
   3  -1 -13 323.945 13.5911  12
  -3  -1  13 298.590 14.9215  10
   3   1 -13 310.270 15.6329   3
   3   1 -13 348.946 13.8753  12
  -3   1  13 330.046 15.3999  14
  -3   1  13 321.914 16.0878  10
   8  -2 -13 326.653 15.2235   1
   8  -2 -13 344.844 14.3995  12
  -8  -2  13 337.639 17.9024   2
  -8   2  13 291.087 16.8275   2
  -8   2  13 341.715 16.3613  10
   8   2 -13 358.404 17.5632   1
   6  -2 -13 327.777 14.0467  12
  -6  -2  13 332.230 15.1755  14
  -6  -2  13 303.155 16.5785   2
   6   2 -13 338.894 13.3431  12
   6   2 -13 342.428 16.5745   1
  -6   2  13 344.072 16.4531   2
  -6   2  13 344.146 14.9808  14
   4  -2 -13 466.558 17.1603  12
  -4  -2  13 440.661 18.5421  14
  -4   2  13 425.604 18.8392  10
  -4   2  13 452.770 18.2474  14
  -7  -3  13 8.22831 6.37441   2
  -7  -3  13 9.88123 4.47607  14
   7  -3 -13 6.27495 3.47890  12
   7   3 -13 10.3199 5.03608   1
  -7   3  13 2.92206 4.02289  10
  -7   3  13 11.6593 3.90525  14
  -7   3  13 7.53927 4.93677   2
   5  -3 -13 165.113 10.0665  12
  -5  -3  13 159.744 12.4278   2
  -5  -3  13 172.606 11.9753  14
  -5   3  13 155.831 11.0215   2
  -5   3  13 161.099 11.7535  10
  -5   3  13 154.537 10.5925  14
   3  -3 -13 0.26330 2.19742  12
  -3  -3  13 -0.7618 4.77440  14
  -3   3  13 4.04681 4.13872  14
  -3   3  13 -1.4353 3.29101  10
   3   3 -13 1.91525 4.30848   3
  -6  -4  13 0.59410 4.20617  14
   6  -4 -13 -0.9706 2.71985  12
  -6  -4  13 -0.7906 5.68933   2
   6   4 -13 2.29449 3.91075   1
  -6   4  13 6.07643 4.29562   2
  -6   4  13 3.46797 3.94831  10
  -6   4  13 3.73556 3.24999  14
  -4  -4  13 31.4131 6.86153  14
   4  -4 -13 35.9494 6.37468  12
  -4   4  13 32.5071 6.59521  10
   4   4 -13 30.9124 4.93012   9
   0   0   0    0.00    0.00   0

 _exptl_absorpt_process_details
)
 SADABS 2016/2: Krause, L., Herbst-Irmer, R., Sheldrick G.M. & Stalke D.,
 J. Appl. Cryst. 48 (2015) 3-10
)
 _exptl_absorpt_correction_type   multi-scan
 _exptl_absorpt_correction_T_max  0.7479
 _exptl_absorpt_correction_T_min  0.6855
 _exptl_special_details
)
 The following wavelength and cell were deduced by SADABS from the
 direction cosines etc. They are given here for emergency use only:
 CELL 0.71076    6.893    7.678    7.530   90.021  116.261   89.988
)

;
_shelx_hkl_checksum              1276
loop_
_space_group_symop_operation_xyz
'x, y, z'
'-x, y, -z+1/2'
'x+1/2, y+1/2, z'
'-x+1/2, y+1/2, -z+1/2'
'-x, -y, -z'
'x, -y, z-1/2'
'-x+1/2, -y+1/2, -z'
'x+1/2, -y+1/2, z-1/2'
loop_
_atom_site_label
_atom_site_type_symbol
_atom_site_fract_x
_atom_site_fract_y
_atom_site_fract_z
_atom_site_U_iso_or_equiv
_atom_site_adp_type
_atom_site_occupancy
_atom_site_site_symmetry_order
_atom_site_calc_flag
_atom_site_refinement_flags_posn
_atom_site_refinement_flags_adp
_atom_site_refinement_flags_occupancy
_atom_site_disorder_assembly
_atom_site_disorder_group
Mg Mg 0.000000 0.500000 0.000000 0.00566(6) Uani 1 2 d S . P . .
S S 0.000000 0.15635(2) 0.250000 0.00461(5) Uani 1 2 d S T P . .
O1 O 0.17541(7) 0.04664(6) 0.39602(7) 0.00910(8) Uani 1 1 d . . . . .
O2 O 0.09440(7) 0.26900(6) 0.15044(7) 0.00824(7) Uani 1 1 d . . . . .
O3 O 0.000000 0.63431(8) 0.250000 0.00757(9) Uani 1 2 d S T P . .
H H 0.104(2) 0.7003(18) 0.291(2) 0.022(3) Uiso 1 1 d . . . . .
loop_
_atom_site_aniso_label
_atom_site_aniso_U_11
_atom_site_aniso_U_22
_atom_site_aniso_U_33
_atom_site_aniso_U_23
_atom_site_aniso_U_13
_atom_site_aniso_U_12
Mg 0.00494(11) 0.00595(11) 0.00571(11) 0.00024(8) 0.00217(9) -0.00034(8)
S 0.00351(7) 0.00455(7) 0.00540(7) 0.000 0.00177(5) 0.000
O1 0.00578(15) 0.01021(16) 0.01016(16) 0.00436(13) 0.00276(13) 0.00271(12)
O2 0.00810(16) 0.00758(15) 0.01082(16) 0.00323(12) 0.00592(13) 0.00065(12)
O3 0.0070(2) 0.0083(2) 0.0075(2) 0.000 0.00343(17) 0.000
loop_
_atom_type_symbol
_atom_type_description
_atom_type_scat_dispersion_real
_atom_type_scat_dispersion_imag
_atom_type_scat_source
O O 0.0106 0.0060 'International Tables Vol C Tables 4.2.6.8 and 6.1.1.4'
H H 0.0000 0.0000 'International Tables Vol C Tables 4.2.6.8 and 6.1.1.4'
S S 0.1246 0.1234 'International Tables Vol C Tables 4.2.6.8 and 6.1.1.4'
Mg Mg 0.0486 0.0363 'International Tables Vol C Tables 4.2.6.8 and 6.1.1.4'
Fe Fe 0.3463 0.8444 'International Tables Vol C Tables 4.2.6.8 and 6.1.1.4'
loop_
_geom_angle_atom_site_label_1
_geom_angle_atom_site_label_2
_geom_angle_atom_site_label_3
_geom_angle
_geom_angle_site_symmetry_1
_geom_angle_site_symmetry_3
_geom_angle_publ_flag
O1 Mg O1 180.0 8_455 4 ?
O1 Mg O2 85.97(2) 8_455 5_565 ?
O1 Mg O2 94.03(2) 4 5_565 ?
O1 Mg O2 94.03(2) 8_455 . ?
O1 Mg O2 85.97(2) 4 . ?
O2 Mg O2 180.0 5_565 . ?
O1 Mg O3 88.505(16) 8_455 . ?
O1 Mg O3 91.495(16) 4 . ?
O2 Mg O3 87.23(2) 5_565 . ?
O2 Mg O3 92.77(2) . . ?
O1 Mg O3 91.495(16) 8_455 5_565 ?
O1 Mg O3 88.505(16) 4 5_565 ?
O2 Mg O3 92.77(2) 5_565 5_565 ?
O2 Mg O3 87.23(2) . 5_565 ?
O3 Mg O3 180.0 . 5_565 ?
O1 Mg O2 138.255(16) 8_455 4 ?
O1 Mg O2 41.745(16) 4 4 ?
O2 Mg O2 81.272(13) 5_565 4 ?
O2 Mg O2 98.728(13) . 4 ?
O3 Mg O2 51.482(13) . 4 ?
O3 Mg O2 128.518(12) 5_565 4 ?
O1 Mg O2 41.745(16) 8_455 8_455 ?
O1 Mg O2 138.255(16) 4 8_455 ?
O2 Mg O2 98.728(13) 5_565 8_455 ?
O2 Mg O2 81.272(13) . 8_455 ?
O3 Mg O2 128.518(12) . 8_455 ?
O3 Mg O2 51.482(12) 5_565 8_455 ?
O2 Mg O2 180.0 4 8_455 ?
O1 Mg O2 110.802(18) 8_455 6_565 ?
O1 Mg O2 69.198(19) 4 6_565 ?
O2 Mg O2 42.178(17) 5_565 6_565 ?
O2 Mg O2 137.821(17) . 6_565 ?
O3 Mg O2 120.385(18) . 6_565 ?
O3 Mg O2 59.615(18) 5_565 6_565 ?
O2 Mg O2 85.161(15) 4 6_565 ?
O2 Mg O2 94.839(15) 8_455 6_565 ?
O1 Mg O2 69.198(19) 8_455 2 ?
O1 Mg O2 110.802(18) 4 2 ?
O2 Mg O2 137.822(17) 5_565 2 ?
O2 Mg O2 42.179(17) . 2 ?
O3 Mg O2 59.615(18) . 2 ?
O3 Mg O2 120.385(18) 5_565 2 ?
O2 Mg O2 94.839(15) 4 2 ?
O2 Mg O2 85.161(15) 8_455 2 ?
O2 Mg O2 180.0 6_565 2 ?
O1 Mg O1 118.071(18) 8_455 6_565 ?
O1 Mg O1 61.929(18) 4 6_565 ?
O2 Mg O1 32.577(15) 5_565 6_565 ?
O2 Mg O1 147.423(15) . 6_565 ?
O3 Mg O1 83.267(18) . 6_565 ?
O3 Mg O1 96.733(17) 5_565 6_565 ?
O2 Mg O1 54.058(12) 4 6_565 ?
O2 Mg O1 125.943(12) 8_455 6_565 ?
O2 Mg O1 37.443(10) 6_565 6_565 ?
O2 Mg O1 142.557(10) 2 6_565 ?
O1 Mg O1 61.929(18) 8_455 2 ?
O1 Mg O1 118.071(18) 4 2 ?
O2 Mg O1 147.423(15) 5_565 2 ?
O2 Mg O1 32.577(15) . 2 ?
O3 Mg O1 96.733(17) . 2 ?
O3 Mg O1 83.267(17) 5_565 2 ?
O2 Mg O1 125.942(12) 4 2 ?
O2 Mg O1 54.057(12) 8_455 2 ?
O2 Mg O1 142.557(10) 6_565 2 ?
O2 Mg O1 37.443(10) 2 2 ?
O1 Mg O1 180.0 6_565 2 ?
O1 S O1 110.01(4) 2 . ?
O1 S O2 108.61(3) 2 2 ?
O1 S O2 110.33(3) . 2 ?
O1 S O2 110.33(3) 2 . ?
O1 S O2 108.61(3) . . ?
O2 S O2 108.94(4) 2 . ?
S O1 Mg 140.00(3) . 4_545 ?
S O1 O2 35.970(17) . . ?
Mg O1 O2 104.03(2) 4_545 . ?
S O1 O1 35.00(2) . 2 ?
Mg O1 O1 144.24(3) 4_545 2 ?
O2 O1 O1 60.64(2) . 2 ?
S O1 O2 35.099(16) . 2 ?
Mg O1 O2 144.38(3) 4_545 2 ?
O2 O1 O2 60.22(2) . 2 ?
O1 O1 O2 59.582(19) 2 2 ?
S O1 O2 131.33(3) . 4_545 ?
Mg O1 O2 47.294(14) 4_545 4_545 ?
O2 O1 O2 112.55(2) . 4_545 ?
O1 O1 O2 105.61(2) 2 4_545 ?
O2 O1 O2 165.10(3) 2 4_545 ?
S O1 O3 167.26(3) . 7_556 ?
Mg O1 O3 47.739(12) 4_545 7_556 ?
O2 O1 O3 148.85(2) . 7_556 ?
O1 O1 O3 149.200(18) 2 7_556 ?
O2 O1 O3 132.16(2) 2 7_556 ?
O2 O1 O3 61.217(17) 4_545 7_556 ?
S O1 O2 115.27(3) . 8_556 ?
Mg O1 O2 43.229(15) 4_545 8_556 ?
O2 O1 O2 88.419(19) . 8_556 ?
O1 O1 O2 148.586(18) 2 8_556 ?
O2 O1 O2 101.86(2) 2 8_556 ?
O2 O1 O2 90.52(2) 4_545 8_556 ?
O3 O1 O2 62.202(19) 7_556 8_556 ?
S O1 O3 94.72(2) . 3_545 ?
Mg O1 O3 46.143(13) 4_545 3_545 ?
O2 O1 O3 59.534(18) . 3_545 ?
O1 O1 O3 104.90(3) 2 3_545 ?
O2 O1 O3 116.23(2) 2 3_545 ?
O2 O1 O3 63.564(19) 4_545 3_545 ?
O3 O1 O3 93.882(19) 7_556 3_545 ?
O2 O1 O3 58.138(16) 8_556 3_545 ?
S O1 O2 124.04(3) . 6_556 ?
Mg O1 O2 95.721(19) 4_545 6_556 ?
O2 O1 O2 159.51(3) . 6_556 ?
O1 O1 O2 99.86(2) 2 6_556 ?
O2 O1 O2 105.76(2) 2 6_556 ?
O2 O1 O2 77.145(19) 4_545 6_556 ?
O3 O1 O2 51.552(15) 7_556 6_556 ?
O2 O1 O2 110.06(2) 8_556 6_556 ?
O3 O1 O2 137.75(2) 3_545 6_556 ?
S O1 O2 111.38(3) . 7_556 ?
Mg O1 O2 76.611(19) 4_545 7_556 ?
O2 O1 O2 109.27(2) . 7_556 ?
O1 O1 O2 137.62(2) 2 7_556 ?
O2 O1 O2 79.384(19) 2 7_556 ?
O2 O1 O2 115.48(2) 4_545 7_556 ?
O3 O1 O2 57.433(18) 7_556 7_556 ?
O2 O1 O2 44.270(18) 8_556 7_556 ?
O3 O1 O2 102.256(19) 3_545 7_556 ?
O2 O1 O2 80.320(15) 6_556 7_556 ?
S O1 O3 104.19(2) . 1_545 ?
Mg O1 O3 97.082(18) 4_545 1_545 ?
O2 O1 O3 119.37(2) . 1_545 ?
O1 O1 O3 69.191(9) 2 1_545 ?
O2 O1 O3 118.53(2) 2 1_545 ?
O2 O1 O3 51.582(15) 4_545 1_545 ?
O3 O1 O3 82.084(16) 7_556 1_545 ?
O2 O1 O3 138.327(17) 8_556 1_545 ?
O3 O1 O3 107.482(19) 3_545 1_545 ?
O2 O1 O3 51.485(13) 6_556 1_545 ?
O2 O1 O3 130.882(16) 7_556 1_545 ?
S O2 Mg 133.63(3) . . ?
S O2 O1 35.421(16) . . ?
Mg O2 O1 162.05(3) . . ?
S O2 O2 35.530(19) . 2 ?
Mg O2 O2 103.251(17) . 2 ?
O1 O2 O2 60.416(19) . 2 ?
S O2 O1 34.567(16) . 2 ?
Mg O2 O1 120.41(2) . 2 ?
O1 O2 O1 59.77(3) . 2 ?
O2 O2 O1 59.364(18) 2 2 ?
S O2 O3 105.89(2) . 3_545 ?
Mg O2 O3 119.93(2) . 3_545 ?
O1 O2 O3 71.349(19) . 3_545 ?
O2 O2 O3 127.31(3) 2 3_545 ?
O1 O2 O3 112.96(3) 2 3_545 ?
S O2 O1 157.56(3) . 4 ?
Mg O2 O1 46.734(16) . 4 ?
O1 O2 O1 134.99(2) . 4 ?
O2 O2 O1 126.015(17) 2 4 ?
O1 O2 O1 165.10(3) 2 4 ?
O3 O2 O1 75.74(2) 3_545 4 ?
S O2 O3 138.52(3) . 5_565 ?
Mg O2 O3 48.149(15) . 5_565 ?
O1 O2 O3 149.15(3) . 5_565 ?
O2 O2 O3 137.60(3) 2 5_565 ?
O1 O2 O3 104.26(2) 2 5_565 ?
O3 O2 O3 94.904(18) 3_545 5_565 ?
O1 O2 O3 61.990(17) 4 5_565 ?
S O2 O1 94.94(2) . 8_455 ?
Mg O2 O1 42.743(13) . 8_455 ?
O1 O2 O1 130.34(3) . 8_455 ?
O2 O2 O1 76.51(2) 2 8_455 ?
O1 O2 O1 78.14(2) 2 8_455 ?
O3 O2 O1 156.16(2) 3_545 8_455 ?
O1 O2 O1 89.48(2) 4 8_455 ?
O3 O2 O1 61.414(16) 5_565 8_455 ?
S O2 O3 102.17(2) . . ?
Mg O2 O3 45.215(12) . . ?
O1 O2 O3 117.19(2) . . ?
O2 O2 O3 66.642(10) 2 . ?
O1 O2 O3 116.34(2) 2 . ?
O3 O2 O3 125.95(2) 3_545 . ?
O1 O2 O3 61.898(16) 4 . ?
O3 O2 O3 93.364(15) 5_565 . ?
O1 O2 O3 58.108(13) 8_455 . ?
S O2 O1 96.27(2) . 6 ?
Mg O2 O1 113.63(2) . 6 ?
O1 O2 O1 84.090(17) . 6 ?
O2 O2 O1 131.029(14) 2 6 ?
O1 O2 O1 74.24(2) 2 6 ?
O3 O2 O1 57.012(16) 3_545 6 ?
O1 O2 O1 102.856(19) 4 6 ?
O3 O2 O1 65.547(19) 5_565 6 ?
O1 O2 O1 110.06(2) 8_455 6 ?
O3 O2 O1 158.686(18) . 6 ?
S O2 O1 80.05(2) . 7_556 ?
Mg O2 O1 94.97(2) . 7_556 ?
O1 O2 O1 70.73(2) . 7_556 ?
O2 O2 O1 59.22(2) 2 7_556 ?
O1 O2 O1 113.94(2) 2 7_556 ?
O3 O2 O1 86.783(18) 3_545 7_556 ?
O1 O2 O1 77.685(16) 4 7_556 ?
O3 O2 O1 137.64(2) 5_565 7_556 ?
O1 O2 O1 108.53(2) 8_455 7_556 ?
O3 O2 O1 53.988(12) . 7_556 ?
O1 O2 O1 141.406(17) 6 7_556 ?
Mg O3 Mg 123.28(3) . 2 ?
Mg O3 O2 90.174(13) . 4 ?
Mg O3 O2 110.842(14) 2 4 ?
Mg O3 O2 110.843(14) . 3_455 ?
Mg O3 O2 90.174(13) 2 3_455 ?
O2 O3 O2 135.61(3) 4 3_455 ?
Mg O3 O2 162.56(2) . 6_566 ?
Mg O3 O2 44.622(11) 2 6_566 ?
O2 O3 O2 85.096(18) 4 6_566 ?
O2 O3 O2 83.848(17) 3_455 6_566 ?
Mg O3 O2 44.622(11) . 5_565 ?
Mg O3 O2 162.56(2) 2 5_565 ?
O2 O3 O2 83.848(17) 4 5_565 ?
O2 O3 O2 85.096(18) 3_455 5_565 ?
O2 O3 O2 150.45(3) 6_566 5_565 ?
Mg O3 O1 43.756(13) . 8_455 ?
Mg O3 O1 105.80(2) 2 8_455 ?
O2 O3 O1 132.554(15) 4 8_455 ?
O2 O3 O1 71.436(17) 3_455 8_455 ?
O2 O3 O1 142.120(16) 6_566 8_455 ?
O2 O3 O1 56.794(16) 5_565 8_455 ?
Mg O3 O1 105.80(2) . 7_556 ?
Mg O3 O1 43.756(13) 2 7_556 ?
O2 O3 O1 71.436(17) 4 7_556 ?
O2 O3 O1 132.554(15) 3_455 7_556 ?
O2 O3 O1 56.794(16) 6_566 7_556 ?
O2 O3 O1 142.120(16) 5_565 7_556 ?
O1 O3 O1 123.44(3) 8_455 7_556 ?
Mg O3 O1 121.77(2) . 3_455 ?
Mg O3 O1 42.362(11) 2 3_455 ?
O2 O3 O1 145.434(16) 4 3_455 ?
O2 O3 O1 49.117(14) 3_455 3_455 ?
O2 O3 O1 60.448(15) 6_566 3_455 ?
O2 O3 O1 127.393(15) 5_565 3_455 ?
O1 O3 O1 81.708(17) 8_455 3_455 ?
O1 O3 O1 86.118(19) 7_556 3_455 ?
Mg O3 O1 42.362(11) . 4 ?
Mg O3 O1 121.77(2) 2 4 ?
O2 O3 O1 49.117(14) 4 4 ?
O2 O3 O1 145.434(15) 3_455 4 ?
O2 O3 O1 127.393(15) 6_566 4 ?
O2 O3 O1 60.448(15) 5_565 4 ?
O1 O3 O1 86.118(19) 8_455 4 ?
O1 O3 O1 81.708(17) 7_556 4 ?
O1 O3 O1 154.15(3) 3_455 4 ?
Mg O3 O2 82.58(2) . 2 ?
Mg O3 O2 42.014(13) 2 2 ?
O2 O3 O2 125.95(2) 4 2 ?
O2 O3 O2 96.110(13) 3_455 2 ?
O2 O3 O2 86.636(15) 6_566 2 ?
O2 O3 O2 121.80(2) 5_565 2 ?
O1 O3 O2 68.579(19) 8_455 2 ?
O1 O3 O2 59.690(17) 7_556 2 ?
O1 O3 O2 54.539(14) 3_455 2 ?
O1 O3 O2 99.76(2) 4 2 ?
Mg O3 O2 42.013(13) . . ?
Mg O3 O2 82.58(2) 2 . ?
O2 O3 O2 96.110(13) 4 . ?
O2 O3 O2 125.95(2) 3_455 . ?
O2 O3 O2 121.80(2) 6_566 . ?
O2 O3 O2 86.636(15) 5_565 . ?
O1 O3 O2 59.690(17) 8_455 . ?
O1 O3 O2 68.579(19) 7_556 . ?
O1 O3 O2 99.76(2) 3_455 . ?
O1 O3 O2 54.539(14) 4 . ?
O2 O3 O2 46.72(2) 2 . ?
Mg O3 H 105.8(10) . . ?
Mg O3 H 108.8(10) 2 . ?
O2 O3 H 18.8(10) 4 . ?
O2 O3 H 118.3(10) 3_455 . ?
O2 O3 H 73.3(10) 6_566 . ?
O2 O3 H 88.2(10) 5_565 . ?
O1 O3 H 143.8(10) 8_455 . ?
O1 O3 H 77.6(10) 7_556 . ?
O1 O3 H 132.3(10) 3_455 . ?
O1 O3 H 66.8(10) 4 . ?
O2 O3 H 137.0(10) 2 . ?
O2 O3 H 114.7(10) . . ?
Mg O3 H 108.8(10) . 2 ?
Mg O3 H 105.8(10) 2 2 ?
O2 O3 H 118.3(10) 4 2 ?
O2 O3 H 18.8(10) 3_455 2 ?
O2 O3 H 88.2(10) 6_566 2 ?
O2 O3 H 73.3(10) 5_565 2 ?
O1 O3 H 77.6(10) 8_455 2 ?
O1 O3 H 143.8(10) 7_556 2 ?
O1 O3 H 66.8(10) 3_455 2 ?
O1 O3 H 132.3(10) 4 2 ?
O2 O3 H 114.7(10) 2 2 ?
O2 O3 H 137.0(10) . 2 ?
H O3 H 103(2) . 2 ?
loop_
_geom_bond_atom_site_label_1
_geom_bond_atom_site_label_2
_geom_bond_distance
_geom_bond_site_symmetry_2
_geom_bond_publ_flag
Mg O1 2.0222(5) 8_455 ?
Mg O1 2.0222(5) 4 ?
Mg O2 2.0407(5) 5_565 ?
Mg O2 2.0407(5) . ?
Mg O3 2.1640(4) . ?
Mg O3 2.1640(4) 5_565 ?
Mg O2 3.4882(6) 4 ?
Mg O2 3.4882(6) 8_455 ?
Mg O2 3.5007(6) 6_565 ?
Mg O2 3.5007(6) 2 ?
Mg O1 3.8753(6) 6_565 ?
Mg O1 3.8753(6) 2 ?
S O1 1.4640(5) 2 ?
S O1 1.4640(5) . ?
S O2 1.4837(5) 2 ?
S O2 1.4837(5) . ?
O1 O2 2.3939(6) . ?
O1 O1 2.3986(10) 2 ?
O1 O2 2.4195(7) 2 ?
O1 O2 2.7702(7) 4_545 ?
O1 O3 2.9230(7) 7_556 ?
O1 O2 2.9721(8) 8_556 ?
O1 O3 3.0001(6) 3_545 ?
O1 O2 3.3035(7) 6_556 ?
O1 O2 3.3640(8) 7_556 ?
O1 O3 3.3759(9) 1_545 ?
O2 O2 2.4148(9) 2 ?
O2 O3 2.7292(6) 3_545 ?
O2 O3 2.9018(6) 5_565 ?
O2 O3 3.0454(8) . ?
O3 H 0.807(14) . ?
O3 H 0.807(14) 2 ?
loop_
_geom_hbond_atom_site_label_D
_geom_hbond_atom_site_label_H
_geom_hbond_atom_site_label_A
_geom_hbond_distance_DH
_geom_hbond_distance_HA
_geom_hbond_distance_DA
_geom_hbond_angle_DHA
_geom_hbond_site_symmetry_A
_geom_hbond_publ_flag
O3 H O2 0.807(14) 1.982(14) 2.7292(6) 153.7(14) 4 yes
