#------------------------------------------------------------------------------
#$Date: 2022-01-01 07:13:54 +0200 (Sat, 01 Jan 2022) $
#$Revision: 271676 $
#$URL: file:///home/coder/svn-repositories/cod/cif/1/56/58/1565868.cif $
#------------------------------------------------------------------------------
#
# This file is available in the Crystallography Open Database (COD),
# http://www.crystallography.net/. The original data for this entry
# were provided by IUCr Journals, http://journals.iucr.org/.
#
# The file may be used within the scientific community so long as
# proper attribution is given to the journal article from which the
# data were obtained.
#
data_1565868
loop_
_publ_author_name
'Olejniczak, Anna'
'Katrusiak, Anna'
'Podsiad\/lo, Marcin'
'Katrusiak, Andrzej'
_publ_section_title
;
 Stochastic hydration of a high-nitrogen-content molecular compound
 recrystallized under pressure
;
_journal_issue                   1
_journal_name_full               IUCrJ
_journal_page_first              49
_journal_page_last               54
_journal_paper_doi               10.1107/S2052252521010381
_journal_volume                  9
_journal_year                    2022
_chemical_formula_moiety         'C4 H2 Cl N5'
_chemical_formula_sum            'C4 H2 Cl N5'
_chemical_formula_weight         155.56
_chemical_name_systematic        6-chloro-1,2,3,4-tetrazolo[1,5-b]pyridazine
_space_group_crystal_system      orthorhombic
_space_group_IT_number           19
_space_group_name_Hall           'P 2ac 2ab'
_space_group_name_H-M_alt        'P 21 21 21'
_atom_sites_solution_hydrogens   geom
_atom_sites_solution_primary     direct
_audit_creation_date             2020-07-14
_audit_creation_method
;
Olex2 1.3
(compiled 2020.06.28 svn.raecde09e for OlexSys, GUI svn.r6132)
;
_cell_angle_alpha                90
_cell_angle_beta                 90
_cell_angle_gamma                90
_cell_formula_units_Z            4
_cell_length_a                   7.0422(2)
_cell_length_b                   8.7617(2)
_cell_length_c                   10.0158(2)
_cell_measurement_reflns_used    2643
_cell_measurement_temperature    200.0(1)
_cell_measurement_theta_max      64.6700
_cell_measurement_theta_min      5.0400
_cell_volume                     617.99(3)
_computing_cell_refinement       'CrysAlisPro 1.171.40.67a (Rigaku OD, 2019)'
_computing_data_collection       'CrysAlisPro 1.171.40.67a (Rigaku OD, 2019)'
_computing_data_reduction        'CrysAlisPro 1.171.40.67a (Rigaku OD, 2019)'
_computing_molecular_graphics    'Olex2 1.3 (Dolomanov et al., 2009)'
_computing_publication_material  'Olex2 1.3 (Dolomanov et al., 2009)'
_computing_structure_refinement  'SHELXL 2018/3 (Sheldrick, 2015)'
_computing_structure_solution    'SHELXT 2018/2 (Sheldrick, 2018)'
_diffrn_ambient_environment      N~2~
_diffrn_ambient_temperature      200.0(1)
_diffrn_detector                 'CCD plate'
_diffrn_detector_area_resol_mean 10.5357
_diffrn_detector_type            Atlas
_diffrn_measured_fraction_theta_full 0.989
_diffrn_measured_fraction_theta_max 0.989
_diffrn_measurement_details
;
List of Runs (angles in degrees, time in seconds):

  # Type    Start    End  Width  t~exp~   \w     \q     \k     \f   Frames
--------------------------------------------------------------------------
  1  \w     13.00 116.00   1.00    1.25    --   41.73  77.00 150.00  103
  2  \w     13.00  88.00   1.00    1.25    --   41.73-125.00  60.00   75
  3  \w     40.00  99.00   1.00    1.25    --   41.73  37.00 -90.00   59
  4  \w     16.00  51.00   1.00    2.50    --   88.44 -45.00 150.00   35
  5  \w     36.00 158.00   1.00    2.50    --   88.44  15.00  60.00  122
  6  \w      8.00 106.00   1.00    2.50    --   88.44 -94.00 120.00   98
  7  \w     37.00  77.00   1.00    2.50    --   88.44 -45.00  90.00   40
  8  \w     44.00  70.00   1.00    2.50    --   88.44 -45.00-120.00   26
  9  \w     16.00 109.00   1.00    2.50    --   88.44 -94.00-120.00   93
 10  \w     26.00  75.00   1.00    2.50    --   88.44 -45.00   0.00   49
 11  \w     42.00  81.00   1.00    2.50    --   88.44 -94.00   0.00   39
 12  \w     85.00 111.00   1.00    2.50    --   88.44 125.00  90.00   26
 13  \w    116.00 146.00   1.00    2.50    --   88.44 125.00  90.00   30
 14  \w     68.00 107.00   1.00    2.50    --   88.44-125.00  90.00   39
 15  \w     75.00 156.00   1.00    2.50    --   88.44  61.00 -90.00   81
;
_diffrn_measurement_device       'four-circle diffractometer'
_diffrn_measurement_device_type
'SuperNova, Single source at offset/far, Atlas'
_diffrn_measurement_method       '\w scans'
_diffrn_orient_matrix_type
'CrysAlisPro convention (1999,Acta A55,543-557)'
_diffrn_orient_matrix_UB_11      -0.0558145000
_diffrn_orient_matrix_UB_12      0.0086034000
_diffrn_orient_matrix_UB_13      0.1485212000
_diffrn_orient_matrix_UB_21      0.0483076000
_diffrn_orient_matrix_UB_22      0.1714772000
_diffrn_orient_matrix_UB_23      0.0013836000
_diffrn_orient_matrix_UB_31      -0.2059499000
_diffrn_orient_matrix_UB_32      0.0379525000
_diffrn_orient_matrix_UB_33      -0.0398991000
_diffrn_radiation_monochromator  mirror
_diffrn_radiation_probe          x-ray
_diffrn_radiation_type           'Cu K\a'
_diffrn_radiation_wavelength     1.54184
_diffrn_reflns_av_R_equivalents  0.0169
_diffrn_reflns_av_unetI/netI     0.0142
_diffrn_reflns_Laue_measured_fraction_full 0.989
_diffrn_reflns_Laue_measured_fraction_max 0.989
_diffrn_reflns_limit_h_max       6
_diffrn_reflns_limit_h_min       -8
_diffrn_reflns_limit_k_max       10
_diffrn_reflns_limit_k_min       -9
_diffrn_reflns_limit_l_max       10
_diffrn_reflns_limit_l_min       -11
_diffrn_reflns_number            3628
_diffrn_reflns_point_group_measured_fraction_full 0.983
_diffrn_reflns_point_group_measured_fraction_max 0.983
_diffrn_reflns_theta_full        64.809
_diffrn_reflns_theta_max         64.809
_diffrn_reflns_theta_min         6.713
_diffrn_source                   'micro-focus sealed X-ray tube'
_diffrn_source_type              'SuperNova (Cu) X-ray Source'
_exptl_absorpt_coefficient_mu    4.832
_exptl_absorpt_correction_T_max  1.00000
_exptl_absorpt_correction_T_min  0.65188
_exptl_absorpt_correction_type   multi-scan
_exptl_absorpt_process_details
;
CrysAlisPro 1.171.40.67a (Rigaku Oxford Diffraction, 2019)
Empirical absorption correction using spherical harmonics,
 implemented in SCALE3 ABSPACK scaling algorithm.
;
_exptl_crystal_colour            colourless
_exptl_crystal_density_diffrn    1.672
_exptl_crystal_description       plate
_exptl_crystal_F_000             312
_exptl_crystal_size_max          0.50
_exptl_crystal_size_mid          0.20
_exptl_crystal_size_min          0.15
_refine_diff_density_max         0.157
_refine_diff_density_min         -0.179
_refine_diff_density_rms         0.032
_refine_ls_abs_structure_details
;
 Flack x determined using 384 quotients [(I+)-(I-)]/[(I+)+(I-)]
 (Parsons, Flack and Wagner, Acta Cryst. B69 (2013) 249-259).
;
_refine_ls_abs_structure_Flack   0.474(6)
_refine_ls_extinction_method     none
_refine_ls_goodness_of_fit_ref   1.072
_refine_ls_hydrogen_treatment    constr
_refine_ls_matrix_type           full
_refine_ls_number_parameters     91
_refine_ls_number_reflns         1032
_refine_ls_number_restraints     0
_refine_ls_restrained_S_all      1.072
_refine_ls_R_factor_all          0.0314
_refine_ls_R_factor_gt           0.0304
_refine_ls_shift/su_max          0.000
_refine_ls_shift/su_mean         0.000
_refine_ls_structure_factor_coef Fsqd
_refine_ls_weighting_details
'w=1/[\s^2^(Fo^2^)+(0.0387P)^2^+0.3157P] where P=(Fo^2^+2Fc^2^)/3'
_refine_ls_weighting_scheme      calc
_refine_ls_wR_factor_gt          0.0789
_refine_ls_wR_factor_ref         0.0797
_reflns_Friedel_coverage         0.638
_reflns_Friedel_fraction_full    0.973
_reflns_Friedel_fraction_max     0.973
_reflns_number_gt                999
_reflns_number_total             1032
_reflns_threshold_expression     'I > 2\s(I)'
_cod_data_source_file            lt5042.cif
_cod_data_source_block           C4H2N5Cl1@200K_phase_alpha
_cod_database_code               1565868
_shelx_shelxl_version_number     2018/3
_chemical_oxdiff_formula         C4H2N5Cl1
_shelx_space_group_comment
;
The symmetry employed for this shelxl refinement is uniquely defined
by the following loop, which should always be used as a source of
symmetry information in preference to the above space-group names.
They are only intended as comments.
;
_reflns_odcompleteness_completeness 98.93
_reflns_odcompleteness_iscentric 1
_reflns_odcompleteness_theta     64.71
_olex2_refinement_description
;
1. Fixed Uiso
 At 1.2 times of:
  All C(H) groups
2.a Aromatic/amide H refined with riding coordinates:
 C7(H7), C8(H8)
;
_shelx_res_file
;
TITL 1a_a.res in P2(1)2(1)2(1)
    1a.res
    created by SHELXL-2018/3 at 12:51:11 on 14-Jul-2020
REM Old TITL 1a in P2(1)2(1)2(1)
REM SHELXT solution in P2(1)2(1)2(1): R1 0.131, Rweak 0.026, Alpha 0.004
REM <I/s> 0.962 for 15 systematic absences, Orientation as input
REM Flack x = 0.483 ( 0.006 ) from 390 Parsons' quotients
REM Formula found by SHELXT: C8 N Cl
CELL 1.54184 7.0422 8.7617 10.0158 90 90 90
ZERR 4 0.0002 0.0002 0.0002 0 0 0
LATT -1
SYMM 0.5-X,-Y,0.5+Z
SYMM -X,0.5+Y,0.5-Z
SYMM 0.5+X,0.5-Y,-Z
SFAC C H Cl N
UNIT 16 8 4 20

L.S. 44
PLAN  5
CONF
BOND
list 4
MORE -1
BOND $H
fmap 2 53
acta
REM <olex2.extras>
REM <HklSrc "%.\\1a.hkl">
REM </olex2.extras>

WGHT    0.038700    0.315700
FVAR       1.02360
CL1   3    0.289809    0.332941    0.319323    11.00000    0.05917    0.02833 =
         0.06620   -0.00278    0.01505   -0.00156
N4    4    0.358886    0.747644    0.411516    11.00000    0.04202    0.03110 =
         0.02720   -0.00055   -0.00041   -0.00218
N5    4    0.368816    0.594058    0.417926    11.00000    0.04506    0.03200 =
         0.03346    0.00491    0.00255    0.00093
N3    4    0.432857    0.838302    0.506028    11.00000    0.06047    0.04480 =
         0.03566   -0.00763   -0.00712   -0.00922
N2    4    0.395122    0.977170    0.466124    11.00000    0.06963    0.03947 =
         0.05132   -0.01265    0.00307   -0.00902
N1    4    0.299413    0.980945    0.349088    11.00000    0.05761    0.03251 =
         0.04916   -0.00312    0.00626   -0.00082
C9    1    0.277515    0.834758    0.314856    11.00000    0.04149    0.03024 =
         0.03097    0.00316    0.00471    0.00214
C7    1    0.199537    0.604730    0.207409    11.00000    0.04689    0.04400 =
         0.02847   -0.00702    0.00034   -0.00456
AFIX  43
H7    2    0.145827    0.548787    0.138122    11.00000   -1.20000
AFIX   0
C6    1    0.287122    0.529316    0.316338    11.00000    0.04062    0.02893 =
         0.03635   -0.00213    0.00829   -0.00048
C8    1    0.194970    0.758517    0.205378    11.00000    0.04667    0.04557 =
         0.02832    0.00587   -0.00063    0.00232
AFIX  43
H8    2    0.139924    0.811820    0.135026    11.00000   -1.20000
AFIX   0
HKLF 4




REM  1a_a.res in P2(1)2(1)2(1)
REM wR2 = 0.0797, GooF = S = 1.072, Restrained GooF = 1.072 for all data
REM R1 = 0.0304 for 999 Fo > 4sig(Fo) and 0.0314 for all 1032 data
REM 91 parameters refined using 0 restraints

END

WGHT      0.0387      0.3157

REM Highest difference peak  0.157,  deepest hole -0.179,  1-sigma level  0.032
Q1    1   0.2599  0.5644  0.2588  11.00000  0.05    0.16
Q2    1   0.2866  1.0428  0.3150  11.00000  0.05    0.13
Q3    1   0.1419  0.3370  0.3284  11.00000  0.05    0.13
Q4    1   0.2681  0.7874  0.3560  11.00000  0.05    0.12
Q5    1   0.2763  0.9148  0.3251  11.00000  0.05    0.12
;
_shelx_res_checksum              69068
_shelx_hkl_file
;
   0   0   1    0.23    0.18
   0   0   2 1595.26    9.62
   0   0   3    0.19    0.46
   0   0   4   19.69    1.71
   0   0   5    0.43    0.90
   0   0  -6 1312.99   11.87
   0   0   6 1336.94   17.46
   0   0   7    1.26    1.10
   0   0  -7    0.00    0.46
   0   0  -7    0.00    0.40
   0   0   8  903.29   17.77
   0   0  -8  886.80   11.18
   0   0  -9    0.84    0.53
   0   0 -10  344.07    7.46
   0   0 -11    0.74    0.58
   0   1   0    0.39    0.25
   0   1   0    0.36    0.14
   0  -1   1 1288.02    7.58
   0   1   1 1331.76    6.96
   0   1   2   36.56    1.54
   0  -1   2   37.76    1.67
   0   1   3 3908.63   18.96
   0  -1   3 3867.32   19.80
   0   1   4   20.30    1.71
   0  -1   4   21.33    1.80
   0   1   5 1350.66   15.15
   0  -1   5 1278.62   15.44
   0   1   6    2.56    1.10
   0  -1  -6    0.13    0.51
   0   1  -6    1.52    0.59
   0  -1  -6    0.00    0.40
   0   1  -6    0.08    0.49
   0  -1   6    1.84    0.86
   0   1  -7   38.55    2.27
   0   1  -7   37.50    2.34
   0  -1  -7   36.88    2.20
   0  -1  -7   34.47    2.16
   0   1   7   36.05    3.28
   0  -1   7   35.97    3.32
   0   1  -8   55.60    2.88
   0  -1  -8   55.65    2.92
   0  -1  -8   59.06    3.04
   0  -1   8   56.96    4.79
   0   1  -8   55.58    2.99
   0   1   8   58.88    4.73
   0   1  -9   27.03    2.16
   0   1  -9   27.24    2.05
   0  -1  -9   30.12    2.32
   0  -1  -9   26.03    2.05
   0  -1 -10  133.97    4.54
   0  -1 -10  123.59    4.14
   0   1 -10  128.72    4.67
   0  -1 -11   26.41    1.78
   0   1 -11   29.75    2.05
   0   2   0  179.94    3.64
   0   2   0  184.90    2.15
   0   2   1 1149.47    9.34
   0  -2   1 1109.03    8.62
   0   2   2  356.93    5.87
   0   2   2  358.97    5.32
   0   2   3  372.84    6.31
   0  -2   3  379.21    6.77
   0  -2   4    8.56    1.32
   0   2   4    8.59    1.30
   0  -2  -5  753.27    8.38
   0  -2  -5  751.71    8.11
   0   2   5  755.74   11.82
   0   2  -5  760.69    8.32
   0   2  -6   11.09    1.24
   0  -2   6    9.26    1.73
   0  -2  -6   12.09    1.28
   0   2  -6    9.92    1.21
   0   2   6    9.13    1.58
   0  -2  -6   10.71    1.17
   0   2   7  484.89   11.84
   0  -2  -7  471.17    8.01
   0   2  -7  489.05    8.35
   0   2  -7  478.90    8.01
   0  -2   7  486.85   12.47
   0  -2  -7  481.55    7.91
   0  -2  -8   38.29    2.48
   0   2  -8   38.22    2.42
   0  -2   8   39.90    3.97
   0   2   8   41.45    3.90
   0  -2  -8   38.37    2.51
   0   2  -8   38.40    2.55
   0  -2  -9    0.05    0.58
   0   2  -9    0.66    0.76
   0  -2  -9   -0.58    0.60
   0  -2 -10  138.77    4.40
   0  -2 -10  132.36    4.28
   0   2 -10  128.00    4.35
   0  -2 -11    2.97    0.76
   0   2 -11    3.19    0.82
   0   3   0    0.19    0.17
   0   3   0    0.27    0.62
   0  -3   1  278.88    5.16
   0   3   1  272.10    4.00
   0   3   1  275.72    5.71
   0   3   2 1969.64   16.05
   0  -3   2 1963.86   15.23
   0   3   3    9.61    1.42
   0  -3   3    8.06    1.24
   0  -3   4   39.22    2.71
   0  -3  -4   38.37    1.90
   0   3  -4   39.76    1.92
   0   3   4   39.07    2.79
   0   3   5   82.14    4.48
   0   3  -5   88.22    3.10
   0  -3   5   88.23    4.53
   0  -3  -5   83.45    2.84
   0  -3  -5   87.19    3.12
   0  -3   6   25.38    2.73
   0  -3  -6   26.59    1.75
   0   3   6   24.59    2.66
   0  -3  -6   25.43    1.86
   0   3  -6   25.99    1.93
   0   3   6   25.18    2.73
   0  -3  -7    7.60    1.13
   0  -3  -7    5.72    1.09
   0   3  -7    6.24    0.99
   0  -3   7    4.55    1.86
   0   3  -7    5.47    1.07
   0   3  -7    5.15    1.12
   0   3   7    2.61    1.28
   0  -3  -8  165.25    5.14
   0   3   8  164.36    7.92
   0  -3  -8  171.07    4.96
   0   3  -8  164.09    5.36
   0   3  -9   15.83    1.74
   0  -3  -9   14.97    1.57
   0  -3  -9   15.07    1.66
   0  -3 -10    0.87    0.49
   0  -3 -10    1.62    0.63
   0   3 -10    0.53    0.41
   0  -3 -11    0.52    0.36
   0   3 -11   -0.15    0.48
   0   4   0   20.16    1.91
   0   4   1 3086.05   22.50
   0  -4   1 3279.53   20.30
   0   4   2   96.51    3.10
   0  -4   2   90.97    3.68
   0   4   2   95.31    4.15
   0  -4   3  221.39    6.21
   0   4   3  214.37    6.53
   0  -4  -3  228.09    4.64
   0   4  -3  223.29    4.56
   0   4   4  100.43    4.91
   0   4  -4  100.00    3.06
   0  -4   4   92.38    4.44
   0  -4  -4   95.96    3.27
   0   4  -4   96.39    3.23
   0   4  -5  248.44    5.58
   0   4   5  240.81    8.07
   0  -4  -5  242.29    5.49
   0   4  -5  231.42    4.89
   0  -4   5  237.93    7.79
   0  -4  -5  228.82    4.91
   0  -4  -6   56.21    2.88
   0   4   6   53.05    4.17
   0  -4   6   54.64    4.13
   0  -4  -6   53.79    2.58
   0   4  -6   54.54    2.85
   0  -4  -7  229.59    6.03
   0  -4  -7  231.79    5.50
   0   4   7  210.34    8.69
   0  -4   7  224.48    9.03
   0   4  -7  230.07    6.33
   0   4  -7  234.80    6.15
   0   4  -8    9.52    1.45
   0  -4  -8    8.71    1.39
   0  -4  -9  341.43    7.19
   0   4  -9  343.76    7.41
   0  -4 -10   14.91    1.44
   0   4 -10   14.57    1.44
   0   5   0   -0.26    0.60
   0  -5   0   -0.51    0.48
   0   5   0    0.58    0.35
   0   5  -1  513.77    7.13
   0  -5   1  513.92    9.16
   0  -5  -1  524.75    7.26
   0   5   1  514.23    7.00
   0   5  -1  527.80    7.28
   0   5   1  532.79    7.05
   0  -5   1  537.01    7.28
   0   5   1  520.05   10.58
   0   5   2    2.37    0.67
   0   5  -2    1.17    0.59
   0   5   2    0.83    0.90
   0   5   2    2.45    0.67
   0  -5   2    0.21    0.37
   0  -5  -2    1.42    0.67
   0  -5   2    1.72    0.59
   0   5  -3  837.65    9.81
   0   5   3  836.72   14.45
   0   5   3  818.70    9.08
   0  -5   3  837.23   13.19
   0  -5  -3  826.50    9.92
   0   5   4  732.77   14.28
   0   5  -4  718.83    9.03
   0   5   4  720.99    8.82
   0  -5  -4  717.13    9.75
   0  -5   4  705.47   13.15
   0   5  -4  737.88    9.71
   0   5  -5    2.57    0.82
   0  -5   5    4.68    1.22
   0   5  -5    3.06    0.70
   0  -5  -5    4.58    0.93
   0   5   5    3.95    0.75
   0  -5  -6   84.76    3.74
   0  -5   6   84.08    5.17
   0   5   6   86.06    5.47
   0   5  -6   84.24    3.70
   0  -5  -7   10.95    1.52
   0   5  -7   13.46    1.68
   0   5  -8    6.41    1.30
   0  -5  -8    2.31    0.89
   0   5  -9   86.68    3.55
   0  -5  -9   88.73    3.48
   0   5 -10    0.98    0.57
   0  -5 -10   -0.65    0.31
   0   6   0 1029.44   10.94
   0  -6   0 1029.93   11.25
   0  -6   1   51.18    2.57
   0   6   1   53.59    3.86
   0   6   1   51.01    2.47
   0  -6  -1   51.11    2.58
   0   6  -1   49.91    2.59
   0   6  -1   48.02    2.47
   0   6   1   48.40    2.44
   0   6  -2  192.87    4.99
   0   6   2  194.82    4.76
   0   6   2  208.01    7.73
   0  -6  -2  200.84    5.17
   0   6   2  193.51    4.81
   0   6   3   21.78    1.77
   0   6  -3   23.04    1.88
   0  -6  -3   23.14    1.90
   0   6   3   20.89    2.66
   0   6   4    9.89    1.30
   0   6  -4    8.74    1.28
   0   6  -4    9.73    1.29
   0  -6  -4    9.46    1.44
   0   6   5   11.15    2.16
   0   6  -5    6.98    1.35
   0   6   5    9.44    1.27
   0  -6  -5    8.35    1.37
   0   6  -5    9.56    1.27
   0  -6  -6 1339.98   14.97
   0   6  -6 1366.07   15.08
   0  -6  -7    1.27    0.71
   0   6  -7    1.09    0.85
   0   6  -8   41.28    2.49
   0  -6  -8   36.55    2.36
   0  -6  -9    6.16    0.95
   0   6  -9    3.66    0.81
   0   7   0    0.77    0.62
   0   7   0    0.61    0.60
   0  -7   0    0.12    0.52
   0  -7  -1    4.04    0.94
   0   7  -1    3.64    1.04
   0  -7   1    3.50    0.86
   0   7   1    1.13    0.59
   0   7   1    4.14    0.93
   0  -7  -2    5.39    1.11
   0   7  -2    4.97    1.06
   0   7   2    6.49    1.19
   0   7   3   60.78    2.91
   0   7  -3   56.46    2.96
   0   7  -3   55.14    2.94
   0   7   3   59.16    4.70
   0  -7  -3   56.40    3.09
   0  -7  -4  100.79    4.16
   0   7  -4   91.07    3.79
   0   7  -4   96.99    3.99
   0   7  -5  238.05    5.93
   0  -7  -5  237.91    6.35
   0   7  -5  230.48    6.13
   0  -7  -6    3.51    0.97
   0   7  -6    5.57    1.13
   0  -7  -7   17.15    1.67
   0   7  -7   15.43    1.62
   0  -7  -8    0.72    0.53
   0  -7  -8    0.72    0.59
   0   7  -8    1.09    0.55
   0  -8   0    0.29    0.75
   0   8   0    1.86    0.86
   0   8  -1  558.06    8.89
   0  -8  -1  574.33    9.66
   0   8   1  570.27    9.05
   0   8  -2   34.91    2.41
   0   8  -2   27.51    2.05
   0  -8  -2   32.23    2.37
   0   8   2   30.09    2.10
   0  -8  -3    8.54    1.33
   0   8  -3    7.85    1.18
   0   8  -3    8.59    1.30
   0  -8  -4    1.00    0.86
   0   8  -4    0.56    0.70
   0   8  -4    0.79    0.79
   0   8  -5   23.49    1.76
   0  -8  -5   23.56    1.96
   0   8  -5   22.18    1.85
   0  -8  -6   87.91    3.45
   0   8  -6   82.82    3.31
   0  -8  -7   84.17    3.02
   0   8  -7   80.71    2.99
   0   9   0   -0.22    0.52
   0   9  -1   63.80    2.80
   0   9  -1   70.68    3.23
   0  -9  -1   73.03    3.27
   0  -9  -2  142.99    4.53
   0   9  -2  134.37    4.06
   0   9  -2  140.29    4.48
   0   9  -3    8.82    1.08
   0   9  -3    8.62    1.22
   0  -9  -3    9.37    1.31
   0   9  -4  175.96    4.49
   0   9  -4  178.79    4.55
   0  -9  -4  187.42    4.88
   0  -9  -5    4.65    0.82
   0   9  -5    5.99    0.95
   0  10   0   95.18    3.23
   0  10   1  150.71    3.93
   0  10  -1  154.90    4.14
   0  10   2   18.86    1.32
   0  10  -2   18.53    1.49
   1   0   0    0.11    0.15
  -1   0   0    1.15    0.43
  -1   0  -1 1007.33    7.17
  -1   0   1 1015.33    7.15
  -1   0   3 1345.88   12.21
   1   0   3 1363.23   11.07
   1   0   4  492.34    7.93
  -1   0   4  498.78    8.71
  -1   0  -5    5.90    0.83
   1   0   5    8.18    1.31
  -1   0   5    6.47    1.32
   1   0  -5    6.26    0.88
  -1   0   6   32.13    2.96
   1   0  -6   33.62    2.06
  -1   0  -6   31.45    1.97
   1   0  -6   32.26    1.77
   1   0   6   31.10    2.76
   1   0   7   16.91    2.29
   1   0  -7   18.76    1.77
  -1   0   7   18.78    2.49
   1   0  -7   20.30    1.56
  -1   0  -7   17.52    1.64
   1   0   8  158.71    7.32
  -1   0   8  155.26    7.79
  -1   0  -8  149.39    5.00
   1   0  -8  155.14    5.02
   1   0  -8  151.80    4.52
  -1   0  -9   23.72    2.17
   1   0  -9   23.39    2.07
   1   0 -10  446.77    8.22
  -1   0 -10  446.55    8.60
   1   0 -10  438.29    8.06
   1   0 -11   20.29    1.59
  -1   0 -11   23.36    1.79
   1   1 -11   22.86    1.73
  -1  -1 -11   25.06    1.88
  -1  -1 -10   72.66    3.30
   1   1 -10   69.21    3.26
  -1  -1 -10   71.86    3.48
   1   1  -9   79.96    3.36
  -1  -1  -9   73.82    3.63
   1   1  -9   79.63    3.67
  -1  -1  -8  312.04    7.14
  -1   1   8  334.19   11.33
   1   1  -8  330.29    7.38
   1  -1   8  303.12   10.47
   1   1  -8  323.13    6.63
  -1  -1  -7  259.78    5.45
   1   1  -7  261.24    5.64
  -1  -1  -7  260.72    6.07
   1   1  -7  272.98    6.36
  -1  -1  -7  262.20    6.02
  -1   1   7  270.03    9.37
   1  -1   7  260.76    8.87
  -1  -1  -6   15.77    1.42
   1   1  -6   15.22    1.52
   1   1  -6   14.23    1.22
   1  -1   6   12.91    1.88
  -1  -1  -6   14.12    1.29
   1   1  -6   15.84    1.28
  -1   1   6   12.28    1.95
  -1  -1  -6   13.32    1.16
  -1   1   5  374.93    8.78
  -1  -1  -5  368.66    5.87
   1  -1   5  361.12    8.26
  -1   1   4  137.15    4.70
   1  -1   4  129.25    4.39
  -1   1   3  772.53    9.72
   1  -1   3  825.22    9.65
   1  -1   2 1716.00   12.31
  -1   1   2 1699.09   12.59
  -1   1   1  685.83    4.39
  -1   1   0  663.81    6.30
  -1  -1   0  663.64    4.62
   1   1   0  680.54    5.92
   1   1   1  697.86    3.52
  -1  -1   1  683.67    5.47
  -1   1  -1  682.46    6.46
  -1  -1   2 1681.47   11.47
   1   1   2 1695.11    9.02
   1   1   3  831.10    8.18
  -1  -1   3  836.86    9.88
   1   1   4  129.26    3.92
  -1  -1   4  129.80    4.59
  -1  -1   5  381.28    8.87
   1   1   5  382.59    7.80
  -1   1  -5  377.97    6.10
   1  -1  -5  383.94    6.17
   1  -1  -6   15.27    1.44
   1   1   6   16.77    1.99
  -1  -1   6   13.26    2.00
  -1   1  -6   13.05    1.36
   1  -1  -7  276.24    6.31
   1   1   7  260.17    8.28
  -1  -1   7  257.45    9.06
  -1   1  -7  273.34    6.34
   1  -1  -8  327.01    7.29
  -1  -1   8  321.89   11.11
   1   1   8  318.21   10.09
  -1   1  -8  323.03    7.38
   1  -1  -9   76.19    3.39
   1  -1  -9   79.42    3.70
  -1   1  -9   76.53    3.75
   1  -1 -10   72.95    3.17
   1  -1 -10   71.97    3.38
  -1   1 -10   71.70    3.50
  -1   1 -11   23.61    1.84
   1  -1 -11   22.88    1.54
   1  -1 -11   25.33    1.70
   1   2 -11   26.97    1.82
  -1  -2 -11   28.92    1.86
   1   2 -10   36.90    2.36
  -1  -2 -10   37.03    2.47
  -1  -2  -9   48.42    2.90
   1   2  -9   46.15    2.66
   1   2  -9   44.58    2.76
   1  -2   8   50.82    4.45
   1   2  -8   46.13    2.66
  -1  -2  -8   44.28    2.46
  -1  -2  -8   47.26    2.82
   1   2  -8   46.83    2.87
  -1   2   8   49.20    4.69
  -1  -2  -7   63.12    3.02
   1   2  -7   61.58    2.85
   1   2  -7   64.35    2.84
   1  -2   7   68.09    4.67
  -1  -2  -7   61.72    2.78
   1   2  -7   63.61    3.22
  -1   2   7   60.99    4.71
   1   2  -6  403.87    6.52
  -1  -2  -6  393.25    6.97
   1   2  -6  389.55    6.71
  -1   2   6  394.49   10.47
   1  -2   6  400.79   10.32
  -1  -2  -6  401.81    6.61
  -1  -2  -5 1948.28   13.29
   1   2  -5 1976.99   13.12
  -1   2   5 1943.68   20.90
  -1  -2  -5 1954.72   13.85
   1  -2   5 2003.32   20.55
  -1   2   4  262.25    6.94
   1  -2   4  267.94    6.79
  -1   2   3 1978.22   17.14
   1  -2   3 2004.58   16.69
  -1   2   2   35.43    1.72
   1  -2   2   40.08    2.22
   1   2  -1  743.30    8.14
  -1   2   1  744.49    7.93
  -1   2   0  713.65    7.32
  -1  -2   0  714.50    3.87
   1   2   0  729.26    7.99
  -1  -2   1  754.77    6.47
  -1  -2   1  744.27    4.23
   1   2   1  702.44    8.31
  -1   2  -1  706.07    7.26
  -1  -2   2   40.01    1.96
   1   2   2   40.91    1.42
   1   2   2   39.13    2.24
  -1  -2   3 1954.46   15.94
   1   2   3 1950.90   12.48
   1   2   4  278.07    5.67
  -1  -2   4  265.01    6.83
  -1   2  -5 1965.34   13.94
  -1   2  -5 1952.28   12.96
  -1  -2   5 1954.33   20.96
   1  -2  -5 1968.45   14.28
   1   2   6  408.21    9.20
  -1   2  -6  406.87    7.36
   1  -2  -6  391.13    6.27
   1  -2  -6  405.31    7.13
  -1  -2   6  394.75   10.48
  -1   2  -7   64.85    3.25
  -1  -2   7   59.51    4.53
   1  -2  -7   63.93    2.78
   1  -2  -7   64.81    3.15
   1   2   7   67.99    4.29
  -1   2  -8   47.39    2.93
   1  -2  -8   46.59    2.52
  -1  -2   8   42.23    3.98
   1  -2  -8   46.16    2.86
  -1   2  -9   46.87    3.00
   1  -2  -9   44.17    2.82
   1  -2  -9   51.52    2.70
   1  -2 -10   40.81    2.55
  -1   2 -10   41.89    2.68
  -1   2 -10   38.56    2.53
  -1   2 -11   29.68    1.96
   1  -2 -11   28.47    1.79
   1   3 -11    8.45    1.01
  -1  -3 -11   10.72    1.19
  -1  -3 -10   14.34    1.48
   1   3  -9   41.48    2.57
  -1  -3  -9   40.18    2.36
   1   3  -9   42.03    2.60
  -1  -3  -9   43.73    2.71
   1   3  -8   67.90    3.48
   1   3  -8   69.49    3.30
  -1  -3  -8   68.89    3.18
  -1  -3  -8   73.82    3.50
   1   3  -7   63.87    3.01
  -1  -3  -7   59.66    2.88
   1   3  -7   57.60    2.95
  -1  -3  -7   60.52    3.02
  -1   3   7   65.20    4.44
   1  -3   7   57.67    4.51
  -1  -3  -6  118.35    3.90
   1   3  -6  119.90    3.80
  -1   3   6  119.58    5.61
   1  -3   6  117.70    5.90
  -1  -3  -6  112.56    3.69
   1  -3   5   20.72    2.35
  -1  -3  -5   24.58    1.64
  -1  -3  -5   21.92    1.62
  -1   3   5   24.78    2.33
   1   3  -5   23.03    1.62
   1  -3   4  138.03    5.31
  -1  -3  -4  132.60    3.48
  -1   3   4  139.47    4.86
   1   3  -4  129.34    3.42
  -1  -3  -4  133.67    3.50
  -1   3   3  169.52    4.82
   1  -3   3  174.86    5.49
   1  -3   2  255.33    6.21
  -1   3   2  237.89    5.17
  -1   3   2  254.23    5.73
   1   3  -1  136.96    4.30
  -1   3   1  128.24    3.68
  -1   3   1  138.14    3.73
   1   3   0 1916.80   15.80
  -1  -3   0 1871.92    9.45
  -1   3   0 1897.79   13.00
  -1  -3   1  134.71    3.24
  -1   3  -1  131.58    3.35
   1   3   1  131.39    4.30
   1   3   2  247.19    6.19
  -1  -3   2  235.12    2.72
  -1  -3   2  244.58    5.27
   1   3   3  171.04    5.60
  -1  -3   3  166.53    5.08
  -1  -3   4  133.47    5.10
  -1   3  -4  133.53    3.53
   1   3   4  134.62    5.50
  -1   3  -4  134.00    3.48
   1  -3  -4  134.40    3.63
  -1   3  -5   23.47    1.61
   1   3   5   25.07    2.71
  -1  -3   5   23.06    2.45
   1  -3  -5   24.41    1.74
  -1   3  -5   25.67    1.80
  -1  -3   6  115.87    5.88
   1   3   6  124.42    6.32
   1  -3  -6  117.99    4.06
  -1   3  -6  116.50    4.01
  -1   3  -6  113.00    3.56
  -1  -3   7   64.65    4.84
   1   3   7   58.34    4.70
  -1   3  -7   59.02    3.27
   1  -3  -7   57.21    3.10
  -1   3  -8   66.97    3.60
   1  -3  -8   73.14    3.61
   1  -3  -9   40.81    2.70
  -1   3  -9   44.29    2.94
  -1   3 -10   13.17    1.50
  -1   3 -10   14.05    1.49
   1  -3 -10   14.21    1.52
  -1  -3  10   14.11    1.67
  -1   3 -11    8.59    1.00
  -1  -4 -10   21.99    1.89
   1   4  -9   82.01    3.40
  -1  -4  -9   81.80    3.30
   1   4  -9   78.88    3.38
   1   4  -8    8.17    1.30
   1   4  -8    7.03    1.24
   1   4  -8    8.63    1.28
  -1  -4  -8    8.42    1.25
   1  -4   7   16.47    2.62
   1   4  -7   14.56    1.60
   1   4  -7   17.75    1.89
  -1  -4  -7   13.66    1.55
  -1  -4  -7   15.15    1.63
   1   4  -6   62.68    2.99
  -1  -4  -6   62.39    2.96
   1  -4   6   54.78    4.27
  -1  -4  -6   60.23    2.91
  -1   4   6   57.53    4.14
   1  -4   5  410.65   10.62
  -1  -4  -5  403.38    7.06
   1   4  -5  403.14    7.03
  -1   4   5  396.99    9.78
   1   4  -4  175.47    4.40
   1  -4   4  182.81    6.60
  -1   4   4  183.12    6.17
  -1  -4  -4  174.96    4.42
  -1   4   3  988.57   13.27
   1  -4   3  969.24   14.21
   1   4  -3  957.13    9.70
  -1   4   3  916.08   12.63
  -1  -4  -3  924.57    9.52
  -1   4   2   25.62    2.02
   1   4  -2   28.19    1.69
  -1  -4  -2   25.63    1.59
  -1   4   2   26.84    2.08
   1  -4   2   25.00    2.23
  -1   4   1  413.20    6.94
  -1   4   1  402.56    7.60
  -1   4   0  293.02    5.34
   1   4   0  269.59    6.98
   1   4   1  388.42    8.51
  -1  -4   1  396.75    6.44
  -1   4  -1  415.03    6.04
   1   4   2   23.21    2.27
  -1   4  -2   25.21    1.55
  -1  -4   2   24.76    1.94
  -1   4  -3  916.13    9.32
  -1  -4   3  915.40   12.77
   1  -4  -3  948.89    9.48
   1   4   3  904.86   14.24
  -1   4  -3  943.24    9.43
  -1   4  -4  180.88    4.50
  -1   4  -4  168.43    4.34
   1  -4  -4  180.44    4.51
  -1  -4   4  181.30    6.34
   1   4   4  179.00    6.83
  -1   4  -5  400.90    6.94
   1   4   5  406.28   11.09
  -1  -4   5  384.73   10.17
   1  -4  -5  401.57    7.27
  -1   4  -5  402.12    7.22
  -1   4  -6   56.98    2.72
  -1  -4   6   56.32    4.29
   1   4   6   60.99    4.73
   1  -4  -6   60.38    3.08
  -1   4  -6   58.69    3.01
   1  -4  -7   13.83    1.69
  -1   4  -7   15.96    1.77
  -1  -4   7   13.10    2.58
   1   4   7   14.08    2.49
  -1   4  -8    7.98    1.55
   1  -4  -8    7.86    1.26
  -1   4  -9   81.54    3.76
   1  -4  -9   81.76    3.62
   1  -4 -10   20.24    1.65
  -1   4 -10   19.77    1.64
  -1   4 -10   20.50    1.64
  -1  -4  10   19.64    1.84
  -1  -5 -10    1.38    0.69
  -1  -5  -9   54.46    2.99
  -1  -5  -9   51.31    2.49
   1   5  -9   46.68    2.49
  -1  -5  -8    5.39    1.10
   1   5  -8    7.05    1.12
   1   5  -8    7.42    1.24
   1   5  -8    5.78    1.18
  -1  -5  -7  135.27    4.60
   1   5  -7  138.86    4.77
  -1  -5  -6   87.12    3.67
   1  -5   6   87.17    5.57
   1   5  -6   91.90    3.82
   1  -5   5   56.20    4.20
  -1  -5  -5   52.02    2.77
   1   5  -5   55.65    2.86
   1   5  -4    4.64    0.75
   1   5  -4    4.99    0.99
  -1  -5  -4    3.64    0.84
  -1   5   4    3.09    1.15
   1  -5   4    2.41    1.09
  -1   5   3   45.29    2.33
  -1  -5  -3   47.60    2.46
   1  -5   3   47.87    3.53
   1   5  -3   57.62    2.70
  -1   5   3   49.21    3.43
   1   5  -2  407.36    6.86
  -1   5   2  397.96    8.99
  -1   5   2  388.76    6.49
   1  -5   2  406.38    9.62
  -1  -5  -2  398.40    6.74
   1  -5   1 1974.62   13.17
  -1   5   1 1964.80   14.37
   1   5  -1 2020.91   14.86
  -1  -5  -1 2008.81   14.82
  -1   5   1 1968.40   19.41
   1   5   0  240.95    4.62
  -1   5   0  234.40    5.01
   1   5   0  238.96    5.16
   1  -5   0  245.01    4.68
  -1  -5   0  247.39    5.22
   1   5   0  237.76    7.46
  -1   5  -1 1966.01   14.66
   1  -5  -1 1989.61   13.72
  -1  -5   1 1962.09   14.87
   1   5   1 1948.24   21.58
  -1   5  -1 1982.90   13.66
  -1   5  -2  386.29    6.73
   1  -5  -2  394.87    6.43
   1   5   2  399.71   10.10
  -1   5  -2  388.44    6.37
   1  -5  -3   50.48    2.47
  -1   5  -3   50.15    2.45
  -1   5  -3   55.62    2.60
   1   5   3   54.85    3.89
  -1   5  -4    5.74    1.00
  -1  -5   4    5.85    1.27
  -1   5  -4    5.68    0.96
   1  -5  -4    5.12    0.99
   1   5   4    4.39    1.48
  -1  -5   5   53.10    3.99
  -1   5  -5   55.53    2.84
  -1   5  -5   56.96    2.95
   1   5   5   54.42    4.35
   1  -5  -5   54.28    2.89
  -1   5  -6   84.79    3.51
   1   5   6   74.77    5.57
  -1   5  -6   82.25    3.75
  -1   5  -7  131.31    5.06
   1  -5  -7  142.60    4.98
  -1   5  -7  133.96    4.93
  -1   5  -8    8.05    1.45
   1  -5  -8    8.64    1.38
  -1   5  -9   54.73    2.87
   1  -5  -9   54.27    2.79
   1  -5 -10    1.37    0.48
  -1  -5  10    0.45    0.59
  -1   5 -10    0.67    0.51
  -1  -6  -9    9.23    1.22
  -1  -6  -8   62.69    2.89
   1   6  -8   58.99    2.89
  -1  -6  -8   67.34    3.25
   1   6  -8   62.68    2.95
  -1   6   7  121.41    4.11
  -1  -6  -7  114.97    4.25
   1   6  -7  122.05    4.40
   1   6  -6  337.32    7.41
  -1   6   6  336.43    7.03
  -1  -6  -6  329.14    7.33
   1   6  -5  113.84    4.33
  -1  -6  -5  116.27    4.40
   1  -6   5  105.27    5.99
  -1   6   5  116.15    4.21
  -1   6   4 1928.80   16.58
   1   6  -4 1955.73   15.57
  -1  -6  -4 1939.89   17.36
   1   6  -4 1967.85   17.16
  -1  -6  -3  150.03    4.73
   1  -6   3  147.75    6.53
  -1   6   3  150.89    4.61
   1   6  -3  150.52    4.67
  -1   6   2  706.53    9.62
   1   6  -2  724.31   10.02
  -1   6   2  716.29   13.47
   1  -6   2  711.75   13.73
  -1  -6  -2  705.71   10.10
  -1  -6  -1   67.35    3.09
   1  -6   1   72.01    4.27
   1  -6   1   65.86    2.75
  -1   6   1   68.58    3.04
   1   6  -1   65.83    3.02
   1  -6   0   15.25    1.37
   1   6   0   17.24    1.51
  -1  -6   0   17.81    1.66
  -1   6   0   17.13    1.64
   1   6   0   16.30    1.59
   1   6   1   61.70    2.94
   1   6   1   61.71    4.39
  -1   6  -1   66.46    2.78
   1  -6  -1   69.23    2.90
  -1   6  -1   67.98    3.09
  -1  -6   1   68.04    3.12
   1   6   2  727.68   15.17
  -1   6  -2  711.13    9.78
   1   6   2  704.93    9.77
   1  -6  -2  702.73    9.47
  -1   6  -2  714.57    9.38
  -1   6  -2  713.56   10.03
   1   6   3  152.29    7.11
   1  -6  -3  148.81    4.56
  -1   6  -3  148.22    4.50
  -1   6  -3  147.79    4.64
  -1   6  -4 1878.10   16.76
   1   6   4 1991.34   26.64
  -1   6  -4 1894.15   17.06
   1  -6  -4 1970.48   17.14
  -1   6  -5  110.19    4.17
   1  -6  -5  115.28    4.39
   1   6   5  118.24    6.81
  -1   6  -5  109.55    4.28
  -1   6  -6  329.75    7.05
  -1   6  -6  340.58    7.59
   1  -6  -6  328.97    7.44
   1  -6  -7  128.34    4.58
  -1   6  -7  125.33    4.78
  -1   6  -7  121.28    4.51
  -1   6  -8   67.19    3.30
   1  -6  -8   66.20    3.12
  -1   6  -9    9.36    1.14
   1  -6  -9    8.76    1.08
  -1  -6   9   10.95    1.39
  -1  -7  -8   44.83    2.22
  -1  -7  -8   44.47    2.21
   1   7  -7    4.06    0.84
   1   7  -7    3.53    0.97
  -1  -7  -7    4.24    0.89
  -1  -7  -7    4.72    0.95
  -1  -7  -6   15.79    1.61
  -1  -7  -6   14.03    1.61
  -1   7   6   16.40    1.53
   1   7  -6   14.09    1.59
  -1  -7  -5    3.86    1.10
   1   7  -5    3.03    0.98
  -1   7   5    2.14    1.08
  -1  -7  -4    2.18    0.97
   1   7  -4    1.87    0.96
   1   7  -4    1.80    0.69
  -1   7   4    1.95    0.91
   1   7  -3   31.56    2.33
  -1  -7  -3   33.70    2.50
  -1   7   3   30.87    2.31
   1   7  -2  166.06    5.16
  -1  -7  -2  168.44    5.31
  -1   7   2  165.93    5.09
   1  -7   1  358.17    6.88
   1   7  -1  353.04    7.38
  -1  -7  -1  349.52    7.55
  -1  -7   0    1.93    0.77
   1  -7   0    1.39    0.54
  -1   7   0    1.84    0.98
   1   7   0    1.09    0.79
   1   7   1  346.19    7.18
  -1   7  -1  362.98    7.42
  -1  -7   1  352.17    7.63
  -1   7  -1  339.08    6.63
   1  -7  -1  351.69    6.99
  -1   7  -1  353.13    7.46
   1   7   2  161.83    7.68
  -1   7  -2  170.72    5.19
  -1   7  -2  158.89    4.71
   1  -7  -2  167.94    4.97
   1   7   2  167.32    5.02
  -1   7  -3   31.73    2.23
   1   7   3   26.79    3.37
  -1   7  -3   30.47    2.34
   1  -7  -3   32.65    2.31
   1   7   3   29.92    2.17
  -1   7  -4    0.76    0.72
   1   7   4    1.71    0.72
   1  -7  -4    2.52    0.89
  -1   7  -4    2.36    0.79
  -1   7  -5    3.64    0.94
   1  -7  -5    4.42    1.12
  -1   7  -5    3.48    1.06
  -1   7  -6   13.52    1.54
  -1   7  -6   15.99    1.58
   1  -7  -6   17.81    1.81
   1  -7  -7    4.26    0.98
  -1   7  -7    3.32    0.95
  -1   7  -8   43.69    2.34
  -1  -7   8   44.37    2.59
   1  -7  -8   45.76    2.29
  -1  -8  -7    3.18    0.64
   1   8  -7    4.49    0.82
   1   8  -6   58.82    2.73
  -1  -8  -6   63.17    2.86
   1   8  -5   71.65    3.22
  -1  -8  -5   69.91    3.24
  -1   8   5   68.28    2.94
  -1  -8  -4  260.80    6.45
   1   8  -4  257.24    6.22
   1   8  -4  249.71    5.80
  -1   8   4  253.06    5.92
  -1   8   3  198.76    5.46
  -1  -8  -3  208.41    5.93
   1   8  -3  195.22    5.27
   1   8  -3  193.63    5.50
   1   8  -2   52.86    2.93
  -1  -8  -2   53.23    3.10
  -1   8   2   52.93    2.94
   1   8  -1  251.57    6.26
  -1  -8  -1  267.60    6.80
  -1   8   1  256.86    6.40
  -1  -8   0  239.53    6.49
  -1   8   0  236.46    6.23
  -1   8   0  226.92    6.01
   1  -8   0  236.27    5.81
   1   8   0  222.73    5.86
   1   8   1  246.41    6.09
   1  -8  -1  259.72    6.17
  -1   8  -1  245.68    6.31
  -1   8  -2   54.68    3.09
   1   8   2   47.89    2.68
   1  -8  -2   50.94    2.80
  -1   8  -2   48.60    2.57
  -1   8  -3  200.78    5.75
   1   8   3  189.24    4.99
  -1   8  -3  196.35    5.24
   1  -8  -3  207.85    5.62
  -1   8  -4  244.66    5.86
   1  -8  -4  259.81    6.21
  -1   8  -4  252.74    6.24
  -1   8  -5   65.32    3.05
   1  -8  -5   68.37    3.14
  -1   8  -5   68.40    3.09
  -1   8  -6   57.21    2.50
  -1  -8   6   62.55    3.02
   1  -8  -6   62.54    2.83
  -1   8  -7    3.85    0.77
   1  -8  -7    4.65    0.80
  -1  -9  -5   16.35    1.36
   1   9  -5   15.47    1.31
   1   9  -4   11.94    1.32
   1   9  -4   11.60    1.13
  -1  -9  -4   11.39    1.31
  -1  -9  -3   37.42    2.40
   1   9  -3   33.57    2.12
  -1   9   3   35.48    2.11
   1   9  -3   34.13    2.12
  -1  -9  -2  105.20    3.98
  -1   9   2   96.32    3.50
   1   9  -2  100.32    3.62
   1   9  -2   96.50    3.57
  -1   9   2   94.39    3.51
  -1   9   1   68.05    3.07
   1   9  -1   56.61    2.75
  -1   9   0  148.41    4.62
   1   9   0  143.95    4.26
   1  -9  -1   64.07    2.83
  -1   9  -1   69.05    3.25
   1   9   1   58.22    2.65
  -1   9  -2  102.87    3.91
   1  -9  -2   97.09    3.52
   1  -9  -3   34.05    2.10
  -1   9  -3   36.44    2.30
  -1   9  -4   13.54    1.36
   1  -9  -4   11.09    1.27
  -1   9  -5   13.23    1.23
   1  -9  -5   13.71    1.22
  -1  10   1   16.47    1.34
   1  10  -1   16.75    1.38
   1  10   0    5.23    0.93
  -1  10   0    3.92    0.78
   1  10   1   17.70    1.31
  -1  10  -1   17.59    1.46
  -1  10  -2   41.16    2.08
   1  10   2   38.36    1.85
  -2   0  -1 9999.00   30.83
  -2   0   1 9835.26   32.18
   2   0   2 7237.70   25.11
  -2   0   2 7240.42   30.39
  -2   0   2 7192.84   28.88
   2   0   3  897.36    9.81
  -2   0   3  865.88   11.45
   2   0   4  368.18    7.11
  -2   0   4  370.14    8.50
   2   0  -5  317.66    6.05
  -2   0  -5  302.45    5.23
  -2   0  -5  330.62    5.91
  -2   0  -5  319.16    5.62
   2   0   5  323.59    7.66
  -2   0   5  318.54    6.13
  -2   0   5  320.08    8.90
  -2   0  -6  574.11    8.63
   2   0  -6  564.51    8.79
  -2   0   6  580.37    8.84
  -2   0  -6  572.29    8.34
   2   0   6  563.56   11.29
  -2   0   6  566.33   13.19
  -2   0  -6  532.61    7.39
   2   0  -7   70.23    3.40
  -2   0  -7   73.73    3.44
  -2   0  -7   66.82    3.20
  -2   0   7   70.21    5.25
  -2   0  -7   68.72    3.27
  -2   0  -7   69.63    2.83
   2   0   7   75.59    4.70
  -2   0  -8  811.47   11.83
  -2   0  -8  787.91   11.18
  -2   0  -8  795.97   11.52
   2   0   8  773.94   15.87
  -2   0   8  818.29   18.68
   2   0  -8  783.98   11.80
  -2   0  -9    2.29    0.97
   2   0  -9    2.05    1.04
   2   0 -10   66.87    2.89
  -2   0 -10   66.72    3.27
   2   0 -10   65.66    3.24
   2   0 -11  101.38    3.38
  -2   0 -11  108.92    3.65
   2   1 -11   18.46    1.42
  -2  -1 -11   17.95    1.54
  -2  -1 -10   26.66    2.15
   2   1 -10   26.01    2.06
  -2  -1  -9   77.81    3.74
  -2  -1  -9   71.60    3.55
   2   1  -9   76.77    3.76
   2   1  -8   33.75    2.57
   2  -1   8   33.60    3.69
  -2  -1  -8   29.05    2.43
  -2   1   8   37.54    4.18
  -2  -1  -8   33.14    2.49
  -2  -1  -7   18.58    1.44
   2   1  -7   19.80    1.90
   2  -1   7   20.31    2.63
  -2  -1  -7   17.49    1.74
  -2   1   7   19.02    2.92
  -2  -1  -6  288.46    6.16
   2   1  -6  290.13    6.45
   2  -1   6  298.29    8.73
  -2  -1  -6  279.56    5.96
  -2  -1  -6  280.79    5.28
  -2   1   6  292.55    9.57
  -2  -1  -5  846.90    8.61
   2  -1   5  874.71   13.36
  -2   1   5  856.80   14.88
  -2  -1  -5  876.51    9.47
  -2   1   4   26.23    2.48
   2  -1   4   23.42    2.09
  -2   1   3  335.77    7.56
   2  -1   3  338.18    6.92
  -2   1   2 2022.33   16.96
  -2   1   1  451.76    7.40
  -2  -1  -1  469.68    6.20
   2   1   0  181.30    3.56
  -2   1   0  176.03    4.47
  -2  -1   0  176.55    3.83
  -2   1  -1  455.45    7.11
  -2  -1   1  476.77    6.54
   2   1   1  466.25    4.17
   2   1   1  462.92    6.35
   2   1   2 2104.93   10.53
  -2  -1   2 2110.88   15.10
  -2  -1   2 2088.10   14.64
   2   1   3  344.22    5.30
  -2  -1   3  330.50    6.92
  -2  -1   4   22.24    2.21
   2   1   4   36.79    2.12
   2  -1  -5  856.32    9.82
  -2  -1   5  862.64   14.65
  -2   1  -5  872.06    9.79
  -2   1  -5  866.59    9.25
   2   1   5  873.64   11.72
   2  -1  -6  282.75    6.17
  -2  -1   6  285.29    9.46
  -2   1  -6  293.91    6.35
  -2   1  -6  280.24    5.59
  -2  -1   7   19.25    2.87
  -2   1  -7   20.01    1.95
  -2   1  -7   20.44    1.62
  -2  -1   7   20.60    2.05
   2  -1  -7   16.95    1.78
  -2   1  -8   32.05    2.55
  -2   1  -8   35.32    2.48
  -2  -1   8   31.94    2.54
  -2  -1   8   37.99    4.26
   2  -1  -8   35.76    2.61
  -2   1  -9   76.23    3.76
  -2   1  -9   77.19    3.67
   2  -1  -9   74.53    3.71
  -2   1 -10   28.70    2.17
   2  -1 -10   28.68    2.22
   2  -1 -11   16.91    1.42
  -2   1 -11   17.18    1.45
  -2  -2 -10   16.11    1.69
   2   2 -10   18.54    1.72
  -2  -2 -10   17.75    1.72
   2   2  -9   38.22    2.69
  -2  -2  -9   38.77    2.77
  -2  -2  -9   35.68    2.55
  -2  -2  -8  173.93    5.46
   2   2  -8  180.65    5.83
   2   2  -7  267.13    6.85
  -2  -2  -7  240.69    6.12
   2  -2   7  250.16    9.19
  -2  -2  -6    2.84    0.77
   2  -2   6    1.64    0.89
  -2  -2  -6    4.50    0.74
   2   2  -5  231.75    4.51
  -2  -2  -5  229.46    5.10
   2  -2   5  232.16    7.43
  -2  -2  -5  226.81    4.55
  -2  -2  -4  417.84    6.28
   2  -2   4  427.91    9.26
  -2  -2  -4  406.41    5.69
  -2   2   3  112.56    3.05
   2  -2   3  116.20    4.53
  -2   2   2  101.61    2.21
  -2   2   2  106.85    4.14
  -2   2   1  944.34   11.38
   2   2  -1  938.35    9.96
  -2  -2   0   91.31    2.36
   2   2   0   95.30    3.28
  -2   2   0   97.04    3.60
  -2   2  -1  932.39   10.75
   2   2   1  934.93   10.72
  -2  -2   1  904.32    6.98
  -2  -2   1  899.54    7.99
  -2  -2   2  107.46    3.31
  -2  -2   2  105.16    3.09
   2   2   2  110.29    4.03
  -2   2  -2  109.94    3.83
  -2  -2   3  111.15    4.18
  -2  -2   3  112.26    3.81
   2   2   3  118.26    4.59
  -2  -2   4  417.01    9.38
  -2   2  -4  421.37    6.30
  -2  -2   4  413.17    5.80
   2  -2  -4  419.01    6.26
  -2   2  -5  235.14    5.36
  -2  -2   5  228.06    7.86
   2  -2  -5  240.66    5.28
  -2   2  -5  235.52    5.09
  -2  -2   5  220.68    4.54
  -2   2  -6    3.88    0.92
  -2  -2   6    2.15    0.92
  -2   2  -6    3.67    0.85
   2  -2  -6    3.47    0.90
  -2  -2   7  262.35   10.00
  -2   2  -7  263.50    6.65
  -2   2  -7  250.02    5.73
   2  -2  -7  252.90    6.34
  -2   2  -8  182.18    5.89
  -2  -2   8  182.79    6.25
   2  -2  -8  186.36    5.76
  -2   2  -9   36.34    2.66
  -2   2  -9   34.45    2.49
  -2  -2   9   38.09    2.77
   2  -2  -9   38.30    2.64
  -2   2 -10   18.78    1.81
   2  -2 -10   16.79    1.66
  -2   2 -10   18.67    1.64
  -2   2 -11   32.18    1.85
   2  -2 -11   30.31    1.79
  -2  -3 -10    9.38    1.38
   2   3 -10    7.82    1.02
   2   3  -9   24.54    2.14
  -2  -3  -9   21.28    1.98
  -2  -3  -9   25.59    2.33
   2   3  -8   18.96    2.10
  -2  -3  -8   19.22    2.01
   2   3  -7   89.30    3.40
  -2  -3  -7   83.80    3.73
   2  -3   7   90.72    5.79
  -2   3   7   93.04    6.47
  -2  -3  -6   34.00    2.08
   2   3  -6   32.46    2.00
  -2  -3  -6   31.41    2.22
   2  -3   6   29.12    3.12
  -2  -3  -5   12.85    1.40
   2   3  -5   13.60    1.30
   2  -3   5   12.81    1.88
  -2   3   5   14.36    2.25
  -2  -3  -5   14.47    1.32
   2   3  -4  251.78    4.91
  -2  -3  -4  244.94    4.98
  -2  -3  -4  253.23    5.28
   2  -3   4  269.40    8.06
  -2   3   4  267.60    8.34
   2  -3   3  285.01    7.83
  -2   3   3  282.39    7.69
   2   3  -3  278.58    4.93
  -2   3   2  332.47    5.24
  -2   3   2  339.64    7.78
   2   3  -1  427.24    8.02
  -2   3   1  434.25    8.27
  -2   3   0  180.52    5.14
   2   3   0  192.11    5.45
  -2   3  -1  453.48    7.94
   2   3   1  429.04    8.40
   2   3   2  341.58    7.92
  -2   3  -2  351.87    7.11
  -2   3  -3  273.85    5.09
   2   3   3  275.19    7.68
   2  -3  -3  279.29    4.89
  -2   3  -4  255.54    5.22
   2   3   4  254.14    7.99
  -2  -3   4  246.19    7.60
   2  -3  -4  258.25    5.20
  -2   3  -4  253.11    5.26
  -2  -3   4  251.20    4.79
  -2   3  -5   15.19    1.41
   2   3   5   17.84    2.40
  -2   3  -5   15.87    1.51
   2  -3  -5   13.05    1.42
  -2  -3   5   14.14    2.18
  -2  -3   5   14.48    1.28
  -2   3  -6   34.21    2.40
  -2   3  -6   32.78    2.13
   2   3   6   36.75    3.70
  -2  -3   6   36.85    3.53
   2  -3  -6   34.03    2.28
  -2   3  -7   81.62    3.93
  -2  -3   7   80.21    5.58
   2  -3  -7   81.79    3.71
  -2   3  -7   84.40    3.47
   2   3   7   84.00    5.93
  -2   3  -8   17.79    1.95
  -2  -3   8   21.23    2.36
   2  -3  -8   18.97    2.03
   2  -3  -9   26.20    2.17
  -2   3  -9   21.91    2.06
  -2   3  -9   21.06    1.88
  -2  -3   9   24.24    2.28
  -2  -3  10    9.11    1.37
  -2   3 -10    9.58    1.23
   2  -3 -10   11.19    1.34
  -2   3 -10   11.44    1.37
  -2  -4 -10   54.91    2.76
   2   4  -9   98.25    3.94
  -2  -4  -9  105.21    4.33
   2   4  -8   46.93    3.01
   2   4  -8   49.21    2.58
  -2  -4  -8   50.23    3.28
   2   4  -7  318.31    6.69
  -2  -4  -7  313.38    6.67
   2  -4   6    8.65    1.76
   2   4  -6   10.27    1.29
  -2  -4  -6    9.61    1.30
  -2   4   6    6.91    1.59
  -2   4   5   95.16    5.53
   2   4  -5   88.60    3.37
  -2  -4  -5   88.34    3.39
   2  -4   5   93.77    5.46
  -2   4   4  229.47    7.90
   2  -4   4  239.11    8.15
  -2  -4  -4  226.45    5.16
   2   4  -4  221.31    5.03
  -2  -4  -3  151.11    4.09
   2   4  -3  158.45    4.20
  -2   4   3  152.53    6.01
  -2  -4  -2  428.62    6.59
  -2  -4  -2  444.79    6.72
   2   4  -2  434.24    6.72
  -2   4   2  438.00    9.38
  -2  -4  -1 1560.84   12.36
  -2   4   1 1574.42   12.16
   2   4  -1 1537.74   12.62
  -2  -4   0    1.67    0.57
  -2   4   0    2.90    0.68
  -2   4   0    1.12    0.83
  -2   4   0    0.95    0.55
  -2   4   0    1.73    0.44
   2   4   0    2.55    1.09
  -2   4  -1 1628.67   15.62
  -2  -4   1 1528.30   12.57
   2   4   1 1574.24   18.27
  -2   4  -1 1600.48   12.56
  -2   4  -1 1567.70   12.17
  -2   4  -2  445.64    6.90
  -2   4  -2  443.39    6.65
   2   4   2  461.87   10.38
   2  -4  -2  438.63    6.06
  -2   4  -3  155.56    4.14
  -2   4  -3  159.30    4.33
   2   4   3  162.93    6.51
   2  -4  -3  154.29    3.93
  -2   4  -4  213.45    5.23
   2  -4  -4  220.12    5.10
  -2   4  -4  222.88    5.27
   2   4   4  217.95    8.08
  -2  -4   4  222.23    4.82
  -2   4  -5   88.87    3.56
   2   4   5   88.45    5.54
  -2   4  -5   84.96    3.55
   2  -4  -5   84.72    3.49
  -2  -4   5   87.19    3.04
  -2   4  -6    8.98    1.38
   2  -4  -6    8.24    1.38
   2   4   6    7.38    1.81
  -2   4  -7  341.90    8.04
  -2   4  -7  319.29    6.94
   2  -4  -7  326.19    7.43
  -2  -4   8   49.40    3.51
   2  -4  -8   50.21    2.96
  -2   4  -8   49.70    3.13
  -2   4  -9   95.36    3.97
  -2  -4   9   92.11    4.37
  -2   4  -9  101.85    3.70
   2  -4  -9  101.72    3.92
  -2   4 -10   54.38    2.64
  -2  -4  10   48.81    2.70
   2  -4 -10   54.99    2.56
   2   5  -9   14.61    1.42
  -2   5   9   13.50    1.39
  -2  -5  -9   13.05    1.56
   2   5  -8   35.80    2.54
  -2  -5  -8   37.97    2.74
   2   5  -8   38.13    2.31
   2   5  -7   31.04    2.23
  -2  -5  -7   26.34    2.05
  -2  -5  -7   29.08    2.53
   2   5  -6   98.40    3.86
  -2  -5  -6   98.15    3.83
  -2  -5  -6   98.62    4.39
   2   5  -5  159.80    4.84
   2  -5   5  141.60    7.05
  -2   5   5  153.04    7.23
  -2  -5  -5  151.85    4.80
  -2  -5  -5  162.18    5.39
  -2   5   4  307.32    9.51
  -2  -5  -4  316.78    6.69
   2   5  -4  316.81    6.61
   2  -5   4  315.55   10.04
  -2  -5  -4  326.63    7.15
   2  -5   3  492.41   12.13
  -2  -5  -3  467.25    7.88
  -2   5   3  475.37   10.97
  -2   5   3  475.79    7.87
  -2  -5  -3  471.98    7.93
   2   5  -3  491.47    8.01
   2   5  -2   54.08    2.67
  -2   5   2   54.88    3.47
  -2  -5  -2   50.80    2.58
  -2   5   2   49.86    2.58
   2   5  -1  248.39    5.59
  -2  -5  -1  246.07    5.51
  -2   5   1  244.20    5.41
  -2   5   0  512.91    7.78
   2   5   0  518.69    8.13
  -2   5   0  514.76    8.04
   2   5   0  521.20   11.63
  -2  -5   0  521.09    8.06
  -2  -5   1  249.86    5.67
   2  -5  -1  242.85    4.72
  -2   5  -1  253.14    5.64
   2   5   1  247.48    8.24
  -2   5  -1  242.05    5.45
  -2   5  -2   50.44    2.48
  -2   5  -2   55.88    2.75
  -2   5  -2   54.40    2.66
   2   5   2   55.26    4.13
   2  -5  -2   55.21    2.44
  -2   5  -3  476.84    7.82
  -2   5  -3  476.54    8.25
   2  -5  -3  459.83    7.31
  -2   5  -4  320.54    6.81
  -2   5  -4  311.07    6.84
   2   5   4  325.39   10.60
   2  -5  -4  311.80    6.43
  -2  -5   4  299.04    5.86
  -2   5  -5  147.93    4.90
  -2   5  -5  145.76    4.86
   2   5   5  149.92    7.61
   2  -5  -5  149.27    4.79
  -2   5  -6   93.56    3.90
   2  -5  -6   98.85    4.02
  -2   5  -7   29.86    2.50
  -2   5  -7   31.49    2.25
   2  -5  -7   31.29    2.38
  -2   5  -8   38.82    2.67
  -2  -5   8   38.05    3.01
   2  -5  -8   40.49    2.59
  -2   5  -9   14.46    1.52
   2  -5  -9   14.87    1.48
  -2  -5   9   12.68    1.70
  -2  -6  -9   43.07    2.26
   2   6  -8  122.59    4.12
  -2  -6  -8  119.09    4.14
  -2   6   8  124.81    3.89
   2   6  -8  113.41    3.68
   2   6  -7  172.77    4.94
  -2  -6  -7  160.46    4.69
  -2   6   7  173.24    5.01
  -2  -6  -7  175.87    5.40
  -2  -6  -6  248.19    6.51
   2   6  -6  255.38    6.29
  -2  -6  -6  239.48    6.04
  -2   6   6  245.06    6.23
   2   6  -5  299.80    6.87
  -2  -6  -5  292.48    6.86
  -2   6   5  289.85    6.86
  -2  -6  -5  304.16    7.12
   2   6  -4  119.93    4.36
  -2   6   4  122.35    4.46
   2  -6   4  112.14    6.27
  -2  -6  -4  121.31    4.45
  -2  -6  -4  122.41    4.31
   2  -6   3   25.41    2.91
  -2   6   3   24.66    2.10
  -2  -6  -3   24.69    2.05
   2   6  -3   26.73    2.16
   2   6  -2  440.78    8.17
   2  -6   2  456.27   12.01
  -2  -6  -2  451.04    8.33
  -2   6   2  445.10    8.14
  -2   6   1   20.93    1.82
  -2  -6  -1   20.34    1.87
  -2   6   1   20.99    1.84
   2   6  -1   19.30    1.86
   2   6   0  419.84    7.99
  -2   6   0  436.95    8.12
  -2  -6   0  439.54    8.22
  -2   6   0  426.45    7.82
   2   6   1   17.48    1.82
  -2   6  -1   21.21    1.94
  -2   6  -1   21.30    1.92
   2  -6  -1   21.44    1.60
  -2  -6   1   20.59    1.90
   2   6   1   19.88    2.84
  -2   6  -2  452.19    8.49
   2   6   2  445.54   12.46
  -2   6  -2  453.75    8.17
   2  -6  -2  450.96    7.39
  -2   6  -2  457.21    7.78
  -2   6  -3   27.03    2.03
  -2   6  -3   24.48    2.13
   2   6   3   31.46    3.44
   2  -6  -3   27.25    1.99
  -2   6  -4  111.19    4.21
  -2   6  -4  121.16    4.56
   2   6   4  112.12    6.70
   2  -6  -4  122.42    4.25
  -2   6  -5  291.45    6.94
  -2   6  -5  298.21    7.13
   2  -6  -5  306.21    6.89
  -2   6  -6  252.92    6.42
   2  -6  -6  251.69    6.34
  -2   6  -7  173.77    5.48
  -2   6  -7  174.87    4.96
   2  -6  -7  175.41    5.16
  -2  -6   7  178.51    6.30
  -2   6  -8  128.79    4.34
  -2  -6   8  120.09    4.73
   2  -6  -8  124.15    4.02
  -2   6  -9   37.28    2.10
  -2  -6   9   38.10    2.40
   2  -6  -9   42.94    2.08
  -2  -7  -7   16.02    1.44
  -2   7   7   14.81    1.49
  -2  -7  -7   16.94    1.38
   2   7  -7   15.11    1.48
   2   7  -6   78.96    3.39
  -2   7   6   76.30    3.32
  -2  -7  -6   74.14    3.26
  -2  -7  -6   77.69    3.24
   2   7  -5   12.56    1.60
  -2  -7  -5   12.25    1.55
  -2   7   5   14.94    1.64
  -2  -7  -4  145.73    4.97
   2   7  -4  144.82    4.84
  -2   7   4  144.00    4.84
  -2  -7  -3   44.31    2.83
  -2   7   3   36.88    2.59
   2   7  -3   41.20    2.71
  -2  -7  -2    5.60    1.23
   2   7  -2    4.90    1.18
  -2   7   2    5.38    1.04
  -2   7   2    3.97    1.28
  -2   7   1   25.03    2.10
   2   7  -1   28.88    2.31
  -2  -7  -1   28.02    2.36
  -2   7   1   26.17    2.19
   2   7   0    7.64    1.38
  -2   7   0    7.04    1.29
  -2  -7   0    9.62    1.42
  -2   7   0    9.45    1.57
   2  -7   0   10.19    2.05
   2   7   1   25.83    2.20
  -2   7  -1   25.12    2.22
  -2   7  -1   26.88    2.24
   2  -7  -2    4.43    0.89
  -2   7  -2    5.77    1.25
   2   7   2    4.27    1.07
  -2   7  -3   42.68    2.57
   2   7   3   42.65    2.74
  -2   7  -3   45.23    2.93
   2  -7  -3   45.82    2.53
   2   7   4  133.86    4.69
  -2   7  -4  136.94    4.89
  -2  -7   4  143.51    5.22
   2  -7  -4  147.40    4.69
  -2   7  -4  143.01    4.70
  -2   7  -5   13.37    1.57
  -2  -7   5   13.77    1.80
  -2   7  -5   11.11    1.51
   2   7   5   11.39    1.44
   2  -7  -5   13.28    1.57
  -2  -7   6   72.23    3.76
   2  -7  -6   75.92    3.30
  -2   7  -6   72.20    3.30
  -2   7  -7   13.81    1.51
  -2   7  -7   14.85    1.30
  -2  -7   7   16.15    1.75
   2  -7  -7   16.52    1.52
  -2   7  -8    9.00    1.10
  -2  -7   8    9.74    1.31
   2  -7  -8   10.87    1.09
   2   8  -6   17.53    1.49
  -2  -8  -6   17.61    1.49
  -2   8   6   17.25    1.48
   2   8  -5   58.06    2.81
  -2  -8  -5   59.63    2.86
  -2   8   5   57.39    2.76
  -2  -8  -4    3.32    1.03
   2   8  -4    3.70    0.98
  -2   8   4    4.17    0.95
   2   8  -3   19.43    1.84
   2   8  -3   17.96    1.60
  -2  -8  -3   16.78    1.83
  -2   8   3   16.81    1.82
  -2   8   2  175.18    5.06
  -2  -8  -2  181.92    5.60
   2   8  -2  173.69    5.28
  -2   8   2  175.81    5.35
  -2   8   1  271.34    6.58
   2   8  -1  258.93    6.45
  -2   8   1  267.59    6.61
  -2  -8  -1  274.92    7.02
  -2   8   0    7.94    1.29
  -2   8   0    9.14    1.49
   2   8   0    6.69    1.33
   2   8   1  264.34    6.53
  -2   8  -1  274.24    6.85
   2   8   2  167.70    5.13
   2  -8  -2  177.08    4.77
  -2   8  -2  175.56    5.50
  -2   8  -3   17.75    1.80
   2  -8  -3   18.17    1.63
   2   8   3   14.76    1.64
   2  -8  -4    3.47    0.91
  -2   8  -4    2.05    0.82
   2   8   4    3.40    0.96
  -2   8  -5   62.55    2.98
   2  -8  -5   61.63    2.73
  -2   8  -6   19.48    1.63
  -2   8  -6   17.66    1.50
   2  -8  -6   18.38    1.40
  -2  -9  -4  100.94    3.43
   2   9  -4  100.80    3.28
  -2   9   4   93.63    3.14
   2   9  -3   32.91    2.03
  -2  -9  -3   37.08    2.26
   2   9  -3   34.79    1.93
  -2   9   3   34.28    2.11
   2   9  -2   87.76    3.35
   2   9  -2   84.64    3.10
  -2   9   2   86.28    3.39
   2   9  -1   41.72    2.39
  -2   9   1   45.59    2.46
  -2   9   1   43.60    2.50
   2   9   0   48.98    2.56
  -2   9   0   50.60    2.71
  -2   9  -1   44.97    2.56
   2   9   1   40.74    2.34
  -2   9  -2   92.14    3.59
   2   9   2   77.42    3.03
  -2   9  -3   37.38    2.28
  -2   9  -4  101.67    3.45
  -3   0   0    0.25    0.71
  -3   0  -1 1455.58   14.86
  -3   0   1 1427.42   15.46
   3   0   1 1442.09   10.28
   3   0   2  297.82    5.95
  -3   0   2  319.63    7.64
  -3   0  -2  319.49    7.09
  -3   0   3  839.70   13.50
   3   0   3  879.34   10.75
  -3   0   3  854.06    8.28
  -3   0  -3  840.48    8.22
  -3   0  -3  851.55    8.68
  -3   0   3  855.54    8.19
  -3   0  -4 1988.15   13.64
   3   0  -4 1971.34   14.73
   3   0   4 1987.78   17.66
  -3   0  -4 1993.00   14.30
  -3   0   4 1985.27   16.42
  -3   0  -4 1976.36   15.37
  -3   0   4 1932.39   23.31
  -3   0  -4 1992.64   13.97
  -3   0  -5  185.66    4.67
   3   0  -5  177.31    4.85
  -3   0  -5  182.52    5.09
  -3   0   5  178.13    5.28
  -3   0   5  163.25    7.90
  -3   0  -5  202.34    4.85
  -3   0   5  181.36    7.65
  -3   0  -5  184.81    4.75
   3   0   5  194.21    6.13
  -3   0  -6    8.26    1.26
   3   0  -6    8.57    1.37
  -3   0  -6    8.41    1.18
  -3   0   6    8.96    1.31
   3   0   6    7.55    1.46
  -3   0  -6    5.77    1.11
  -3   0   6    9.49    2.12
  -3   0   6    4.04    1.67
  -3   0  -6    7.57    1.29
  -3   0  -7  104.47    4.15
   3   0  -7  111.74    4.46
  -3   0  -7  100.80    3.75
  -3   0  -7  104.92    4.15
  -3   0   7  101.75    4.33
  -3   0   7   99.77    7.32
  -3   0   7  102.85    6.81
  -3   0  -7  106.17    4.26
  -3   0  -8  115.90    3.93
  -3   0  -8  112.79    4.37
  -3   0  -8  123.23    4.61
   3   0  -8  119.54    4.77
  -3   0  -9   36.15    2.50
   3   0  -9   37.23    2.62
  -3   0 -10   54.35    2.75
   3   0 -10   54.98    2.84
  -3  -1 -10   19.20    1.74
   3   1 -10   16.85    1.66
  -3  -1  -9   14.83    1.70
  -3  -1  -9   13.11    1.66
   3   1  -9   14.56    1.75
   3   1  -8  205.33    6.29
  -3  -1  -8  204.91    5.16
  -3  -1  -8  197.49    5.84
  -3  -1  -8  201.18    6.23
   3   1  -7   68.21    3.60
  -3  -1  -7   69.94    3.11
  -3  -1  -7   74.20    3.52
   3  -1   7   65.25    4.66
  -3   1   7   69.09    6.08
  -3  -1  -7   69.56    3.84
   3   1  -6  146.59    4.93
  -3  -1  -6  148.83    4.69
  -3   1   6  157.00    8.75
   3  -1   6  152.75    6.40
  -3  -1  -6  147.57    5.41
  -3  -1  -6  149.53    4.35
   3  -1   5   50.74    3.46
  -3  -1  -5   48.69    2.39
  -3  -1  -5   47.99    2.48
  -3   1   5   55.62    4.87
  -3  -1  -5   49.20    3.00
  -3  -1  -4  464.59    6.89
  -3   1   4  486.27   12.18
   3  -1   4  478.60    9.86
  -3  -1  -4  492.41    8.39
  -3  -1  -4  471.61    7.04
   3  -1   3  257.93    6.80
  -3   1   3  249.49    7.74
  -3  -1  -3  253.11    4.69
  -3   1   3  253.24    4.69
  -3  -1  -3  248.57    5.42
  -3   1   2  201.77    6.45
  -3  -1  -1  142.29    4.41
  -3   1   1  141.70    5.15
  -3  -1   0  618.35    9.20
  -3   1   0  635.44   10.52
   3   1   0  631.29    7.27
  -3   1  -1  140.59    4.92
   3   1   1  140.77    3.89
  -3  -1   1  136.81    4.53
  -3  -1   2  210.95    5.90
   3   1   2  192.26    3.71
   3   1   2  204.86    5.34
  -3   1  -3  250.96    4.86
  -3   1  -3  250.37    4.66
  -3  -1   3  251.44    5.80
  -3  -1   3  243.65    6.89
  -3  -1   3  243.28    6.88
  -3  -1   3  249.62    4.62
   3  -1  -4  475.78    7.10
  -3   1  -4  478.36    6.84
  -3   1  -4  486.65    7.27
  -3  -1   4  492.25   11.24
  -3   1  -4  483.37    6.77
  -3   1  -4  481.79    6.95
  -3  -1   4  477.29   10.85
  -3  -1   4  480.49    6.58
  -3  -1   4  479.00    8.62
  -3   1  -4  471.55    6.97
  -3  -1   4  470.54    6.72
   3  -1  -5   52.44    2.63
  -3   1  -5   51.20    2.55
  -3   1  -5   48.28    2.49
  -3   1  -5   52.26    2.60
  -3  -1   5   49.11    3.07
  -3  -1   5   53.37    4.30
  -3   1  -5   43.92    2.36
  -3  -1   5   50.76    4.14
  -3   1  -6  155.09    4.77
  -3   1  -6  150.06    4.55
  -3  -1   6  147.46    7.85
  -3   1  -6  155.66    4.78
  -3  -1   6  156.01    5.58
  -3   1  -6  147.24    4.42
  -3  -1   6  161.32    8.04
   3  -1  -6  156.30    4.84
  -3   1  -7   71.31    3.51
  -3   1  -7   74.68    3.32
  -3   1  -7   69.03    3.40
  -3  -1   7   68.84    3.84
  -3  -1   7   75.94    5.95
  -3  -1   7   72.03    5.98
   3  -1  -7   74.30    3.63
  -3   1  -8  205.22    5.99
  -3  -1   8  193.89    6.27
  -3   1  -8  197.42    5.85
  -3   1  -8  198.25    5.20
   3  -1  -8  197.59    5.98
  -3   1  -9   13.31    1.55
   3  -1  -9   12.65    1.69
  -3   1 -10   16.27    1.55
   3  -1 -10   15.56    1.48
   3   2 -10    2.70    0.79
  -3  -2 -10    2.81    0.91
   3   2  -9   56.12    3.24
  -3  -2  -9   53.29    3.00
  -3  -2  -9   52.06    3.16
   3   2  -8   77.52    3.96
  -3  -2  -8   77.35    4.14
  -3  -2  -8   72.50    3.64
   3   2  -7  161.34    5.63
  -3   2   7  179.68    9.69
  -3  -2  -7  162.03    5.23
  -3  -2  -7  160.99    6.13
   3  -2   7  153.09    7.32
  -3  -2  -6  324.51    6.40
  -3  -2  -6  330.40    7.05
  -3  -2  -6  299.81    8.30
   3  -2   6  305.41    9.76
  -3  -2  -5   46.43    2.38
   3  -2   5   50.62    3.72
  -3  -2  -5   46.21    2.53
  -3   2   5   54.68    4.61
  -3  -2  -5   42.87    3.04
  -3  -2  -4   13.19    1.27
  -3  -2  -4   12.79    1.32
  -3   2   4   12.49    2.18
   3  -2   4   13.98    1.94
  -3  -2  -4   13.63    1.61
  -3  -2  -3 1402.23   11.18
  -3   2   3 1413.18   18.99
   3  -2   3 1379.56   17.51
  -3  -2  -3 1373.50   13.53
  -3  -2  -2  658.45    7.23
  -3   2   2  684.03   12.30
  -3   2   2  681.04    7.40
  -3  -2  -2  666.19    8.52
  -3   2   1   66.04    3.73
  -3  -2   0  403.12    6.63
  -3   2   0  410.65    8.92
   3   2   0  429.01    7.46
  -3   2  -1   56.28    3.27
  -3  -2   1   57.24    2.71
   3   2   1   56.54    2.93
  -3  -2   2  661.48    9.56
  -3   2  -2  658.74    7.72
  -3   2  -2  677.01    7.91
  -3  -2   2  666.71    9.29
  -3   2  -2  674.06    7.51
   3   2   2  674.35   10.73
  -3   2  -2  665.23   11.15
  -3   2  -3 1385.40   11.48
  -3   2  -3 1395.48   11.93
  -3  -2   3 1430.80   14.84
  -3  -2   3 1371.47   16.01
  -3  -2   3 1329.96   14.72
   3   2   3 1407.44   17.01
   3  -2  -3 1363.30   10.79
  -3  -2   3 1375.99   11.57
  -3   2  -4   14.53    1.32
  -3   2  -4   13.19    1.28
  -3   2  -4   13.59    1.37
  -3  -2   4   12.10    1.73
  -3  -2   4   12.79    1.07
  -3  -2   4   10.31    1.47
   3   2   4   14.82    2.17
  -3  -2   4   17.10    2.28
   3  -2  -4   15.43    1.36
  -3  -2   4   13.94    1.30
  -3   2  -5   43.40    2.44
  -3   2  -5   46.11    2.53
  -3   2  -5   45.69    2.28
  -3  -2   5   45.82    3.33
  -3   2  -5   47.28    2.49
  -3  -2   5   42.54    3.31
   3   2   5   47.26    3.83
  -3  -2   5   40.74    3.89
  -3  -2   5   44.06    2.29
   3  -2  -5   45.61    2.49
  -3   2  -6  332.17    7.11
  -3  -2   6  342.04    8.97
  -3   2  -6  324.49    6.90
   3   2   6  328.01   10.73
  -3  -2   6  325.85   11.53
  -3   2  -6  337.16    7.17
   3  -2  -6  332.82    7.00
  -3   2  -7  161.83    5.30
  -3  -2   7  168.16    6.40
  -3   2  -7  157.54    5.17
   3   2   7  156.30    7.94
  -3  -2   7  150.65    8.36
  -3   2  -7  168.81    5.08
   3  -2  -7  155.75    5.11
  -3   2  -8   76.32    3.72
  -3   2  -8   74.01    3.28
  -3   2  -8   77.03    3.63
  -3  -2   8   71.03    4.10
   3  -2  -8   76.40    3.66
  -3   2  -9   54.31    3.06
  -3   2  -9   50.98    2.81
   3  -2  -9   54.69    3.05
  -3  -2   9   50.04    3.17
  -3   2 -10    1.73    0.58
   3  -2 -10    1.95    0.75
   3   3 -10    5.89    0.82
  -3  -3 -10    6.04    0.97
   3   3  -9   12.99    1.60
  -3  -3  -9   12.58    1.69
   3   3  -8   14.41    1.84
  -3  -3  -8   13.99    1.91
  -3  -3  -7   14.50    2.13
   3  -3   6  141.06    6.98
  -3   3   6  158.31    8.53
  -3  -3  -6  138.17    5.79
   3  -3   5   92.25    5.44
  -3   3   5   98.06    6.18
  -3  -3  -5   97.96    4.66
   3   3  -4    8.44    1.06
  -3   3   4    8.25    1.09
  -3   3   4    7.26    1.77
  -3  -3  -4   10.14    1.45
   3  -3   4    7.84    1.62
   3   3  -3  144.17    3.82
  -3   3   3  144.64    6.41
  -3   3   3  147.38    4.01
   3  -3   3  153.79    6.36
  -3  -3  -3  147.65    4.71
  -3   3   2   69.03    4.17
   3   3  -2   70.28    2.65
  -3   3   2   66.74    2.61
  -3  -3  -2   65.64    2.83
  -3   3   1  350.97    5.75
  -3  -3  -1  361.33    6.12
  -3   3   0  284.85    7.77
  -3   3   0  288.43    5.16
   3   3   0  300.76    7.35
  -3   3  -1  375.21    8.66
  -3   3  -1  364.31    5.99
  -3  -3   1  357.45    6.70
  -3   3  -1  369.32    5.85
   3   3   1  372.48    8.51
  -3   3  -2   67.32    2.72
  -3  -3   2   69.69    3.26
  -3   3  -2   70.25    2.50
  -3   3  -2   69.17    2.72
   3   3   2   72.52    3.94
  -3   3  -2   72.71    3.87
  -3   3  -3  152.32    4.27
  -3  -3   3  144.63    5.23
   3   3   3  146.71    6.01
   3  -3  -3  149.79    3.75
  -3   3  -3  143.52    3.90
  -3   3  -4    7.88    1.18
  -3  -3   4    9.00    1.64
  -3   3  -4    9.03    1.07
   3  -3  -4   11.58    1.23
   3   3   4   10.77    2.09
  -3  -3   4    9.22    1.08
  -3   3  -5  101.03    3.84
  -3   3  -5   95.41    3.84
  -3   3  -5  100.63    3.38
  -3  -3   5   98.32    5.17
   3   3   5  104.39    5.93
   3  -3  -5  100.83    3.71
  -3  -3   5   97.73    3.51
  -3   3  -6  141.73    4.84
  -3   3  -6  145.38    4.83
  -3  -3   6  153.07    6.54
   3   3   6  138.71    7.34
   3  -3  -6  143.64    4.70
  -3   3  -7   14.78    1.77
  -3   3  -7   11.37    1.51
  -3   3  -7   14.10    1.57
  -3  -3   7   12.22    2.24
   3  -3  -7   13.61    1.68
  -3   3  -8   12.85    1.62
  -3   3  -8   12.94    1.43
  -3  -3   8   14.35    2.12
   3  -3  -8   12.69    1.63
  -3   3  -8   16.49    1.61
  -3   3  -9   13.83    1.64
  -3  -3   9   13.01    1.86
   3  -3  -9   12.37    1.49
   3  -3 -10    6.20    0.91
   3   4  -9   54.10    2.84
  -3  -4  -9   55.26    3.00
   3   4  -8  100.27    4.31
  -3  -4  -8   97.47    4.49
  -3  -4  -7   22.56    2.56
   3   4  -6   97.38    3.56
  -3  -4  -6   93.62    4.69
   3  -4   5  205.57    8.53
   3   4  -5  198.03    4.99
  -3  -4  -5  209.75    6.73
   3   4  -4   60.16    2.76
  -3   4   4   56.79    4.60
  -3   4   4   52.96    2.50
  -3  -4  -4   55.95    2.85
   3  -4   4   53.57    4.22
  -3  -4  -4   62.15    3.46
   3   4  -3  517.75    7.88
  -3   4   3  538.97   12.72
  -3   4   3  515.08    7.53
   3  -4   3  543.83   13.00
  -3  -4  -3  503.17    8.06
  -3  -4  -3  520.85    8.99
   3   4  -2  136.41    4.05
  -3   4   2  139.52    6.17
  -3   4   2  137.46    3.87
  -3  -4  -2  128.29    3.99
  -3  -4  -2  136.71    4.22
  -3   4   1   12.44    2.08
   3   4  -1   13.54    1.45
  -3   4   1   14.61    1.41
  -3   4   1   15.47    1.30
  -3  -4  -1   14.25    1.32
  -3   4   1   12.55    1.27
  -3  -4  -1   13.07    1.38
  -3   4   0  233.54    7.38
  -3   4   0  236.71    5.44
  -3   4   0  244.85    5.09
  -3  -4   0  231.87    5.25
   3   4   0  240.55    7.47
  -3   4   0  238.88    5.10
  -3   4  -1   15.17    1.97
  -3   4  -1   14.73    1.45
  -3  -4   1   13.44    1.46
   3   4   1   16.56    2.16
  -3   4  -1   12.74    1.23
  -3   4  -2  138.08    4.27
  -3  -4   2  130.53    4.71
  -3   4  -2  134.98    3.87
   3   4   2  142.51    6.20
  -3   4  -2  142.75    5.59
  -3   4  -3  508.86    7.60
  -3  -4   3  519.85   10.33
   3   4   3  527.52   12.40
   3  -4  -3  524.52    7.35
  -3   4  -3  526.05    8.67
  -3   4  -4   58.61    3.05
  -3  -4   4   51.83    3.71
  -3   4  -4   55.20    2.54
   3   4   4   54.22    4.33
   3  -4  -4   59.99    2.74
  -3  -4   4   54.16    2.69
  -3   4  -5  197.18    5.69
   3   4   5  195.04    8.53
   3  -4  -5  201.81    5.33
  -3  -4   5  187.26    4.95
  -3   4  -6   94.75    4.06
  -3   4  -6   93.90    4.05
  -3  -4   6   92.76    5.27
   3  -4  -6   94.51    3.85
  -3  -4   6   85.23    3.33
  -3   4  -7   22.95    2.14
  -3   4  -7   23.77    2.12
  -3  -4   7   22.78    2.71
   3  -4  -7   25.35    2.13
  -3   4  -8   99.66    4.09
  -3   4  -8   92.87    3.58
  -3  -4   8  102.59    4.96
   3  -4  -8   99.01    3.93
  -3   4  -9   57.22    2.86
  -3  -4   9   49.25    3.09
   3  -4  -9   53.90    2.69
   3   5  -9   24.36    1.68
  -3   5   9   23.94    1.69
  -3  -5  -9   23.98    1.85
   3   5  -8   14.05    1.70
  -3  -5  -8   17.42    1.92
   3   5  -7   65.97    2.89
  -3  -5  -7   61.44    3.55
  -3  -5  -6   21.47    2.29
   3   5  -6   21.60    1.83
   3   5  -5  107.97    3.94
  -3  -5  -5  104.49    4.12
  -3  -5  -5  108.90    4.70
   3   5  -4   91.88    3.65
  -3  -5  -4   86.93    3.75
   3  -5   4   85.59    5.66
  -3  -5  -4   90.03    4.10
  -3   5   4   85.88    5.46
   3  -5   3  144.45    7.14
  -3   5   3  132.15    6.57
   3   5  -3  145.42    4.57
  -3  -5  -3  133.43    4.56
  -3   5   3  145.86    4.69
  -3  -5  -3  143.57    4.81
  -3   5   2  625.35   13.35
   3  -5   2  611.55   14.16
   3   5  -2  614.76    9.35
  -3   5   2  629.04    8.46
  -3  -5  -2  598.80    9.43
  -3   5   2  600.35    9.20
  -3  -5  -2  600.89    9.04
  -3   5   1  239.77    7.92
  -3   5   1  246.88    5.40
   3   5  -1  244.04    5.89
  -3  -5  -1  237.94    5.87
  -3   5   1  239.33    5.70
  -3   5   0  159.05    6.15
   3   5   0  154.42    4.77
  -3   5   0  148.90    4.94
   3   5   0  161.05    6.88
  -3  -5   0  153.96    4.76
  -3   5   0  162.60    4.63
  -3   5  -1  241.57    6.26
   3   5   1  241.14    8.57
  -3   5  -1  237.58    5.59
  -3   5  -1  227.62    7.20
  -3   5  -2  609.35    8.78
  -3   5  -2  640.53   10.11
  -3  -5   2  609.16   10.37
  -3   5  -2  623.45    9.15
   3   5   2  631.66   14.23
  -3   5  -3  139.07    4.84
  -3  -5   3  136.21    5.44
   3   5   3  135.74    6.97
  -3   5  -3  136.58    4.06
   3  -5  -3  139.84    4.05
  -3   5  -4   93.66    4.04
  -3  -5   4   85.87    4.71
   3   5   4   94.91    6.03
   3  -5  -4   98.67    3.60
  -3  -5   4   87.98    3.55
  -3   5  -5  102.98    4.31
  -3  -5   5  103.08    5.41
   3  -5  -5  108.31    4.00
  -3  -5   5  100.50    3.67
  -3   5  -6   21.78    2.04
  -3  -5   6   20.42    2.60
   3  -5  -6   23.35    1.94
  -3   5  -6   20.62    2.03
  -3   5  -7   61.33    3.26
  -3   5  -7   62.37    3.17
  -3  -5   7   69.04    4.24
   3  -5  -7   62.44    3.09
  -3   5  -8   15.64    1.57
  -3  -5   8   15.88    2.03
  -3   5  -8   14.96    1.39
   3  -5  -8   15.41    1.56
  -3   5  -9   21.16    1.59
  -3  -5   9   25.70    2.09
   3  -5  -9   23.31    1.64
   3   6  -8   13.45    1.40
  -3   6   8   11.38    1.33
  -3  -6  -8   13.79    1.42
   3   6  -7  263.09    5.53
  -3   6   7  285.02    6.25
  -3  -6  -7  275.37    6.52
   3   6  -6   93.93    3.61
  -3   6   6   94.17    3.90
  -3  -6  -6   88.90    3.96
   3   6  -5  163.00    4.93
  -3  -6  -5  149.17    4.85
  -3   6   5  168.20    5.33
  -3  -6  -5  161.53    5.33
   3   6  -4  378.28    7.67
  -3  -6  -4  371.28    7.87
  -3   6   4  372.42    7.99
  -3  -6  -4  370.21    7.80
  -3  -6  -3  203.90    5.89
  -3   6   3  213.36    5.99
   3  -6   3  199.55    8.65
   3   6  -3  210.78    5.79
   3   6  -2  619.17    9.99
  -3  -6  -2  611.71   10.20
  -3   6   2  633.40   10.02
   3  -6   2  600.23   14.85
   3   6  -1  436.81    8.43
  -3   6   1  429.42    8.83
  -3  -6  -1  434.05    8.55
  -3   6   1  436.74    8.28
   3   6   0    1.23    0.93
  -3   6   0   -0.14    0.74
  -3   6   0    0.57    0.86
   3   6   1  441.74    8.66
  -3   6  -1  443.70    9.09
   3   6   1  451.40   12.75
  -3   6  -1  443.14    8.31
  -3   6  -2  637.51   10.78
   3   6   2  610.01   15.16
  -3   6  -2  609.65    9.71
  -3   6  -3  217.35    6.36
  -3  -6   3  197.41    6.32
   3   6   3  208.47    9.20
  -3   6  -4  387.13    8.48
  -3  -6   4  364.66    9.08
   3  -6  -4  373.82    7.08
  -3  -6   4  380.64    7.20
  -3   6  -5  162.38    5.39
  -3  -6   5  159.52    6.18
   3  -6  -5  158.94    4.77
  -3  -6   5  150.37    4.29
  -3   6  -6   85.74    3.84
  -3   6  -6   86.50    3.78
  -3  -6   6   85.96    4.55
   3  -6  -6   87.86    3.51
  -3   6  -7  287.14    6.48
  -3   6  -7  265.69    5.99
  -3  -6   7  275.30    7.53
   3  -6  -7  279.00    5.90
  -3   6  -8   11.77    1.27
  -3  -6   8   14.54    1.66
   3  -6  -8   12.31    1.23
   3   7  -7   24.13    1.59
  -3   7   7   27.09    1.75
   3   7  -6   24.11    1.75
  -3   7   6   29.18    2.08
   3   7  -5   32.01    2.20
  -3  -7  -5   30.05    2.11
  -3   7   5   29.07    2.25
   3   7  -4   21.07    1.91
  -3  -7  -4   18.91    1.80
  -3   7   4   21.91    1.98
  -3  -7  -3   59.82    3.24
  -3   7   3   64.23    3.40
   3   7  -3   61.85    3.21
   3   7  -2  129.48    4.67
  -3  -7  -2  134.91    4.94
  -3   7   2  137.05    4.88
  -3   7   1   26.01    2.13
   3   7  -1   24.33    2.24
  -3   7   1   26.24    2.24
   3   7   0  113.77    4.54
  -3   7   0  114.17    4.47
  -3   7   0  114.19    4.67
   3   7   1   23.41    2.28
  -3   7  -1   25.97    2.34
  -3   7  -1   23.82    2.10
   3   7   2  136.15    4.99
  -3   7  -2  130.91    4.97
  -3   7  -3   65.90    3.54
   3   7   3   58.16    3.25
  -3   7  -4   23.03    2.15
  -3  -7   4   18.59    1.90
   3   7   4   19.75    1.97
   3   7   5   29.50    2.20
  -3   7  -5   29.90    2.29
  -3  -7   5   33.70    2.58
   3  -7  -5   32.66    2.04
  -3   7  -6   27.52    1.96
   3   7   6   25.86    1.88
  -3  -7   6   29.46    2.34
  -3   7  -6   26.73    2.01
   3  -7  -6   29.08    1.85
  -3   7  -7   24.44    1.69
  -3   7  -7   23.46    1.63
  -3  -7   7   26.44    2.05
   3  -7  -7   26.59    1.56
   3   8  -5   28.48    1.83
  -3   8   5   29.56    1.94
  -3  -8  -4   41.13    2.36
  -3   8   4   45.32    2.53
   3   8  -4   44.81    2.45
   3   8  -3  251.01    5.90
  -3  -8  -3  238.35    5.95
  -3   8   3  254.97    6.13
   3   8  -2   68.71    3.27
  -3   8   2   70.71    3.35
   3   8  -1   38.38    2.54
  -3   8   1   38.82    2.55
  -3   8   1   40.26    2.45
   3   8   0  182.73    5.42
  -3   8   0  193.37    5.61
  -3   8   0  186.08    5.48
   3   8   1   37.91    2.56
  -3   8  -1   41.06    2.69
   3   8   2   63.62    3.20
  -3   8  -2   68.10    3.39
   3   8   3  243.84    5.92
  -3   8  -3  254.76    6.31
  -3   8  -4   42.30    2.55
   3   8   4   42.56    2.33
  -3   8  -5   25.10    1.71
   3   8   5   25.64    1.73
   3   9  -3   39.26    2.01
  -3   9   3   38.20    2.07
  -3   9   2   36.80    2.12
   3   9  -2   35.81    2.04
   3   9  -1   27.22    1.85
  -3   9   1   25.09    1.86
   3   9   0  109.50    3.62
  -3   9   0  108.63    3.56
   3   9   1   23.67    1.72
  -3   9  -1   24.77    1.84
   3   9   2   32.66    1.93
  -3   9  -2   34.80    2.08
   3   9   3   38.20    1.93
  -3   9  -3   36.90    2.07
  -4   0   0   10.63    1.69
  -4   0   0    9.35    1.24
  -4   0   0   10.29    1.18
  -4   0  -1  299.99    8.00
  -4   0   1  275.58    8.09
  -4   0  -1  278.83    4.92
  -4   0  -1  284.64    5.31
  -4   0  -1  290.18    5.93
  -4   0   1  284.06    6.08
  -4   0  -1  268.83    5.02
  -4   0   1  281.61    5.46
  -4   0  -1  287.35    5.77
  -4   0   1  270.77    5.00
  -4   0   1  278.43    4.76
  -4   0  -2 1527.68   12.24
  -4   0   2 1498.38   19.50
  -4   0  -2 1529.46   12.52
  -4   0   2 1515.90   14.46
  -4   0  -2 1493.59   11.40
  -4   0   2 1511.64   12.60
  -4   0  -2 1523.61   13.79
  -4   0  -2 1540.21   18.45
  -4   0   2 1530.97   11.68
   4   0  -3 3454.18   19.10
  -4   0  -3 3504.15   19.52
  -4   0   3 3434.87   31.77
  -4   0   3 3437.64   22.76
  -4   0   3 3456.57   19.45
  -4   0  -3 3483.49   19.77
  -4   0  -3 3448.25   21.92
  -4   0   3 3520.70   18.80
   4   0  -4   28.54    1.91
  -4   0  -4   27.28    1.96
  -4   0  -4   24.28    1.79
  -4   0   4   28.39    3.33
  -4   0   4   25.12    1.88
  -4   0  -4   23.96    2.11
   4   0  -5  315.08    6.84
  -4   0  -5  319.36    6.81
  -4   0  -5  317.36    6.83
  -4   0  -5  313.39    7.36
   4   0  -6  478.81    8.85
  -4   0  -6  477.97    8.57
  -4   0  -6  478.74    8.97
  -4   0  -6  463.83    9.24
   4   0  -7  113.09    4.47
  -4   0  -7  123.08    4.38
  -4   0  -7  118.26    4.61
  -4   0   7  117.73    4.64
  -4   0  -7  109.72    4.53
  -4   0  -8   77.41    3.37
  -4   0  -8   69.93    3.42
  -4   0  -8   72.53    3.56
   4   0  -8   79.74    3.75
  -4   0  -9   64.70    3.08
   4   0  -9   68.04    3.24
   4   0 -10    6.23    1.03
   4   1 -10   23.49    1.77
  -4  -1  -9    8.00    1.17
   4   1  -9   10.55    1.37
   4   1  -8   35.65    2.61
  -4  -1  -8   30.01    2.49
   4   1  -7  113.81    4.68
  -4  -1  -7  110.67    4.14
  -4  -1  -7  109.18    4.44
  -4  -1  -7  113.86    5.02
   4   1  -6  261.36    6.83
  -4  -1  -6  269.97    6.37
  -4  -1  -6  269.34    6.75
  -4   1   6  258.31    6.47
  -4  -1  -6  275.04    7.83
   4   1  -5    7.45    1.23
  -4   1   5    5.17    1.10
  -4  -1  -5    4.32    0.95
  -4  -1  -5    4.20    0.88
  -4   1   5    3.21    1.55
  -4  -1  -5    2.81    1.04
  -4   1   4  128.35    4.47
   4  -1   4  136.51    5.64
  -4   1   4  135.46    7.30
  -4  -1  -4  134.06    4.18
  -4  -1  -4  141.16    5.06
   4  -1   3   27.69    2.56
  -4  -1  -3   30.50    1.93
  -4   1   3   28.64    3.12
  -4   1   3   26.27    2.05
  -4   1   3   30.60    1.94
  -4  -1  -3   30.49    2.33
  -4  -1  -2  149.46    3.85
  -4   1   2  148.04    6.42
  -4  -1  -2  153.23    3.83
  -4   1   2  143.37    4.45
  -4   1   2  151.98    4.05
  -4  -1  -2  144.02    4.47
  -4  -1  -1  296.37    5.06
  -4  -1  -1  287.18    5.01
  -4  -1  -1  302.56    5.98
  -4   1   1  299.27    6.14
  -4   1   1  302.21    8.83
  -4   1   1  294.78    5.47
  -4  -1  -1  293.18    6.03
  -4   1   1  285.90    4.57
  -4  -1  -1  287.88    7.49
  -4  -1   0  896.53   13.18
  -4   1   0  931.08   15.05
  -4  -1   0  868.21    8.46
  -4   1   0  914.05   10.58
  -4  -1   0  907.01   10.67
  -4   1   0  887.95    9.64
  -4   1   0  915.07    9.78
  -4  -1   0  900.51   10.17
  -4   1  -1  304.55    8.45
  -4  -1   1  295.85    7.91
  -4   1  -1  289.80    5.19
  -4   1  -1  287.62    5.62
  -4  -1   1  290.23    6.29
  -4   1  -1  287.00    5.37
  -4  -1   1  296.57    5.75
  -4   1  -1  300.81    5.74
  -4  -1   2  144.31    5.77
  -4   1  -2  145.02    4.09
  -4   1  -2  148.56    3.99
  -4   1  -2  141.84    3.74
  -4   1  -2  145.70    4.14
  -4   1  -2  143.63    5.85
  -4  -1   2  142.66    3.84
  -4   1  -3   27.22    1.93
  -4   1  -3   28.29    1.87
  -4  -1   3   29.31    1.90
  -4   1  -3   27.52    1.93
   4   1   3   30.71    2.63
  -4  -1   3   28.09    2.84
  -4  -1   3   24.84    1.76
   4  -1  -4  132.99    3.97
  -4   1  -4  132.84    4.27
  -4   1  -4  140.53    4.19
  -4  -1   4  126.44    6.28
  -4  -1   4  135.78    5.29
  -4  -1   4  136.90    3.99
  -4   1  -4  126.61    4.17
   4   1   4  136.40    6.00
  -4  -1   4  134.89    4.10
  -4   1  -5    3.40    0.80
   4  -1  -5    5.60    0.92
  -4  -1   5    4.66    1.43
  -4   1  -5    4.16    0.99
  -4  -1   5    2.79    1.14
  -4   1  -5    3.55    0.83
   4   1   5    5.88    1.74
  -4   1  -6  259.84    6.13
  -4   1  -6  275.27    6.64
  -4   1  -6  271.25    6.78
  -4  -1   6  248.17   10.48
  -4  -1   6  273.25    8.04
  -4   1  -6  256.28    6.32
   4   1   6  266.74    9.79
   4  -1  -6  277.21    6.58
  -4   1  -7  109.04    4.19
  -4   1  -7  111.72    4.28
  -4   1  -7  115.52    4.52
   4  -1  -7  109.12    4.32
  -4   1  -8   30.29    2.19
  -4   1  -8   29.66    2.28
   4  -1  -8   33.50    2.47
  -4   1  -9    5.97    0.98
  -4   1  -9    6.17    1.01
   4  -1  -9    8.48    1.29
   4  -1 -10   26.71    1.78
   4   2 -10   23.89    1.69
  -4  -2  -9   53.27    2.90
   4   2  -9   60.92    3.08
   4   2  -8   58.35    3.30
  -4  -2  -8   57.89    3.60
   4   2  -7   91.95    4.32
  -4  -2  -7   84.04    4.64
   4   2  -6   28.03    2.40
  -4  -2  -6   27.42    2.15
  -4   2   6   23.75    3.96
  -4  -2  -6   24.77    2.77
   4  -2   6   29.84    3.03
  -4  -2  -5   19.18    1.79
   4  -2   5   20.23    2.62
  -4   2   5   18.74    3.22
  -4  -2  -5   17.82    2.19
  -4  -2  -4  238.79    5.62
  -4   2   4  230.71    5.60
  -4   2   4  224.62    9.50
   4  -2   4  225.95    7.95
  -4  -2  -4  238.42    7.01
  -4  -2  -3   30.46    1.96
   4  -2   3   29.74    2.98
  -4   2   3   24.70    1.91
  -4   2   3   29.16    3.29
  -4   2   3   29.61    1.98
  -4  -2  -3   27.49    2.24
  -4  -2  -2  173.18    4.24
  -4   2   2  179.00    7.41
  -4   2   2  178.93    4.82
  -4   2   2  176.27    4.73
  -4   2   2  179.10    4.36
  -4  -2  -2  174.01    5.15
  -4  -2  -1  322.25    5.46
  -4   2   1  319.40    9.51
  -4  -2  -1  321.57    6.25
  -4   2   1  314.82    6.12
  -4   2   1  311.38    5.57
  -4  -2  -1  313.10    6.43
  -4   2   0   29.08    2.88
  -4   2   0   29.28    1.67
  -4  -2   0   25.18    1.87
  -4   2   0   24.95    1.79
  -4   2   0   26.44    1.66
  -4  -2   0   24.41    1.78
  -4  -2   0   26.38    2.20
  -4   2  -1  323.48    9.08
  -4  -2   1  314.20    7.45
  -4   2  -1  310.79    5.71
  -4   2  -1  315.44    6.21
  -4  -2   1  310.58    6.72
  -4   2  -1  309.47    5.85
  -4   2  -1  305.56    5.59
  -4  -2   1  321.87    6.10
  -4  -2   2  162.88    5.66
  -4   2  -2  180.90    4.76
  -4   2  -2  169.24    4.30
  -4   2  -2  177.05    4.56
   4   2   2  177.39    5.98
  -4  -2   2  171.11    4.31
  -4   2  -2  165.92    4.19
  -4   2  -2  177.90    6.79
  -4  -2   3   25.68    2.45
  -4   2  -3   26.95    1.97
  -4   2  -3   28.86    1.99
  -4  -2   3   29.01    1.84
   4   2   3   25.93    2.67
  -4   2  -3   25.42    1.73
  -4  -2   3   27.53    1.95
  -4   2  -4  231.97    5.87
  -4   2  -4  237.55    5.52
  -4  -2   4  249.72    7.70
  -4  -2   4  234.81    5.11
   4   2   4  238.72    8.19
   4  -2  -4  232.96    5.18
  -4  -2   4  237.26    5.59
  -4   2  -5   18.01    1.63
  -4   2  -5   19.54    1.84
  -4  -2   5   18.89    2.52
   4   2   5   21.42    2.79
  -4   2  -5   23.33    1.87
  -4  -2   5   20.08    1.74
   4  -2  -5   21.64    1.75
  -4   2  -6   27.58    2.06
  -4  -2   6   26.59    2.94
  -4   2  -6   28.40    2.27
   4  -2  -6   27.68    2.15
   4   2   6   23.38    3.09
  -4   2  -7   82.58    3.64
  -4   2  -7   89.01    3.85
  -4  -2   7   84.24    4.82
   4  -2  -7   89.59    3.84
  -4   2  -8   56.61    2.99
  -4   2  -8   58.13    3.00
   4  -2  -8   55.76    2.99
  -4   2  -9   48.65    2.32
  -4  -2   9   51.63    2.87
   4   3  -9    0.99    0.55
  -4  -3  -9    0.44    0.68
   4   3  -8    4.43    1.16
  -4  -3  -8    6.56    1.47
   4   3  -7   10.80    1.75
  -4  -3  -7    8.65    1.78
  -4   3   6   13.93    1.59
  -4  -3  -6   13.90    2.15
   4  -3   5  150.19    7.14
  -4   3   5  167.26    8.89
  -4   3   5  147.47    4.73
  -4  -3  -5  152.80    6.32
  -4   3   4   99.56    6.53
  -4   3   4   91.59    3.74
   4  -3   4   90.45    5.50
  -4  -3  -4   97.81    4.71
  -4   3   3   24.31    3.10
  -4   3   3   28.54    2.11
   4  -3   3   30.55    3.18
  -4  -3  -3   27.63    2.34
  -4   3   2   35.46    3.61
   4   3  -2   36.31    2.05
  -4   3   2   40.64    2.43
  -4  -3  -2   36.46    2.49
  -4   3   1  201.13    7.82
  -4  -3  -1  183.16    4.82
  -4   3   1  192.45    4.93
  -4   3   1  202.25    4.63
  -4   3   1  189.61    4.36
   4   3  -1  193.93    4.75
  -4  -3  -1  191.37    5.19
  -4  -3   0    2.21    0.70
  -4   3   0    3.65    0.70
  -4   3   0    3.29    0.84
  -4   3   0    1.59    1.16
  -4   3   0    1.92    0.61
  -4   3   0    2.34    0.61
   4   3   0    2.65    1.05
  -4  -3   0    2.43    0.69
  -4   3  -1  191.80    7.30
  -4   3  -1  193.29    4.91
  -4   3  -1  194.61    4.86
   4   3   1  204.97    6.68
  -4   3  -1  181.98    4.10
  -4  -3   1  192.45    4.80
  -4   3  -2   36.74    2.31
  -4   3  -2   37.25    2.30
  -4  -3   2   36.87    2.79
  -4   3  -2   35.23    2.17
   4   3   2   37.69    3.07
  -4  -3   2   38.60    2.11
  -4   3  -2   38.16    3.37
  -4   3  -3   27.17    2.08
  -4   3  -3   27.51    2.03
  -4  -3   3   25.52    2.63
   4   3   3   29.53    3.09
  -4  -3   3   29.09    2.05
  -4   3  -4   95.47    3.96
  -4   3  -4   90.86    3.50
  -4  -3   4   91.87    5.14
   4   3   4   93.80    5.46
  -4  -3   4   96.15    3.73
  -4   3  -5  151.51    4.72
  -4   3  -5  155.12    5.20
  -4   3  -5  159.86    4.64
  -4  -3   5  138.28    6.69
   4   3   5  148.11    7.23
   4  -3  -5  161.35    4.70
  -4  -3   5  159.32    4.84
  -4   3  -6   14.91    1.57
  -4   3  -6   14.96    1.73
  -4  -3   6   13.94    2.66
   4  -3  -6   15.50    1.63
  -4   3  -7   10.07    1.37
  -4  -3   7   10.05    1.97
  -4   3  -7    6.91    1.41
   4  -3  -7   11.56    1.46
  -4   3  -8    2.81    0.76
   4  -3  -8    4.94    0.99
  -4  -3   8    5.57    1.64
  -4   3  -8    5.38    0.98
   4  -3  -9    0.08    0.60
  -4   3  -9   -0.80    0.34
   4   4  -9   18.82    1.53
  -4  -4  -9   18.35    1.59
   4   4  -8   13.97    1.66
  -4  -4  -8   12.27    1.71
   4   4  -7  116.29    4.71
  -4  -4  -7  128.68    5.44
  -4  -4  -6  128.67    5.75
  -4   4   5   17.47    1.62
  -4  -4  -5   18.74    2.36
  -4   4   4  273.95   10.69
  -4   4   4  278.39    6.26
   4  -4   4  253.27    9.75
  -4  -4  -4  286.00    7.99
   4   4  -3  102.87    3.63
  -4   4   3   97.32    5.98
   4  -4   3  106.44    6.25
  -4   4   3  103.26    3.87
  -4  -4  -3  105.94    4.55
  -4   4   2  305.39   10.30
   4   4  -2  323.70    6.53
  -4   4   2  319.60    6.65
  -4   4   2  325.11    6.63
  -4  -4  -2  322.28    7.28
  -4   4   1  192.39    7.93
   4   4  -1  209.61    5.43
  -4   4   1  197.67    5.17
  -4   4   1  196.84    5.03
  -4  -4  -1  191.72    5.32
  -4   4   0   93.70    5.41
  -4   4   0   95.24    3.76
  -4  -4   0   93.05    3.68
  -4   4   0   95.11    3.59
  -4   4   0   95.15    3.41
  -4  -4   0   90.15    3.48
  -4   4  -1  202.13    7.66
  -4   4  -1  204.04    5.72
  -4   4  -1  207.82    5.33
   4   4   1  190.36    7.26
  -4   4  -1  199.87    4.89
  -4   4  -2  326.73    7.38
  -4   4  -2  320.22    6.85
  -4  -4   2  312.77    8.08
  -4   4  -2  314.65    6.13
   4   4   2  313.31    9.64
  -4  -4   3  104.23    3.99
  -4   4  -3  112.36    4.39
  -4   4  -3  100.96    3.83
  -4  -4   3  101.81    5.10
   4   4   3   92.65    5.63
  -4   4  -4  273.78    6.13
  -4   4  -4  269.51    6.91
  -4  -4   4  252.39    8.63
   4   4   4  259.65    9.62
  -4  -4   4  273.71    6.47
  -4   4  -5   14.43    1.57
  -4   4  -5   14.84    1.80
  -4   4  -5   18.65    1.61
  -4  -4   5   12.93    2.28
   4  -4  -5   15.69    1.53
  -4  -4   5   17.75    1.79
  -4   4  -6  119.68    4.37
  -4   4  -6  121.92    4.66
  -4  -4   6  121.14    6.33
   4  -4  -6  122.71    4.20
  -4   4  -7  116.83    4.21
  -4   4  -7  118.99    4.38
  -4  -4   7  123.50    5.91
   4  -4  -7  121.89    4.12
  -4   4  -8   10.90    1.38
  -4   4  -8   12.06    1.38
  -4  -4   8   14.03    1.82
   4  -4  -8   10.90    1.27
   4  -4  -9   18.02    1.39
   4   5  -8    5.92    1.09
  -4   5   8    4.99    0.93
  -4  -5  -8    5.89    1.13
  -4   5   7   38.91    2.40
  -4  -5  -7   35.54    2.65
  -4   5   6  132.38    4.60
  -4  -5  -6  134.41    5.27
   4   5  -5   76.84    3.17
  -4   5   5   85.25    3.84
  -4  -5  -5   90.85    4.47
   4   5  -4   22.76    1.85
  -4   5   4   21.47    1.76
  -4   5   4   23.25    2.14
  -4  -5  -4   20.55    2.20
   4  -5   3  102.85    6.58
  -4   5   3  103.25    6.38
   4   5  -3  100.68    3.92
  -4   5   3  105.07    3.83
  -4   5   3  104.56    4.16
  -4  -5  -3  100.78    4.36
  -4   5   2   80.82    5.35
   4   5  -2   84.78    3.65
  -4   5   2   83.51    3.46
  -4   5   2   81.46    3.59
  -4  -5  -2   78.28    3.61
   4  -5   2   77.70    5.54
  -4   5   1  113.90    6.11
   4   5  -1  125.05    4.46
  -4   5   1  128.21    4.29
  -4   5   1  125.15    4.35
  -4  -5  -1  120.63    4.13
  -4   5   0  343.12   10.24
   4   5   0  373.35    7.81
  -4   5   0  328.11    7.79
  -4   5   0  373.59    7.30
  -4   5  -1  113.77    4.76
  -4  -5   1  118.09    4.41
   4   5   1  115.79    6.25
  -4   5  -1  114.85    4.07
  -4   5  -1  117.27    5.97
  -4   5  -2   78.51    3.48
  -4   5  -2   84.67    4.12
   4   5   2   76.76    5.29
  -4   5  -2   78.77    3.38
  -4   5  -3   98.91    3.79
  -4   5  -3  103.70    4.54
  -4  -5   3   95.75    4.85
   4   5   3   94.40    6.07
  -4   5  -4   21.52    1.75
  -4   5  -4   24.87    2.22
  -4  -5   4   23.46    2.86
  -4  -5   4   22.86    1.91
  -4   5  -5   81.04    3.58
  -4   5  -5   80.47    3.93
  -4  -5   5   81.84    4.96
  -4  -5   5   82.64    3.49
  -4   5  -6  115.07    4.21
  -4   5  -6  131.40    4.77
  -4  -5   6  129.14    6.10
   4  -5  -6  123.47    3.97
  -4   5  -7   34.67    2.20
  -4   5  -7   36.84    2.36
  -4  -5   7   38.48    3.18
   4  -5  -7   33.86    2.01
   4  -5  -8    5.54    0.84
  -4   5  -8    6.43    0.81
   4   6  -7   19.14    1.70
  -4   6   7   20.60    1.70
  -4  -6  -7   19.62    1.67
  -4   6   6    0.57    0.73
  -4  -6  -6    0.24    0.70
   4   6  -5   30.96    2.03
  -4   6   5   36.46    2.50
  -4  -6  -5   32.97    2.47
   4   6  -4   49.77    2.74
  -4   6   4   47.94    2.92
  -4  -6  -4   47.71    2.94
   4   6  -3  376.72    7.53
  -4   6   3  384.28    8.00
  -4  -6  -3  366.20    7.56
   4   6  -2   46.74    2.84
  -4   6   2   47.57    2.93
   4   6  -1    4.82    1.24
  -4   6   1    7.49    1.38
  -4   6   0  392.60    7.90
   4   6   0  399.80    8.36
   4   6   1    4.79    1.35
  -4   6  -1    6.01    1.30
  -4   6  -1    2.97    1.06
  -4   6  -1    3.73    1.15
   4   6   2   52.41    3.18
  -4   6  -2   47.18    2.70
  -4   6  -2   48.98    3.26
  -4   6  -2   52.87    2.90
  -4  -6   3  374.49    7.64
  -4   6  -3  396.15    8.82
  -4   6  -4   50.00    3.14
  -4  -6   4   46.14    3.28
  -4  -6   4   46.13    2.66
  -4   6  -5   32.05    2.45
  -4  -6   5   32.18    2.89
  -4  -6   5   31.61    2.06
  -4  -6   6    0.80    0.86
  -4   6  -6    0.16    0.66
  -4   6  -7   19.94    1.64
  -4   7   6   11.59    1.26
   4   7  -5   35.28    1.98
  -4   7   5   36.87    2.25
   4   7  -4   -0.22    0.59
  -4   7   4    0.88    0.88
   4   7  -3    5.82    1.08
  -4   7   3    5.24    1.19
   4   7  -2   60.24    3.12
  -4   7   2   63.39    3.27
   4   7  -1   23.70    2.07
  -4   7   1   20.84    2.01
   4   7   0   22.73    2.08
  -4   7   0   17.83    1.94
  -4   7   0   20.06    1.92
   4   7   1   24.17    2.20
  -4   7  -1   20.49    1.75
  -4   7  -1   23.12    2.16
  -4   7  -1   19.62    1.93
   4   7   2   55.54    3.18
  -4   7  -2   62.50    3.48
  -4  -7   3    2.96    0.82
   4   7   3    6.02    1.30
  -4   7  -3    3.59    1.12
  -4  -7   4    0.22    0.52
   4   7   4    1.03    0.70
  -4   7  -4   -0.81    0.67
   4   7   5   38.13    2.37
  -4   7  -5   37.85    2.38
   4   7   6    9.81    1.10
  -4   7  -6   10.36    1.22
   4   8  -4   66.74    2.55
  -4   8   4   70.92    2.83
   4   8  -3   47.26    2.33
  -4   8   3   52.11    2.61
   4   8  -2   74.15    3.07
  -4   8   2   82.61    3.33
   4   8  -1   23.20    1.87
  -4   8   1   23.13    1.73
  -4   8   1   24.30    1.92
   4   8   0   56.89    2.85
  -4   8   0   60.44    2.93
   4   8   1   20.35    1.77
  -4   8  -1   20.40    1.84
   4   8   2   74.77    3.22
  -4   8  -2   74.63    3.30
  -4  -8   2   73.77    2.91
   4   8   3   51.26    2.57
  -4   8  -3   48.71    2.62
  -4  -8   3   45.10    2.11
  -4   8  -4   68.01    2.89
   4   8   4   63.83    2.68
   4   9   0    9.16    1.03
  -5   0   0    0.66    0.51
  -5   0   0    0.49    0.76
  -5   0   0   -0.07    0.63
  -5   0   0   -0.22    0.73
  -5   0   0   -0.09    0.72
  -5   0   1  285.26    9.34
  -5   0  -1  286.73    5.61
  -5   0  -1  274.37    5.86
  -5   0   1  271.58    5.62
  -5   0   1  269.50    6.92
  -5   0  -1  278.72    5.82
  -5   0   1  272.82    6.18
  -5   0   1  284.84    6.31
  -5   0  -1  285.28    6.62
  -5   0   1  271.61    5.25
  -5   0  -1  285.21    9.07
  -5   0   2    5.63    0.92
  -5   0  -2    4.47    0.94
  -5   0   2    4.70    0.86
  -5   0   2    4.45    1.26
  -5   0  -2    3.29    0.90
  -5   0  -2    4.94    0.86
  -5   0   2    5.52    1.45
  -5   0   2    5.94    1.10
  -5   0  -2    8.12    1.33
  -5   0  -3   33.76    2.21
  -5   0   3   26.74    3.28
  -5   0  -3   33.28    2.21
  -5   0   3   31.21    2.61
  -5   0   3   36.46    2.38
  -5   0  -3   33.75    2.54
  -5   0  -4  478.67    8.46
  -5   0   4  434.91   13.75
  -5   0   4  451.70    9.58
  -5   0  -4  460.16    9.32
   5   0  -5  499.38    8.60
  -5   0  -5  517.36    9.11
  -5   0   5  519.32   10.28
  -5   0  -5  498.71    9.95
  -5   0  -6   66.68    3.35
  -5   0   6   63.08    3.67
  -5   0  -6   61.51    3.52
   5   0  -6   66.00    3.23
  -5   0  -7  199.52    5.53
  -5   0   7  189.66    5.73
  -5   0  -7  182.77    5.60
   5   0  -7  192.46    5.42
  -5   0  -8   10.45    1.26
   5   0  -8    8.88    1.23
   5   0  -9    0.77    0.57
   5   1  -9   24.11    1.69
  -5   1   8   14.67    1.46
  -5  -1  -8   17.50    1.74
   5   1  -8   16.31    1.57
   5   1  -7   14.52    1.64
  -5  -1  -7   14.49    1.58
  -5  -1  -7   12.39    1.70
   5   1  -6   14.31    1.69
  -5  -1  -6   15.18    1.78
  -5   1   6   15.36    1.82
  -5  -1  -6   16.39    2.26
   5   1  -5  234.92    6.11
  -5  -1  -5  240.33    6.17
  -5   1   5  224.53    6.39
  -5  -1  -5  246.78    7.65
   5   1  -4    1.60    0.78
  -5   1   4    3.82    1.20
  -5  -1  -4    3.65    1.02
  -5  -1  -4    3.35    1.31
  -5  -1  -3   58.65    2.85
  -5   1   3   54.46    4.90
  -5   1   3   58.93    3.36
  -5   1   3   61.68    3.06
  -5  -1  -3   63.48    3.68
  -5  -1  -2  101.32    3.56
  -5   1   2   95.14    6.02
  -5  -1  -2  102.07    3.58
  -5   1   2  104.22    4.38
  -5   1   2   92.40    3.88
  -5   1   2  100.07    3.72
  -5  -1  -2   97.70    4.18
  -5   1   1  106.62    6.04
  -5  -1  -1  115.73    3.58
  -5  -1  -1  119.09    3.68
  -5   1   1  105.02    3.82
  -5   1   1  118.45    4.56
  -5   1   1  120.33    4.24
  -5   1   1  120.15    4.06
  -5  -1  -1  121.63    4.46
  -5  -1  -1  112.81    5.45
  -5  -1   0    9.45    1.10
  -5   1   0   11.01    1.37
  -5  -1   0   11.58    1.49
  -5   1   0   11.49    1.42
  -5  -1   0   10.23    1.23
  -5  -1   0   10.59    1.78
  -5   1   0   11.30    2.03
  -5   1   0   11.17    1.40
  -5  -1   0    9.79    1.40
  -5  -1   0    9.12    1.09
  -5   1  -1  120.60    6.12
  -5  -1   1  117.32    5.73
  -5   1  -1  117.17    3.68
  -5   1  -1  121.27    4.15
  -5  -1   1  119.09    4.63
  -5   1  -1  122.40    4.00
  -5  -1   1  120.54    4.20
  -5   1  -1  118.32    4.15
  -5  -1   1  116.96    3.76
  -5  -1   2   86.50    5.01
  -5   1  -2   96.79    3.55
  -5   1  -2   98.06    3.82
  -5  -1   2   97.18    4.37
  -5   1  -2   94.72    3.45
  -5  -1   2   97.70    3.72
  -5   1  -2   91.01    3.71
  -5  -1   2   96.96    3.56
  -5  -1   3   54.49    4.16
  -5   1  -3   57.84    2.93
  -5   1  -3   58.30    2.98
  -5  -1   3   61.07    3.72
  -5  -1   3   60.56    2.95
  -5   1  -3   59.78    3.08
  -5  -1   3   57.22    2.80
  -5   1  -4    3.08    1.04
  -5  -1   4    3.71    1.42
  -5   1  -4    4.41    0.97
  -5  -1   4    4.35    1.09
  -5   1  -4    3.67    0.94
  -5   1  -5  240.68    6.30
  -5  -1   5  243.27    7.69
  -5   1  -6   12.37    1.67
  -5  -1   6   12.73    2.18
  -5   1  -6   13.15    1.48
   5  -1  -6   16.32    1.61
  -5   1  -7   12.47    1.58
  -5  -1   7   15.61    1.96
   5  -1  -7   12.29    1.42
  -5   1  -8   16.39    1.53
  -5  -1   8   15.71    1.69
   5  -1  -8   13.27    1.36
   5  -1  -9   23.25    1.60
  -5   2   8   97.91    3.35
  -5  -2  -8  104.79    4.23
   5   2  -8   99.81    3.75
   5   2  -7   27.41    2.23
  -5   2   7   25.06    2.06
  -5  -2  -7   23.04    2.48
   5   2  -6   42.97    2.83
  -5   2   6   43.67    2.77
  -5  -2  -6   39.83    3.43
   5   2  -5   42.78    2.76
  -5   2   5   40.89    2.78
  -5  -2  -5   37.14    3.33
  -5  -2  -4   70.88    3.32
  -5   2   4   59.65    5.59
  -5   2   4   66.36    3.37
  -5   2   4   67.13    3.51
  -5  -2  -4   65.04    4.09
  -5  -2  -3    8.89    1.27
   5  -2   3    4.45    1.51
  -5   2   3    6.46    1.28
  -5   2   3   11.31    2.29
  -5  -2  -3   11.36    1.72
  -5   2   2  281.20   10.55
  -5   2   2  280.06    6.73
  -5   2   2  296.96    6.32
  -5  -2  -2  283.46    7.36
  -5   2   1  120.87    6.65
  -5  -2  -1  135.58    4.64
  -5   2   1  126.53    4.44
  -5   2   1  126.94    4.11
  -5  -2  -1  127.30    4.69
  -5   2   0  518.68   13.26
  -5   2   0  501.43    8.81
  -5  -2   0  530.21    9.45
  -5   2   0  544.65    8.87
  -5   2   0  522.55    8.14
  -5  -2   0  526.78    9.03
  -5   2  -1  122.41    6.40
  -5   2  -1  130.24    4.11
  -5   2  -1  129.06    4.45
  -5  -2   1  133.80    5.04
  -5   2  -1  134.62    4.37
  -5   2  -1  123.79    4.02
  -5  -2   1  127.47    4.33
  -5  -2   1  129.28    4.23
  -5   2  -2  281.43    6.40
  -5   2  -2  297.71    6.74
  -5  -2   2  288.40    7.76
  -5   2  -2  276.00    6.17
  -5  -2   2  276.62    6.24
  -5   2  -2  265.33    5.93
  -5   2  -2  310.88   10.13
  -5  -2   2  292.38    6.38
  -5   2  -3    9.02    1.32
  -5   2  -3   10.07    1.38
  -5  -2   3    8.08    1.77
  -5   2  -3    8.31    1.16
  -5  -2   3    7.37    1.22
  -5  -2   3    8.62    1.29
  -5   2  -4   64.44    3.29
  -5   2  -4   72.58    3.40
  -5  -2   4   65.96    4.38
  -5  -2   4   67.27    3.07
  -5   2  -4   60.10    2.89
  -5  -2   4   68.68    3.29
  -5   2  -5   44.14    2.80
  -5  -2   5   44.09    3.70
  -5   2  -6   47.82    2.95
  -5  -2   6   44.07    3.65
   5  -2  -6   48.25    2.58
  -5   2  -7   25.30    2.07
  -5  -2   7   28.65    2.67
   5  -2  -7   27.49    1.98
  -5   2  -8  105.23    3.62
  -5  -2   8  106.63    4.28
   5  -2  -8   95.92    3.35
   5   3  -8    3.61    0.88
  -5  -3  -8    4.49    0.95
   5   3  -7   16.82    1.70
  -5   3   7   15.54    1.52
  -5  -3  -7   14.10    2.03
   5   3  -6    6.81    1.34
  -5   3   6    6.94    1.26
  -5  -3  -6    6.31    1.76
  -5   3   5   43.40    2.75
  -5  -3  -5   43.73    3.61
  -5   3   4   31.69    2.47
  -5  -3  -4   30.56    2.99
  -5   3   3  187.63    9.26
  -5   3   3  195.76    5.75
  -5   3   3  184.49    5.07
  -5  -3  -3  192.96    6.56
   5  -3   2   39.13    3.76
  -5   3   2   53.08    4.83
  -5   3   2   45.12    2.79
  -5   3   2   43.62    2.48
  -5  -3  -2   46.55    3.19
  -5   3   1   27.74    3.41
  -5  -3  -1   27.74    2.17
  -5   3   1   30.08    2.29
  -5   3   1   30.14    2.01
  -5  -3  -1   27.66    2.26
  -5   3   0   26.42    3.30
  -5   3   0   25.30    2.22
  -5  -3   0   22.60    2.12
  -5   3   0   28.55    2.25
  -5   3   0   25.38    1.86
  -5  -3   0   26.46    2.16
  -5   3  -1   28.47    3.30
  -5   3  -1   28.77    2.15
  -5   3  -1   28.84    2.32
  -5  -3   1   27.20    2.37
  -5   3  -1   27.26    2.12
  -5   3  -1   26.63    1.83
  -5  -3   1   26.47    2.08
  -5   3  -2   48.01    2.84
  -5   3  -2   46.91    2.82
  -5  -3   2   49.06    3.41
  -5  -3   2   44.46    2.52
  -5  -3   2   47.97    2.77
  -5   3  -3  195.16    5.88
  -5   3  -3  191.27    5.50
  -5  -3   3  177.61    6.77
  -5  -3   3  181.66    4.77
  -5  -3   3  185.22    5.39
  -5   3  -4   29.06    2.42
  -5   3  -4   30.85    2.26
  -5  -3   4   30.14    2.32
  -5   3  -5   43.51    2.93
  -5  -3   5   46.57    2.81
  -5   3  -6    8.66    1.39
  -5   3  -7   17.57    1.70
  -5  -3   7   18.21    2.23
  -5  -3   8    3.55    1.02
  -5   3  -8    4.71    0.89
   5   4  -8   57.54    2.59
  -5   4   8   59.64    2.47
  -5  -4  -8   58.53    2.83
   5   4  -7   16.71    1.63
  -5   4   7   20.60    1.72
  -5  -4  -7   19.10    1.99
   5   4  -6  121.61    4.60
  -5   4   6  119.27    4.20
  -5  -4  -6  128.39    5.52
  -5   4   5  101.34    3.84
  -5   4   5  104.79    4.07
  -5   4   4    4.38    1.04
  -5   4   4    4.40    1.12
  -5  -4  -4    4.80    1.42
  -5   4   3   17.13    1.81
  -5   4   3   17.74    1.80
  -5  -4  -3   18.74    2.14
  -5   4   2  100.00    4.06
  -5   4   2   95.60    3.73
  -5  -4  -2   96.10    4.31
  -5   4   1   21.69    3.07
   5   4  -1   22.94    1.93
  -5   4   1   26.51    2.21
  -5   4   1   23.84    1.85
  -5  -4  -1   24.66    2.13
  -5   4   0  171.83    7.98
   5   4   0  187.58    5.40
  -5  -4   0  182.13    5.50
  -5   4   0  194.15    5.60
  -5  -4   0  183.96    5.30
  -5   4  -1   29.22    2.31
  -5   4  -1   25.31    2.29
  -5  -4   1   24.54    2.36
  -5   4  -1   20.94    3.06
  -5  -4   1   23.80    1.93
  -5  -4   2   94.04    4.02
  -5   4  -2   93.76    4.28
  -5   4  -2   99.69    4.13
  -5  -4   2   94.76    4.63
  -5   4  -3   18.17    1.98
  -5   4  -3   17.77    1.87
  -5  -4   3   18.11    2.31
  -5  -4   3   15.59    1.73
  -5  -4   4    5.21    1.18
  -5   4  -4    4.05    1.04
  -5   4  -4    5.98    1.23
  -5   4  -5  105.93    4.40
  -5  -4   5  110.01    4.10
  -5   4  -6  122.14    4.51
  -5   4  -7   18.82    1.66
  -5  -4   7   18.14    2.13
  -5   4  -8   55.20    2.32
  -5  -4   8   59.12    3.00
   5   5  -7   13.14    1.30
  -5   5   7   11.97    1.28
  -5  -5  -7   13.89    1.50
  -5   5   6   16.90    1.58
  -5  -5  -6   17.35    1.95
  -5   5   5    1.53    0.89
  -5  -5  -5    2.19    1.19
  -5   5   4  237.13    5.55
  -5   5   4  244.54    6.15
  -5  -5  -4  249.58    7.03
  -5   5   3   46.60    2.68
  -5   5   3   44.13    2.69
  -5  -5  -3   48.88    3.08
   5   5  -2   98.54    3.77
  -5   5   2  109.17    4.15
  -5   5   2  102.18    3.96
  -5  -5  -2   95.54    4.09
   5   5  -1   27.23    2.11
  -5   5   1   29.39    2.31
  -5   5   1   27.81    2.11
  -5  -5  -1   27.41    2.12
   5   5   0   20.96    1.94
  -5   5   0   20.93    2.11
  -5   5   0   23.51    1.93
   5   5   1   29.04    2.36
  -5   5  -1   25.94    2.28
  -5   5  -1   30.81    2.42
  -5  -5   1   24.59    2.12
  -5  -5   2  102.48    4.22
  -5   5  -2   95.44    4.53
  -5   5  -2  104.06    4.15
  -5  -5   2   96.34    4.43
  -5   5  -3   44.81    3.11
  -5   5  -3   41.76    2.57
  -5  -5   3   42.98    3.17
  -5  -5   3   46.40    2.84
  -5   5  -4  245.43    6.80
  -5   5  -4  246.01    5.63
  -5  -5   4  234.89    7.54
  -5  -5   4  248.94    6.14
  -5  -5   5    0.48    0.62
  -5  -5   5    1.05    1.14
  -5   5  -5    2.19    0.81
  -5   5  -6   17.38    1.69
  -5  -5   6   17.51    2.21
  -5   5  -7   10.84    1.21
  -5  -5   7   13.44    1.59
   5   6  -6    8.59    1.09
  -5   6   6    8.01    1.05
  -5   6   5   64.43    2.84
  -5  -6  -5   57.88    2.80
  -5   6   4   13.13    1.51
  -5  -6  -4   13.49    1.48
   5   6  -3   15.99    1.42
  -5   6   3   18.23    1.74
   5   6  -2   94.35    3.63
  -5   6   2   95.09    3.78
   5   6  -1  518.27    8.82
  -5   6   1  520.81    8.65
   5   6   0   31.13    2.33
  -5   6   0   28.88    2.35
  -5   6   0   30.22    2.19
   5   6   1  526.92    9.28
  -5   6  -1  527.79    9.04
  -5   6  -1  514.91    8.23
   5   6   2   98.73    4.15
  -5   6  -2   97.47    4.42
  -5   6  -2   93.96    3.67
  -5  -6   2   95.35    3.91
   5   6   3   18.70    1.95
  -5   6  -3   15.22    1.76
  -5   6  -3   18.97    1.53
  -5  -6   3   14.44    1.76
  -5  -6   3   18.32    1.75
   5   6   4   12.63    1.62
  -5   6  -4   14.09    1.67
  -5  -6   4   13.41    1.66
  -5  -6   4   13.63    1.39
  -5   6  -5   65.30    3.09
  -5  -6   5   61.20    3.20
  -5  -6   5   63.31    2.62
  -5   6  -6    9.23    1.15
  -5  -6   6    7.35    1.17
  -5   7   4   56.63    2.51
   5   7  -3   23.04    1.65
  -5   7   3   26.39    1.84
   5   7  -2   10.74    1.29
  -5   7   2   10.66    1.31
   5   7  -1   21.99    1.81
  -5   7   1   21.02    1.85
  -5   7   1   24.14    1.86
   5   7   0    5.03    1.10
  -5   7   0    5.55    1.12
  -5   7   0    5.32    0.95
   5   7   1   24.11    1.91
  -5   7  -1   22.08    1.72
   5   7   2    9.80    1.36
  -5   7  -2    9.58    1.31
  -5  -7   2   10.42    1.33
   5   7   3   23.53    1.88
  -5   7  -3   23.79    1.89
  -5  -7   3   25.04    1.75
   5   7   4   53.65    2.56
  -5   7  -4   53.15    2.59
  -5  -7   4   52.28    2.22
   5   8  -1   46.04    2.09
  -5  -8   0   16.49    1.37
   5   8   0   15.03    1.27
   5   8   1   45.64    2.17
  -5  -8   1   50.79    2.22
  -6   0   0    0.03    0.51
  -6   0   0   -0.25    0.46
  -6   0   0    1.01    0.91
  -6   0   0    1.17    1.14
  -6   0  -1   27.59    1.85
  -6   0  -1   29.11    2.13
  -6   0   1   27.09    2.00
  -6   0  -1   26.12    1.99
  -6   0   1   28.63    2.32
  -6   0   1   21.58    3.03
  -6   0   1   31.75    2.38
  -6   0  -1   30.17    2.43
  -6   0  -2    5.70    1.17
  -6   0   2    6.63    1.48
  -6   0  -2    4.94    1.07
  -6   0   2    4.67    1.29
  -6   0  -2    8.07    1.52
  -6   0  -3  720.49   10.22
  -6   0   3  725.97   12.58
  -6   0   3  723.85   11.79
  -6   0   3  746.41   10.89
  -6   0  -3  733.63   11.88
  -6   0  -4   74.08    3.40
  -6   0   4   70.88    4.06
  -6   0  -4   70.07    3.76
  -6   0  -5  750.33   10.67
  -6   0   5  737.21   12.11
  -6   0  -6   26.30    2.03
  -6   0   6   29.27    2.37
  -6   0  -6   23.86    2.02
  -6   0   7    0.61    0.76
  -6   0   7    2.15    0.90
  -6   1   7   41.41    2.46
  -6  -1  -7   38.68    2.47
  -6   1   6    2.53    1.03
  -6  -1  -6    0.42    0.86
  -6  -1  -5   45.15    2.71
  -6   1   5   44.72    2.90
  -6   1   5   45.05    2.94
  -6  -1  -5   41.64    3.16
  -6  -1  -4   24.26    2.04
  -6   1   4   25.43    2.32
  -6   1   4   24.40    2.32
  -6  -1  -4   23.85    2.52
  -6  -1  -3   14.12    1.65
  -6   1   3   12.97    1.47
  -6   1   3   15.32    2.00
  -6   1   3   18.39    1.89
  -6  -1  -3   14.28    2.04
  -6  -1  -2   69.11    3.12
  -6   1   2   62.85    3.10
  -6   1   2   69.47    3.62
  -6   1   2   75.51    3.56
  -6  -1  -2   67.62    3.79
  -6   1   1    5.68    1.06
  -6   1   1    5.28    1.21
  -6   1   1    6.70    1.86
  -6   1   1    6.63    1.33
  -6  -1  -1    4.40    1.34
  -6   1   0  337.01   11.38
  -6  -1   0  348.77    6.40
  -6   1   0  340.76    7.24
  -6   1   0  356.17    7.51
  -6  -1   0  349.40    7.03
  -6   1   0  363.02    7.56
  -6  -1   0  364.30    7.98
  -6  -1   1    4.19    0.98
  -6   1  -1    5.50    1.09
  -6  -1   1    5.87    1.39
  -6   1  -1    5.43    1.06
  -6  -1   1    6.30    1.22
  -6  -1   1    6.62    1.28
  -6   1  -1    3.61    1.05
  -6   1  -2   70.23    3.23
  -6   1  -2   72.47    3.44
  -6  -1   2   68.73    4.02
  -6   1  -2   68.16    3.14
  -6  -1   2   68.16    3.59
  -6  -1   2   69.88    3.41
  -6   1  -2   67.68    3.41
  -6  -1   2   66.79    3.03
  -6   1  -3   12.64    1.62
  -6   1  -3   16.55    1.77
  -6  -1   3   15.67    2.25
  -6  -1   3   13.52    1.66
  -6   1  -3   11.98    1.61
  -6   1  -4   19.94    1.93
  -6  -1   4   26.60    2.71
  -6   1  -4   22.41    1.99
  -6   1  -5   44.92    2.76
  -6  -1   5   45.04    3.38
  -6   1  -5   40.83    2.50
  -6  -1   6    2.57    1.05
  -6   1  -6    0.89    0.78
  -6   1  -7   46.25    2.43
  -6  -1   7   41.06    2.62
  -6   2   7    2.05    0.75
  -6  -2  -7    1.00    0.74
  -6   2   6    9.64    1.36
  -6  -2  -6   10.90    1.69
  -6   2   5   65.11    3.39
  -6  -2  -5   65.03    4.14
  -6   2   4   35.34    2.42
  -6   2   4   38.37    2.74
  -6  -2  -4   40.63    3.39
  -6   2   3    3.62    1.16
  -6   2   3    6.62    1.43
  -6  -2  -3    5.22    1.50
  -6   2   2  164.34    5.44
  -6   2   2  172.51    5.25
  -6  -2  -2  162.39    5.88
  -6   2   1   17.32    1.94
  -6   2   1   20.11    2.02
  -6   2   1   20.12    1.88
  -6  -2  -1   21.28    2.25
  -6   2   0    8.66    1.41
  -6  -2   0    7.65    1.52
  -6   2   0   10.13    1.47
  -6   2   0    8.34    1.33
  -6  -2   0   10.17    1.66
  -6  -2   0   10.20    1.27
  -6   2  -1   19.45    1.94
  -6  -2   1   22.81    2.40
  -6   2  -1   18.78    1.88
  -6  -2   1   13.98    1.61
  -6   2  -1   18.67    1.75
  -6  -2   1   19.96    1.94
  -6  -2   1   17.95    1.77
  -6   2  -2  164.58    5.04
  -6   2  -2  166.82    5.30
  -6  -2   2  164.04    6.25
  -6  -2   2  153.42    4.95
  -6  -2   2  156.04    4.83
  -6  -2   3    4.66    1.05
  -6   2  -3    5.16    1.25
  -6  -2   3    3.88    1.46
  -6   2  -3    6.09    1.19
  -6  -2   3    3.58    0.99
  -6   2  -3    3.75    0.73
  -6   2  -4   40.80    2.71
  -6   2  -4   42.28    2.68
  -6  -2   4   38.95    3.51
  -6   2  -5   63.56    3.26
  -6  -2   5   67.75    4.35
  -6   2  -6    9.20    1.22
  -6  -2   6   10.02    1.97
  -6  -2   7    3.89    1.24
  -6   2  -7    0.00    0.76
  -6  -3  -7    5.58    1.09
   6   3  -6   13.53    1.36
  -6   3   6   14.13    1.39
  -6  -3  -6   14.77    1.85
  -6   3   5   48.51    2.75
  -6  -3  -5   41.50    3.25
  -6   3   4    9.43    1.62
  -6   3   4   11.24    1.55
  -6  -3  -4    9.69    1.86
  -6   3   3    7.34    1.47
  -6   3   3    9.30    1.50
  -6  -3  -3    9.52    1.69
  -6   3   2   10.35    1.67
  -6   3   2   12.01    1.72
  -6  -3  -2   14.59    1.91
  -6   3   1   54.37    3.40
  -6   3   1   52.96    3.10
  -6  -3  -1   48.83    3.12
  -6  -3  -1   48.70    2.84
  -6  -3   0    4.56    1.00
  -6   3   0    4.37    1.22
  -6  -3   0    2.75    1.03
  -6   3   0    4.61    1.20
  -6   3   0    4.39    1.05
  -6  -3   0    3.28    0.99
  -6   3  -1   51.74    3.11
  -6  -3   1   50.17    3.37
  -6   3  -1   52.85    3.04
  -6   3  -1   50.07    2.55
  -6  -3   1   48.02    2.78
  -6  -3   1   51.85    2.95
  -6   3  -2    9.68    1.36
  -6   3  -2   13.42    1.67
  -6  -3   2   12.91    1.88
  -6  -3   2   10.44    1.45
  -6  -3   2    9.52    1.35
  -6   3  -3    9.83    1.53
  -6   3  -3    8.41    1.46
  -6  -3   3   10.14    1.97
  -6  -3   3    8.56    1.31
  -6   3  -4    9.71    1.40
  -6   3  -4   11.13    1.41
  -6  -3   4    8.44    1.94
  -6  -3   4    9.63    1.35
  -6   3  -5   49.66    2.80
  -6  -3   5   41.39    3.46
  -6   3  -6   15.52    1.55
  -6  -3   6   16.74    2.17
  -6  -3   7    5.59    1.28
  -6   3  -7    5.62    0.96
  -6  -4  -6   61.06    3.19
  -6   4   5    9.63    1.23
  -6  -4  -5   10.46    1.75
  -6   4   4  214.36    5.45
  -6  -4  -4  233.26    6.94
  -6   4   3    9.52    1.70
  -6   4   3   10.05    1.46
  -6  -4  -3   11.15    1.65
  -6   4   2   82.96    4.22
  -6   4   2   89.41    3.82
  -6  -4  -2   84.89    4.06
  -6   4   1   14.27    1.84
  -6   4   1   12.72    1.64
  -6  -4  -1   11.14    1.52
  -6   4   0   19.83    2.12
  -6   4   0   20.57    2.05
  -6  -4   0   17.24    1.79
  -6  -4   0   20.14    1.99
   6   4   1   12.89    1.51
  -6   4  -1   14.66    1.75
  -6  -4   1   11.56    1.62
  -6  -4   1    9.51    1.23
  -6  -4   1   13.12    1.61
  -6   4  -2   78.64    3.82
  -6   4  -2   89.16    3.90
  -6  -4   2   81.55    4.18
  -6  -4   2   85.34    3.77
  -6   4  -3   10.88    1.56
  -6   4  -3    9.98    1.42
  -6  -4   3    8.88    1.81
  -6  -4   3   11.04    1.45
  -6   4  -4  220.88    6.12
  -6   4  -4  222.08    5.47
  -6  -4   4  221.96    5.52
  -6   4  -5    9.64    1.29
  -6  -4   5    8.21    1.81
  -6   4  -6   58.39    2.70
  -6  -4   6   56.73    3.38
  -6   5   5   10.82    1.23
  -6  -5  -5    7.62    1.14
  -6   5   4    9.08    1.46
  -6  -5  -4    6.98    1.20
  -6   5   3    0.67    1.10
  -6   5   2   65.49    3.60
  -6  -5  -2   61.04    2.96
  -6   5   1   93.99    4.20
  -6  -5  -1   84.61    3.31
  -6  -5   0   14.05    1.72
   6   5   0    9.56    1.20
  -6   5   0   13.12    1.63
   6   5   1   84.60    3.45
  -6   5  -1   91.18    3.86
  -6  -5   1   86.34    3.78
  -6   5  -2   54.62    3.18
   6   5   2   66.86    3.13
  -6   5  -2   64.28    3.08
  -6  -5   2   62.44    3.22
  -6  -5   2   68.01    3.25
  -6  -5   3    0.62    0.68
   6   5   3    0.69    0.69
  -6   5  -3   -0.30    0.68
  -6  -5   3    0.13    0.85
  -6   5  -3   -0.01    0.46
   6   5   4    9.67    1.21
  -6  -5   4    8.89    1.61
  -6   5  -4    6.01    1.03
  -6  -5   4    7.71    1.05
  -6  -5   5    7.95    1.45
  -6   5  -5    6.79    1.03
  -6   6   4   10.42    1.36
  -6   6   3  111.08    4.03
  -6   6   2   -0.42    0.78
  -6   6   1  103.79    3.90
   6   6   0   56.78    2.56
  -6   6   0   61.32    2.95
  -6  -6   0   65.10    3.11
   6   6   1   93.14    3.33
  -6   6  -1  101.62    3.58
  -6  -6   2   -0.44    0.57
   6   6   2    0.02    0.48
  -6   6  -2   -1.41    0.55
   6   6   3  106.87    3.49
  -6   6  -3  100.61    3.03
  -6  -6   3  108.45    3.45
   6   6   4   12.03    1.21
  -6  -7   0   28.17    1.76
  -6  -7   1   20.82    1.47
  -7   0   0    0.31    0.43
  -7   0   0   -0.61    0.71
  -7   0   0    0.82    0.88
  -7   0   1   89.93    3.76
  -7   0   1   91.75    3.85
  -7   0  -1   94.84    4.06
  -7   0   2    2.65    1.06
  -7   0   2    3.53    1.11
  -7   0  -2    2.61    1.00
  -7   0   3   60.80    3.38
  -7   0  -3   58.46    3.21
  -7   0   4   -0.07    0.75
  -7   0  -4    1.64    0.77
  -7   0   5  123.38    4.51
  -7   0  -5  105.02    3.70
  -7   0   6   45.07    2.47
  -7   1   6    5.95    1.03
  -7   1   5   38.39    2.45
  -7  -1  -5   36.97    2.51
  -7   1   4    6.59    1.30
  -7  -1  -4    8.27    1.52
  -7   1   3   56.69    3.20
  -7  -1  -3   54.32    3.33
  -7   1   2   44.74    2.85
  -7   1   2   52.04    2.93
  -7  -1  -2   49.71    3.14
  -7   1   1    2.72    0.80
  -7   1   1    4.33    1.06
  -7   1   1    4.88    1.21
  -7  -1  -1    3.02    1.11
  -7   1   0    2.27    0.82
  -7   1   0    1.97    0.93
  -7   1   0    3.48    1.02
  -7  -1   0    2.10    0.94
  -7   1  -1    3.60    1.01
  -7   1  -1    3.64    1.00
  -7  -1   1    2.47    0.80
  -7  -1   1    1.53    1.01
  -7   1  -1    4.45    1.13
  -7   1  -2   48.98    2.69
  -7  -1   2   51.02    2.93
  -7  -1   2   49.04    2.78
  -7   1  -2   49.25    2.77
  -7   1  -3   55.99    2.82
  -7  -1   3   49.10    3.08
  -7   1  -3   46.38    2.59
  -7   1  -4    8.09    1.15
  -7  -1   4    5.02    1.38
  -7   1  -4    7.55    1.09
  -7   1  -5   41.18    2.25
  -7  -1   5   42.05    2.77
  -7  -1   6    3.30    0.86
  -7   2   5    1.42    0.73
  -7  -2  -5   -0.26    0.68
  -7   2   4   11.44    1.45
  -7  -2  -4   10.04    1.64
  -7   2   3   14.76    1.67
  -7  -2  -3   12.96    1.79
  -7   2   2   18.48    1.66
  -7   2   2   18.41    1.80
  -7  -2  -2   17.78    2.01
  -7   2   1    6.03    1.25
  -7   2   1    6.49    1.24
  -7   2   1    7.31    1.33
  -7  -2  -1    5.87    1.30
  -7   2   0  293.40    6.69
  -7   2   0  290.49    6.59
  -7   2   0  292.50    6.33
  -7  -2   0  295.67    6.92
  -7   2  -1    5.69    1.20
  -7   2  -1    4.87    1.01
  -7  -2   1    4.06    1.06
  -7   2  -2   18.16    1.71
  -7  -2   2   20.99    1.80
  -7   2  -2   18.20    1.55
  -7   2  -3   12.94    1.41
  -7  -2   3   14.97    1.97
  -7  -2   3   12.82    1.65
  -7   2  -4   10.76    1.29
  -7  -2   4   11.19    1.76
  -7  -2   4   10.24    1.54
  -7  -2   5    1.79    0.83
  -7   2  -5   -0.67    0.65
  -7  -2   5    2.12    0.84
  -7   3   5    4.10    0.87
  -7  -3  -5    1.89    0.78
  -7   3   4   15.08    1.43
  -7  -3  -4   15.00    1.83
  -7   3   3   56.29    2.83
  -7  -3  -3   53.75    3.22
  -7   3   2   17.35    1.84
  -7   3   2   19.66    1.79
  -7  -3  -2   21.44    1.98
  -7   3   1   -0.06    0.70
  -7   3   1    0.12    0.70
  -7  -3  -1   -0.06    0.64
  -7   3   0    2.56    0.96
  -7  -3   0    0.71    0.68
  -7  -3   1    0.10    0.46
  -7   3  -1    0.39    0.65
  -7  -3   1    0.34    0.59
  -7   3  -2   20.64    1.79
  -7  -3   2   17.76    1.49
  -7  -3   2   18.91    1.69
  -7   3  -3   56.05    2.77
  -7  -3   3   48.60    3.32
  -7   3  -4   15.13    1.43
  -7  -3   4   11.85    1.78
  -7  -3   5    3.28    1.05
  -7  -4  -4    1.02    0.62
  -7   4   3    0.58    0.70
  -7   4   3    1.92    0.72
  -7  -4  -3    2.36    0.83
  -7   4   2   26.83    2.13
  -7  -4  -2   28.78    2.05
  -7   4   1    6.21    1.22
  -7  -4  -1    6.53    1.07
  -7  -4   0   72.65    2.86
  -7  -4   0   67.99    3.07
  -7  -4   1    5.52    0.96
  -7   4  -1    5.50    1.10
  -7   4  -2   29.14    2.00
  -7  -4   2   27.80    1.93
  -7  -4   4    0.09    0.77
  -7   5   2   14.31    1.43
  -7   5   1    9.13    1.25
  -7  -5   0    0.68    0.48
  -7   5   0    0.50    0.66
  -7   5  -1   10.40    1.18
  -7  -5   1    9.72    1.17
  -7   5  -2   13.44    1.25
  -7  -5   2   15.60    1.28
  -8   0   0   24.40    1.87
  -8   0  -1   18.76    1.68
  -8   0  -2   28.39    1.97
  -8   1   2    6.98    1.08
  -8  -1  -2    8.17    1.27
  -8  -1  -1   14.86    1.55
  -8  -1   0   36.89    2.23
  -8  -1   1   14.22    1.40
  -8   1  -1   14.39    1.41
  -8  -2  -1    3.90    0.90
  -8  -2   0    0.35    0.55
  -8  -2   1    3.39    0.83
   0   0   0    0.00    0.00


TITL 1a in P2(1)2(1)2(1)
REM P2(1)2(1)2(1) (#19 in standard setting)
CELL 1.54184   7.042166   8.761714  10.015843  90.0000  90.0000  90.0000
ZERR    4.00   0.000173   0.000191   0.000212   0.0000   0.0000   0.0000
LATT -1
SYMM -x+1/2,-y, z+1/2
SYMM -x, y+1/2,-z+1/2
SYMM  x+1/2,-y+1/2,-z
SFAC C H N Cl
UNIT 16.00 8.00 20.00 4.00
TREF
HKLF 4
END
_computing_structure_solution     'SHELXT 2018/2 (Sheldrick, 2018)'
;
_shelx_hkl_checksum              58015
_olex2_submission_special_instructions 'No special instructions were received'
_oxdiff_exptl_absorpt_empirical_details
;
Empirical correction (ABSPACK) includes:
- Absorption correction using spherical harmonics
- Frame scaling
;
_oxdiff_exptl_absorpt_empirical_full_max 1.696
_oxdiff_exptl_absorpt_empirical_full_min 0.795
loop_
_space_group_symop_operation_xyz
'x, y, z'
'-x+1/2, -y, z+1/2'
'-x, y+1/2, -z+1/2'
'x+1/2, -y+1/2, -z'
loop_
_atom_site_label
_atom_site_type_symbol
_atom_site_fract_x
_atom_site_fract_y
_atom_site_fract_z
_atom_site_U_iso_or_equiv
_atom_site_adp_type
_atom_site_occupancy
_atom_site_site_symmetry_order
_atom_site_calc_flag
_atom_site_refinement_flags_posn
_atom_site_refinement_flags_adp
_atom_site_refinement_flags_occupancy
_atom_site_disorder_assembly
_atom_site_disorder_group
Cl1 Cl 0.28981(13) 0.33294(9) 0.31932(9) 0.0512(3) Uani 1 1 d . . . . .
N4 N 0.3589(4) 0.7476(3) 0.4115(3) 0.0334(6) Uani 1 1 d . . . . .
N5 N 0.3688(4) 0.5941(3) 0.4179(3) 0.0368(7) Uani 1 1 d . . . . .
N3 N 0.4329(4) 0.8383(4) 0.5060(3) 0.0470(7) Uani 1 1 d . . . . .
N2 N 0.3951(5) 0.9772(4) 0.4661(3) 0.0535(9) Uani 1 1 d . . . . .
N1 N 0.2994(5) 0.9809(3) 0.3491(3) 0.0464(8) Uani 1 1 d . . . . .
C9 C 0.2775(5) 0.8348(3) 0.3149(3) 0.0342(7) Uani 1 1 d . . . . .
C7 C 0.1995(5) 0.6047(4) 0.2074(3) 0.0398(8) Uani 1 1 d . . . . .
H7 H 0.145827 0.548787 0.138122 0.048 Uiso 1 1 calc R U . . .
C6 C 0.2871(5) 0.5293(3) 0.3163(3) 0.0353(7) Uani 1 1 d . . . . .
C8 C 0.1950(5) 0.7585(4) 0.2054(3) 0.0402(8) Uani 1 1 d . . . . .
H8 H 0.139924 0.811820 0.135026 0.048 Uiso 1 1 calc R U . . .
loop_
_atom_site_aniso_label
_atom_site_aniso_U_11
_atom_site_aniso_U_22
_atom_site_aniso_U_33
_atom_site_aniso_U_23
_atom_site_aniso_U_13
_atom_site_aniso_U_12
Cl1 0.0592(5) 0.0283(4) 0.0662(6) -0.0028(4) 0.0150(4) -0.0016(4)
N4 0.0420(14) 0.0311(13) 0.0272(12) -0.0005(11) -0.0004(12) -0.0022(12)
N5 0.0451(15) 0.0320(14) 0.0335(14) 0.0049(11) 0.0025(14) 0.0009(13)
N3 0.0605(17) 0.0448(17) 0.0357(14) -0.0076(16) -0.0071(14) -0.0092(17)
N2 0.070(2) 0.0395(17) 0.0513(18) -0.0127(14) 0.0031(17) -0.0090(16)
N1 0.058(2) 0.0325(14) 0.0492(16) -0.0031(12) 0.0063(16) -0.0008(14)
C9 0.0415(16) 0.0302(15) 0.0310(14) 0.0032(13) 0.0047(14) 0.0021(15)
C7 0.0469(18) 0.0440(18) 0.0285(16) -0.0070(13) 0.0003(17) -0.0046(15)
C6 0.0406(17) 0.0289(15) 0.0364(16) -0.0021(13) 0.0083(17) -0.0005(14)
C8 0.0467(18) 0.0456(18) 0.0283(15) 0.0059(13) -0.0006(16) 0.0023(16)
loop_
_atom_type_symbol
_atom_type_description
_atom_type_scat_dispersion_real
_atom_type_scat_dispersion_imag
_atom_type_scat_source
C C 0.0181 0.0091 'International Tables Vol C Tables 4.2.6.8 and 6.1.1.4'
H H 0.0000 0.0000 'International Tables Vol C Tables 4.2.6.8 and 6.1.1.4'
Cl Cl 0.3639 0.7018 'International Tables Vol C Tables 4.2.6.8 and 6.1.1.4'
N N 0.0311 0.0180 'International Tables Vol C Tables 4.2.6.8 and 6.1.1.4'
loop_
_geom_angle_atom_site_label_1
_geom_angle_atom_site_label_2
_geom_angle_atom_site_label_3
_geom_angle
_geom_angle_site_symmetry_1
_geom_angle_site_symmetry_3
_geom_angle_publ_flag
N5 N4 C9 128.0(3) . . ?
N3 N4 N5 122.5(3) . . ?
N3 N4 C9 109.5(3) . . ?
C6 N5 N4 112.0(3) . . ?
N2 N3 N4 104.9(3) . . ?
N3 N2 N1 112.9(3) . . ?
C9 N1 N2 104.9(3) . . ?
N4 C9 C8 117.5(3) . . ?
N1 C9 N4 107.9(3) . . ?
N1 C9 C8 134.6(3) . . ?
C6 C7 H7 120.4 . . ?
C8 C7 H7 120.4 . . ?
C8 C7 C6 119.2(3) . . ?
N5 C6 Cl1 114.7(2) . . ?
N5 C6 C7 126.3(3) . . ?
C7 C6 Cl1 119.0(2) . . ?
C9 C8 H8 121.6 . . ?
C7 C8 C9 116.9(3) . . ?
C7 C8 H8 121.6 . . ?
loop_
_geom_bond_atom_site_label_1
_geom_bond_atom_site_label_2
_geom_bond_distance
_geom_bond_site_symmetry_2
_geom_bond_publ_flag
Cl1 C6 1.721(3) . ?
N4 N5 1.349(4) . ?
N4 N3 1.341(4) . ?
N4 C9 1.359(4) . ?
N5 C6 1.299(4) . ?
N3 N2 1.308(4) . ?
N2 N1 1.353(4) . ?
N1 C9 1.335(4) . ?
C9 C8 1.409(5) . ?
C7 H7 0.9300 . ?
C7 C6 1.417(5) . ?
C7 C8 1.348(5) . ?
C8 H8 0.9300 . ?
loop_
_geom_torsion_atom_site_label_1
_geom_torsion_atom_site_label_2
_geom_torsion_atom_site_label_3
_geom_torsion_atom_site_label_4
_geom_torsion
_geom_torsion_site_symmetry_1
_geom_torsion_site_symmetry_2
_geom_torsion_site_symmetry_3
_geom_torsion_site_symmetry_4
_geom_torsion_publ_flag
N4 N5 C6 Cl1 -178.7(2) . . . . ?
N4 N5 C6 C7 1.3(5) . . . . ?
N4 N3 N2 N1 0.0(4) . . . . ?
N4 C9 C8 C7 1.6(5) . . . . ?
N5 N4 N3 N2 -179.7(3) . . . . ?
N5 N4 C9 N1 179.6(3) . . . . ?
N5 N4 C9 C8 -1.2(5) . . . . ?
N3 N4 N5 C6 179.7(3) . . . . ?
N3 N4 C9 N1 -0.4(4) . . . . ?
N3 N4 C9 C8 178.9(3) . . . . ?
N3 N2 N1 C9 -0.2(4) . . . . ?
N2 N1 C9 N4 0.3(4) . . . . ?
N2 N1 C9 C8 -178.7(4) . . . . ?
N1 C9 C8 C7 -179.4(4) . . . . ?
C9 N4 N5 C6 -0.3(5) . . . . ?
C9 N4 N3 N2 0.2(4) . . . . ?
C6 C7 C8 C9 -0.7(6) . . . . ?
C8 C7 C6 Cl1 179.2(3) . . . . ?
C8 C7 C6 N5 -0.9(6) . . . . ?
