#------------------------------------------------------------------------------
#$Date: 2022-01-01 07:07:36 +0200 (Sat, 01 Jan 2022) $
#$Revision: 271674 $
#$URL: file:///home/coder/svn-repositories/cod/cif/1/56/58/1565849.cif $
#------------------------------------------------------------------------------
#
# This file is available in the Crystallography Open Database (COD),
# http://www.crystallography.net/. The original data for this entry
# were provided by IUCr Journals, http://journals.iucr.org/.
#
# The file may be used within the scientific community so long as
# proper attribution is given to the journal article from which the
# data were obtained.
#
data_1565849
loop_
_publ_author_name
'Novelli, Giulia'
'Kamenev, Konstantin V.'
'Maynard-Casely, Helen E.'
'Parsons, Simon'
'McIntyre, Garry J.'
_publ_section_title
;
 Use of a miniature diamond-anvil cell in a joint X-ray and neutron
 high-pressure study on copper sulfate pentahydrate
;
_journal_coeditor_code           FS5200
_journal_issue                   1
_journal_name_full               IUCrJ
_journal_page_first              73
_journal_page_last               85
_journal_paper_doi               10.1107/S2052252521010708
_journal_volume                  9
_journal_year                    2022
_chemical_formula_moiety         'Cu H8 O8 S, H2 O'
_chemical_formula_sum            'Cu H10 O9 S'
_chemical_formula_weight         249.69
_chemical_name_common            'blue vitriol'
_chemical_name_systematic        'copper(II) sulfate pentahydrate'
_space_group_IT_number           2
_space_group_name_Hall           '-P 1'
_space_group_name_H-M_alt        'P -1'
_symmetry_cell_setting           triclinic
_symmetry_space_group_name_Hall  '-P 1'
_symmetry_space_group_name_H-M   'P -1'
_atom_sites_solution_primary     direct
_audit_creation_date             2020-11-17
_audit_creation_method           'CRYSTALS_ver_14.61_build_7089 '
_cell_angle_alpha                77.308(10)
_cell_angle_beta                 82.353(10)
_cell_angle_gamma                72.640(10)
_cell_formula_units_Z            2
_cell_length_a                   5.9523(12)
_cell_length_b                   6.1001(13)
_cell_length_c                   10.6470(7)
_cell_measurement_reflns_used    2520
_cell_measurement_temperature    295(2)
_cell_measurement_theta_max      30.4280
_cell_measurement_theta_min      4.7800
_cell_volume                     359.02(11)
_computing_cell_refinement       'CrysAlisPro 1.171.39.46 (Rigaku OD, 2018)'
_computing_data_collection       'CrysAlisPro 1.171.39.46 (Rigaku OD, 2018)'
_computing_data_reduction        'CrysAlisPro 1.171.39.46 (Rigaku OD, 2018)'
_computing_molecular_graphics    'CAMERON (Watkin et al., 1996)'
_computing_publication_material  'CRYSTALS (Betteridge et al., 2003)'
_computing_structure_refinement  'CRYSTALS (Betteridge et al., 2003)'
_computing_structure_solution
'From ambient pressure coordinates by Varghese & Maslen (1985)'
_diffrn_ambient_environment      air
_diffrn_ambient_pressure         0.71
_diffrn_ambient_temperature      295(2)
_diffrn_detector                 'CCD plate'
_diffrn_detector_area_resol_mean 5.2930
_diffrn_detector_type            Atlas
_diffrn_measured_fraction_theta_full 0.272
_diffrn_measured_fraction_theta_max 0.252
_diffrn_measurement_details
;
List of Runs (angles in degrees, time in seconds):

  # Type    Start    End  Width  t~exp~   \w     \q     \k     \f   Frames
--------------------------------------------------------------------------
  1  \w    -36.00  13.00   1.00   65.00    --    0.39  82.00 151.00   49
  2  \w    -33.00  19.00   1.00   65.00    --    0.39  67.00 -23.00   52
  3  \w    -13.00  36.00   1.00   65.00    --    0.39 -82.00-151.00   49
  4  \w    -13.00  36.00   1.00   65.00    --    0.39 -82.00  29.00   49
  5  \w    -91.00 -18.00   1.00   65.00    --  -45.62 114.00 -45.00   73
  6  \w    -59.00  -6.00   1.00   65.00    --  -45.62 -19.00-120.00   53
  7  \w    -38.00  35.00   1.00   65.00    --  -45.62 -13.00   3.00   73
  8  \w    -53.00 -30.00   1.00   65.00    --  -45.62  57.00 -30.00   23
  9  \w    -65.00  18.00   1.00   65.00    --  -45.62  38.00-180.00   83
 10  \w    -44.00 -17.00   1.00   65.00    --  -45.62 -38.00-150.00   27
 11  \w    -91.00 -18.00   1.00   65.00    --  -45.62 114.00 135.00   73
 12  \w    -34.00  -8.00   1.00   65.00    --  -45.62 -26.00   8.00   26
 13  \w     19.00  68.00   1.00   65.00    --   46.40 -77.00-150.00   49
 14  \w     13.00  38.00   1.00   65.00    --   46.40  13.00  -3.00   25
 15  \w      9.00  34.00   1.00   65.00    --   46.40  26.00  -8.00   25
 16  \w    -25.00   1.00   1.00   65.00    --   46.40  13.00  -3.00   26
 17  \w     37.00  65.00   1.00   65.00    --   46.40 -67.00  23.00   28
 18  \w     -3.00  23.00   1.00   65.00    --   46.40  19.00-180.00   26
 19  \w     15.00  46.00   1.00   65.00    --   46.40 -13.00   3.00   31
 20  \w     27.00  53.00   1.00   65.00    --   46.40 -57.00-150.00   26
 21  \w      9.00  34.00   1.00   65.00    --   46.40  26.00 171.00   25
;
_diffrn_measurement_device       'four-circle diffractometer'
_diffrn_measurement_device_type  'SuperNova, Dual, Cu at home/near, Atlas'
_diffrn_measurement_method       '\w scans'
_diffrn_orient_matrix_type
'CrysAlisPro convention (1999,Acta A55,543-557)'
_diffrn_orient_matrix_UB_11      0.0754622000
_diffrn_orient_matrix_UB_12      0.0652906000
_diffrn_orient_matrix_UB_13      0.0087202000
_diffrn_orient_matrix_UB_21      -0.0367166000
_diffrn_orient_matrix_UB_22      -0.0129816000
_diffrn_orient_matrix_UB_23      0.0667315000
_diffrn_orient_matrix_UB_31      0.0928854000
_diffrn_orient_matrix_UB_32      -0.1047275000
_diffrn_orient_matrix_UB_33      0.0126033000
_diffrn_radiation_monochromator  mirror
_diffrn_radiation_probe          x-ray
_diffrn_radiation_type           'Mo K\a'
_diffrn_radiation_wavelength     0.71073
_diffrn_reflns_av_R_equivalents  0.055
_diffrn_reflns_av_unetI/netI     0.020
_diffrn_reflns_Laue_measured_fraction_full 0.278
_diffrn_reflns_Laue_measured_fraction_max 0.228
_diffrn_reflns_limit_h_max       5
_diffrn_reflns_limit_h_min       -5
_diffrn_reflns_limit_k_max       5
_diffrn_reflns_limit_k_min       -6
_diffrn_reflns_limit_l_max       14
_diffrn_reflns_limit_l_min       -14
_diffrn_reflns_number            3200
_diffrn_reflns_point_group_measured_fraction_full 0.278
_diffrn_reflns_point_group_measured_fraction_max 0.228
_diffrn_reflns_theta_full        25.293
_diffrn_reflns_theta_max         30.474
_diffrn_reflns_theta_min         3.934
_diffrn_source                   'micro-focus sealed X-ray tube'
_diffrn_source_type              'SuperNova (Mo) X-ray Source'
_exptl_absorpt_coefficient_mu    3.348
_exptl_absorpt_correction_T_max  1.00000
_exptl_absorpt_correction_T_min  0.64608
_exptl_absorpt_correction_type   multi-scan
_exptl_absorpt_process_details
;
CrysAlisPro 1.171.39.46 (Rigaku Oxford Diffraction, 2018)
Empirical absorption correction using spherical harmonics,
 implemented in SCALE3 ABSPACK scaling algorithm.
;
_exptl_crystal_colour            blue
_exptl_crystal_density_diffrn    2.310
_exptl_crystal_density_meas      ?
_exptl_crystal_density_method    'not measured'
_exptl_crystal_description       trapezoid
_exptl_crystal_F_000             254
_exptl_crystal_size_max          0.40
_exptl_crystal_size_mid          0.22
_exptl_crystal_size_min          0.20
_refine_diff_density_max         0.46
_refine_diff_density_min         -0.56
_refine_ls_extinction_coef       176.619
_refine_ls_extinction_method     'Larson (1970), Equation 22'
_refine_ls_goodness_of_fit_ref   0.9980
_refine_ls_hydrogen_treatment    noref
_refine_ls_matrix_type           full
_refine_ls_number_parameters     58
_refine_ls_number_reflns         532
_refine_ls_number_restraints     0
_refine_ls_shift/su_max          0.0000821
_refine_ls_shift/su_mean         0.0000195
_refine_ls_structure_factor_coef Fsqd
_refine_ls_weighting_details
;
 Method= Modified Sheldrick 
 w=1/[\s^2^(F^2^) + ( 0.03P)^2^ + 0.00P] 
 ,where P=(max(Fo^2^,0) + 2Fc^2^)/3 
;
_refine_ls_weighting_scheme      calc
_refine_ls_wR_factor_ref         0.1599
_reflns_limit_h_max              5
_reflns_limit_h_min              -5
_reflns_limit_k_max              6
_reflns_limit_k_min              -6
_reflns_limit_l_max              14
_reflns_limit_l_min              0
_reflns_number_total             552
_oxford_refine_ls_r_factor_ref   0.0620
_oxford_refine_ls_scale          16(4)
_iucr_refine_instructions_details
;
#
# Punched on 10/11/20 at 15:14:58
#
#LIST     12                                                                    
BLOCK SCALE 
CONTINUE CU(1,X'S, U'S) UNTIL S(1) 
CONTINUE O(1,X'S, U[ISO]) UNTIL O(9) 
END                                                                             
#
# Punched on 10/11/20 at 15:14:58
#
#LIST     16                                                                    
NO 
REM   HREST   START (DO NOT REMOVE THIS LINE) 
REM   HREST   END (DO NOT REMOVE THIS LINE) 
END                                                                             
;
_cod_data_source_file            fs5200.cif
_cod_data_source_block           Xcuso4h2o_0.71GPa
_cod_depositor_comments
;
The following automatic conversions were performed:

data item '_exptl_crystal_density_meas' value 'not measured' was
changed to '?' -- the value is perceived as not measured.

Automatic conversion script
Id: cif_fix_values 7556 2019-12-06 15:28:31Z antanas 
;
_cod_database_code               1565849
_exptl_absorpt_empirical_full_min 0.674
_exptl_absorpt_empirical_full_max 2.634
_exptl_absorpt_empirical_details
;
Empirical correction (ABSPACK) includes:
- Absorption correction using spherical harmonics
- Frame scaling
;
_diffrn_oxdiff_ac3_digest_frames
;
01f3ad9c1d15e41c11dfaabe8381b80aac00929d7b1
;
_diffrn_oxdiff_ac3_digest_hkl
;
012a6099d3d3b5233bbe4c3e629129063bcfd8
;
_reflns_odcompleteness_completeness 29.00
_reflns_odcompleteness_iscentric 1
_reflns_odcompleteness_theta     26.32
_diffrn_wilson_b_factor          0.73
_diffrn_wilson_scale             0.01
_refine_reflns_threshold_expression_ref I>-3.0\s(I)
_iucr_refine_reflections_details
; 
 
# Data was input as F-squared 
# punching LIST  6 as LIST  6 with all keys set 
# NBGNXT=    36 
#LIST   6 
READ NCOEF= 8 TYPE=FIX, F'S = FSQ UNIT=DATA, CHECK=NO L30=NO ARCH=NO 
STORE  NCOEF= 6 
OUTPUT INDICES     /FO/        SIGMA(/FO/) RATIO/JCODE CORRECTIONS SERIAL 
CONT 
INPUT  H           K           L           /FO/        SIGMA(/FO/) JCODE 
CONT   CORRECTIONS SERIAL 
FOR (I4,I4,I4,F10.2,F8.2,F4.0,F7.4,F7.0) 
END 
    0   0   2 141533.00  986.07  0. 1.0000     0. 
   0   0   3 119043.99 1178.78  0. 1.0000     0. 
   0   0   3 112859.99 1039.09  0. 1.0000     0. 
   0   0   3 116754.00 1086.63  0. 1.0000     0. 
   0   0  -4   2961.55  169.88  0. 1.0000     0. 
   0   0   4   3377.99  152.89  0. 1.0000     0. 
   0   0   4   3952.60  237.68  0. 1.0000     0. 
   0   0  -4   3463.96  172.61  0. 1.0000     0. 
   0   0  -4   3168.52  191.29  0. 1.0000     0. 
   0   0  -4   3272.08  144.95  0. 1.0000     0. 
   0   0   4   3329.30  238.39  0. 1.0000     0. 
   0   0   4   3677.55  262.44  0. 1.0000     0. 
   0   0   4   4153.74  209.54  0. 1.0000     0. 
   0   0   5 219811.00 2197.32  0. 1.0000     0. 
   0   0   5 211362.98 1938.56  0. 1.0000     0. 
   0   0   6 181268.00 2040.39  0. 1.0000     0. 
   0   0  -6 181164.00 1406.56  0. 1.0000     0. 
   0   0  -6 176642.00 1743.63  0. 1.0000     0. 
   0   0  -6 175413.02 1552.78  0. 1.0000     0. 
   0   0   7 201481.02 2184.24  0. 1.0000     0. 
   0   0  -7 195361.00 2347.22  0. 1.0000     0. 
   0   0  -7 197736.00 1806.90  0. 1.0000     0. 
   0   0  -7 200824.98 1725.31  0. 1.0000     0. 
   0   0  -7 206804.00 2013.24  0. 1.0000     0. 
   0   0   8 146338.00 2068.05  0. 1.0000     0. 
   0   0  -8 160474.00 1673.60  0. 1.0000     0. 
   0   0  -8 155138.00 1714.93  0. 1.0000     0. 
   0   0   8 177792.98 3297.27  0. 1.0000     0. 
   0   0  -8 150065.00 2259.94  0. 1.0000     0. 
   0   0  -8 170970.02 1590.08  0. 1.0000     0. 
   0   0   8 166538.98 1546.90  0. 1.0000     0. 
   0   0  -8 153150.00 2306.70  0. 1.0000     0. 
   0   0  -9  28216.70 1111.44  0. 1.0000     0. 
   0   0   9  28270.10 1179.51  0. 1.0000     0. 
   0   0  -9  30560.40 1180.31  0. 1.0000     0. 
   0   0  -9  26475.50 1004.15  0. 1.0000     0. 
   0   0  -9  28806.40  777.16  0. 1.0000     0. 
   0   0   9  30341.00  735.01  0. 1.0000     0. 
   0   0  -9  29103.40  845.35  0. 1.0000     0. 
   0   0   9  27773.30  999.61  0. 1.0000     0. 
   0   0 -10 278378.03 3559.80  0. 1.0000     0. 
   0   0  10 271311.97 3654.94  0. 1.0000     0. 
   0   0 -10 272634.03 3329.34  0. 1.0000     0. 
   0   0  10 263187.97 3303.63  0. 1.0000     0. 
   0   0  10 267469.03 3217.96  0. 1.0000     0. 
   0   0 -10 282814.03 3704.45  0. 1.0000     0. 
   0   0 -10 261704.00 2602.04  0. 1.0000     0. 
   0   0 -11    502.89  504.45  0. 1.0000     0. 
   0   0 -11    294.95  549.36  0. 1.0000     0. 
   0   0 -11    516.02  404.09  0. 1.0000     0. 
   0   0  11    464.90  395.33  0. 1.0000     0. 
   0   0 -11    615.32  288.36  0. 1.0000     0. 
   0   0  11    480.08  476.73  0. 1.0000     0. 
   0   0  12   7378.24  765.31  0. 1.0000     0. 
   0   0 -12   7115.80  820.24  0. 1.0000     0. 
   0   0  12    855.98  600.94  0. 1.0000     0. 
   0   0 -12   7759.50  926.49  0. 1.0000     0. 
   0   0  12    739.41  483.65  0. 1.0000     0. 
   0   0  12   7312.81  816.08  0. 1.0000     0. 
   0   0 -12   6598.37  731.93  0. 1.0000     0. 
   0   0  13   1404.82  489.87  0. 1.0000     0. 
   0   0  13    474.24  430.05  0. 1.0000     0. 
   0   0 -13   2339.60  747.75  0. 1.0000     0. 
   0   0  13   1749.15  552.79  0. 1.0000     0. 
   0   0 -13   1979.06  518.66  0. 1.0000     0. 
   0   0  13   1819.93  624.97  0. 1.0000     0. 
   0   0 -13   1527.54  617.60  0. 1.0000     0. 
   0   0  13   1810.98  680.77  0. 1.0000     0. 
   0   0 -14  79347.30 2529.04  0. 1.0000     0. 
   0   0 -14  77881.30 2478.33  0. 1.0000     0. 
   0   0  14  76697.00 2508.26  0. 1.0000     0. 
   0   1 -14  40080.20 1956.51  0. 1.0000     0. 
   0  -1  14  30656.30 1667.18  0. 1.0000     0. 
   0   1 -14  37660.00 1809.12  0. 1.0000     0. 
   0   1 -14  35631.30 1678.45  0. 1.0000     0. 
   0   1 -14  34364.50 1839.18  0. 1.0000     0. 
   0  -1  14  39104.70 2025.66  0. 1.0000     0. 
   0  -1  14  35145.11 1897.37  0. 1.0000     0. 
   0  -1  13  66864.01 2347.28  0. 1.0000     0. 
   0  -1  13  67866.01 2122.91  0. 1.0000     0. 
   0  -1  13  67721.59 2324.54  0. 1.0000     0. 
   0   1 -13  66121.51 2339.05  0. 1.0000     0. 
   0   1 -13  60755.30 2052.03  0. 1.0000     0. 
   0  -1  13  63973.30 2081.87  0. 1.0000     0. 
   0   1 -13  63191.90 2237.38  0. 1.0000     0. 
   0   1 -12  15194.50 1172.19  0. 1.0000     0. 
   0  -1  12  15806.80 1093.66  0. 1.0000     0. 
   0  -1  12  16365.20 1046.08  0. 1.0000     0. 
   0   1 -12  15840.50 1158.58  0. 1.0000     0. 
   0  -1  12  15480.00 1029.44  0. 1.0000     0. 
   0  -1  12  14973.20 1133.52  0. 1.0000     0. 
   0   1 -11  70698.30 2083.16  0. 1.0000     0. 
   0  -1  11  64018.00 1942.29  0. 1.0000     0. 
   0   1 -11  71235.70 1659.80  0. 1.0000     0. 
   0  -1  11  74480.70 1866.28  0. 1.0000     0. 
   0  -1  11  68083.60 1831.20  0. 1.0000     0. 
   0   1 -11  63592.00 1985.21  0. 1.0000     0. 
   0  -1  11  70079.01 1838.80  0. 1.0000     0. 
   0  -1  11  71201.20 1977.71  0. 1.0000     0. 
   0   1 -11  64604.70 1633.98  0. 1.0000     0. 
   0  -1  10   5492.47  637.01  0. 1.0000     0. 
   0  -1  10   4537.19  524.82  0. 1.0000     0. 
   0   1 -10   4810.99  620.82  0. 1.0000     0. 
   0   1 -10   4800.01  503.95  0. 1.0000     0. 
   0  -1  10   5380.86  564.75  0. 1.0000     0. 
   0   1 -10   5214.24  479.05  0. 1.0000     0. 
   0   1 -10   4521.27  532.95  0. 1.0000     0. 
   0  -1  10   4481.67  568.14  0. 1.0000     0. 
   0   1 -10   4539.57  683.62  0. 1.0000     0. 
   0  -1  10   4188.13  643.12  0. 1.0000     0. 
   0  -1   9  15655.90  817.67  0. 1.0000     0. 
   0  -1   9  15237.50  886.17  0. 1.0000     0. 
   0   1  -9  15397.30  611.23  0. 1.0000     0. 
   0   1  -9  16014.80  731.08  0. 1.0000     0. 
   0   1  -9   5630.68  558.40  0. 1.0000     0. 
   0  -1   9  14574.10  755.91  0. 1.0000     0. 
   0   1  -9  15462.50  867.04  0. 1.0000     0. 
   0  -1   9  15804.70  784.99  0. 1.0000     0. 
   0   1  -9  15587.90  893.11  0. 1.0000     0. 
   0   1  -9  13987.60  726.07  0. 1.0000     0. 
   0   1  -9  17234.10  544.84  0. 1.0000     0. 
   0   1  -9  15591.50  900.45  0. 1.0000     0. 
   0  -1   9   2770.80  531.12  0. 1.0000     0. 
   0   1  -8   8245.83  500.21  0. 1.0000     0. 
   0  -1   8   8110.56  768.08  0. 1.0000     0. 
   0  -1   8   8142.74  529.22  0. 1.0000     0. 
   0   1  -8   8591.88  578.25  0. 1.0000     0. 
   0  -1   8   8463.55  596.85  0. 1.0000     0. 
   0   1  -8   8328.87  522.31  0. 1.0000     0. 
   0   1  -8  10921.80  435.53  0. 1.0000     0. 
   0  -1   8   7525.97  453.82  0. 1.0000     0. 
   0  -1   8   8458.38  552.60  0. 1.0000     0. 
   0   1  -8   8304.77  634.97  0. 1.0000     0. 
   0   1  -7 324269.97 2772.50  0. 1.0000     0. 
   0  -1   7 331799.00 3281.78  0. 1.0000     0. 
   0   1  -7 326072.03 2676.79  0. 1.0000     0. 
   0   1  -7 334158.03 2965.37  0. 1.0000     0. 
   0   1  -7 326596.97 3240.42  0. 1.0000     0. 
   0  -1   7 320394.97 2231.55  0. 1.0000     0. 
   0  -1   7 324433.00 2931.27  0. 1.0000     0. 
   0   1  -6 171984.00 1984.07  0. 1.0000     0. 
   0  -1   6 179862.00 1626.55  0. 1.0000     0. 
   0   1  -6 175614.98 2156.13  0. 1.0000     0. 
   0  -1   6 178981.00 2218.56  0. 1.0000     0. 
   0   1  -6 180565.98 1869.02  0. 1.0000     0. 
   0  -1   5 135553.00 1292.30  0. 1.0000     0. 
   0   1  -5 128126.01 1538.30  0. 1.0000     0. 
   0   1  -5 126284.99 1491.81  0. 1.0000     0. 
   0   1  -5 133169.00 1475.14  0. 1.0000     0. 
   0  -1   5 139003.00 1604.67  0. 1.0000     0. 
   0  -1   5 136920.02 1753.69  0. 1.0000     0. 
   0  -1   4   2654.73  196.70  0. 1.0000     0. 
   0  -1   4   2757.29  190.79  0. 1.0000     0. 
   0   1  -4   2346.72  212.44  0. 1.0000     0. 
   0   1  -4   2560.20  239.71  0. 1.0000     0. 
   0  -1   4   1554.21  236.63  0. 1.0000     0. 
   0   1  -4   2680.85  143.54  0. 1.0000     0. 
   0   1  -4   2437.86  216.16  0. 1.0000     0. 
   0  -1   4   2276.18  193.60  0. 1.0000     0. 
   0  -1   4   2546.32  218.12  0. 1.0000     0. 
   0   1  -4   2485.28  212.15  0. 1.0000     0. 
   0  -1   4   2733.69  257.11  0. 1.0000     0. 
   0  -1  -2 179523.00 1523.03  0. 1.0000     0. 
   0   1   2  87542.40 1480.54  0. 1.0000     0. 
   0  -1  -5   7468.12  349.69  0. 1.0000     0. 
   0   1   5   8032.81  301.11  0. 1.0000     0. 
   0  -1  -5   7777.44  424.88  0. 1.0000     0. 
   0  -1  -5   7570.54  383.15  0. 1.0000     0. 
   0   1   5   7339.73  419.56  0. 1.0000     0. 
   0  -1  -6  42761.60  845.09  0. 1.0000     0. 
   0   1   6  44442.90  735.19  0. 1.0000     0. 
   0  -1  -6  43056.11  906.45  0. 1.0000     0. 
   0   1   6  42187.80 1040.15  0. 1.0000     0. 
   0   1   6  45038.89  827.43  0. 1.0000     0. 
   0   1   7 397697.97 4501.43  0. 1.0000     0. 
   0   1   7 649745.00 5929.00  0. 1.0000     0. 
   0   1   8  46733.10  882.61  0. 1.0000     0. 
   0  -1  -8  50674.10 1055.24  0. 1.0000     0. 
   0  -1  -8  54487.50 1399.21  0. 1.0000     0. 
   0  -1  -8  45943.70 1089.84  0. 1.0000     0. 
   0  -1  -8  55784.20 1402.25  0. 1.0000     0. 
   0  -1  -8  48282.80 1037.47  0. 1.0000     0. 
   0  -1  -8  48199.10  824.04  0. 1.0000     0. 
   0   1   8  49116.50 1299.26  0. 1.0000     0. 
   0   1   8  51800.10 1018.21  0. 1.0000     0. 
   0  -1  -9   9245.64  422.16  0. 1.0000     0. 
   0   1   9   9226.86  464.62  0. 1.0000     0. 
   0  -1  -9   7474.40  500.80  0. 1.0000     0. 
   0  -1  -9   8758.89  670.73  0. 1.0000     0. 
   0  -1  -9   8403.92  502.65  0. 1.0000     0. 
   0  -1  -9   8884.98  670.34  0. 1.0000     0. 
   0   1   9   7982.85  622.28  0. 1.0000     0. 
   0  -1 -10  46303.80 1485.95  0. 1.0000     0. 
   0  -1 -10  46800.50 1475.32  0. 1.0000     0. 
   0  -1 -10  48688.40  987.88  0. 1.0000     0. 
   0  -1 -10  50495.30 1222.20  0. 1.0000     0. 
   0  -1 -11 268438.97 3600.74  0. 1.0000     0. 
   0  -1 -11 278677.03 3719.28  0. 1.0000     0. 
   0  -1 -12   9449.16  806.98  0. 1.0000     0. 
   0  -1 -12   9008.50  869.95  0. 1.0000     0. 
   0  -1 -12   7785.12  769.72  0. 1.0000     0. 
   0  -1 -13  79296.40 2294.71  0. 1.0000     0. 
   0  -1 -13  89850.10 2294.58  0. 1.0000     0. 
   0   2 -13   -292.99  743.43  0. 1.0000     0. 
   0  -2  13   -213.25  708.51  0. 1.0000     0. 
   0   2 -13      2.06  664.22  0. 1.0000     0. 
   0   2 -13    135.37  543.34  0. 1.0000     0. 
   0  -2  13     43.49  540.53  0. 1.0000     0. 
   0   2 -13   -365.64  813.44  0. 1.0000     0. 
   0  -2  13   -412.44  571.74  0. 1.0000     0. 
   0   2 -12   2171.71  759.28  0. 1.0000     0. 
   0   2 -12   1141.06  540.11  0. 1.0000     0. 
   0   2 -12   1986.89  694.52  0. 1.0000     0. 
   0  -2  12   1723.51  538.36  0. 1.0000     0. 
   0  -2  12   1797.96  658.65  0. 1.0000     0. 
   0  -2  12   1913.40  577.48  0. 1.0000     0. 
   0  -2  12   2497.41  833.35  0. 1.0000     0. 
   0   2 -12   1598.98  744.09  0. 1.0000     0. 
   0  -2  11   1407.16  549.85  0. 1.0000     0. 
   0  -2  10 123913.00 2439.56  0. 1.0000     0. 
   0   2 -10 134224.00 2712.65  0. 1.0000     0. 
   0  -2  10 129092.01 2427.73  0. 1.0000     0. 
   0  -2  10 134308.00 2801.20  0. 1.0000     0. 
   0   2 -10 128745.99 2406.83  0. 1.0000     0. 
   0  -2  10 139240.00 2574.43  0. 1.0000     0. 
   0   2 -10 127218.01 2660.71  0. 1.0000     0. 
   0   2 -10 136289.98 2603.58  0. 1.0000     0. 
   0  -2   9  12904.80  616.61  0. 1.0000     0. 
   0   2  -9  13804.40  959.58  0. 1.0000     0. 
   0   2  -9  12772.10  763.57  0. 1.0000     0. 
   0  -2   9  13846.80  873.88  0. 1.0000     0. 
   0   2  -9  13957.00  867.77  0. 1.0000     0. 
   0  -2   9  14323.10  815.97  0. 1.0000     0. 
   0  -2   9  11898.30  773.95  0. 1.0000     0. 
   0  -2   9  12866.40  904.64  0. 1.0000     0. 
   0   2  -9  13876.50  795.95  0. 1.0000     0. 
   0   2  -9  13270.50  731.39  0. 1.0000     0. 
   0  -2   8 107900.00 1678.73  0. 1.0000     0. 
   0  -2   8 125323.00 2341.58  0. 1.0000     0. 
   0  -2   8 123504.01 2076.45  0. 1.0000     0. 
   0   2  -8 121264.99 2011.56  0. 1.0000     0. 
   0   2  -8 111747.99 2006.12  0. 1.0000     0. 
   0  -2   8 112854.00 2003.75  0. 1.0000     0. 
   0   2  -8 117919.99 2091.52  0. 1.0000     0. 
   0   2  -8 118712.99 2261.01  0. 1.0000     0. 
   0   2  -8 120482.99 2062.62  0. 1.0000     0. 
   0   2  -7  29854.90 1070.07  0. 1.0000     0. 
   0   2  -7  31456.50 1004.37  0. 1.0000     0. 
   0   2  -7  32513.20  997.27  0. 1.0000     0. 
   0   2  -7  31339.40 1023.20  0. 1.0000     0. 
   0  -2   7  31935.10 1027.74  0. 1.0000     0. 
   0   2  -7  29580.40 1001.95  0. 1.0000     0. 
   0  -2   7  32748.30  995.92  0. 1.0000     0. 
   0  -2   7  30950.00 1062.79  0. 1.0000     0. 
   0  -2   7  32960.40 1134.48  0. 1.0000     0. 
   0  -2   7  27825.30  827.86  0. 1.0000     0. 
   0   2  -6 260020.00 2662.48  0. 1.0000     0. 
   0   2  -6 245691.00 2534.25  0. 1.0000     0. 
   0  -2   6 251797.98 2749.02  0. 1.0000     0. 
   0   2  -6 247944.00 2649.09  0. 1.0000     0. 
   0  -2   6 254059.00 2361.04  0. 1.0000     0. 
   0  -2   6 253406.00 2801.84  0. 1.0000     0. 
   0   2  -6 251059.02 2756.68  0. 1.0000     0. 
   0   2  -6 261554.98 2587.37  0. 1.0000     0. 
   0  -2   6 244430.98 2300.32  0. 1.0000     0. 
   0  -2   6 243358.00 2571.53  0. 1.0000     0. 
   0  -2   5 108359.99 1694.52  0. 1.0000     0. 
   0   2  -5 100933.01 1518.37  0. 1.0000     0. 
   0  -2   5 105742.01 1257.86  0. 1.0000     0. 
   0   2  -5  99721.09 1584.20  0. 1.0000     0. 
   0   2  -5 102253.00 1537.67  0. 1.0000     0. 
   0  -2   5  97336.70 1494.53  0. 1.0000     0. 
   0   2  -5 111063.01 1746.17  0. 1.0000     0. 
   0  -2   5 105038.99 1655.41  0. 1.0000     0. 
   0  -2   5 100658.00 1440.59  0. 1.0000     0. 
   0   2  -5  99725.70 1468.53  0. 1.0000     0. 
   0  -2   5  92611.00 1241.96  0. 1.0000     0. 
   0  -2   4 379033.97 2683.55  0. 1.0000     0. 
   0   2  -4 251758.00 2413.74  0. 1.0000     0. 
   0  -2   3 310995.00 2350.50  0. 1.0000     0. 
   0   2  -3 326422.03 2573.66  0. 1.0000     0. 
   0   2  -1  75518.10 1027.05  0. 1.0000     0. 
   0  -2   1  76630.40 1142.18  0. 1.0000     0. 
   0   2   6 161782.98 2116.79  0. 1.0000     0. 
   0   2   7 197432.02 2583.00  0. 1.0000     0. 
   0   2   8 121225.99 1759.57  0. 1.0000     0. 
   0   2   8 135551.98 2272.09  0. 1.0000     0. 
   0   2   9  64090.60 1682.88  0. 1.0000     0. 
   0   2   9  57365.90 1329.77  0. 1.0000     0. 
   0  -3  12  24957.40 1384.57  0. 1.0000     0. 
   0  -3  12  24882.70 1530.55  0. 1.0000     0. 
   0   3 -12  23909.50 1555.83  0. 1.0000     0. 
   0   3 -12  23162.50 1323.36  0. 1.0000     0. 
   0  -3  12  19805.40 1259.69  0. 1.0000     0. 
   0   3 -12  25276.70 1647.05  0. 1.0000     0. 
   0  -3  11  43245.00 1674.56  0. 1.0000     0. 
   0   3 -11  42704.30 1882.29  0. 1.0000     0. 
   0  -3  11  42712.60 1752.63  0. 1.0000     0. 
   0   3 -11  42381.70 1581.62  0. 1.0000     0. 
   0   3 -11  45480.40 1863.79  0. 1.0000     0. 
   0   3 -10  23863.50 1351.83  0. 1.0000     0. 
   0  -3  10  22821.00 1227.29  0. 1.0000     0. 
   0   3 -10  24577.70 1367.57  0. 1.0000     0. 
   0  -3  10  23957.70 1209.54  0. 1.0000     0. 
   0  -3   9  83821.30 1793.47  0. 1.0000     0. 
   0   3  -9  87692.00 2302.69  0. 1.0000     0. 
   0  -3   9  82700.00 2022.83  0. 1.0000     0. 
   0  -3   8   9147.68  706.67  0. 1.0000     0. 
   0   3  -8   9290.54  781.39  0. 1.0000     0. 
   0  -3   8   9154.53  624.71  0. 1.0000     0. 
   0   3  -8   8854.50  712.09  0. 1.0000     0. 
   0  -3   8   7368.80  681.47  0. 1.0000     0. 
   0  -3   8  11033.90  935.64  0. 1.0000     0. 
   0   3  -8   8032.07  862.18  0. 1.0000     0. 
   0   3  -8   8187.95  620.21  0. 1.0000     0. 
   0   3  -7 422518.00 3786.11  0. 1.0000     0. 
   0   3  -7 397108.97 3573.77  0. 1.0000     0. 
   0   3  -7 432350.00 4147.16  0. 1.0000     0. 
   0  -3   7 408812.03 3883.25  0. 1.0000     0. 
   0  -3   7 418040.00 3702.19  0. 1.0000     0. 
   0   3  -7 422048.00 4240.64  0. 1.0000     0. 
   0  -3   7 413706.97 4005.98  0. 1.0000     0. 
   0  -3   6   8750.08  604.29  0. 1.0000     0. 
   0  -3   6   8083.29  562.53  0. 1.0000     0. 
   0   3  -6   7937.18  554.56  0. 1.0000     0. 
   0   3  -6   7452.45  508.48  0. 1.0000     0. 
   0  -3   6   8292.75  576.91  0. 1.0000     0. 
   0   3  -6   9293.97  636.90  0. 1.0000     0. 
   0   3  -6   8605.81  621.62  0. 1.0000     0. 
   0  -3   5   4996.79  271.34  0. 1.0000     0. 
   0   3  -5   5088.22  441.64  0. 1.0000     0. 
   0   3  -5   5072.74  474.84  0. 1.0000     0. 
   0  -3   5   4654.84  430.51  0. 1.0000     0. 
   0   3  -5   5528.30  483.57  0. 1.0000     0. 
   0  -3   5   5326.65  456.53  0. 1.0000     0. 
   0   3  -5   5374.96  419.63  0. 1.0000     0. 
   0  -3   5   7191.73  513.27  0. 1.0000     0. 
   0  -3   5   7983.84  697.56  0. 1.0000     0. 
   0   3  -4  77173.90 1450.19  0. 1.0000     0. 
   0  -3   4  70438.60 1327.26  0. 1.0000     0. 
   0  -3   4  76074.10 1202.92  0. 1.0000     0. 
   0  -3   4  76302.40 1492.37  0. 1.0000     0. 
   0   3  -4  71324.40 1349.53  0. 1.0000     0. 
   0  -3   4  73878.60 1458.85  0. 1.0000     0. 
   0   3  -4  72299.30 1547.46  0. 1.0000     0. 
   0   3  -3 288023.00 2551.40  0. 1.0000     0. 
   0  -3   3 285298.97 2089.13  0. 1.0000     0. 
   0  -3   3 307189.00 2913.18  0. 1.0000     0. 
   0   3  -3 306048.00 2658.48  0. 1.0000     0. 
   0   3  -2  44285.00 1147.39  0. 1.0000     0. 
   0  -3   2  32189.00  604.30  0. 1.0000     0. 
   0  -4   9    578.96  472.55  0. 1.0000     0. 
   0  -4   8   2235.92  731.76  0. 1.0000     0. 
   0  -4   8   9632.97  810.73  0. 1.0000     0. 
   0  -4   7  13584.30  857.43  0. 1.0000     0. 
   0   4  -7  11330.80  801.11  0. 1.0000     0. 
   0  -4   7  21271.30 1049.75  0. 1.0000     0. 
   0  -4   7  27174.50 1388.88  0. 1.0000     0. 
   0  -4   6  37579.30 1361.00  0. 1.0000     0. 
   0  -4   6  39805.10 1369.37  0. 1.0000     0. 
   1  -4  -2 423052.97 4265.26  0. 1.0000     0. 
   1  -4  -2 392189.97 3726.51  0. 1.0000     0. 
   1  -4  -2 584503.00 4951.23  0. 1.0000     0. 
   1  -4  -2 575513.00 5026.87  0. 1.0000     0. 
   1  -4  -1  79881.89 1799.98  0. 1.0000     0. 
   1  -4  -1  71909.90 1621.13  0. 1.0000     0. 
   1  -4  -1  80698.30 1917.23  0. 1.0000     0. 
   1  -4  -1  87306.20 1958.08  0. 1.0000     0. 
   1  -4  -1  64254.50 1388.33  0. 1.0000     0. 
  -1   4   1  78823.49 1490.46  0. 1.0000     0. 
   1  -4   0  84077.29 1906.18  0. 1.0000     0. 
  -1   4   0  88786.99 1528.85  0. 1.0000     0. 
   1  -4   0  84118.30 1624.03  0. 1.0000     0. 
   1  -4   0  86905.40 1798.94  0. 1.0000     0. 
   1  -4   0  84994.49 1872.84  0. 1.0000     0. 
  -1   4   0  79670.30 1677.51  0. 1.0000     0. 
  -1   4  -1  22183.30  932.17  0. 1.0000     0. 
  -1   4  -1  20140.00  822.72  0. 1.0000     0. 
  -1   4  -1  24725.60  805.90  0. 1.0000     0. 
   1  -4   1  24635.00 1066.21  0. 1.0000     0. 
   1  -4   1  22206.90  868.11  0. 1.0000     0. 
   1  -4   1  20252.40  922.50  0. 1.0000     0. 
   1  -4   1  22307.70  960.12  0. 1.0000     0. 
  -1   4  -1  24445.00  603.51  0. 1.0000     0. 
   1  -4   1  22330.00  971.44  0. 1.0000     0. 
   1  -4   2  75821.01 1385.61  0. 1.0000     0. 
  -1   4  -2  79807.80 1297.24  0. 1.0000     0. 
  -1   4  -2  80152.59 1242.50  0. 1.0000     0. 
   1  -4   2  75903.59 1707.94  0. 1.0000     0. 
  -1   4  -2  72679.90 1481.49  0. 1.0000     0. 
   1  -4   2  71962.30 1650.53  0. 1.0000     0. 
  -1   4  -2  71843.11 1690.93  0. 1.0000     0. 
   1  -4   2  76906.51 1766.52  0. 1.0000     0. 
   1  -4   2  71601.50 1523.77  0. 1.0000     0. 
   1  -4   2  74382.29 1649.46  0. 1.0000     0. 
  -1   4  -3 123522.00 2321.47  0. 1.0000     0. 
  -1   4  -3 120937.00 2054.54  0. 1.0000     0. 
   1  -4   3 123220.00 2218.25  0. 1.0000     0. 
   1  -4   3 116820.99 1978.62  0. 1.0000     0. 
  -1   4  -3 123385.01 1468.44  0. 1.0000     0. 
  -1   4  -3 129066.00 1759.29  0. 1.0000     0. 
   1  -4   3 123574.99 1950.20  0. 1.0000     0. 
   1  -4   3 110561.00 1807.65  0. 1.0000     0. 
   1  -4   3 119122.01 2274.84  0. 1.0000     0. 
   1  -4   4 330289.00 2971.43  0. 1.0000     0. 
  -1   4  -4 329195.03 3905.73  0. 1.0000     0. 
  -1   4  -4 321993.00 3432.19  0. 1.0000     0. 
   1  -4   4 315896.00 3257.68  0. 1.0000     0. 
   1  -4   4 315707.97 3675.28  0. 1.0000     0. 
  -1   4  -4 317637.03 2945.02  0. 1.0000     0. 
   1  -4   4 317755.03 3773.42  0. 1.0000     0. 
   1  -4   5 134246.00 2491.30  0. 1.0000     0. 
   1  -4   5 131993.00 2247.50  0. 1.0000     0. 
  -1   4  -5 135485.02 2645.06  0. 1.0000     0. 
  -1   4  -6  31622.90 1229.71  0. 1.0000     0. 
   1  -4   6  28520.20 1208.70  0. 1.0000     0. 
   1  -4   6  29479.10 1168.04  0. 1.0000     0. 
   1  -4   7   2898.35  513.64  0. 1.0000     0. 
   1  -4   7   3289.11  770.55  0. 1.0000     0. 
   1  -4   7   3260.54  559.03  0. 1.0000     0. 
  -1   4  -7   2043.49  470.77  0. 1.0000     0. 
  -1   4  -7   2866.93  568.15  0. 1.0000     0. 
  -1   4  -8 125659.99 2775.09  0. 1.0000     0. 
   1  -4   8 125363.00 2626.57  0. 1.0000     0. 
  -1   4  -8 119606.99 2702.30  0. 1.0000     0. 
   1  -4   8 123310.99 2639.38  0. 1.0000     0. 
  -1   4  -8 122640.01 2644.77  0. 1.0000     0. 
  -1   4  -9   5672.63  800.67  0. 1.0000     0. 
  -1   4  -9   6255.78  818.75  0. 1.0000     0. 
   1  -4   9   6399.08  770.33  0. 1.0000     0. 
   1  -4   9   6675.33  731.81  0. 1.0000     0. 
  -1   4  -9   6535.42  896.98  0. 1.0000     0. 
  -1   4 -10   6766.34  972.39  0. 1.0000     0. 
   1  -4  10   7085.53  822.05  0. 1.0000     0. 
  -1   4 -10   5792.90  858.08  0. 1.0000     0. 
  -1   4 -11   3036.33  745.66  0. 1.0000     0. 
  -1   4 -11   3017.99  913.41  0. 1.0000     0. 
   1  -4  11   4506.42  746.31  0. 1.0000     0. 
   1  -3  -9 379007.97 3770.43  0. 1.0000     0. 
   1  -3  -9 349702.00 4134.54  0. 1.0000     0. 
  -1   3   9 296414.00 3382.82  0. 1.0000     0. 
   1  -3  -9 362343.00 4240.06  0. 1.0000     0. 
  -1   3   9 301283.00 3765.84  0. 1.0000     0. 
   1  -3  -8  15670.10  768.01  0. 1.0000     0. 
  -1   3   8  16042.90 1198.76  0. 1.0000     0. 
  -1   3   8   -435.81  321.67  0. 1.0000     0. 
   1  -3  -8   1293.46  543.21  0. 1.0000     0. 
  -1   3   8  16274.50  799.10  0. 1.0000     0. 
   1  -3  -8  15163.70  903.15  0. 1.0000     0. 
   1  -3  -7  52521.00 1510.98  0. 1.0000     0. 
  -1   3   7  59348.60 1476.88  0. 1.0000     0. 
  -1   3   7  65352.20 1873.56  0. 1.0000     0. 
  -1   3   7  54286.70 1418.55  0. 1.0000     0. 
   1  -3  -7  53233.30 1303.58  0. 1.0000     0. 
   1  -3  -7  57299.50  968.41  0. 1.0000     0. 
   1  -3  -7  61838.40  511.74  0. 1.0000     0. 
   1  -3  -7  52865.40 1602.78  0. 1.0000     0. 
  -1   3   6  27639.50  944.76  0. 1.0000     0. 
   1  -3  -6  30229.30  496.41  0. 1.0000     0. 
   1  -3  -6  29083.80 1170.27  0. 1.0000     0. 
   1  -3  -6  31086.40  749.68  0. 1.0000     0. 
  -1   3   6  32464.10 1056.23  0. 1.0000     0. 
   1  -3  -6  30557.40  946.03  0. 1.0000     0. 
  -1   3   6  29958.80 1361.09  0. 1.0000     0. 
   1  -3  -6  29841.70 1142.84  0. 1.0000     0. 
  -1   3   5 177527.00 2204.17  0. 1.0000     0. 
  -1   3   5 184551.00 2320.51  0. 1.0000     0. 
   1  -3  -5 171525.00 2621.10  0. 1.0000     0. 
   1  -3  -5 179595.00 2156.66  0. 1.0000     0. 
  -1   3   5 186252.02 2727.35  0. 1.0000     0. 
   1  -3  -5 189981.98 1967.56  0. 1.0000     0. 
   1  -3  -4 187713.00 2580.73  0. 1.0000     0. 
  -1   3   4 213157.02 2390.16  0. 1.0000     0. 
   1  -3  -4 216157.00 1704.20  0. 1.0000     0. 
  -1   3   4 198406.00 2183.41  0. 1.0000     0. 
  -1   3   4 217093.00 2753.44  0. 1.0000     0. 
   1  -3  -4 199136.02 2750.71  0. 1.0000     0. 
   1  -3  -4 234939.02 2527.13  0. 1.0000     0. 
   1  -3  -3 193339.00 2141.23  0. 1.0000     0. 
   1  -3  -3 181591.00 2020.95  0. 1.0000     0. 
   1  -3  -3 180117.02 1667.22  0. 1.0000     0. 
  -1   3   3 172853.02 1825.28  0. 1.0000     0. 
  -1   3   3 200932.98 2540.50  0. 1.0000     0. 
  -1   3   3 176596.00 2079.44  0. 1.0000     0. 
   1  -3  -3 151941.02 2270.97  0. 1.0000     0. 
  -1   3   2  44485.30 1127.36  0. 1.0000     0. 
   1  -3  -2  42540.50 1168.01  0. 1.0000     0. 
   1  -3  -2  39919.70 1144.52  0. 1.0000     0. 
  -1   3   2  44311.40  999.67  0. 1.0000     0. 
   1  -3  -2  44853.89  904.33  0. 1.0000     0. 
  -1   3   2  42549.40  792.88  0. 1.0000     0. 
   1  -3  -1 327880.03 2853.97  0. 1.0000     0. 
  -1   3   1 291048.00 1719.10  0. 1.0000     0. 
   1  -3  -1 278838.97 2859.73  0. 1.0000     0. 
  -1   3   1 247874.98 2429.08  0. 1.0000     0. 
  -1   3   1 290172.97 3130.44  0. 1.0000     0. 
   1  -3  -1 284963.03 3010.55  0. 1.0000     0. 
   1  -3   0 117811.01 1890.90  0. 1.0000     0. 
  -1   3   0 127331.99 1529.74  0. 1.0000     0. 
  -1   3   0 127515.99 2123.07  0. 1.0000     0. 
  -1   3   0 123869.99 1575.50  0. 1.0000     0. 
   1  -3   0 121274.00 1861.10  0. 1.0000     0. 
   1  -3   0 128995.99 1346.40  0. 1.0000     0. 
  -1   3   0 129651.00 1735.30  0. 1.0000     0. 
  -1   3  -2  33519.00  910.87  0. 1.0000     0. 
   1  -3   2  33771.00  951.10  0. 1.0000     0. 
   1  -3   2  34925.10  936.19  0. 1.0000     0. 
  -1   3  -2  39702.00  785.40  0. 1.0000     0. 
   1  -3   2  35020.00  885.12  0. 1.0000     0. 
  -1   3  -2  34281.20  992.86  0. 1.0000     0. 
  -1   3  -2  35164.50  708.38  0. 1.0000     0. 
   1  -3   2  34718.10  893.71  0. 1.0000     0. 
   1  -3   2  36094.40  944.19  0. 1.0000     0. 
  -1   3  -3   1305.09  223.13  0. 1.0000     0. 
   1  -3   3   1303.06  237.66  0. 1.0000     0. 
  -1   3  -3   1096.82  256.00  0. 1.0000     0. 
   1  -3   3   1627.43  259.78  0. 1.0000     0. 
   1  -3   3   1729.89  298.42  0. 1.0000     0. 
  -1   3  -3   1665.78  324.70  0. 1.0000     0. 
  -1   3  -3   1166.61  209.24  0. 1.0000     0. 
   1  -3   3    363.28  294.47  0. 1.0000     0. 
   1  -3   3   1255.62  260.93  0. 1.0000     0. 
   1  -3   3   1325.52  311.82  0. 1.0000     0. 
  -1   3  -3   1494.34  164.91  0. 1.0000     0. 
  -1   3  -4  11025.00  668.33  0. 1.0000     0. 
   1  -3   4  10834.60  645.62  0. 1.0000     0. 
  -1   3  -4  11973.90  556.69  0. 1.0000     0. 
  -1   3  -4  12026.80  315.36  0. 1.0000     0. 
   1  -3   4  13384.10  604.74  0. 1.0000     0. 
  -1   3  -4  10935.10  500.87  0. 1.0000     0. 
  -1   3  -4   9764.29  588.10  0. 1.0000     0. 
   1  -3   4  13150.40  492.43  0. 1.0000     0. 
   1  -3   4  10972.50  638.07  0. 1.0000     0. 
   1  -3   4  10894.40  558.79  0. 1.0000     0. 
  -1   3  -5 458831.03 3418.00  0. 1.0000     0. 
  -1   3  -5 468367.97 4002.80  0. 1.0000     0. 
   1  -3   5 476391.97 4053.30  0. 1.0000     0. 
  -1   3  -5 470509.00 4228.52  0. 1.0000     0. 
   1  -3   5 465852.00 3739.34  0. 1.0000     0. 
  -1   3  -5 470360.97 3685.25  0. 1.0000     0. 
  -1   3  -6  48458.50 1250.59  0. 1.0000     0. 
   1  -3   6  47663.90 1298.11  0. 1.0000     0. 
   1  -3   6  44981.60 1291.37  0. 1.0000     0. 
   1  -3   6  48410.90 1409.95  0. 1.0000     0. 
  -1   3  -6  45294.80 1408.38  0. 1.0000     0. 
  -1   3  -6  50882.40 1393.18  0. 1.0000     0. 
  -1   3  -6  49214.20 1385.12  0. 1.0000     0. 
   1  -3   7  58168.20 1533.99  0. 1.0000     0. 
   1  -3   7  54044.40 1590.53  0. 1.0000     0. 
  -1   3  -7  58080.70 1654.29  0. 1.0000     0. 
  -1   3  -7  60177.10 1614.54  0. 1.0000     0. 
   1  -3   7  57162.30 1502.08  0. 1.0000     0. 
  -1   3  -7  62597.80 1519.84  0. 1.0000     0. 
  -1   3  -8 106279.01 2266.19  0. 1.0000     0. 
   1  -3   8 112801.01 2386.81  0. 1.0000     0. 
  -1   3  -8 110060.01 2146.10  0. 1.0000     0. 
   1  -3   8 104153.01 2114.23  0. 1.0000     0. 
   1  -3   8 102856.99 2143.22  0. 1.0000     0. 
  -1   3  -8  97994.01 2236.31  0. 1.0000     0. 
   1  -3   9  69577.01 1994.42  0. 1.0000     0. 
   1  -3   9  79235.10 2186.91  0. 1.0000     0. 
  -1   3  -9  75193.09 1932.64  0. 1.0000     0. 
   1  -3   9  68923.80 1706.51  0. 1.0000     0. 
   1  -3   9  70546.30 1877.31  0. 1.0000     0. 
  -1   3  -9  73683.60 2091.47  0. 1.0000     0. 
  -1   3  -9  76317.40 2142.34  0. 1.0000     0. 
   1  -3  10   9419.12  739.10  0. 1.0000     0. 
  -1   3 -10  10268.80 1008.76  0. 1.0000     0. 
  -1   3 -10  10583.90  991.81  0. 1.0000     0. 
   1  -3  10  10398.50  869.67  0. 1.0000     0. 
  -1   3 -10   9131.22  790.86  0. 1.0000     0. 
   1  -3  10   9114.43  910.26  0. 1.0000     0. 
  -1   3 -11  85242.30 2576.35  0. 1.0000     0. 
   1  -3  11  80199.60 2278.35  0. 1.0000     0. 
   1  -3  11  85702.40 2583.45  0. 1.0000     0. 
  -1   3 -11  82823.79 2608.83  0. 1.0000     0. 
  -1   3 -11  80492.71 2235.14  0. 1.0000     0. 
  -1   3 -12   -175.44  796.53  0. 1.0000     0. 
  -1   3 -12     12.72  694.58  0. 1.0000     0. 
  -1   3 -12    356.38  503.02  0. 1.0000     0. 
  -1   3 -12    204.44  794.75  0. 1.0000     0. 
   1  -3  12     41.82  623.64  0. 1.0000     0. 
   1  -3  12    157.26  511.02  0. 1.0000     0. 
   1  -3  12    -30.40  733.44  0. 1.0000     0. 
   1  -2 -12  62074.70 1759.72  0. 1.0000     0. 
  -1   2  12  59892.20 1997.14  0. 1.0000     0. 
  -1   2  11   3215.03  459.73  0. 1.0000     0. 
  -1   2  11   3908.16  608.59  0. 1.0000     0. 
   1  -2 -11   3972.25  504.42  0. 1.0000     0. 
   1  -2 -11   4272.22  634.78  0. 1.0000     0. 
   1  -2 -11   3683.55  532.93  0. 1.0000     0. 
   1  -2 -11   3607.03  589.98  0. 1.0000     0. 
   1  -2 -10 112885.99 1982.32  0. 1.0000     0. 
  -1   2  10 114475.01 2399.65  0. 1.0000     0. 
   1  -2 -10 117589.01 2317.65  0. 1.0000     0. 
   1  -2 -10 115160.00 2291.27  0. 1.0000     0. 
  -1   2  10 120703.00 2960.95  0. 1.0000     0. 
  -1   2   9  23127.10  900.89  0. 1.0000     0. 
   1  -2  -9  21127.60  976.55  0. 1.0000     0. 
   1  -2  -9  22477.20  981.44  0. 1.0000     0. 
  -1   2   9  21888.20 1207.19  0. 1.0000     0. 
   1  -2  -9  22347.90  859.78  0. 1.0000     0. 
  -1   2   8 101888.01 2253.29  0. 1.0000     0. 
  -1   2   8 102435.00 1723.09  0. 1.0000     0. 
  -1   2   8 102491.00 2030.14  0. 1.0000     0. 
   1  -2  -8 106956.01 1738.33  0. 1.0000     0. 
   1  -2  -8 101019.99 1888.46  0. 1.0000     0. 
   1  -2  -8  96836.50 1908.08  0. 1.0000     0. 
  -1   2   7  70687.41 1363.18  0. 1.0000     0. 
  -1   2   7  69469.01 1719.38  0. 1.0000     0. 
   1  -2  -7  71418.21 1383.14  0. 1.0000     0. 
   1  -2  -7  71190.99 1452.31  0. 1.0000     0. 
   1  -2  -7  65927.00 1502.96  0. 1.0000     0. 
  -1   2   7  68100.29 1503.20  0. 1.0000     0. 
   1  -2  -6 485689.03 3883.04  0. 1.0000     0. 
   1  -2  -6 478516.03 3931.52  0. 1.0000     0. 
   1  -2  -5   2436.68  182.46  0. 1.0000     0. 
   1  -2  -5   2924.38  294.44  0. 1.0000     0. 
  -1   2   5   2213.45  277.91  0. 1.0000     0. 
  -1   2   5   2701.69  291.12  0. 1.0000     0. 
   1  -2  -5   1887.77  293.14  0. 1.0000     0. 
   1  -2  -5   2486.54  284.14  0. 1.0000     0. 
   1  -2  -5   2628.81  374.37  0. 1.0000     0. 
   1  -2  -4 303132.97 2887.22  0. 1.0000     0. 
  -1   2   4 308108.00 2454.56  0. 1.0000     0. 
   1  -2  -3    308.82  142.95  0. 1.0000     0. 
  -1   2   3    212.84  129.18  0. 1.0000     0. 
   1  -2  -3    441.54  212.72  0. 1.0000     0. 
  -1   2   3    342.11  132.43  0. 1.0000     0. 
   1  -2  -3    262.43   75.25  0. 1.0000     0. 
  -1   2   3    453.79  193.45  0. 1.0000     0. 
   1  -2  -3    214.96  222.62  0. 1.0000     0. 
   1  -2  -3    278.75  110.72  0. 1.0000     0. 
   1  -2  -2 190059.02 1647.31  0. 1.0000     0. 
   1  -2  -2 172224.02 2003.11  0. 1.0000     0. 
  -1   2   2 180674.98 1696.81  0. 1.0000     0. 
  -1   2   2 190785.00 1490.65  0. 1.0000     0. 
   1  -2  -2 170626.00 1999.68  0. 1.0000     0. 
  -1   2   2 187460.98 1801.21  0. 1.0000     0. 
  -1   2   1      0.62  114.51  0. 1.0000     0. 
  -1   2   1    107.46   88.16  0. 1.0000     0. 
   1  -2  -1     59.73  147.48  0. 1.0000     0. 
   1  -2  -1    167.33  111.44  0. 1.0000     0. 
   1  -2  -1    185.27   90.86  0. 1.0000     0. 
  -1   2   1    574.01  113.31  0. 1.0000     0. 
  -1   2   1    132.22   89.68  0. 1.0000     0. 
  -1   2   1    257.87   81.30  0. 1.0000     0. 
   1  -2  -1    152.25  182.21  0. 1.0000     0. 
   1  -2  -1      6.20  100.89  0. 1.0000     0. 
   1  -2   0  51369.30  978.64  0. 1.0000     0. 
   1  -2   0  61855.11  687.10  0. 1.0000     0. 
   1  -2   0  51486.00  820.46  0. 1.0000     0. 
  -1   2   0  58267.10 1133.87  0. 1.0000     0. 
  -1   2   0  58625.30  893.29  0. 1.0000     0. 
  -1   2   0  58847.50  783.87  0. 1.0000     0. 
  -1   2   0  55649.80  903.94  0. 1.0000     0. 
  -1   2   0  59778.40  888.89  0. 1.0000     0. 
   1  -2   0  66451.71  914.90  0. 1.0000     0. 
   1  -2   0  55865.60 1036.14  0. 1.0000     0. 
   1  -2   0  59895.40  832.49  0. 1.0000     0. 
  -1   2  -1  43642.50  674.37  0. 1.0000     0. 
   1  -2   1  43580.70  831.46  0. 1.0000     0. 
  -1   2  -1  46755.30  584.93  0. 1.0000     0. 
   1  -2   1  44773.50  822.09  0. 1.0000     0. 
  -1   2  -1  42363.30  902.49  0. 1.0000     0. 
  -1   2  -1  43736.60  871.88  0. 1.0000     0. 
  -1   2  -1  43167.60  817.74  0. 1.0000     0. 
   1  -2   1  44922.30  861.94  0. 1.0000     0. 
   1  -2   1  44847.00  668.74  0. 1.0000     0. 
   1  -2   1  43707.90  881.38  0. 1.0000     0. 
   1  -2   3  12340.10  445.54  0. 1.0000     0. 
  -1   2  -3  11816.70  456.07  0. 1.0000     0. 
   1  -2   3  13072.40  456.97  0. 1.0000     0. 
   1  -2   3  11820.10  526.08  0. 1.0000     0. 
   1  -2   3  13159.70  421.13  0. 1.0000     0. 
  -1   2  -3  12230.90  279.62  0. 1.0000     0. 
  -1   2  -3  13259.90  451.50  0. 1.0000     0. 
  -1   2  -3  10788.10  452.58  0. 1.0000     0. 
   1  -2   3  12701.60  582.59  0. 1.0000     0. 
  -1   2  -3  12568.00  524.45  0. 1.0000     0. 
  -1   2  -5 149406.00 1968.70  0. 1.0000     0. 
  -1   2  -5 137547.00 1922.39  0. 1.0000     0. 
   1  -2   5 132467.02 1722.45  0. 1.0000     0. 
  -1   2  -5 126399.00 1894.37  0. 1.0000     0. 
   1  -2   5 131824.00 1820.92  0. 1.0000     0. 
   1  -2   5 146340.98 1489.20  0. 1.0000     0. 
   1  -2   5 135373.00 1823.09  0. 1.0000     0. 
   1  -2   5 139513.98 1488.10  0. 1.0000     0. 
   1  -2   6  21591.10  803.21  0. 1.0000     0. 
   1  -2   6  19854.20  781.44  0. 1.0000     0. 
  -1   2  -6  21983.70  883.10  0. 1.0000     0. 
  -1   2  -6  20337.90  849.97  0. 1.0000     0. 
  -1   2  -6  20921.20  827.92  0. 1.0000     0. 
   1  -2   6  23500.80  692.14  0. 1.0000     0. 
  -1   2  -7  98369.10 1938.82  0. 1.0000     0. 
   1  -2   7 107856.00 1884.37  0. 1.0000     0. 
   1  -2   7 102933.99 1732.57  0. 1.0000     0. 
  -1   2  -7 105454.00 1880.83  0. 1.0000     0. 
   1  -2   7 124457.00 1841.54  0. 1.0000     0. 
   1  -2   7 102761.00 1821.16  0. 1.0000     0. 
  -1   2  -7 109695.99 1993.14  0. 1.0000     0. 
  -1   2  -7 103096.00 1748.10  0. 1.0000     0. 
  -1   2  -7 108995.01 1964.92  0. 1.0000     0. 
   1  -2   7  83844.71 1281.84  0. 1.0000     0. 
  -1   2  -8 160422.00 2418.31  0. 1.0000     0. 
   1  -2   8 156357.02 2477.46  0. 1.0000     0. 
   1  -2   8 151046.00 2350.77  0. 1.0000     0. 
  -1   2  -8 153605.00 2310.40  0. 1.0000     0. 
  -1   2  -8 159139.00 2631.57  0. 1.0000     0. 
   1  -2   8 151508.00 2141.96  0. 1.0000     0. 
  -1   2  -8 163747.00 2590.27  0. 1.0000     0. 
  -1   2  -8 163104.00 2631.60  0. 1.0000     0. 
  -1   2  -9   3710.95  609.53  0. 1.0000     0. 
  -1   2  -9   3285.13  527.93  0. 1.0000     0. 
   1  -2   9   2885.22  548.32  0. 1.0000     0. 
   1  -2   9   3977.71  465.11  0. 1.0000     0. 
   1  -2   9   3364.59  494.98  0. 1.0000     0. 
   1  -2   9   3641.64  632.24  0. 1.0000     0. 
  -1   2  -9   3683.71  526.63  0. 1.0000     0. 
   1  -2   9   4016.10  539.31  0. 1.0000     0. 
  -1   2  -9   3335.06  634.87  0. 1.0000     0. 
   1  -2  10    976.99  585.81  0. 1.0000     0. 
   1  -2  10   8335.52  726.37  0. 1.0000     0. 
  -1   2 -10      0.14  235.97  0. 1.0000     0. 
   1  -2  10  10045.80  860.83  0. 1.0000     0. 
   1  -2  10   1197.97  305.24  0. 1.0000     0. 
  -1   2 -10   9939.52  866.26  0. 1.0000     0. 
   1  -2  10   9936.17  755.84  0. 1.0000     0. 
  -1   2 -10   9641.37  909.74  0. 1.0000     0. 
  -1   2 -11  11188.00 1019.07  0. 1.0000     0. 
  -1   2 -11  13211.60 1064.08  0. 1.0000     0. 
   1  -2  11  10478.00  886.44  0. 1.0000     0. 
  -1   2 -11   9545.56  992.29  0. 1.0000     0. 
   1  -2  11  10787.50  986.96  0. 1.0000     0. 
  -1   2 -11   8107.52  857.64  0. 1.0000     0. 
   1  -2  11  10546.10  986.42  0. 1.0000     0. 
   1  -2  11  10606.00  842.83  0. 1.0000     0. 
   1  -2  12 135825.00 3270.59  0. 1.0000     0. 
   1  -2  12 142653.02 3005.74  0. 1.0000     0. 
  -1   2 -12 147008.00 3154.18  0. 1.0000     0. 
  -1   2 -12 134132.00 2941.53  0. 1.0000     0. 
  -1   2 -12 146063.00 3377.56  0. 1.0000     0. 
  -1   2 -12 152024.00 3360.90  0. 1.0000     0. 
  -1   2 -13  14463.30 1327.83  0. 1.0000     0. 
   1  -2  13  13516.40 1116.73  0. 1.0000     0. 
  -1   2 -13  13833.50 1229.15  0. 1.0000     0. 
  -1   2 -13  12700.80 1027.98  0. 1.0000     0. 
   1  -2  13  14690.80 1164.63  0. 1.0000     0. 
  -1   2 -13  17300.70 1332.97  0. 1.0000     0. 
   1  -2  13  13905.10 1280.78  0. 1.0000     0. 
   1  -1 -14   6432.15  910.15  0. 1.0000     0. 
  -1   1  14   5667.29  858.64  0. 1.0000     0. 
   1  -1 -14   7233.72  802.72  0. 1.0000     0. 
  -1   1  14   6349.08  923.86  0. 1.0000     0. 
   1  -1 -14   6596.65  875.89  0. 1.0000     0. 
  -1   1  14   6480.79  924.09  0. 1.0000     0. 
  -1   1  13  72668.99 2267.66  0. 1.0000     0. 
  -1   1  13  75253.21 2367.26  0. 1.0000     0. 
   1  -1 -13  72030.20 2229.15  0. 1.0000     0. 
   1  -1 -13  74322.49 2188.69  0. 1.0000     0. 
  -1   1  12  19839.10 1209.98  0. 1.0000     0. 
   1  -1 -12  21034.90 1216.36  0. 1.0000     0. 
   1  -1 -12  22935.60  990.87  0. 1.0000     0. 
   1  -1 -12  20727.20 1106.34  0. 1.0000     0. 
   1  -1 -12  19067.00 1089.19  0. 1.0000     0. 
  -1   1  12  20634.60 1252.69  0. 1.0000     0. 
   1  -1 -12  20812.90 1221.53  0. 1.0000     0. 
   1  -1 -11  25931.50  987.46  0. 1.0000     0. 
   1  -1 -11  24796.00 1104.97  0. 1.0000     0. 
   1  -1 -11  26163.70 1276.44  0. 1.0000     0. 
  -1   1  11  28325.00 1560.34  0. 1.0000     0. 
  -1   1  11  28013.40 1009.19  0. 1.0000     0. 
   1  -1 -11  26470.20 1061.87  0. 1.0000     0. 
   1  -1 -11  28168.20 1306.14  0. 1.0000     0. 
   1  -1 -10   2814.80  558.03  0. 1.0000     0. 
  -1   1  10   4012.68  716.09  0. 1.0000     0. 
   1  -1 -10   3174.89  417.43  0. 1.0000     0. 
  -1   1  10   3332.18  574.36  0. 1.0000     0. 
  -1   1  10   2773.24  362.12  0. 1.0000     0. 
   1  -1 -10   2583.42  440.97  0. 1.0000     0. 
   1  -1 -10   3534.20  491.39  0. 1.0000     0. 
  -1   1  10   3118.89  373.37  0. 1.0000     0. 
   1  -1 -10   3625.06  560.55  0. 1.0000     0. 
  -1   1  10   2385.55  581.84  0. 1.0000     0. 
   1  -1  -9 492387.03 3960.50  0. 1.0000     0. 
   1  -1  -9 425022.03 3976.56  0. 1.0000     0. 
  -1   1   9 417395.97 4190.37  0. 1.0000     0. 
  -1   1   9 415759.00 4617.35  0. 1.0000     0. 
   1  -1  -9 413725.97 3686.24  0. 1.0000     0. 
  -1   1   9 440241.00 2979.96  0. 1.0000     0. 
  -1   1   9 447672.00 3485.86  0. 1.0000     0. 
   1  -1  -9 423162.00 3817.59  0. 1.0000     0. 
   1  -1  -9 422061.00 4194.39  0. 1.0000     0. 
  -1   1   9 498678.03 4683.33  0. 1.0000     0. 
   1  -1  -8 171941.00 2346.08  0. 1.0000     0. 
   1  -1  -8 172138.98 2093.47  0. 1.0000     0. 
  -1   1   8 170646.00 2481.24  0. 1.0000     0. 
   1  -1  -8 169427.00 2268.57  0. 1.0000     0. 
   1  -1  -8 169077.00 2451.69  0. 1.0000     0. 
   1  -1  -8 167892.02 2163.56  0. 1.0000     0. 
  -1   1   8 166081.00 2657.71  0. 1.0000     0. 
  -1   1   7 117745.01 1699.68  0. 1.0000     0. 
   1  -1  -7  99061.11 1696.01  0. 1.0000     0. 
   1  -1  -7  98698.60 1643.33  0. 1.0000     0. 
   1  -1  -7 100837.99 1647.10  0. 1.0000     0. 
  -1   1   7 112430.99 1237.57  0. 1.0000     0. 
   1  -1  -7 103547.00 1535.84  0. 1.0000     0. 
  -1   1   7 102638.01 1916.80  0. 1.0000     0. 
  -1   1   7 104224.99 1564.48  0. 1.0000     0. 
  -1   1   6   4530.13  388.05  0. 1.0000     0. 
  -1   1   6   4942.15  338.12  0. 1.0000     0. 
  -1   1   6   4777.59  325.62  0. 1.0000     0. 
   1  -1  -6   4653.68  399.29  0. 1.0000     0. 
   1  -1  -6   5886.48  423.15  0. 1.0000     0. 
  -1   1   5 182484.98 1730.23  0. 1.0000     0. 
   1  -1  -5 198875.00 1825.88  0. 1.0000     0. 
  -1   1   5 188266.00 2143.25  0. 1.0000     0. 
  -1   1   5 200722.00 1756.27  0. 1.0000     0. 
   1  -1  -5 196684.00 1981.62  0. 1.0000     0. 
   1  -1  -5 185598.98 2029.17  0. 1.0000     0. 
  -1   1   4  29109.50  653.41  0. 1.0000     0. 
  -1   1   4  30904.80  818.72  0. 1.0000     0. 
  -1   1   4  24317.80  687.15  0. 1.0000     0. 
   1  -1  -4  31043.10  559.99  0. 1.0000     0. 
  -1   1   4  29381.10  796.13  0. 1.0000     0. 
  -1   1   4  34862.10  642.85  0. 1.0000     0. 
   1  -1  -4  32531.50  742.35  0. 1.0000     0. 
   1  -1  -4  28347.30  742.62  0. 1.0000     0. 
   1  -1  -4  32032.40  643.40  0. 1.0000     0. 
  -1   1   3 193766.00 1849.85  0. 1.0000     0. 
   1  -1  -3 199539.00 1837.94  0. 1.0000     0. 
  -1   1   0 101001.00 1107.50  0. 1.0000     0. 
   1  -1   0 105892.01 1047.00  0. 1.0000     0. 
  -1   1   0 105801.99  954.37  0. 1.0000     0. 
   1  -1   0 105430.00  933.27  0. 1.0000     0. 
   1  -1   0 110907.01 1051.48  0. 1.0000     0. 
  -1   1  -2    372.61   88.05  0. 1.0000     0. 
  -1   1  -2    738.28  101.06  0. 1.0000     0. 
   1  -1   2    857.22  120.77  0. 1.0000     0. 
  -1   1  -2    419.89  109.42  0. 1.0000     0. 
   1  -1   2    368.28  103.18  0. 1.0000     0. 
   1  -1   2    488.09   61.69  0. 1.0000     0. 
  -1   1  -2    397.72   57.19  0. 1.0000     0. 
   1  -1   2    488.51  100.56  0. 1.0000     0. 
   1  -1   2    401.53   87.00  0. 1.0000     0. 
  -1   1  -2    427.10   97.66  0. 1.0000     0. 
   1  -1   2    404.71  118.25  0. 1.0000     0. 
   1  -1   4   9213.65  414.19  0. 1.0000     0. 
  -1   1  -4   8572.04  241.79  0. 1.0000     0. 
   1  -1   4   9388.76  321.40  0. 1.0000     0. 
  -1   1  -4   8069.87  373.05  0. 1.0000     0. 
   1  -1   4  10051.80  344.06  0. 1.0000     0. 
   1  -1   4   8054.60  413.34  0. 1.0000     0. 
  -1   1  -4  10178.70  436.38  0. 1.0000     0. 
  -1   1  -4   9976.63  448.83  0. 1.0000     0. 
   1  -1   6  12406.20  517.67  0. 1.0000     0. 
  -1   1  -6  12743.80  620.27  0. 1.0000     0. 
   1  -1   6  14183.10  406.22  0. 1.0000     0. 
  -1   1  -6  12575.40  565.90  0. 1.0000     0. 
  -1   1  -6  12039.00  574.77  0. 1.0000     0. 
  -1   1  -6  12861.10  627.01  0. 1.0000     0. 
   1  -1   7  21734.50  744.03  0. 1.0000     0. 
  -1   1  -7  20368.00  803.02  0. 1.0000     0. 
   1  -1   7  21016.60  761.49  0. 1.0000     0. 
   1  -1   7  21331.20  455.85  0. 1.0000     0. 
  -1   1  -7  21787.80  891.51  0. 1.0000     0. 
  -1   1  -7  19877.00  752.46  0. 1.0000     0. 
  -1   1  -7  21865.80  896.37  0. 1.0000     0. 
   1  -1   8  24523.70 1040.52  0. 1.0000     0. 
   1  -1   8  22108.70  872.47  0. 1.0000     0. 
  -1   1  -8  23227.00  925.63  0. 1.0000     0. 
  -1   1  -8  21875.60  890.82  0. 1.0000     0. 
  -1   1  -8  23100.20  859.37  0. 1.0000     0. 
  -1   1  -8  23324.10 1010.08  0. 1.0000     0. 
  -1   1  -8  22391.10  992.27  0. 1.0000     0. 
  -1   1  -9 145777.02 2573.84  0. 1.0000     0. 
  -1   1  -9 149506.00 2259.15  0. 1.0000     0. 
   1  -1   9 154879.00 2452.13  0. 1.0000     0. 
  -1   1  -9 154814.00 2421.57  0. 1.0000     0. 
  -1   1  -9 150476.98 2403.19  0. 1.0000     0. 
  -1   1  -9 154529.98 2656.08  0. 1.0000     0. 
  -1   1 -10  26578.10 1059.00  0. 1.0000     0. 
  -1   1 -10  23172.10 1015.88  0. 1.0000     0. 
   1  -1  10  25616.40 1254.29  0. 1.0000     0. 
  -1   1 -10  25002.10 1084.16  0. 1.0000     0. 
   1  -1  10  28434.10 1065.61  0. 1.0000     0. 
   1  -1  10  23226.30 1064.26  0. 1.0000     0. 
  -1   1 -10  24348.80 1232.67  0. 1.0000     0. 
  -1   1 -10  23149.50 1175.37  0. 1.0000     0. 
   1  -1  11  45552.80 1539.71  0. 1.0000     0. 
   1  -1  11  42875.89 1497.68  0. 1.0000     0. 
   1  -1  11  44323.80 1691.19  0. 1.0000     0. 
   1  -1  11  39088.70 1324.03  0. 1.0000     0. 
  -1   1 -11  43786.50 1532.28  0. 1.0000     0. 
  -1   1 -11  44591.30 1673.85  0. 1.0000     0. 
  -1   1 -11  43230.20 1700.69  0. 1.0000     0. 
  -1   1 -12  31704.50 1471.28  0. 1.0000     0. 
   1  -1  12  31283.50 1527.82  0. 1.0000     0. 
  -1   1 -12  29630.60 1469.16  0. 1.0000     0. 
  -1   1 -12  29607.10 1499.73  0. 1.0000     0. 
   1  -1  12  29396.70 1389.80  0. 1.0000     0. 
   1  -1  12  26523.20 1322.08  0. 1.0000     0. 
   1  -1  12  32389.80 1472.29  0. 1.0000     0. 
  -1   1 -13  20071.70 1306.96  0. 1.0000     0. 
   1  -1  13  17754.80 1282.24  0. 1.0000     0. 
   1  -1  13  17184.60 1584.97  0. 1.0000     0. 
  -1   1 -13  18182.20 1291.55  0. 1.0000     0. 
  -1   1 -13  18410.00 1312.97  0. 1.0000     0. 
   1  -1  14   1398.84  746.04  0. 1.0000     0. 
  -1   1 -14   2232.77  772.78  0. 1.0000     0. 
  -1   0  14    482.59  456.91  0. 1.0000     0. 
   1   0 -14   3102.26  677.06  0. 1.0000     0. 
   1   0 -14   3196.60  740.93  0. 1.0000     0. 
   1   0 -14   2813.25  821.10  0. 1.0000     0. 
  -1   0  14   2883.29  843.84  0. 1.0000     0. 
  -1   0  14    545.38  712.05  0. 1.0000     0. 
   1   0 -14   2542.38  756.27  0. 1.0000     0. 
  -1   0  14   2929.90  855.16  0. 1.0000     0. 
   1   0 -13   5788.88  896.11  0. 1.0000     0. 
   1   0 -13   5960.20  895.12  0. 1.0000     0. 
  -1   0  13   6952.66  923.49  0. 1.0000     0. 
  -1   0  13   6522.74  841.48  0. 1.0000     0. 
  -1   0  13   6196.93  892.02  0. 1.0000     0. 
  -1   0  13   6335.95  852.50  0. 1.0000     0. 
   1   0 -13   5566.50  712.88  0. 1.0000     0. 
   1   0 -12 139922.00 2238.71  0. 1.0000     0. 
  -1   0  12 132463.02 2912.40  0. 1.0000     0. 
  -1   0  12  49374.00 2433.63  0. 1.0000     0. 
  -1   0  12 144857.98 2811.37  0. 1.0000     0. 
   1   0 -12 142787.00 2667.90  0. 1.0000     0. 
   1   0 -12 141078.00 2956.61  0. 1.0000     0. 
  -1   0  12 142584.98 2985.70  0. 1.0000     0. 
  -1   0  12 136479.00 2822.02  0. 1.0000     0. 
   1   0 -12  67079.61 2075.03  0. 1.0000     0. 
   1   0 -12 131989.02 2996.01  0. 1.0000     0. 
   1   0 -12 139121.02 2692.14  0. 1.0000     0. 
   1   0 -11  12329.60 1072.05  0. 1.0000     0. 
  -1   0  11  14264.50 1185.72  0. 1.0000     0. 
  -1   0  11  11495.80  928.79  0. 1.0000     0. 
   1   0 -11   8128.35  703.76  0. 1.0000     0. 
  -1   0  11  14456.50  947.94  0. 1.0000     0. 
  -1   0  11  11216.70  893.58  0. 1.0000     0. 
  -1   0  11  11897.30  915.78  0. 1.0000     0. 
   1   0 -11  12404.90  669.47  0. 1.0000     0. 
   1   0 -11  11545.80 1048.43  0. 1.0000     0. 
  -1   0  11  11760.10  802.04  0. 1.0000     0. 
   1   0 -10 110433.00 1804.27  0. 1.0000     0. 
  -1   0  10 118274.01 2024.52  0. 1.0000     0. 
   1   0 -10 100621.00 2145.98  0. 1.0000     0. 
   1   0 -10 118462.01 2272.42  0. 1.0000     0. 
  -1   0  10  93754.20 2118.35  0. 1.0000     0. 
  -1   0  10  94348.30 1629.14  0. 1.0000     0. 
  -1   0  10 111930.01 2611.28  0. 1.0000     0. 
   1   0 -10 102203.01 2214.06  0. 1.0000     0. 
  -1   0  10 103275.01 2215.23  0. 1.0000     0. 
  -1   0  10 109138.00 2049.98  0. 1.0000     0. 
   1   0  -9   7000.08  528.67  0. 1.0000     0. 
   1   0  -9   6221.34  385.98  0. 1.0000     0. 
  -1   0   9   6812.88  662.81  0. 1.0000     0. 
   1   0  -9   7145.25  628.68  0. 1.0000     0. 
   1   0  -9   6978.36  599.16  0. 1.0000     0. 
  -1   0   9   7465.97  519.66  0. 1.0000     0. 
  -1   0   9   7990.79  471.36  0. 1.0000     0. 
  -1   0   9   7497.16  703.32  0. 1.0000     0. 
   1   0  -9   6280.98  518.78  0. 1.0000     0. 
  -1   0   9   7154.44  621.26  0. 1.0000     0. 
  -1   0   9   7003.00  523.02  0. 1.0000     0. 
   1   0  -9   6464.12  620.03  0. 1.0000     0. 
   1   0  -8  45734.80 1134.68  0. 1.0000     0. 
   1   0  -8  51641.90  910.60  0. 1.0000     0. 
   1   0  -8  50111.70 1264.23  0. 1.0000     0. 
  -1   0   8  50841.80 1040.02  0. 1.0000     0. 
  -1   0   8  65983.49 1483.83  0. 1.0000     0. 
  -1   0   8  49729.50 1296.93  0. 1.0000     0. 
   1   0  -8  51476.30 1123.33  0. 1.0000     0. 
  -1   0   8  37042.20  950.53  0. 1.0000     0. 
   1   0  -8  51553.70 1427.16  0. 1.0000     0. 
  -1   0   8  45934.40 1139.38  0. 1.0000     0. 
   1   0  -8  50670.90  966.51  0. 1.0000     0. 
  -1   0   8  48540.10 1413.02  0. 1.0000     0. 
   1   0  -8  51007.61 1286.82  0. 1.0000     0. 
   1   0  -7 138646.00 1705.38  0. 1.0000     0. 
   1   0  -7 138635.00 1359.00  0. 1.0000     0. 
  -1   0   7 145554.02 2263.04  0. 1.0000     0. 
  -1   0   7 128240.01 1605.35  0. 1.0000     0. 
   1   0  -7 135465.00 1429.10  0. 1.0000     0. 
   1   0  -7 128493.00 1799.16  0. 1.0000     0. 
  -1   0   7 138258.00 1557.89  0. 1.0000     0. 
   1   0  -7 133827.00 1997.11  0. 1.0000     0. 
  -1   0   7 132702.00 1739.76  0. 1.0000     0. 
  -1   0   6 323407.97 2900.30  0. 1.0000     0. 
   1   0  -6 325236.03 2582.82  0. 1.0000     0. 
  -1   0   6 323721.97 2507.75  0. 1.0000     0. 
  -1   0   5 203634.00 1771.92  0. 1.0000     0. 
  -1   0   5 229778.02 1711.26  0. 1.0000     0. 
  -1   0   5 206042.00 1787.53  0. 1.0000     0. 
  -1   0   5 222266.00 2157.91  0. 1.0000     0. 
   1   0  -5 211026.00 1892.32  0. 1.0000     0. 
   1   0  -5 222881.02 1881.22  0. 1.0000     0. 
  -1   0   4 230968.00 1636.12  0. 1.0000     0. 
   1   0  -4 236631.00 1988.87  0. 1.0000     0. 
   1   0  -4 238451.00 1833.10  0. 1.0000     0. 
   1   0  -3  50565.90  690.92  0. 1.0000     0. 
  -1   0   3  53834.80  735.35  0. 1.0000     0. 
  -1   0   3  54738.90  684.88  0. 1.0000     0. 
   1   0  -3  60550.80  937.91  0. 1.0000     0. 
  -1   0   3  55785.50  823.94  0. 1.0000     0. 
  -1   0   3  53405.80  458.77  0. 1.0000     0. 
  -1   0   3  58642.80  867.19  0. 1.0000     0. 
   1   0  -3  56159.00  841.90  0. 1.0000     0. 
   1   0  -3  56687.50  836.22  0. 1.0000     0. 
  -1   0   1  76966.89  745.74  0. 1.0000     0. 
  -1   0   1  71217.10  685.13  0. 1.0000     0. 
  -1   0   1  80122.70  773.12  0. 1.0000     0. 
   1   0  -1  85230.10  915.92  0. 1.0000     0. 
   1   0   5   4888.61  338.19  0. 1.0000     0. 
   1   0   5   4842.57  328.84  0. 1.0000     0. 
  -1   0  -5   5077.09  338.38  0. 1.0000     0. 
   1   0   6  30741.40  847.15  0. 1.0000     0. 
   1   0   6  34494.00  872.88  0. 1.0000     0. 
   1   0   7   6171.40  429.87  0. 1.0000     0. 
   1   0   7   6902.76  261.06  0. 1.0000     0. 
  -1   0  -7   4961.70  206.97  0. 1.0000     0. 
   1   0   7   5611.72  235.50  0. 1.0000     0. 
  -1   0  -7   5462.44  385.65  0. 1.0000     0. 
   1   0   7   4620.43  408.07  0. 1.0000     0. 
  -1   0  -7   5247.70  472.57  0. 1.0000     0. 
   1   0   7   5135.42  413.63  0. 1.0000     0. 
  -1   0  -7   7018.22  533.57  0. 1.0000     0. 
  -1   0  -7   4698.21  374.89  0. 1.0000     0. 
   1   0   8 248380.02 2853.27  0. 1.0000     0. 
  -1   0  -8 252200.02 3004.02  0. 1.0000     0. 
   1   0   8 245069.98 2572.34  0. 1.0000     0. 
  -1   0  -8 242714.00 2472.66  0. 1.0000     0. 
  -1   0  -8 253246.98 3072.65  0. 1.0000     0. 
  -1   0  -9  60040.30 1317.58  0. 1.0000     0. 
   1   0   9  65201.40 1452.20  0. 1.0000     0. 
   1   0   9  62445.00 1581.06  0. 1.0000     0. 
   1   0   9  64521.10 1584.59  0. 1.0000     0. 
  -1   0  -9  65290.61 1670.37  0. 1.0000     0. 
  -1   0  -9  67609.00 1759.97  0. 1.0000     0. 
   1   0  10  34586.60 1422.20  0. 1.0000     0. 
  -1   0 -10  37915.00 1369.95  0. 1.0000     0. 
  -1   0 -10  37243.70 1388.19  0. 1.0000     0. 
  -1   0 -10  38412.80 1144.74  0. 1.0000     0. 
  -1   0 -11     77.82  476.79  0. 1.0000     0. 
  -1   0 -11    157.97  436.65  0. 1.0000     0. 
  -1   0 -11     49.35  258.78  0. 1.0000     0. 
   1   0  11    -34.19  426.88  0. 1.0000     0. 
  -1   0 -12 148858.00 3023.98  0. 1.0000     0. 
  -1   0 -12 148516.00 2966.17  0. 1.0000     0. 
  -1  -1  14   6326.50 1013.86  0. 1.0000     0. 
  -1  -1  14   8894.40  975.22  0. 1.0000     0. 
  -1  -1  14   8913.33 1240.17  0. 1.0000     0. 
  -1  -1  14   8773.66 1031.79  0. 1.0000     0. 
   1   1 -14   7231.98 1086.37  0. 1.0000     0. 
   1   1 -14   7458.78  857.72  0. 1.0000     0. 
   1   1 -14   7811.73 1047.44  0. 1.0000     0. 
   1   1 -13  42208.20 1651.70  0. 1.0000     0. 
   1   1 -13  39484.30 1832.38  0. 1.0000     0. 
  -1  -1  13  42325.90 1988.46  0. 1.0000     0. 
  -1  -1  13  44337.30 1861.87  0. 1.0000     0. 
  -1  -1  13  40228.20 1785.20  0. 1.0000     0. 
   1   1 -13  41124.70 1889.10  0. 1.0000     0. 
  -1  -1  13  40790.20 1663.94  0. 1.0000     0. 
   1   1 -12   1418.25  680.28  0. 1.0000     0. 
   1   1 -12   1094.71  612.06  0. 1.0000     0. 
   1   1 -12   1541.12  537.01  0. 1.0000     0. 
  -1  -1  12   1630.65  555.79  0. 1.0000     0. 
  -1  -1  12   1263.02  497.19  0. 1.0000     0. 
   1   1 -12   1031.56  620.46  0. 1.0000     0. 
  -1  -1  12    793.54  553.62  0. 1.0000     0. 
  -1  -1  12   1694.61  654.22  0. 1.0000     0. 
  -1  -1  12   1857.63  629.44  0. 1.0000     0. 
   1   1 -11  16571.50 1093.19  0. 1.0000     0. 
   1   1 -11  15945.50  961.59  0. 1.0000     0. 
  -1  -1  11  18523.20 1052.26  0. 1.0000     0. 
  -1  -1  11  17294.60 1126.60  0. 1.0000     0. 
  -1  -1  11  15566.00  902.55  0. 1.0000     0. 
  -1  -1  11  16206.10 1048.21  0. 1.0000     0. 
   1   1 -11  16718.30 1016.45  0. 1.0000     0. 
   1   1 -11  15152.80 1036.79  0. 1.0000     0. 
   1   1 -10    440.70  387.94  0. 1.0000     0. 
  -1  -1  10    252.77  323.83  0. 1.0000     0. 
  -1  -1  10    -92.67  494.29  0. 1.0000     0. 
  -1  -1  10    142.88  482.32  0. 1.0000     0. 
  -1  -1  10    400.68  497.86  0. 1.0000     0. 
   1   1 -10    463.99  365.70  0. 1.0000     0. 
   1   1 -10    244.26  397.56  0. 1.0000     0. 
  -1  -1  10    292.08  385.89  0. 1.0000     0. 
  -1  -1  10    501.41  514.09  0. 1.0000     0. 
   1   1 -10    670.55  501.15  0. 1.0000     0. 
   1   1  -9 176531.00 2312.71  0. 1.0000     0. 
  -1  -1   9 178794.00 2855.10  0. 1.0000     0. 
  -1  -1   9 144971.00 2605.91  0. 1.0000     0. 
  -1  -1   9 141959.00 2264.48  0. 1.0000     0. 
  -1  -1   9 202838.00 2912.18  0. 1.0000     0. 
   1   1  -9 162109.00 2443.64  0. 1.0000     0. 
  -1  -1   9 169260.00 2806.82  0. 1.0000     0. 
   1   1  -9 157646.00 2109.60  0. 1.0000     0. 
   1   1  -9 159447.02 2686.63  0. 1.0000     0. 
   1   1  -8    549.00  362.82  0. 1.0000     0. 
  -1  -1   8    -20.84  323.65  0. 1.0000     0. 
  -1  -1   8   3651.52  532.93  0. 1.0000     0. 
  -1  -1   8   3559.89  478.64  0. 1.0000     0. 
  -1  -1   8   3362.97  387.37  0. 1.0000     0. 
   1   1  -8   3538.31  417.94  0. 1.0000     0. 
  -1  -1   8   3609.08  499.29  0. 1.0000     0. 
   1   1  -8   3875.30  393.25  0. 1.0000     0. 
  -1  -1   8   4018.58  524.60  0. 1.0000     0. 
   1   1  -8    138.13  290.11  0. 1.0000     0. 
   1   1  -8   3773.85  495.04  0. 1.0000     0. 
   1   1  -8   3527.30  346.20  0. 1.0000     0. 
  -1  -1   7 132570.00 1158.42  0. 1.0000     0. 
  -1  -1   7 125671.01 1862.18  0. 1.0000     0. 
  -1  -1   7 139135.98 2177.95  0. 1.0000     0. 
   1   1  -7 127378.00 2036.63  0. 1.0000     0. 
   1   1  -7 134167.00 2109.65  0. 1.0000     0. 
  -1  -1   7 152999.98 2156.22  0. 1.0000     0. 
  -1  -1   7 126716.01 2094.67  0. 1.0000     0. 
   1   1  -7 139455.00 1786.03  0. 1.0000     0. 
  -1  -1   7 137192.00 2075.58  0. 1.0000     0. 
  -1  -1   7 142060.00 1314.49  0. 1.0000     0. 
   1   1  -7 122833.99 1850.48  0. 1.0000     0. 
  -1  -1   6    565.11  305.33  0. 1.0000     0. 
   1   1  -6    408.53  226.47  0. 1.0000     0. 
  -1  -1   6    324.96  256.55  0. 1.0000     0. 
  -1  -1   6    407.95  114.19  0. 1.0000     0. 
  -1  -1   6    364.46  282.93  0. 1.0000     0. 
   1   1  -6    -37.47  227.10  0. 1.0000     0. 
   1   1  -6    129.28  197.65  0. 1.0000     0. 
  -1  -1   6    382.01  138.66  0. 1.0000     0. 
   1   1  -6    458.15  113.35  0. 1.0000     0. 
  -1  -1   6    485.46  264.64  0. 1.0000     0. 
  -1  -1   6    440.75  113.64  0. 1.0000     0. 
  -1  -1   6    466.14  252.54  0. 1.0000     0. 
  -1  -1   6    576.15  210.71  0. 1.0000     0. 
   1   1  -6    392.15  159.54  0. 1.0000     0. 
  -1  -1   4  82736.60  869.12  0. 1.0000     0. 
   1   1  -4  87691.70 1211.84  0. 1.0000     0. 
  -1  -1   4  76175.90 1184.33  0. 1.0000     0. 
  -1  -1   4  79056.09 1138.89  0. 1.0000     0. 
  -1  -1   4  88232.30 1447.15  0. 1.0000     0. 
  -1  -1   4  82069.50 1233.37  0. 1.0000     0. 
  -1  -1   4  79498.91  995.39  0. 1.0000     0. 
  -1  -1   4  72287.40 1043.61  0. 1.0000     0. 
   1   1  -4  78532.30  858.33  0. 1.0000     0. 
  -1  -1   3  88261.99 1055.79  0. 1.0000     0. 
   1   1  -3  92510.39 1085.45  0. 1.0000     0. 
  -1  -1   3  93038.20 1117.33  0. 1.0000     0. 
  -1  -1   3  85105.10 1103.28  0. 1.0000     0. 
  -1  -1   3  90205.80 1312.88  0. 1.0000     0. 
  -1  -2  13  18417.70 1344.47  0. 1.0000     0. 
  -1  -2  13  16982.20 1174.28  0. 1.0000     0. 
   1   2 -13  21795.40 1501.42  0. 1.0000     0. 
   1   2 -13  17131.40 1187.80  0. 1.0000     0. 
   1   2 -13  19798.40 1450.50  0. 1.0000     0. 
   1   2 -12  64965.39 2414.63  0. 1.0000     0. 
  -1  -2  12   2756.20  804.79  0. 1.0000     0. 
  -1  -2  12   1131.68  589.55  0. 1.0000     0. 
  -1  -2  12  44518.00 1637.38  0. 1.0000     0. 
   1   2 -12  46304.00 1906.57  0. 1.0000     0. 
   1   2 -12  49074.60 1956.81  0. 1.0000     0. 
  -1  -2  11   4526.30  604.85  0. 1.0000     0. 
  -1  -2  11   4664.59  763.32  0. 1.0000     0. 
   1   2 -11   2381.50  610.02  0. 1.0000     0. 
  -1  -2  11   4048.48  602.18  0. 1.0000     0. 
   1   2 -11   5093.25  770.70  0. 1.0000     0. 
  -1  -2  10  28857.40 1217.42  0. 1.0000     0. 
  -1  -2  10  28425.50 1283.69  0. 1.0000     0. 
  -1  -2  10  24951.00 1094.80  0. 1.0000     0. 
   1   2 -10  29278.80 1124.95  0. 1.0000     0. 
   1   2 -10  29811.60 1375.47  0. 1.0000     0. 
   1   2  -9   3270.12  453.85  0. 1.0000     0. 
  -1  -2   9   3657.26  496.63  0. 1.0000     0. 
  -1  -2   9   3319.38  487.02  0. 1.0000     0. 
  -1  -2   9   4107.24  613.86  0. 1.0000     0. 
   1   2  -9   3502.34  434.34  0. 1.0000     0. 
   1   2  -9   4430.66  610.21  0. 1.0000     0. 
   1   2  -8 148269.00 2208.31  0. 1.0000     0. 
  -1  -2   8 139308.00 2125.44  0. 1.0000     0. 
   1   2  -8 156445.00 2616.24  0. 1.0000     0. 
  -1  -2   8 134118.00 2319.92  0. 1.0000     0. 
   1   2  -8 148042.98 2209.98  0. 1.0000     0. 
  -1  -2   8 144123.98 1699.48  0. 1.0000     0. 
  -1  -2   8 154499.00 2391.68  0. 1.0000     0. 
  -1  -2   8 132369.00 2414.45  0. 1.0000     0. 
  -1  -2   7   4505.74  336.75  0. 1.0000     0. 
   1   2  -7   3825.52  400.21  0. 1.0000     0. 
  -1  -2   7   3804.22  433.18  0. 1.0000     0. 
  -1  -2   7    165.22  337.53  0. 1.0000     0. 
  -1  -2   7   4398.90  385.49  0. 1.0000     0. 
   1   2  -7   4467.51  424.15  0. 1.0000     0. 
  -1  -2   7   3471.54  420.70  0. 1.0000     0. 
   1   2  -7   4448.11  531.43  0. 1.0000     0. 
  -1  -2   7   1241.88  423.17  0. 1.0000     0. 
  -1  -2   7   4565.52  544.63  0. 1.0000     0. 
  -1  -2   6 614839.00 3742.31  0. 1.0000     0. 
  -1  -2   5 158062.00 1696.22  0. 1.0000     0. 
   1   2  -5 161859.00 2149.62  0. 1.0000     0. 
   1   2  -5 153444.02 1810.26  0. 1.0000     0. 
  -1  -2   5 167629.00 2204.65  0. 1.0000     0. 
  -1  -2   5 149878.00 1968.85  0. 1.0000     0. 
  -1  -2   5 154104.00 1879.32  0. 1.0000     0. 
  -1  -2   4 224915.00 2442.31  0. 1.0000     0. 
  -1  -2   4 216976.98 2203.46  0. 1.0000     0. 
   1   3 -10    883.04  546.19  0. 1.0000     0. 
   1   3 -10    963.53  542.81  0. 1.0000     0. 
   1   3  -9  53310.60 1736.71  0. 1.0000     0. 
  -1  -3   9  61604.70 1784.21  0. 1.0000     0. 
  -1  -3   8   4499.07  483.68  0. 1.0000     0. 
   1   3  -8   4737.18  630.74  0. 1.0000     0. 
  -1  -3   8   2312.32  418.45  0. 1.0000     0. 
  -1  -3   8   4740.70  447.60  0. 1.0000     0. 
   1   3  -8   1400.06  376.07  0. 1.0000     0. 
   1   3  -8   2261.75  477.50  0. 1.0000     0. 
  -1  -3   7  30649.40  980.76  0. 1.0000     0. 
   1   3  -7  24303.30  424.56  0. 1.0000     0. 
   1   3  -7   7410.26  591.69  0. 1.0000     0. 
  -1  -3   7  27971.80 1027.53  0. 1.0000     0. 
   1   3  -7   9883.67  749.60  0. 1.0000     0. 
   2  -5  -3   6276.32  654.03  0. 1.0000     0. 
   2  -5  -3   6082.08  713.54  0. 1.0000     0. 
   2  -5  -2    229.15  394.47  0. 1.0000     0. 
   2  -5  -2   1206.51  514.56  0. 1.0000     0. 
  -2   5   2    335.07  327.25  0. 1.0000     0. 
   2  -5  -2   1353.17  654.42  0. 1.0000     0. 
   2  -5  -1  73485.40 1988.69  0. 1.0000     0. 
  -2   5   1  74654.29 1767.98  0. 1.0000     0. 
   2  -5  -1  72446.01 2169.84  0. 1.0000     0. 
   2  -5   0    838.56  443.54  0. 1.0000     0. 
  -2   5   0   1750.66  357.04  0. 1.0000     0. 
   2  -5   0    956.01  428.04  0. 1.0000     0. 
   2  -5   0    742.69  540.59  0. 1.0000     0. 
  -2   5   0    738.47  380.82  0. 1.0000     0. 
   2  -5   1  43629.40 1612.05  0. 1.0000     0. 
   2  -5   1  43434.50 1102.33  0. 1.0000     0. 
   2  -5   1  46472.90 1555.18  0. 1.0000     0. 
  -2   5  -1  40993.10 1521.35  0. 1.0000     0. 
   2  -5   1  38651.70 1534.83  0. 1.0000     0. 
  -2   5  -1  50339.50 1467.55  0. 1.0000     0. 
   2  -5   2    679.75  508.17  0. 1.0000     0. 
   2  -5   2    248.27  268.59  0. 1.0000     0. 
   2  -5   2   1269.79  541.01  0. 1.0000     0. 
  -2   5  -2    114.86  230.64  0. 1.0000     0. 
   2  -5   2    213.56  494.67  0. 1.0000     0. 
   2  -5   3 163438.00 3192.95  0. 1.0000     0. 
   2  -5   3 171671.00 2468.59  0. 1.0000     0. 
   2  -5   4  17931.70 1171.78  0. 1.0000     0. 
   2  -5   4  18524.50  924.86  0. 1.0000     0. 
   2  -5   5  32202.20 1549.97  0. 1.0000     0. 
   2  -5   5  32044.50 1277.51  0. 1.0000     0. 
   2  -5   6  17667.80 1236.05  0. 1.0000     0. 
   2  -5   6  16543.00 1011.64  0. 1.0000     0. 
   2  -5   7  46137.30 1943.52  0. 1.0000     0. 
   2  -5   7  45475.80 1693.65  0. 1.0000     0. 
   2  -5   8   8063.95  955.36  0. 1.0000     0. 
   2  -5   8   7721.36  826.28  0. 1.0000     0. 
   2  -4  -9   5877.55  853.58  0. 1.0000     0. 
   2  -4  -9   5527.16  621.85  0. 1.0000     0. 
   2  -4  -8 220861.98 3166.42  0. 1.0000     0. 
   2  -4  -8 216903.00 3847.44  0. 1.0000     0. 
  -2   4   7   1262.89  558.60  0. 1.0000     0. 
   2  -4  -7   1391.79  313.31  0. 1.0000     0. 
  -2   4   7    834.29  323.11  0. 1.0000     0. 
   2  -4  -7   1364.78  430.10  0. 1.0000     0. 
   2  -4  -7   1336.39  590.79  0. 1.0000     0. 
  -2   4   6  50961.80 1933.92  0. 1.0000     0. 
   2  -4  -6  45823.00 1200.24  0. 1.0000     0. 
   2  -4  -6  43601.80 1681.13  0. 1.0000     0. 
  -2   4   6  49005.00 1803.46  0. 1.0000     0. 
   2  -4  -6  44138.10 1349.05  0. 1.0000     0. 
   2  -4  -5  38874.30 1143.65  0. 1.0000     0. 
  -2   4   5  38905.60 1470.06  0. 1.0000     0. 
   2  -4  -5  34853.60 1489.52  0. 1.0000     0. 
  -2   4   5  40884.50 1694.53  0. 1.0000     0. 
   2  -4  -5  37566.00 1214.79  0. 1.0000     0. 
  -2   4   5  36129.70  834.21  0. 1.0000     0. 
   2  -4  -4 142912.02 2215.53  0. 1.0000     0. 
  -2   4   4 143624.00 2357.41  0. 1.0000     0. 
  -2   4   4 159356.00 2822.67  0. 1.0000     0. 
  -2   4   4 137306.00 2844.53  0. 1.0000     0. 
   2  -4  -4 153221.00 2358.93  0. 1.0000     0. 
   2  -4  -4 139792.02 2254.73  0. 1.0000     0. 
   2  -4  -4 139327.00 2791.52  0. 1.0000     0. 
  -2   4   4 138470.00 1763.59  0. 1.0000     0. 
   2  -4  -4 137627.00 2781.79  0. 1.0000     0. 
   2  -4  -3  86322.40 1779.08  0. 1.0000     0. 
  -2   4   3  99433.59 2123.08  0. 1.0000     0. 
  -2   4   3  88317.00 1786.71  0. 1.0000     0. 
  -2   4   3  83434.50 2185.64  0. 1.0000     0. 
   2  -4  -3  86485.39 1744.44  0. 1.0000     0. 
  -2   4   3  79629.09 1458.46  0. 1.0000     0. 
   2  -4  -3  66454.49 1521.56  0. 1.0000     0. 
   2  -4  -3  83310.80 2141.41  0. 1.0000     0. 
   2  -4  -3  84749.11 2143.21  0. 1.0000     0. 
   2  -4  -2 123924.00 2178.52  0. 1.0000     0. 
  -2   4   2 130574.99 2097.37  0. 1.0000     0. 
   2  -4  -2 124814.00 2039.55  0. 1.0000     0. 
  -2   4   2 123659.01 2587.14  0. 1.0000     0. 
  -2   4   2 127042.99 1937.65  0. 1.0000     0. 
   2  -4  -2 124885.00 2541.13  0. 1.0000     0. 
   2  -4  -1  14545.90  792.23  0. 1.0000     0. 
  -2   4   1  15075.10  718.82  0. 1.0000     0. 
  -2   4   1  14390.20  929.31  0. 1.0000     0. 
   2  -4  -1  17440.60  467.50  0. 1.0000     0. 
  -2   4   1  14705.20  681.49  0. 1.0000     0. 
  -2   4   1  15024.10  732.26  0. 1.0000     0. 
   2  -4  -1  14564.20  920.99  0. 1.0000     0. 
   2  -4  -1  13248.70  714.26  0. 1.0000     0. 
   2  -4   0 100421.00 2035.97  0. 1.0000     0. 
   2  -4   0  97054.49 1808.33  0. 1.0000     0. 
   2  -4   0 101451.00 1266.63  0. 1.0000     0. 
  -2   4   0 100153.99 2271.98  0. 1.0000     0. 
  -2   4   0  99230.30 1897.06  0. 1.0000     0. 
  -2   4   0 103545.00 1751.90  0. 1.0000     0. 
   2  -4   0  99829.91 2142.63  0. 1.0000     0. 
   2  -4   1   7353.15  629.41  0. 1.0000     0. 
   2  -4   1   6816.43  544.06  0. 1.0000     0. 
  -2   4  -1   8173.03  548.26  0. 1.0000     0. 
  -2   4  -1   7751.73  761.19  0. 1.0000     0. 
   2  -4   1   5497.63  478.21  0. 1.0000     0. 
  -2   4  -1   6580.62  573.34  0. 1.0000     0. 
   2  -4   1   7231.41  681.70  0. 1.0000     0. 
  -2   4  -1   8214.38  541.72  0. 1.0000     0. 
   2  -4   2 155050.00 2633.88  0. 1.0000     0. 
   2  -4   2 166193.00 2002.62  0. 1.0000     0. 
  -2   4  -2 157862.00 2364.54  0. 1.0000     0. 
   2  -4   2 159159.98 2356.25  0. 1.0000     0. 
  -2   4  -2 166861.00 2681.90  0. 1.0000     0. 
   2  -4   2 169201.00 2681.90  0. 1.0000     0. 
  -2   4  -2 167607.00 2041.52  0. 1.0000     0. 
  -2   4  -2 160177.00 1846.76  0. 1.0000     0. 
  -2   4  -3    337.20  300.45  0. 1.0000     0. 
   2  -4   3    164.00  392.42  0. 1.0000     0. 
   2  -4   3    -63.55  296.44  0. 1.0000     0. 
  -2   4  -3    157.57  181.32  0. 1.0000     0. 
   2  -4   3     24.56  240.49  0. 1.0000     0. 
   2  -4   3    -64.05  375.23  0. 1.0000     0. 
   2  -4   3    349.38  347.69  0. 1.0000     0. 
  -2   4  -3    -33.79  294.67  0. 1.0000     0. 
   2  -4   4  53024.80 1656.34  0. 1.0000     0. 
   2  -4   4  57692.70 1474.99  0. 1.0000     0. 
   2  -4   4  54417.30 1339.61  0. 1.0000     0. 
  -2   4  -4  54404.60 1388.72  0. 1.0000     0. 
   2  -4   4  54431.70 1545.31  0. 1.0000     0. 
  -2   4  -5    468.69  439.12  0. 1.0000     0. 
   2  -4   5    492.24  438.63  0. 1.0000     0. 
   2  -4   5    538.26  451.20  0. 1.0000     0. 
   2  -4   5    756.35  363.64  0. 1.0000     0. 
   2  -4   5    385.56  330.60  0. 1.0000     0. 
   2  -4   6 242199.00 3690.42  0. 1.0000     0. 
   2  -4   6 245950.02 3220.83  0. 1.0000     0. 
   2  -4   6 245384.00 3342.61  0. 1.0000     0. 
   2  -4   6 239526.98 3544.10  0. 1.0000     0. 
  -2   4  -7   5099.28  738.70  0. 1.0000     0. 
  -2   4  -7   3390.40  540.34  0. 1.0000     0. 
   2  -4   7   4502.01  688.85  0. 1.0000     0. 
   2  -4   7   4783.13  674.47  0. 1.0000     0. 
  -2   4  -7   5080.29  564.16  0. 1.0000     0. 
   2  -4   7   5098.53  620.88  0. 1.0000     0. 
   2  -4   8  15896.10 1105.86  0. 1.0000     0. 
  -2   4  -8  17770.20  993.07  0. 1.0000     0. 
   2  -4   8  17561.50 1048.93  0. 1.0000     0. 
   2  -4   8  17758.10 1217.33  0. 1.0000     0. 
  -2   4  -8  19125.60 1247.97  0. 1.0000     0. 
  -2   4  -9   4302.13  874.58  0. 1.0000     0. 
   2  -4   9   3550.53  663.12  0. 1.0000     0. 
  -2   4  -9   3480.16  587.44  0. 1.0000     0. 
   2  -4   9   4490.75  710.24  0. 1.0000     0. 
   2  -4   9   4211.81  861.35  0. 1.0000     0. 
   2  -4  10  27134.80 1483.23  0. 1.0000     0. 
  -2   4 -10  25156.80 1367.70  0. 1.0000     0. 
   2  -4  10  27795.80 1504.68  0. 1.0000     0. 
   2  -4  10  29733.40 1768.24  0. 1.0000     0. 
  -2   4 -10  30015.80 1787.16  0. 1.0000     0. 
   2  -3 -12   2016.55  531.60  0. 1.0000     0. 
   2  -3 -12   2136.78  841.17  0. 1.0000     0. 
   2  -3 -11  85376.00 2091.89  0. 1.0000     0. 
   2  -3 -11  88717.10 2523.73  0. 1.0000     0. 
  -2   3  11  89005.79 2877.39  0. 1.0000     0. 
  -2   3  10    607.22  417.82  0. 1.0000     0. 
   2  -3 -10   1059.88  418.96  0. 1.0000     0. 
  -2   3  10    461.19  618.34  0. 1.0000     0. 
   2  -3 -10    -94.19  387.14  0. 1.0000     0. 
   2  -3 -10     88.98  575.81  0. 1.0000     0. 
  -2   3   9  21658.80 1303.06  0. 1.0000     0. 
   2  -3  -9  25132.50  960.36  0. 1.0000     0. 
  -2   3   9  24981.10 1496.79  0. 1.0000     0. 
   2  -3  -9  20823.60  968.07  0. 1.0000     0. 
   2  -3  -9  20813.30 1225.43  0. 1.0000     0. 
  -2   3   8  44040.40 1654.73  0. 1.0000     0. 
  -2   3   8  44667.30 1304.80  0. 1.0000     0. 
   2  -3  -8  48359.20 1163.83  0. 1.0000     0. 
   2  -3  -8  45746.20 1345.63  0. 1.0000     0. 
   2  -3  -8  45578.40 1638.66  0. 1.0000     0. 
   2  -3  -7 146089.00 1690.32  0. 1.0000     0. 
  -2   3   7 129302.00 2575.94  0. 1.0000     0. 
  -2   3   7 127245.00 2653.39  0. 1.0000     0. 
  -2   3   7 144066.00 2069.37  0. 1.0000     0. 
   2  -3  -7 143498.02 1789.38  0. 1.0000     0. 
   2  -3  -7 133278.00 2179.09  0. 1.0000     0. 
   2  -3  -7 114850.00 2275.49  0. 1.0000     0. 
   2  -3  -7 131858.98 2630.11  0. 1.0000     0. 
  -2   3   7 144168.00 2395.73  0. 1.0000     0. 
  -2   3   6  90371.50 1820.71  0. 1.0000     0. 
   2  -3  -6  93992.39 1696.93  0. 1.0000     0. 
   2  -3  -6  89241.01 1262.40  0. 1.0000     0. 
  -2   3   6  79961.30 1974.84  0. 1.0000     0. 
  -2   3   6  80818.80 1907.30  0. 1.0000     0. 
  -2   3   6  91092.50 1492.60  0. 1.0000     0. 
   2  -3  -6  84198.91 1710.34  0. 1.0000     0. 
   2  -3  -6  84030.40 2028.59  0. 1.0000     0. 
  -2   3   5 323288.03 3521.31  0. 1.0000     0. 
   2  -3  -5 290243.00 1710.97  0. 1.0000     0. 
   2  -3  -5 328556.00 3001.49  0. 1.0000     0. 
  -2   3   5 331447.03 3298.21  0. 1.0000     0. 
   2  -3  -5 327839.00 3227.42  0. 1.0000     0. 
  -2   3   5 295764.03 3737.30  0. 1.0000     0. 
   2  -3  -5 312074.97 3800.53  0. 1.0000     0. 
   2  -3  -4   7107.96  455.67  0. 1.0000     0. 
  -2   3   4   6528.32  473.42  0. 1.0000     0. 
  -2   3   4   6655.14  633.54  0. 1.0000     0. 
   2  -3  -4   6092.21  458.89  0. 1.0000     0. 
  -2   3   4   7376.63  338.45  0. 1.0000     0. 
   2  -3  -4   6840.50  509.96  0. 1.0000     0. 
  -2   3   4   7902.68  354.24  0. 1.0000     0. 
  -2   3   4   6504.16  567.53  0. 1.0000     0. 
   2  -3  -4   6718.47  647.07  0. 1.0000     0. 
   2  -3  -3  81341.40 1435.22  0. 1.0000     0. 
  -2   3   3  70357.59 1421.08  0. 1.0000     0. 
  -2   3   3  81411.09 1566.81  0. 1.0000     0. 
   2  -3  -3  75238.61 1390.96  0. 1.0000     0. 
   2  -3  -3  84253.21 1511.60  0. 1.0000     0. 
  -2   3   3  79691.59 1156.94  0. 1.0000     0. 
   2  -3  -3  78797.00 1797.34  0. 1.0000     0. 
  -2   3   3  74409.80 1792.65  0. 1.0000     0. 
  -2   3   2  11757.00  585.23  0. 1.0000     0. 
   2  -3  -2  10489.50  554.61  0. 1.0000     0. 
  -2   3   2  10182.70  721.67  0. 1.0000     0. 
  -2   3   2   9853.31  556.54  0. 1.0000     0. 
   2  -3  -2  11468.40  570.67  0. 1.0000     0. 
   2  -3  -2  10807.90  535.29  0. 1.0000     0. 
  -2   3   2  10092.00  473.16  0. 1.0000     0. 
  -2   3   2  10334.90  425.95  0. 1.0000     0. 
   2  -3  -2  10906.90  710.48  0. 1.0000     0. 
   2  -3  -1 447791.00 3531.37  0. 1.0000     0. 
  -2   3   1 436151.97 3164.88  0. 1.0000     0. 
   2  -3  -1 433962.03 3987.70  0. 1.0000     0. 
   2  -3   0  12694.30  653.31  0. 1.0000     0. 
  -2   3   0  13628.20  776.66  0. 1.0000     0. 
  -2   3   0  14063.40  588.34  0. 1.0000     0. 
  -2   3   0  13597.40  521.16  0. 1.0000     0. 
   2  -3   0  13059.60  610.97  0. 1.0000     0. 
   2  -3   0  13424.10  391.23  0. 1.0000     0. 
   2  -3   0  15876.60  596.61  0. 1.0000     0. 
  -2   3   0  14925.30  420.32  0. 1.0000     0. 
  -2   3   0  13236.80  611.83  0. 1.0000     0. 
   2  -3   0  13435.90  758.09  0. 1.0000     0. 
  -2   3   0  15753.30  657.91  0. 1.0000     0. 
   2  -3   1  25194.00  900.94  0. 1.0000     0. 
  -2   3  -1  24855.90  795.72  0. 1.0000     0. 
   2  -3   1  21739.80  783.00  0. 1.0000     0. 
   2  -3   1  27774.30  819.65  0. 1.0000     0. 
  -2   3  -1  23360.30  934.17  0. 1.0000     0. 
   2  -3   1  27182.90  858.46  0. 1.0000     0. 
   2  -3   1  24741.00  615.00  0. 1.0000     0. 
  -2   3  -1  24234.30  853.74  0. 1.0000     0. 
  -2   3  -1  26189.50  637.94  0. 1.0000     0. 
   2  -3   1  27062.20  965.60  0. 1.0000     0. 
  -2   3  -1  26814.00  762.84  0. 1.0000     0. 
  -2   3  -1  25028.50  562.78  0. 1.0000     0. 
   2  -3   2  16637.70  777.41  0. 1.0000     0. 
  -2   3  -2  14850.30  665.31  0. 1.0000     0. 
  -2   3  -2  16617.50  544.39  0. 1.0000     0. 
   2  -3   2  16357.60  690.82  0. 1.0000     0. 
  -2   3  -2  15885.90  782.30  0. 1.0000     0. 
  -2   3  -2  15726.90  737.34  0. 1.0000     0. 
  -2   3  -2  16455.90  557.84  0. 1.0000     0. 
   2  -3   2  17182.90  763.93  0. 1.0000     0. 
  -2   3  -2  16407.40  573.17  0. 1.0000     0. 
   2  -3   3 307227.97 3277.20  0. 1.0000     0. 
  -2   3  -3 313976.03 2352.13  0. 1.0000     0. 
   2  -3   3 304046.03 2863.48  0. 1.0000     0. 
  -2   3  -3 309840.97 3112.55  0. 1.0000     0. 
   2  -3   3 310050.97 2583.08  0. 1.0000     0. 
  -2   3  -3 292974.03 3063.76  0. 1.0000     0. 
   2  -3   3 316667.03 3193.82  0. 1.0000     0. 
  -2   3  -3 307792.00 3305.91  0. 1.0000     0. 
   2  -3   3 319071.97 2941.08  0. 1.0000     0. 
  -2   3  -3 303870.97 2212.85  0. 1.0000     0. 
  -2   3  -3 319921.00 2681.41  0. 1.0000     0. 
   2  -3   4  30393.80  949.34  0. 1.0000     0. 
   2  -3   4  29426.80 1112.09  0. 1.0000     0. 
   2  -3   4  27044.00  743.50  0. 1.0000     0. 
  -2   3  -4  30582.20 1052.88  0. 1.0000     0. 
  -2   3  -4  29763.40 1033.72  0. 1.0000     0. 
   2  -3   4  28758.90  900.62  0. 1.0000     0. 
  -2   3  -4  31618.00  854.19  0. 1.0000     0. 
  -2   3  -4  31043.30 1131.99  0. 1.0000     0. 
  -2   3  -4  30518.00  847.41  0. 1.0000     0. 
  -2   3  -4  30964.70  982.33  0. 1.0000     0. 
   2  -3   5 195778.00 2825.42  0. 1.0000     0. 
   2  -3   5 197526.00 2432.30  0. 1.0000     0. 
  -2   3  -5 199642.02 2771.62  0. 1.0000     0. 
  -2   3  -5 205109.00 2291.41  0. 1.0000     0. 
  -2   3  -5 204752.98 3330.47  0. 1.0000     0. 
  -2   3  -5 201356.00 2935.87  0. 1.0000     0. 
   2  -3   5 203305.00 2415.81  0. 1.0000     0. 
  -2   3  -5 211694.02 2514.78  0. 1.0000     0. 
  -2   3  -5 202834.02 2638.76  0. 1.0000     0. 
   2  -3   6  82050.71 1901.10  0. 1.0000     0. 
  -2   3  -6  83067.30 1622.12  0. 1.0000     0. 
   2  -3   6  87021.80 1635.47  0. 1.0000     0. 
   2  -3   6  79317.40 1535.89  0. 1.0000     0. 
   2  -3   6  81282.40 1692.96  0. 1.0000     0. 
  -2   3  -6  84706.20 2004.18  0. 1.0000     0. 
  -2   3  -6  87181.70 1809.16  0. 1.0000     0. 
  -2   3  -6  82949.99 1872.54  0. 1.0000     0. 
   2  -3   7  66719.89 1746.94  0. 1.0000     0. 
   2  -3   7  77329.60 1555.02  0. 1.0000     0. 
  -2   3  -7  68510.30 1620.08  0. 1.0000     0. 
  -2   3  -7  80645.60 1798.43  0. 1.0000     0. 
   2  -3   7  64964.30 1609.99  0. 1.0000     0. 
   2  -3   7  68461.20 1560.50  0. 1.0000     0. 
   2  -3   7  73143.60 2010.44  0. 1.0000     0. 
  -2   3  -7  71761.30 1759.33  0. 1.0000     0. 
  -2   3  -7  70982.60 1858.83  0. 1.0000     0. 
  -2   3  -8  14032.40  846.24  0. 1.0000     0. 
   2  -3   8    246.11  559.93  0. 1.0000     0. 
   2  -3   8  13375.30  845.02  0. 1.0000     0. 
  -2   3  -8  15284.80  913.59  0. 1.0000     0. 
   2  -3   8  14000.10  847.88  0. 1.0000     0. 
   2  -3   8   3702.48  444.11  0. 1.0000     0. 
   2  -3   8  13377.40  860.36  0. 1.0000     0. 
  -2   3  -8  13674.90  914.06  0. 1.0000     0. 
  -2   3  -8  14211.50  991.39  0. 1.0000     0. 
   2  -3   9  62349.90 1822.53  0. 1.0000     0. 
   2  -3   9  63004.70 1806.92  0. 1.0000     0. 
   2  -3   9  68308.50 1927.73  0. 1.0000     0. 
  -2   3  -9  66116.41 1822.69  0. 1.0000     0. 
  -2   3  -9  64668.30 1919.32  0. 1.0000     0. 
  -2   3  -9  69278.01 2111.50  0. 1.0000     0. 
  -2   3 -10    264.25  700.21  0. 1.0000     0. 
  -2   3 -10    457.76  540.49  0. 1.0000     0. 
   2  -3  10    380.18  461.13  0. 1.0000     0. 
   2  -3  10    232.70  394.78  0. 1.0000     0. 
  -2   3 -10    -59.66  433.50  0. 1.0000     0. 
  -2   3 -10    469.59  556.32  0. 1.0000     0. 
   2  -3  10    599.28  631.24  0. 1.0000     0. 
   2  -3  10    125.60  494.09  0. 1.0000     0. 
  -2   3 -11   4551.89  933.35  0. 1.0000     0. 
  -2   3 -11   4641.41  752.28  0. 1.0000     0. 
  -2   3 -11   5961.07  808.04  0. 1.0000     0. 
   2  -3  11   5596.46  971.47  0. 1.0000     0. 
   2  -3  11   4496.35  740.44  0. 1.0000     0. 
  -2   3 -11   6973.16  966.49  0. 1.0000     0. 
   2  -3  11   4417.18  846.20  0. 1.0000     0. 
  -2   3 -12     74.78  786.00  0. 1.0000     0. 
  -2   3 -12     55.75  601.74  0. 1.0000     0. 
   2  -3  12    -55.68  667.53  0. 1.0000     0. 
   2  -3  12    400.93  743.84  0. 1.0000     0. 
   2  -3  12    209.23  566.22  0. 1.0000     0. 
   2  -2 -14  22229.10 1577.68  0. 1.0000     0. 
  -2   2  14  24202.40 1584.77  0. 1.0000     0. 
  -2   2  14  20217.30 1457.64  0. 1.0000     0. 
   2  -2 -13   2311.99  646.71  0. 1.0000     0. 
  -2   2  13   1937.73  708.59  0. 1.0000     0. 
   2  -2 -13   2600.51  564.97  0. 1.0000     0. 
   2  -2 -13   2999.84  841.23  0. 1.0000     0. 
  -2   2  13   2405.47  709.61  0. 1.0000     0. 
   2  -2 -13   2268.26  610.98  0. 1.0000     0. 
  -2   2  13    665.18  477.46  0. 1.0000     0. 
  -2   2  13   2472.30  764.47  0. 1.0000     0. 
   2  -2 -12  34605.80 1321.93  0. 1.0000     0. 
   2  -2 -12  42854.40 1640.84  0. 1.0000     0. 
   2  -2 -12  34656.90 1336.99  0. 1.0000     0. 
  -2   2  12  34105.80 1620.86  0. 1.0000     0. 
   2  -2 -12  36325.80 1559.74  0. 1.0000     0. 
  -2   2  12  41249.20 2138.23  0. 1.0000     0. 
  -2   2  12  35365.10 1595.49  0. 1.0000     0. 
   2  -2 -12  34186.80 1512.61  0. 1.0000     0. 
   2  -2 -11   2971.16  597.73  0. 1.0000     0. 
  -2   2  11   3807.62  671.00  0. 1.0000     0. 
   2  -2 -11   3983.13  508.44  0. 1.0000     0. 
  -2   2  11   3066.52  617.68  0. 1.0000     0. 
   2  -2 -11   3686.24  538.38  0. 1.0000     0. 
  -2   2  11   2887.47  666.68  0. 1.0000     0. 
  -2   2  11   3865.37  861.44  0. 1.0000     0. 
   2  -2 -11   3598.08  651.55  0. 1.0000     0. 
  -2   2  10  21942.20 1311.85  0. 1.0000     0. 
  -2   2  10  25855.70 1466.30  0. 1.0000     0. 
  -2   2  10  23105.30 1101.93  0. 1.0000     0. 
   2  -2 -10  24162.00 1031.58  0. 1.0000     0. 
   2  -2 -10  23682.00 1216.28  0. 1.0000     0. 
   2  -2 -10  23851.90 1145.19  0. 1.0000     0. 
   2  -2 -10  26388.70 1003.63  0. 1.0000     0. 
   2  -2 -10  23461.80 1083.29  0. 1.0000     0. 
   2  -2  -9   4168.21  421.06  0. 1.0000     0. 
  -2   2   9   3857.65  664.26  0. 1.0000     0. 
  -2   2   9   3901.11  532.08  0. 1.0000     0. 
  -2   2   9   4397.46  653.34  0. 1.0000     0. 
   2  -2  -9   4704.50  564.23  0. 1.0000     0. 
  -2   2   9   4342.28  494.70  0. 1.0000     0. 
   2  -2  -9   3777.23  612.56  0. 1.0000     0. 
   2  -2  -9   4181.52  566.38  0. 1.0000     0. 
   2  -2  -9   3894.16  534.57  0. 1.0000     0. 
   2  -2  -8 364707.03 3567.61  0. 1.0000     0. 
  -2   2   8 334368.97 3921.84  0. 1.0000     0. 
  -2   2   8 364591.97 3595.63  0. 1.0000     0. 
   2  -2  -8 377057.00 3364.53  0. 1.0000     0. 
   2  -2  -8 356527.00 4096.38  0. 1.0000     0. 
  -2   2   8 396394.97 3830.24  0. 1.0000     0. 
  -2   2   8 334190.00 4101.42  0. 1.0000     0. 
   2  -2  -8 377169.97 3753.31  0. 1.0000     0. 
   2  -2  -8 384937.00 3559.23  0. 1.0000     0. 
  -2   2   7   4826.48  614.11  0. 1.0000     0. 
  -2   2   7   4718.42  538.33  0. 1.0000     0. 
   2  -2  -7   5871.82  427.65  0. 1.0000     0. 
  -2   2   7   4992.12  464.55  0. 1.0000     0. 
   2  -2  -7   5148.83  427.11  0. 1.0000     0. 
   2  -2  -7   4272.65  450.74  0. 1.0000     0. 
   2  -2  -7   4332.18  564.66  0. 1.0000     0. 
   2  -2  -7   4560.27  471.40  0. 1.0000     0. 
  -2   2   7   5047.80  462.61  0. 1.0000     0. 
  -2   2   6 154952.00 2502.50  0. 1.0000     0. 
   2  -2  -6 155185.00 1670.27  0. 1.0000     0. 
  -2   2   6 152632.00 1964.43  0. 1.0000     0. 
   2  -2  -6 155530.00 1794.40  0. 1.0000     0. 
  -2   2   6 155731.02 2611.83  0. 1.0000     0. 
   2  -2  -6 158517.00 1845.75  0. 1.0000     0. 
   2  -2  -6 149225.00 2440.41  0. 1.0000     0. 
  -2   2   6 168484.00 2392.05  0. 1.0000     0. 
   2  -2  -6 163098.00 1917.22  0. 1.0000     0. 
   2  -2  -5 149730.00 1526.59  0. 1.0000     0. 
  -2   2   5 142949.98 2271.72  0. 1.0000     0. 
  -2   2   5 141578.00 2399.89  0. 1.0000     0. 
   2  -2  -5 154920.98 1426.76  0. 1.0000     0. 
   2  -2  -5 140086.00 1680.85  0. 1.0000     0. 
  -2   2   5 146875.00 1679.99  0. 1.0000     0. 
   2  -2  -5 138355.00 2284.15  0. 1.0000     0. 
   2  -2  -5 138849.00 1749.63  0. 1.0000     0. 
   2  -2  -5 150930.00 1604.20  0. 1.0000     0. 
   2  -2  -4 184515.00 1772.84  0. 1.0000     0. 
  -2   2   4 171216.02 2125.50  0. 1.0000     0. 
  -2   2   4 172509.02 2503.94  0. 1.0000     0. 
   2  -2  -4 180373.00 1931.51  0. 1.0000     0. 
   2  -2  -4 191554.00 1294.45  0. 1.0000     0. 
  -2   2   4 187120.00 1687.77  0. 1.0000     0. 
   2  -2  -4 180347.98 1505.24  0. 1.0000     0. 
   2  -2  -4 178518.98 2470.67  0. 1.0000     0. 
   2  -2  -4 196661.02 1833.63  0. 1.0000     0. 
  -2   2   4 198018.00 2373.26  0. 1.0000     0. 
   2  -2  -3  32416.80  773.04  0. 1.0000     0. 
  -2   2   3  31851.90  821.51  0. 1.0000     0. 
   2  -2  -3  33135.40  837.21  0. 1.0000     0. 
  -2   2   3  38259.60  683.81  0. 1.0000     0. 
  -2   2   3  32188.50  611.15  0. 1.0000     0. 
   2  -2  -3  29548.50 1003.73  0. 1.0000     0. 
  -2   2   3  31908.40  549.34  0. 1.0000     0. 
   2  -2  -3  34359.30  653.86  0. 1.0000     0. 
  -2   2   3  35060.60  963.85  0. 1.0000     0. 
  -2   2   2 189863.02 1751.81  0. 1.0000     0. 
   2  -2  -2 199411.00 2390.45  0. 1.0000     0. 
   2  -2  -2 204801.98 1322.81  0. 1.0000     0. 
  -2   2   2 199048.00 1691.87  0. 1.0000     0. 
  -2   2   2 184730.00 1594.80  0. 1.0000     0. 
   2  -2  -2 186492.00 2370.25  0. 1.0000     0. 
  -2   2   2 212454.02 2232.59  0. 1.0000     0. 
  -2   2   1 327362.00 2286.98  0. 1.0000     0. 
   2  -2  -1 337272.97 3063.18  0. 1.0000     0. 
  -2   2  -1     82.20  125.87  0. 1.0000     0. 
  -2   2  -1    378.14   79.03  0. 1.0000     0. 
   2  -2   1    367.71  193.49  0. 1.0000     0. 
  -2   2  -1    472.15  218.83  0. 1.0000     0. 
   2  -2   1    165.88   88.58  0. 1.0000     0. 
  -2   2  -1    257.12  118.75  0. 1.0000     0. 
   2  -2   1    130.81  120.55  0. 1.0000     0. 
   2  -2   1    225.98  233.25  0. 1.0000     0. 
  -2   2  -1    154.46  163.76  0. 1.0000     0. 
  -2   2  -2 165249.00 1908.64  0. 1.0000     0. 
  -2   2  -2 164236.00 2023.25  0. 1.0000     0. 
   2  -2   2 178148.02 1202.27  0. 1.0000     0. 
   2  -2   2 170287.00 1533.97  0. 1.0000     0. 
   2  -2   2 176684.00 1435.43  0. 1.0000     0. 
  -2   2  -2 173626.00 1553.44  0. 1.0000     0. 
  -2   2  -2 168465.00 2027.69  0. 1.0000     0. 
   2  -2   2 172682.00 1938.55  0. 1.0000     0. 
  -2   2  -2 173827.00 1591.95  0. 1.0000     0. 
  -2   2  -3  62848.70 1260.58  0. 1.0000     0. 
   2  -2   3  65387.50 1166.41  0. 1.0000     0. 
  -2   2  -3  63429.50 1229.84  0. 1.0000     0. 
   2  -2   3  69749.20  977.68  0. 1.0000     0. 
  -2   2  -3  65867.40  929.45  0. 1.0000     0. 
  -2   2  -3  64976.50 1331.12  0. 1.0000     0. 
  -2   2  -3  67593.00 1155.12  0. 1.0000     0. 
  -2   2  -4  35177.50 1002.90  0. 1.0000     0. 
   2  -2   4  35804.30 1040.35  0. 1.0000     0. 
   2  -2   4  35181.40  876.79  0. 1.0000     0. 
  -2   2  -4  35516.80  911.47  0. 1.0000     0. 
   2  -2   4  36755.30  860.07  0. 1.0000     0. 
   2  -2   4  33069.10  831.98  0. 1.0000     0. 
  -2   2  -4  35967.89  784.17  0. 1.0000     0. 
  -2   2  -4  33194.00 1023.00  0. 1.0000     0. 
  -2   2  -4  34212.30  941.77  0. 1.0000     0. 
  -2   2  -4  33849.40  840.41  0. 1.0000     0. 
  -2   2  -5  36699.60  916.72  0. 1.0000     0. 
   2  -2   5  38067.30 1102.20  0. 1.0000     0. 
   2  -2   5  41071.90  986.76  0. 1.0000     0. 
   2  -2   5  39423.50 1002.86  0. 1.0000     0. 
   2  -2   5  36920.60  956.01  0. 1.0000     0. 
  -2   2  -5  36187.50  898.09  0. 1.0000     0. 
   2  -2   5  44326.80  717.72  0. 1.0000     0. 
  -2   2  -5  39331.90 1159.18  0. 1.0000     0. 
  -2   2  -5  39607.11 1137.28  0. 1.0000     0. 
  -2   2  -5  37668.30  991.71  0. 1.0000     0. 
  -2   2  -5  39530.30 1096.11  0. 1.0000     0. 
   2  -2   6 490279.03 3933.25  0. 1.0000     0. 
  -2   2  -6 526177.06 4417.27  0. 1.0000     0. 
  -2   2  -6 528224.00 4329.58  0. 1.0000     0. 
  -2   2  -6 503650.97 3981.82  0. 1.0000     0. 
  -2   2  -6 509292.97 4207.55  0. 1.0000     0. 
   2  -2   7   8046.11  586.67  0. 1.0000     0. 
   2  -2   7   9642.46  661.99  0. 1.0000     0. 
  -2   2  -7   9194.93  603.25  0. 1.0000     0. 
   2  -2   7   9324.50  629.80  0. 1.0000     0. 
   2  -2   7  11113.20  516.64  0. 1.0000     0. 
  -2   2  -7   8703.04  625.87  0. 1.0000     0. 
   2  -2   7   9374.79  510.55  0. 1.0000     0. 
  -2   2  -7  10403.50  726.98  0. 1.0000     0. 
  -2   2  -7   8626.62  641.38  0. 1.0000     0. 
  -2   2  -7   8785.30  732.64  0. 1.0000     0. 
   2  -2   8  23997.80 1027.99  0. 1.0000     0. 
   2  -2   8  25565.50 1097.56  0. 1.0000     0. 
   2  -2   8  22533.90 1002.12  0. 1.0000     0. 
  -2   2  -8  24576.90  993.14  0. 1.0000     0. 
   2  -2   8  23831.70  845.79  0. 1.0000     0. 
   2  -2   8  23489.40  760.13  0. 1.0000     0. 
  -2   2  -8  23600.50 1112.99  0. 1.0000     0. 
  -2   2  -8  21839.80 1022.38  0. 1.0000     0. 
  -2   2  -8  24948.30 1191.68  0. 1.0000     0. 
  -2   2  -9   5230.53  763.60  0. 1.0000     0. 
   2  -2   9   6166.05  676.36  0. 1.0000     0. 
  -2   2  -9   6109.23  648.71  0. 1.0000     0. 
   2  -2   9   5979.04  639.19  0. 1.0000     0. 
   2  -2   9   3249.11  453.60  0. 1.0000     0. 
  -2   2  -9   5466.64  657.37  0. 1.0000     0. 
   2  -2  10  91377.91 2317.78  0. 1.0000     0. 
   2  -2  10  90310.10 2191.75  0. 1.0000     0. 
  -2   2 -10  86113.20 2283.42  0. 1.0000     0. 
  -2   2 -10  90315.90 2384.50  0. 1.0000     0. 
  -2   2 -11   4978.43  820.57  0. 1.0000     0. 
   2  -2  11   4692.61  751.37  0. 1.0000     0. 
   2  -2  11   5067.93  704.83  0. 1.0000     0. 
  -2   2 -11   5232.62  704.84  0. 1.0000     0. 
  -2   2 -12    333.54  386.06  0. 1.0000     0. 
   2  -2  12  10697.90 1061.38  0. 1.0000     0. 
   2  -2  12  18648.70 1380.95  0. 1.0000     0. 
   2  -2  12   1271.01  744.82  0. 1.0000     0. 
  -2   2 -12  21566.10 1401.35  0. 1.0000     0. 
   2  -2  13   4456.92  930.74  0. 1.0000     0. 
   2  -1 -14   1083.03  671.00  0. 1.0000     0. 
   2  -1 -14   1732.08  720.91  0. 1.0000     0. 
   2  -1 -14   2194.33  571.75  0. 1.0000     0. 
  -2   1  14   1491.82  707.42  0. 1.0000     0. 
   2  -1 -14   2604.50  783.85  0. 1.0000     0. 
   2  -1 -14   2171.38  547.91  0. 1.0000     0. 
  -2   1  14   2826.43  918.80  0. 1.0000     0. 
  -2   1  14   2139.99  835.44  0. 1.0000     0. 
   2  -1 -13  20187.70 1132.73  0. 1.0000     0. 
   2  -1 -13  19655.40 1292.51  0. 1.0000     0. 
  -2   1  13  16520.00 1169.31  0. 1.0000     0. 
   2  -1 -13  16870.30 1210.95  0. 1.0000     0. 
  -2   1  13  17860.60 1297.35  0. 1.0000     0. 
   2  -1 -13  19551.40 1042.36  0. 1.0000     0. 
  -2   1  13  19170.20 1359.33  0. 1.0000     0. 
  -2   1  13  20840.10 1637.60  0. 1.0000     0. 
   2  -1 -13  20019.00 1362.82  0. 1.0000     0. 
   2  -1 -13  19209.90 1275.53  0. 1.0000     0. 
   2  -1 -12   6781.86  701.69  0. 1.0000     0. 
   2  -1 -12   6852.17  833.49  0. 1.0000     0. 
  -2   1  12   7153.73  886.93  0. 1.0000     0. 
   2  -1 -12   6503.41  747.88  0. 1.0000     0. 
   2  -1 -12   6729.22  661.75  0. 1.0000     0. 
  -2   1  12   6456.57  972.01  0. 1.0000     0. 
  -2   1  12   6622.83  809.32  0. 1.0000     0. 
  -2   1  12   6458.65  848.08  0. 1.0000     0. 
   2  -1 -12   6596.54  811.74  0. 1.0000     0. 
   2  -1 -12   6438.81  850.51  0. 1.0000     0. 
   2  -1 -11  67606.00 1771.62  0. 1.0000     0. 
  -2   1  11  66700.80 2204.86  0. 1.0000     0. 
  -2   1  11  60903.60 1926.80  0. 1.0000     0. 
   2  -1 -11  49741.10 1558.49  0. 1.0000     0. 
   2  -1 -11  73607.49 1877.45  0. 1.0000     0. 
  -2   1  11  62966.80 1931.39  0. 1.0000     0. 
  -2   1  11  75550.21 1799.87  0. 1.0000     0. 
  -2   1  11  61855.61 1951.88  0. 1.0000     0. 
   2  -1 -11  69556.80 1917.33  0. 1.0000     0. 
   2  -1 -11  62166.50 1955.61  0. 1.0000     0. 
   2  -1 -11  63463.30 1866.21  0. 1.0000     0. 
   2  -1 -10  68234.50 1629.77  0. 1.0000     0. 
  -2   1  10  64816.40 2050.77  0. 1.0000     0. 
   2  -1 -10  76206.80 2166.77  0. 1.0000     0. 
  -2   1  10  83108.89 2218.44  0. 1.0000     0. 
   2  -1 -10  80156.20 1942.29  0. 1.0000     0. 
  -2   1  10  79618.30 2047.84  0. 1.0000     0. 
   2  -1 -10  69809.41 1658.96  0. 1.0000     0. 
  -2   1  10  70383.60 1906.54  0. 1.0000     0. 
  -2   1  10  67305.71 1876.13  0. 1.0000     0. 
  -2   1  10  69837.50 1640.14  0. 1.0000     0. 
  -2   1  10  67283.50 1902.50  0. 1.0000     0. 
   2  -1 -10  72567.10 1858.70  0. 1.0000     0. 
   2  -1 -10  71945.21 1934.22  0. 1.0000     0. 
   2  -1 -10  69601.40 1819.21  0. 1.0000     0. 
  -2   1   9  78481.80 2078.20  0. 1.0000     0. 
   2  -1  -9  82532.71 1643.33  0. 1.0000     0. 
  -2   1   9  76450.90 1806.07  0. 1.0000     0. 
  -2   1   9  74452.10 1805.79  0. 1.0000     0. 
  -2   1   9  79133.49 1959.13  0. 1.0000     0. 
  -2   1   9  80418.09 1638.71  0. 1.0000     0. 
  -2   1   9  75265.30 1891.21  0. 1.0000     0. 
   2  -1  -9  77206.39 1802.06  0. 1.0000     0. 
   2  -1  -9  78611.00 1830.69  0. 1.0000     0. 
   2  -1  -9  77220.09 1738.97  0. 1.0000     0. 
  -2   1   8   6971.27  610.20  0. 1.0000     0. 
  -2   1   8   7736.67  605.10  0. 1.0000     0. 
  -2   1   8   7931.03  506.80  0. 1.0000     0. 
  -2   1   8   7603.94  639.60  0. 1.0000     0. 
  -2   1   8   6410.48  610.03  0. 1.0000     0. 
  -2   1   8   7692.17  529.42  0. 1.0000     0. 
   2  -1  -8   7469.08  502.53  0. 1.0000     0. 
   2  -1  -8   7438.03  617.80  0. 1.0000     0. 
   2  -1  -8   7262.53  588.68  0. 1.0000     0. 
  -2   1   8   7085.00  692.07  0. 1.0000     0. 
   2  -1  -8   7570.22  578.55  0. 1.0000     0. 
  -2   1   7 131386.00 2427.09  0. 1.0000     0. 
  -2   1   7 141377.02 2143.74  0. 1.0000     0. 
   2  -1  -6    409.95  160.79  0. 1.0000     0. 
  -2   1   6     86.12  308.28  0. 1.0000     0. 
   2  -1  -6    394.05  195.49  0. 1.0000     0. 
   2  -1  -6    535.70  368.20  0. 1.0000     0. 
  -2   1   6   1211.90  286.67  0. 1.0000     0. 
  -2   1   6    441.45  266.07  0. 1.0000     0. 
  -2   1   6    187.67  162.26  0. 1.0000     0. 
  -2   1   6    400.08  192.58  0. 1.0000     0. 
  -2   1   6    430.96  304.77  0. 1.0000     0. 
  -2   1   6    376.23  317.20  0. 1.0000     0. 
   2  -1  -6   1152.71  411.81  0. 1.0000     0. 
   2  -1  -6    272.52  233.60  0. 1.0000     0. 
  -2   1   5 520205.97 3705.34  0. 1.0000     0. 
  -2   1   4    945.98  269.42  0. 1.0000     0. 
   2  -1  -4    287.91  164.49  0. 1.0000     0. 
  -2   1   4    813.55  234.90  0. 1.0000     0. 
   2  -1  -4   1264.46  160.49  0. 1.0000     0. 
  -2   1   4    953.82  215.97  0. 1.0000     0. 
  -2   1   4   1228.21  128.82  0. 1.0000     0. 
   2  -1  -4    911.80  161.51  0. 1.0000     0. 
  -2   1   4    708.90  163.14  0. 1.0000     0. 
  -2   1   4    717.32  230.70  0. 1.0000     0. 
   2  -1  -4    622.87  282.51  0. 1.0000     0. 
   2  -1  -4    817.70  177.46  0. 1.0000     0. 
   2  -1  -3     40.42  300.00  0. 1.0000     0. 
  -2   1   3 239269.98 1830.85  0. 1.0000     0. 
  -2   1   2   1524.53  204.27  0. 1.0000     0. 
   2  -1  -2   1359.48  120.36  0. 1.0000     0. 
   2  -1  -2   1527.62  196.02  0. 1.0000     0. 
   2  -1  -2   1308.64  173.23  0. 1.0000     0. 
  -2   1   2   1548.20  200.09  0. 1.0000     0. 
  -2   1   2   1673.19  195.14  0. 1.0000     0. 
  -2   1   2   1326.12  109.93  0. 1.0000     0. 
   2  -1  -2   2010.76  149.07  0. 1.0000     0. 
  -2   1   2   1410.12  175.83  0. 1.0000     0. 
   2  -1  -2   1298.10  259.76  0. 1.0000     0. 
  -2   1   1 204722.00 1704.84  0. 1.0000     0. 
   2  -1  -1 201660.00 1750.02  0. 1.0000     0. 
   2  -1  -1 203861.02 1964.77  0. 1.0000     0. 
  -2   1   1 208134.98 1603.36  0. 1.0000     0. 
  -2   1   1 191766.98 1704.34  0. 1.0000     0. 
   2  -1  -1 195167.00 2020.23  0. 1.0000     0. 
   2  -1   0 121960.00 1315.59  0. 1.0000     0. 
   2  -1   0 118614.99 1380.28  0. 1.0000     0. 
   2  -1   0 116034.99 1285.71  0. 1.0000     0. 
  -2   1   0 119693.99 1279.03  0. 1.0000     0. 
   2  -1   0 121859.01 1553.97  0. 1.0000     0. 
  -2   1   0 117504.01 1330.65  0. 1.0000     0. 
   2  -1   1  72807.59 1126.71  0. 1.0000     0. 
   2  -1   1  74437.80 1207.65  0. 1.0000     0. 
  -2   1  -1  74259.39 1153.26  0. 1.0000     0. 
   2  -1   2   3907.65  271.23  0. 1.0000     0. 
   2  -1   2   4121.58  318.58  0. 1.0000     0. 
   2  -1   2   4386.70  260.45  0. 1.0000     0. 
   2  -1   4  15461.70  602.89  0. 1.0000     0. 
   2  -1   4  11745.50  534.07  0. 1.0000     0. 
   2  -1   4  12292.10  378.52  0. 1.0000     0. 
   2  -1   4  11246.20  575.10  0. 1.0000     0. 
  -2   1  -4  12906.20  573.93  0. 1.0000     0. 
   2  -1   4  16783.30  417.79  0. 1.0000     0. 
  -2   1  -4  10809.20  510.78  0. 1.0000     0. 
   2  -1   5 263059.00 2289.39  0. 1.0000     0. 
   2  -1   5 253577.98 2603.23  0. 1.0000     0. 
  -2   1  -5 246075.00 2593.82  0. 1.0000     0. 
   2  -1   5 242467.02 2338.16  0. 1.0000     0. 
   2  -1   5 253005.98 1947.20  0. 1.0000     0. 
   2  -1   5 250540.00 2705.45  0. 1.0000     0. 
  -2   1  -5 241784.00 2506.63  0. 1.0000     0. 
  -2   1  -6   7495.37  334.08  0. 1.0000     0. 
  -2   1  -6   7330.64  504.72  0. 1.0000     0. 
   2  -1   6   8138.00  182.64  0. 1.0000     0. 
   2  -1   6   8621.00  444.95  0. 1.0000     0. 
   2  -1   6   6178.34  498.44  0. 1.0000     0. 
   2  -1   6   7421.49  486.03  0. 1.0000     0. 
   2  -1   6   7717.75  410.65  0. 1.0000     0. 
   2  -1   6   7442.17  549.13  0. 1.0000     0. 
  -2   1  -6   8208.36  559.45  0. 1.0000     0. 
  -2   1  -6   6719.17  480.36  0. 1.0000     0. 
  -2   1  -6   7771.19  573.75  0. 1.0000     0. 
  -2   1  -7 112447.00 1026.54  0. 1.0000     0. 
   2  -1   7 108843.01 1846.00  0. 1.0000     0. 
   2  -1   7 110591.00 2044.81  0. 1.0000     0. 
  -2   1  -7 110521.00 1889.17  0. 1.0000     0. 
  -2   1  -7 112363.00 2000.15  0. 1.0000     0. 
  -2   1  -7 109486.00 1927.38  0. 1.0000     0. 
  -2   1  -7 105785.00 1966.94  0. 1.0000     0. 
   2  -1   8  81623.50 1186.51  0. 1.0000     0. 
  -2   1  -8  81985.30 1764.78  0. 1.0000     0. 
   2  -1   8  84985.09 1792.82  0. 1.0000     0. 
   2  -1   8  82745.10 1857.69  0. 1.0000     0. 
  -2   1  -8  80007.49 1757.80  0. 1.0000     0. 
  -2   1  -8  76905.71 1775.51  0. 1.0000     0. 
  -2   1  -8  80061.80 1847.81  0. 1.0000     0. 
   2  -1   9  51125.50 1512.32  0. 1.0000     0. 
  -2   1  -9  49394.40 1491.57  0. 1.0000     0. 
  -2   1  -9  48789.70 1541.94  0. 1.0000     0. 
  -2   1 -10  89911.60 2070.67  0. 1.0000     0. 
  -2   1 -10  86433.29 2160.63  0. 1.0000     0. 
  -2   1 -11  49588.80 1690.66  0. 1.0000     0. 
  -2   1 -11  40071.50 1604.49  0. 1.0000     0. 
  -2   0  14  30382.40 1710.43  0. 1.0000     0. 
  -2   0  14  26039.20 1542.41  0. 1.0000     0. 
   2   0 -14  24968.40 1315.70  0. 1.0000     0. 
   2   0 -14  28685.10 1679.33  0. 1.0000     0. 
   2   0 -14  28754.20 1663.39  0. 1.0000     0. 
  -2   0  13  43044.00 1988.13  0. 1.0000     0. 
  -2   0  13  33449.10 1477.29  0. 1.0000     0. 
  -2   0  13  38832.39 1706.32  0. 1.0000     0. 
   2   0 -13  41858.89 1429.26  0. 1.0000     0. 
  -2   0  13  37047.11 1743.09  0. 1.0000     0. 
   2   0 -13  37391.70 1495.63  0. 1.0000     0. 
   2   0 -13  40487.70 1849.01  0. 1.0000     0. 
   2   0 -13  39700.30 1776.02  0. 1.0000     0. 
   2   0 -12  79811.49 1995.72  0. 1.0000     0. 
  -2   0  12  83391.30 2693.67  0. 1.0000     0. 
   2   0 -12  85705.10 2266.21  0. 1.0000     0. 
  -2   0  12  81704.80 2471.88  0. 1.0000     0. 
   2   0 -12  98446.80 2768.80  0. 1.0000     0. 
  -2   0  12  75169.20 1997.21  0. 1.0000     0. 
   2   0 -12  93711.30 2147.56  0. 1.0000     0. 
  -2   0  12  84865.50 2347.62  0. 1.0000     0. 
  -2   0  12  82219.00 2369.36  0. 1.0000     0. 
   2   0 -12  81379.70 2381.74  0. 1.0000     0. 
   2   0 -12  80890.01 2275.58  0. 1.0000     0. 
   2   0 -11  18915.10  990.04  0. 1.0000     0. 
  -2   0  11  18694.20 1251.22  0. 1.0000     0. 
  -2   0  11  17589.80 1060.80  0. 1.0000     0. 
  -2   0  11  19213.90  984.89  0. 1.0000     0. 
   2   0 -11    912.19  585.18  0. 1.0000     0. 
   2   0 -11  20010.60  946.84  0. 1.0000     0. 
  -2   0  11    250.40  587.43  0. 1.0000     0. 
  -2   0  11  20488.40 1257.33  0. 1.0000     0. 
   2   0 -11  18071.90 1091.30  0. 1.0000     0. 
   2   0 -11  18835.60 1109.32  0. 1.0000     0. 
  -2   0  10  22954.80  963.90  0. 1.0000     0. 
  -2   0  10  21827.50 1219.61  0. 1.0000     0. 
   2   0 -10  20344.40  951.54  0. 1.0000     0. 
   2   0 -10  20976.00 1050.19  0. 1.0000     0. 
  -2   0  10  18659.50  998.02  0. 1.0000     0. 
   2   0 -10  20847.80 1119.06  0. 1.0000     0. 
  -2   0  10  22588.60 1225.50  0. 1.0000     0. 
  -2   0  10  22524.60 1212.96  0. 1.0000     0. 
   2   0 -10  21381.90 1100.59  0. 1.0000     0. 
   2   0 -10  22009.30 1094.07  0. 1.0000     0. 
   2   0  -9   5753.23  587.32  0. 1.0000     0. 
  -2   0   9   5898.99  541.31  0. 1.0000     0. 
  -2   0   9   5179.30  654.61  0. 1.0000     0. 
   2   0  -9   5078.95  573.74  0. 1.0000     0. 
  -2   0   9   5748.36  667.32  0. 1.0000     0. 
  -2   0   9   5214.69  480.14  0. 1.0000     0. 
  -2   0   9   4917.46  426.51  0. 1.0000     0. 
   2   0  -9   4572.97  483.53  0. 1.0000     0. 
  -2   0   9   3512.98  562.75  0. 1.0000     0. 
  -2   0   9   5186.30  639.07  0. 1.0000     0. 
   2   0  -9   4792.95  593.13  0. 1.0000     0. 
  -2   0   8 244489.00 3501.26  0. 1.0000     0. 
   2   0  -8 244723.00 2979.48  0. 1.0000     0. 
   2   0  -8 259685.02 2785.97  0. 1.0000     0. 
  -2   0   8 246765.98 2627.88  0. 1.0000     0. 
  -2   0   8 252737.98 3192.74  0. 1.0000     0. 
   2   0  -8 268873.00 3126.46  0. 1.0000     0. 
  -2   0   8 256625.02 2642.11  0. 1.0000     0. 
  -2   0   8 249710.02 3069.50  0. 1.0000     0. 
  -2   0   8 249404.98 3185.72  0. 1.0000     0. 
   2   0  -8 232909.02 3013.34  0. 1.0000     0. 
   2   0  -8 239082.00 2994.54  0. 1.0000     0. 
  -2   0   7  43638.00 1389.52  0. 1.0000     0. 
   2   0  -7  46703.20  651.56  0. 1.0000     0. 
   2   0  -7  44866.40 1103.17  0. 1.0000     0. 
   2   0  -7  43257.40 1208.72  0. 1.0000     0. 
   2   0  -7  41067.50  953.78  0. 1.0000     0. 
  -2   0   7  46744.80 1307.21  0. 1.0000     0. 
  -2   0   7  44132.10 1010.55  0. 1.0000     0. 
   2   0  -7  49173.30 1247.68  0. 1.0000     0. 
  -2   0   7  48211.10 1112.22  0. 1.0000     0. 
  -2   0   7  44506.80 1246.55  0. 1.0000     0. 
  -2   0   7  45292.10 1297.04  0. 1.0000     0. 
   2   0  -7  44545.10 1196.34  0. 1.0000     0. 
   2   0  -7  45462.60  645.66  0. 1.0000     0. 
  -2   0   6  28770.10 1070.38  0. 1.0000     0. 
   2   0  -6  29031.40  533.17  0. 1.0000     0. 
   2   0  -6  30087.10  816.91  0. 1.0000     0. 
   2   0  -6  30370.60  844.58  0. 1.0000     0. 
   2   0  -6  29129.10  946.96  0. 1.0000     0. 
  -2   0   6  25879.40  858.32  0. 1.0000     0. 
  -2   0   6  28036.40  753.19  0. 1.0000     0. 
  -2   0   6  29477.60  936.27  0. 1.0000     0. 
  -2   0   6  29024.00  817.28  0. 1.0000     0. 
   2   0  -6  28977.50  464.96  0. 1.0000     0. 
  -2   0   6  29625.70  977.39  0. 1.0000     0. 
   2   0  -6  31412.90  980.87  0. 1.0000     0. 
  -2   0   5    650.83   83.78  0. 1.0000     0. 
   2   0  -5    250.78  157.33  0. 1.0000     0. 
   2   0  -5    258.39  249.27  0. 1.0000     0. 
  -2   0   5    233.75  241.08  0. 1.0000     0. 
   2   0  -5    295.71  127.20  0. 1.0000     0. 
   2   0  -5    226.82  240.90  0. 1.0000     0. 
  -2   0   5    224.46  198.11  0. 1.0000     0. 
  -2   0   5    460.94  162.23  0. 1.0000     0. 
  -2   0   5    165.61  125.43  0. 1.0000     0. 
  -2   0   5     81.31  233.04  0. 1.0000     0. 
   2   0  -5     58.65  122.56  0. 1.0000     0. 
  -2   0   5    330.33  270.03  0. 1.0000     0. 
   2   0  -5    160.60  260.49  0. 1.0000     0. 
  -2   0   3  61179.40  766.94  0. 1.0000     0. 
  -2   0   3  60285.50 1043.50  0. 1.0000     0. 
  -2   0   3  60557.10 1003.82  0. 1.0000     0. 
  -2   0   3  59984.40 1026.81  0. 1.0000     0. 
   2   0  -3  62044.60 1012.29  0. 1.0000     0. 
   2   1 -13    870.87  667.53  0. 1.0000     0. 
   2   1 -13    438.08  596.25  0. 1.0000     0. 
   2   1 -13    436.82  473.90  0. 1.0000     0. 
  -2  -1  13    691.65  705.94  0. 1.0000     0. 
  -2  -1  13     18.48  622.11  0. 1.0000     0. 
   2   1 -12   1592.66  654.60  0. 1.0000     0. 
   2   1 -12   1608.99  487.02  0. 1.0000     0. 
  -2  -1  12   1188.38  595.16  0. 1.0000     0. 
   2   1 -12   1877.21  777.48  0. 1.0000     0. 
  -2  -1  12   1364.33  437.87  0. 1.0000     0. 
  -2  -1  12    752.95  653.56  0. 1.0000     0. 
  -2  -1  12   1436.73  575.05  0. 1.0000     0. 
   2   1 -12   1087.04  591.41  0. 1.0000     0. 
   2   1 -11  77459.20 1914.96  0. 1.0000     0. 
  -2  -1  11  79237.70 1939.80  0. 1.0000     0. 
  -2  -1  11  92445.39 2428.88  0. 1.0000     0. 
  -2  -1  11  76689.70 2105.43  0. 1.0000     0. 
  -2  -1  11  82746.30 2308.79  0. 1.0000     0. 
   2   1 -11  86835.00 2441.19  0. 1.0000     0. 
   2   1 -10   1444.54  419.03  0. 1.0000     0. 
  -2  -1  10    782.97  549.41  0. 1.0000     0. 
  -2  -1  10    963.73  569.86  0. 1.0000     0. 
  -2  -1  10   1059.38  358.21  0. 1.0000     0. 
  -2  -1  10   1429.90  514.68  0. 1.0000     0. 
  -2  -1  10   1213.61  494.64  0. 1.0000     0. 
   2   1 -10   1196.69  487.72  0. 1.0000     0. 
  -2  -1   9  88697.99 2216.49  0. 1.0000     0. 
   2   1  -9  79037.80 1709.14  0. 1.0000     0. 
  -2  -1   9  81618.90 1717.33  0. 1.0000     0. 
  -2  -1   9  81146.20 1900.37  0. 1.0000     0. 
   2   1  -9  85901.30 1981.81  0. 1.0000     0. 
  -2  -1   8  98934.90 2298.06  0. 1.0000     0. 
  -2  -1   8 103691.00 1584.33  0. 1.0000     0. 
   2   1  -8  94375.00 1735.50  0. 1.0000     0. 
  -2  -1   8  98908.41 1794.71  0. 1.0000     0. 
   2   1  -8  97954.41 1443.03  0. 1.0000     0. 
  -2  -1   8 105311.99 2073.83  0. 1.0000     0. 
  -2  -1   8  93571.11 1894.64  0. 1.0000     0. 
   2   1  -8 102279.00 2091.51  0. 1.0000     0. 
  -2  -1   7 220283.02 2123.52  0. 1.0000     0. 
  -2  -1   7 252035.98 3372.62  0. 1.0000     0. 
  -2  -1   7 219076.98 1869.73  0. 1.0000     0. 
   2   1  -7 223877.98 2482.60  0. 1.0000     0. 
   2   1  -7 241177.98 2288.75  0. 1.0000     0. 
  -2  -1   7 233888.00 2906.86  0. 1.0000     0. 
  -2  -1   7 223740.00 2456.59  0. 1.0000     0. 
  -2  -1   7 253004.00 2976.19  0. 1.0000     0. 
   2   1  -7 218218.00 1964.42  0. 1.0000     0. 
  -2  -1   7 215988.00 2681.62  0. 1.0000     0. 
   2   1  -7 231832.00 2904.59  0. 1.0000     0. 
  -2  -1   6  34525.10 1216.81  0. 1.0000     0. 
  -2  -1   6  31913.40  701.18  0. 1.0000     0. 
   2   1  -6  32055.10  777.74  0. 1.0000     0. 
   2   1  -6   7943.73  328.78  0. 1.0000     0. 
  -2  -1   6    216.12  303.07  0. 1.0000     0. 
   2   1  -6  33090.90  939.28  0. 1.0000     0. 
  -2  -1   6  30560.60  857.29  0. 1.0000     0. 
  -2  -1   6  36010.80 1081.42  0. 1.0000     0. 
  -2  -1   6  30869.30  974.82  0. 1.0000     0. 
   2   1  -6  34362.50 1045.90  0. 1.0000     0. 
   2   1  -5 207958.98 2470.42  0. 1.0000     0. 
  -2  -1   5 303057.97 2609.56  0. 1.0000     0. 
  -2  -1   5 318237.00 2712.61  0. 1.0000     0. 
   2   1  -5 192275.00 1965.15  0. 1.0000     0. 
  -2  -2  10   1410.80  571.20  0. 1.0000     0. 
   2   2 -10   6614.26  750.57  0. 1.0000     0. 
  -2  -2   9    189.72  405.24  0. 1.0000     0. 
   2   2  -9    216.06  355.91  0. 1.0000     0. 
  -2  -2   8    518.25  434.64  0. 1.0000     0. 
   2   2  -8  13385.70  900.59  0. 1.0000     0. 
   3  -6   0  26114.60 1534.06  0. 1.0000     0. 
   3  -6   1    801.53  638.86  0. 1.0000     0. 
   3  -6   2    662.74  660.53  0. 1.0000     0. 
   3  -6   3   4461.78  894.70  0. 1.0000     0. 
   3  -6   4  38433.50 2068.27  0. 1.0000     0. 
   3  -5  -7 106064.00 3189.43  0. 1.0000     0. 
   3  -5  -6    397.14  685.21  0. 1.0000     0. 
   3  -5  -5  18272.40 1045.49  0. 1.0000     0. 
   3  -5  -5  20386.50 1163.14  0. 1.0000     0. 
   3  -5  -5  19293.20 1445.74  0. 1.0000     0. 
   3  -5  -4    471.12  420.35  0. 1.0000     0. 
   3  -5  -4    690.40  506.45  0. 1.0000     0. 
   3  -5  -4    261.31  646.70  0. 1.0000     0. 
   3  -5  -4    579.22  682.85  0. 1.0000     0. 
   3  -5  -3 121729.99 2613.50  0. 1.0000     0. 
   3  -5  -3 125768.00 2574.75  0. 1.0000     0. 
   3  -5  -3 125174.00 3195.25  0. 1.0000     0. 
   3  -5  -2  14967.80 1010.98  0. 1.0000     0. 
   3  -5  -2  14138.40  934.12  0. 1.0000     0. 
  -3   5   2  13630.50  839.53  0. 1.0000     0. 
   3  -5  -2  14775.40 1212.57  0. 1.0000     0. 
   3  -5  -1  36234.20 1515.07  0. 1.0000     0. 
   3  -5  -1  37142.50 1401.25  0. 1.0000     0. 
  -3   5   1  33180.50 1325.47  0. 1.0000     0. 
   3  -5  -1  36244.70 1702.05  0. 1.0000     0. 
   3  -5   0  14026.70 1026.88  0. 1.0000     0. 
   3  -5   0  13228.50  938.02  0. 1.0000     0. 
   3  -5   0  14333.60 1146.70  0. 1.0000     0. 
   3  -5   1  75637.89 2242.89  0. 1.0000     0. 
   3  -5   1  70465.10 1974.23  0. 1.0000     0. 
   3  -5   1  71801.91 2211.65  0. 1.0000     0. 
   3  -5   2   2783.29  669.95  0. 1.0000     0. 
   3  -5   2   3052.10  598.98  0. 1.0000     0. 
   3  -5   2   2760.39  638.34  0. 1.0000     0. 
   3  -5   2   2727.60  634.17  0. 1.0000     0. 
   3  -5   3  48290.60 1890.22  0. 1.0000     0. 
   3  -5   3  52026.20 1775.23  0. 1.0000     0. 
   3  -5   4   8381.09  968.92  0. 1.0000     0. 
   3  -5   4   9093.55  865.36  0. 1.0000     0. 
   3  -5   5  17586.40 1301.07  0. 1.0000     0. 
   3  -5   5  20498.30 1066.55  0. 1.0000     0. 
   3  -5   6  17376.30 1312.73  0. 1.0000     0. 
   3  -5   6  19061.10 1134.04  0. 1.0000     0. 
   3  -5   7 102260.01 2951.35  0. 1.0000     0. 
   3  -5   7 109357.01 2696.50  0. 1.0000     0. 
   3  -4 -11   1699.97  868.24  0. 1.0000     0. 
  -3   4  11   1597.00  748.51  0. 1.0000     0. 
  -3   4  11   1510.32  653.52  0. 1.0000     0. 
   3  -4 -11   2645.71  643.32  0. 1.0000     0. 
   3  -4 -11   2448.92  818.73  0. 1.0000     0. 
  -3   4  10 103524.01 3247.54  0. 1.0000     0. 
   3  -4 -10   -943.17  756.58  0. 1.0000     0. 
  -3   4  10   1001.51  773.63  0. 1.0000     0. 
   3  -4 -10  91008.91 2342.29  0. 1.0000     0. 
  -3   4  10  71204.49 2255.73  0. 1.0000     0. 
   3  -4 -10  88664.01 2830.91  0. 1.0000     0. 
  -3   4   9  24206.50 1551.96  0. 1.0000     0. 
  -3   4   9  25231.90 1396.08  0. 1.0000     0. 
   3  -4  -9  22817.10 1194.65  0. 1.0000     0. 
  -3   4   9  23015.90 1286.95  0. 1.0000     0. 
   3  -4  -9  23781.70 1537.99  0. 1.0000     0. 
  -3   4   8  10088.00 1032.43  0. 1.0000     0. 
  -3   4   8  10206.50  923.86  0. 1.0000     0. 
   3  -4  -8   9996.39  831.13  0. 1.0000     0. 
  -3   4   8  11091.30  911.78  0. 1.0000     0. 
   3  -4  -8  10897.20 1108.00  0. 1.0000     0. 
  -3   4   7  36948.50 1641.60  0. 1.0000     0. 
   3  -4  -7  41672.00 1479.99  0. 1.0000     0. 
  -3   4   7  38721.10 1525.20  0. 1.0000     0. 
   3  -4  -7  35215.60 1342.53  0. 1.0000     0. 
  -3   4   7  37712.60 1400.20  0. 1.0000     0. 
   3  -4  -7  34890.90 1749.11  0. 1.0000     0. 
   3  -4  -6  67816.50 1604.45  0. 1.0000     0. 
  -3   4   6  63125.00 2005.74  0. 1.0000     0. 
   3  -4  -6  71822.30 1797.27  0. 1.0000     0. 
  -3   4   6  68543.41 1901.05  0. 1.0000     0. 
   3  -4  -6  65231.80 1773.56  0. 1.0000     0. 
  -3   4   6  70985.80 1774.49  0. 1.0000     0. 
   3  -4  -6  68791.30 2308.48  0. 1.0000     0. 
   3  -4  -5   3656.50  474.42  0. 1.0000     0. 
   3  -4  -5   3594.34  507.09  0. 1.0000     0. 
  -3   4   5   3714.50  618.51  0. 1.0000     0. 
   3  -4  -5   3686.98  525.67  0. 1.0000     0. 
  -3   4   5   3914.07  526.40  0. 1.0000     0. 
   3  -4  -5   4431.11  836.50  0. 1.0000     0. 
   3  -4  -4 274015.00 3329.14  0. 1.0000     0. 
  -3   4   4 264887.00 3589.64  0. 1.0000     0. 
   3  -4  -4 259412.00 3258.33  0. 1.0000     0. 
  -3   4   4 285950.00 3304.27  0. 1.0000     0. 
   3  -4  -4 264761.00 3307.31  0. 1.0000     0. 
  -3   4   4 287931.03 3017.73  0. 1.0000     0. 
   3  -4  -4 273910.97 4260.23  0. 1.0000     0. 
   3  -4  -3     35.75  344.20  0. 1.0000     0. 
  -3   4   3     -3.33  387.25  0. 1.0000     0. 
   3  -4  -3    121.41  504.46  0. 1.0000     0. 
   3  -4  -3    197.55  361.12  0. 1.0000     0. 
  -3   4   3    -82.20  348.78  0. 1.0000     0. 
   3  -4  -3    144.88  310.48  0. 1.0000     0. 
   3  -4  -3    250.36  556.19  0. 1.0000     0. 
  -3   4   3     55.36  268.44  0. 1.0000     0. 
   3  -4  -2   9372.41  714.85  0. 1.0000     0. 
  -3   4   2   9432.31  699.12  0. 1.0000     0. 
   3  -4  -2   9303.36  824.36  0. 1.0000     0. 
   3  -4  -2   8092.41  644.97  0. 1.0000     0. 
  -3   4   2   9049.00  845.68  0. 1.0000     0. 
   3  -4  -2   9279.82  658.83  0. 1.0000     0. 
  -3   4   2   7301.63  530.94  0. 1.0000     0. 
  -3   4   2   8104.99  586.80  0. 1.0000     0. 
   3  -4  -2   8601.42  864.12  0. 1.0000     0. 
  -3   4   2  10705.70  721.95  0. 1.0000     0. 
   3  -4  -1  40374.80 1408.26  0. 1.0000     0. 
  -3   4   1  42207.70 1265.67  0. 1.0000     0. 
   3  -4  -1  44155.60 1506.68  0. 1.0000     0. 
   3  -4  -1  37638.50 1245.63  0. 1.0000     0. 
  -3   4   1  37154.20 1542.73  0. 1.0000     0. 
   3  -4  -1  40437.20 1249.47  0. 1.0000     0. 
  -3   4   1  38818.80 1224.21  0. 1.0000     0. 
  -3   4   1  40441.90 1266.04  0. 1.0000     0. 
   3  -4  -1  39642.80 1549.44  0. 1.0000     0. 
  -3   4   1  38796.00 1098.96  0. 1.0000     0. 
   3  -4   0 106740.00 2245.25  0. 1.0000     0. 
  -3   4   0 111409.01 1913.51  0. 1.0000     0. 
  -3   4   0  96294.80 2396.00  0. 1.0000     0. 
   3  -4   0 101058.00 1995.51  0. 1.0000     0. 
  -3   4   0 103853.01 2091.08  0. 1.0000     0. 
  -3   4   0 107551.99 1967.01  0. 1.0000     0. 
   3  -4   0 106606.00 2391.01  0. 1.0000     0. 
  -3   4   0 107305.01 1916.77  0. 1.0000     0. 
  -3   4  -1    366.83  407.36  0. 1.0000     0. 
   3  -4   1    611.47  406.56  0. 1.0000     0. 
  -3   4  -1    266.43  292.48  0. 1.0000     0. 
   3  -4   1    359.11  375.67  0. 1.0000     0. 
  -3   4  -1    439.91  275.71  0. 1.0000     0. 
   3  -4   1    318.05  399.18  0. 1.0000     0. 
   3  -4   1    201.76  461.87  0. 1.0000     0. 
  -3   4  -1    618.58  396.71  0. 1.0000     0. 
   3  -4   2 142713.98 2733.79  0. 1.0000     0. 
  -3   4  -2 127987.01 2674.13  0. 1.0000     0. 
   3  -4   2 137416.02 1827.53  0. 1.0000     0. 
   3  -4   2 144373.00 2453.61  0. 1.0000     0. 
  -3   4  -2 149583.00 2193.22  0. 1.0000     0. 
  -3   4  -2 142565.02 2671.85  0. 1.0000     0. 
   3  -4   2 133736.98 2374.40  0. 1.0000     0. 
   3  -4   2 150365.00 2738.39  0. 1.0000     0. 
   3  -4   3  27222.30 1291.25  0. 1.0000     0. 
   3  -4   3  28176.70 1148.58  0. 1.0000     0. 
   3  -4   3  28210.50  934.44  0. 1.0000     0. 
   3  -4   3  29481.80 1263.64  0. 1.0000     0. 
   3  -4   4 185336.00 3271.61  0. 1.0000     0. 
   3  -4   4 198411.00 3016.83  0. 1.0000     0. 
  -3   4  -4 208619.00 3675.14  0. 1.0000     0. 
   3  -4   4 199547.02 2634.77  0. 1.0000     0. 
   3  -4   4 192907.00 3132.79  0. 1.0000     0. 
   3  -4   5    175.70  430.55  0. 1.0000     0. 
   3  -4   5     62.30  410.27  0. 1.0000     0. 
   3  -4   5     77.27  333.80  0. 1.0000     0. 
   3  -4   5    220.51  510.68  0. 1.0000     0. 
   3  -4   6   6448.02  751.57  0. 1.0000     0. 
  -3   4  -6   6373.26  557.42  0. 1.0000     0. 
   3  -4   6   6164.29  635.37  0. 1.0000     0. 
   3  -4   6   6446.03  813.85  0. 1.0000     0. 
   3  -4   6   7322.47  706.64  0. 1.0000     0. 
   3  -4   7    279.75  522.24  0. 1.0000     0. 
  -3   4  -7    784.03  345.19  0. 1.0000     0. 
   3  -4   7   1409.68  736.96  0. 1.0000     0. 
   3  -4   7    626.18  434.43  0. 1.0000     0. 
   3  -4   8  41692.61 1757.27  0. 1.0000     0. 
  -3   4  -8  41325.80 1429.25  0. 1.0000     0. 
   3  -4   8  44913.50 1733.63  0. 1.0000     0. 
   3  -4   9   7760.74 1026.48  0. 1.0000     0. 
   3  -4   9   8950.56  923.89  0. 1.0000     0. 
   3  -4   9   9215.94 1121.22  0. 1.0000     0. 
  -3   3  12  10479.20 1302.07  0. 1.0000     0. 
   3  -3 -12   8326.40 1108.80  0. 1.0000     0. 
  -3   3  12   7912.65  973.71  0. 1.0000     0. 
   3  -3 -12   7661.63  813.53  0. 1.0000     0. 
  -3   3  12   9151.01 1110.80  0. 1.0000     0. 
   3  -3 -12   8547.01 1086.97  0. 1.0000     0. 
  -3   3  11  83867.79 2482.08  0. 1.0000     0. 
   3  -3 -11  85508.80 2212.09  0. 1.0000     0. 
  -3   3  11  95258.91 3044.58  0. 1.0000     0. 
  -3   3  11  94069.80 2657.82  0. 1.0000     0. 
   3  -3 -11  81576.90 2546.13  0. 1.0000     0. 
  -3   3  10  44484.00 1965.65  0. 1.0000     0. 
   3  -3 -10  51750.10 2214.95  0. 1.0000     0. 
  -3   3  10  40065.40 1567.81  0. 1.0000     0. 
  -3   3  10  46043.50 1807.00  0. 1.0000     0. 
   3  -3 -10  46304.11 1597.00  0. 1.0000     0. 
  -3   3  10  48300.10 1850.91  0. 1.0000     0. 
   3  -3 -10  43935.10 1851.03  0. 1.0000     0. 
  -3   3   9  10689.10  990.87  0. 1.0000     0. 
  -3   3   9   9098.76  763.62  0. 1.0000     0. 
   3  -3  -9  11353.90  834.05  0. 1.0000     0. 
  -3   3   9  11656.50  928.66  0. 1.0000     0. 
  -3   3   9  11969.40  949.68  0. 1.0000     0. 
   3  -3  -9  11027.10 1019.25  0. 1.0000     0. 
  -3   3   8  23794.90 1300.30  0. 1.0000     0. 
   3  -3  -8   -154.96  633.33  0. 1.0000     0. 
   3  -3  -8  27715.60 1088.48  0. 1.0000     0. 
   3  -3  -8  29154.70 1290.00  0. 1.0000     0. 
  -3   3   8    299.29  531.15  0. 1.0000     0. 
  -3   3   8  25661.00 1215.55  0. 1.0000     0. 
   3  -3  -8  26024.40 1391.55  0. 1.0000     0. 
  -3   3   7 120238.00 2640.70  0. 1.0000     0. 
   3  -3  -7 127993.01 2126.16  0. 1.0000     0. 
   3  -3  -7 141818.00 2653.23  0. 1.0000     0. 
  -3   3   7 135990.00 2473.71  0. 1.0000     0. 
   3  -3  -7 123226.00 2806.44  0. 1.0000     0. 
   3  -3  -6   1980.34  366.16  0. 1.0000     0. 
  -3   3   6   2110.94  525.09  0. 1.0000     0. 
   3  -3  -6   1726.99  371.96  0. 1.0000     0. 
  -3   3   6   1680.10  502.46  0. 1.0000     0. 
  -3   3   6    311.30  423.85  0. 1.0000     0. 
   3  -3  -6   1908.00  400.00  0. 1.0000     0. 
  -3   3   6   1860.74  431.24  0. 1.0000     0. 
   3  -3  -6   1809.32  585.97  0. 1.0000     0. 
   3  -3  -5   4238.57  415.43  0. 1.0000     0. 
  -3   3   5   5062.73  675.19  0. 1.0000     0. 
  -3   3   5   3905.68  563.61  0. 1.0000     0. 
   3  -3  -5   4488.93  515.75  0. 1.0000     0. 
   3  -3  -5   3491.83  417.55  0. 1.0000     0. 
  -3   3   5   4106.42  527.34  0. 1.0000     0. 
  -3   3   5   4179.07  510.67  0. 1.0000     0. 
   3  -3  -5   4367.04  705.66  0. 1.0000     0. 
   3  -3  -4   9948.03  592.18  0. 1.0000     0. 
  -3   3   4   9734.58  740.64  0. 1.0000     0. 
   3  -3  -4  10066.50  632.24  0. 1.0000     0. 
  -3   3   4  10274.20  863.02  0. 1.0000     0. 
   3  -3  -4  11083.30  893.72  0. 1.0000     0. 
   3  -3  -4  11310.70  699.35  0. 1.0000     0. 
  -3   3   4  10920.90  670.09  0. 1.0000     0. 
  -3   3   4  10933.30  637.61  0. 1.0000     0. 
   3  -3  -4   9679.29  862.21  0. 1.0000     0. 
  -3   3   4  10318.40  656.79  0. 1.0000     0. 
   3  -3  -3 460352.97 3852.38  0. 1.0000     0. 
  -3   3   3 455831.03 4195.61  0. 1.0000     0. 
   3  -3  -3 457057.03 3891.20  0. 1.0000     0. 
  -3   3   3 478030.03 5125.64  0. 1.0000     0. 
   3  -3  -3 475688.97 4031.00  0. 1.0000     0. 
  -3   3   3 477824.03 3744.28  0. 1.0000     0. 
  -3   3   3 476142.03 3300.14  0. 1.0000     0. 
  -3   3   3 452298.03 3968.08  0. 1.0000     0. 
   3  -3  -3 438650.00 4716.93  0. 1.0000     0. 
  -3   3   3 458323.97 3284.99  0. 1.0000     0. 
  -3   3   2  92671.40 1371.80  0. 1.0000     0. 
   3  -3  -2  88275.80 1749.72  0. 1.0000     0. 
   3  -3  -2  91646.90 1746.49  0. 1.0000     0. 
  -3   3   2  86188.80 2158.34  0. 1.0000     0. 
   3  -3  -2  97592.99 2055.73  0. 1.0000     0. 
   3  -3  -2  94886.39 1736.68  0. 1.0000     0. 
  -3   3   2  99830.10 1597.34  0. 1.0000     0. 
  -3   3   2  90532.40 1714.62  0. 1.0000     0. 
   3  -3  -2  84402.61 2018.31  0. 1.0000     0. 
  -3   3   2  91213.20 1582.75  0. 1.0000     0. 
   3  -3  -1 299308.97 3421.68  0. 1.0000     0. 
   3  -3  -1 303652.00 3265.26  0. 1.0000     0. 
  -3   3   1 293448.03 2658.88  0. 1.0000     0. 
   3  -3  -1 277679.97 3115.75  0. 1.0000     0. 
  -3   3   1 289173.03 3824.12  0. 1.0000     0. 
  -3   3   1 302907.00 3020.00  0. 1.0000     0. 
   3  -3  -1 286304.03 3545.90  0. 1.0000     0. 
  -3   3   1 294137.00 2936.64  0. 1.0000     0. 
   3  -3   0  20861.30  917.15  0. 1.0000     0. 
   3  -3   0  22205.40  923.98  0. 1.0000     0. 
  -3   3   0  21477.20 1067.60  0. 1.0000     0. 
   3  -3   0  21435.70  954.17  0. 1.0000     0. 
  -3   3   0  20623.90  771.43  0. 1.0000     0. 
   3  -3   0  22394.80  809.81  0. 1.0000     0. 
  -3   3   0  18640.90  754.41  0. 1.0000     0. 
   3  -3   0  19565.20  976.79  0. 1.0000     0. 
  -3   3   0  21619.50  857.80  0. 1.0000     0. 
   3  -3   1 124144.01 2214.10  0. 1.0000     0. 
   3  -3   1 128352.99 2134.68  0. 1.0000     0. 
  -3   3  -1 128319.99 2475.56  0. 1.0000     0. 
  -3   3  -1 131025.00 2032.82  0. 1.0000     0. 
   3  -3   1 130556.01 1793.80  0. 1.0000     0. 
  -3   3  -1 125571.99 1852.07  0. 1.0000     0. 
   3  -3   1 124377.99 2247.44  0. 1.0000     0. 
  -3   3  -1 123657.01 2100.17  0. 1.0000     0. 
   3  -3   2   3216.31  470.26  0. 1.0000     0. 
   3  -3   2   3709.37  479.08  0. 1.0000     0. 
  -3   3  -2   3262.93  516.71  0. 1.0000     0. 
   3  -3   2   2781.99  492.63  0. 1.0000     0. 
  -3   3  -2   3303.79  409.45  0. 1.0000     0. 
  -3   3  -2   3737.82  360.78  0. 1.0000     0. 
  -3   3  -2   3013.14  430.50  0. 1.0000     0. 
   3  -3   2   3671.33  514.93  0. 1.0000     0. 
   3  -3   3  96823.30 2051.42  0. 1.0000     0. 
  -3   3  -3 103190.99 2223.33  0. 1.0000     0. 
   3  -3   3 101336.00 1581.66  0. 1.0000     0. 
   3  -3   3 102635.00 2099.82  0. 1.0000     0. 
  -3   3  -3  99698.39 1925.50  0. 1.0000     0. 
  -3   3  -3 100464.99 2078.53  0. 1.0000     0. 
   3  -3   4  33837.00 1250.65  0. 1.0000     0. 
   3  -3   4  38452.89 1274.93  0. 1.0000     0. 
  -3   3  -4  38537.70  931.75  0. 1.0000     0. 
  -3   3  -4  37014.50 1342.51  0. 1.0000     0. 
   3  -3   4  35680.10 1029.88  0. 1.0000     0. 
  -3   3  -4  35645.30 1329.65  0. 1.0000     0. 
   3  -3   5  24521.60 1111.40  0. 1.0000     0. 
   3  -3   5  29031.10 1108.12  0. 1.0000     0. 
  -3   3  -5  27481.50  879.27  0. 1.0000     0. 
  -3   3  -5  25257.70 1068.85  0. 1.0000     0. 
   3  -3   5   4330.92  422.45  0. 1.0000     0. 
  -3   3  -5   1216.99  374.54  0. 1.0000     0. 
   3  -3   5  25550.60  943.34  0. 1.0000     0. 
   3  -3   5   6920.76  867.60  0. 1.0000     0. 
   3  -3   6    474.12  415.93  0. 1.0000     0. 
   3  -3   6    271.10  279.55  0. 1.0000     0. 
   3  -3   6    528.39  351.88  0. 1.0000     0. 
  -3   3  -6    594.92  304.23  0. 1.0000     0. 
   3  -3   6    177.55  307.31  0. 1.0000     0. 
   3  -3   6    361.46  537.96  0. 1.0000     0. 
   3  -3   7 166914.98 2998.45  0. 1.0000     0. 
   3  -3   7 167743.98 2528.38  0. 1.0000     0. 
   3  -3   8   1339.38  579.49  0. 1.0000     0. 
  -3   3  -8    729.53  391.23  0. 1.0000     0. 
   3  -3   8    225.74  426.26  0. 1.0000     0. 
  -3   3  -8    889.34  424.43  0. 1.0000     0. 
   3  -3   8    -48.71  335.41  0. 1.0000     0. 
   3  -3   8    951.41  418.33  0. 1.0000     0. 
  -3   3  -9  22664.20 1159.57  0. 1.0000     0. 
   3  -3   9  21905.90 1382.78  0. 1.0000     0. 
  -3   3 -10   3515.99  627.75  0. 1.0000     0. 
   3  -3  10   2158.52  787.96  0. 1.0000     0. 
   3  -3  11   2066.06  961.74  0. 1.0000     0. 
   3  -2 -13    834.12  574.07  0. 1.0000     0. 
   3  -2 -13    797.69  769.84  0. 1.0000     0. 
  -3   2  13   1302.74  909.64  0. 1.0000     0. 
  -3   2  13    594.83  633.02  0. 1.0000     0. 
  -3   2  13    514.04  711.88  0. 1.0000     0. 
   3  -2 -13    887.17  520.69  0. 1.0000     0. 
  -3   2  13   1404.38  719.53  0. 1.0000     0. 
  -3   2  12  16019.20 1438.54  0. 1.0000     0. 
  -3   2  12  15664.70 1211.29  0. 1.0000     0. 
   3  -2 -12  14362.60 1222.39  0. 1.0000     0. 
  -3   2  12  15759.40 1331.83  0. 1.0000     0. 
   3  -2 -12  13874.20  970.27  0. 1.0000     0. 
  -3   2  12  13973.90 1186.65  0. 1.0000     0. 
   3  -2 -12  14844.80 1106.86  0. 1.0000     0. 
   3  -2 -11   1388.19  576.70  0. 1.0000     0. 
   3  -2 -11    217.02  424.89  0. 1.0000     0. 
  -3   2  11    892.84  693.89  0. 1.0000     0. 
   3  -2 -11    779.32  400.10  0. 1.0000     0. 
   3  -2 -11   1397.35  696.27  0. 1.0000     0. 
  -3   2  11    359.45  534.29  0. 1.0000     0. 
  -3   2  11   1747.63  649.50  0. 1.0000     0. 
   3  -2 -11   1611.39  563.13  0. 1.0000     0. 
  -3   2  11   2175.47  755.61  0. 1.0000     0. 
   3  -2 -11    680.93  614.10  0. 1.0000     0. 
   3  -2 -10  86643.90 2135.78  0. 1.0000     0. 
  -3   2  10 119846.99 2942.75  0. 1.0000     0. 
   3  -2 -10 116884.00 2823.03  0. 1.0000     0. 
   3  -2 -10 115729.01 2418.68  0. 1.0000     0. 
  -3   2  10 123605.01 2737.63  0. 1.0000     0. 
  -3   2  10 128941.00 2954.15  0. 1.0000     0. 
   3  -2 -10 121791.01 2811.56  0. 1.0000     0. 
   3  -2 -10 130148.01 2710.45  0. 1.0000     0. 
   3  -2 -10  80809.30 1912.56  0. 1.0000     0. 
  -3   2   9  11218.90  972.99  0. 1.0000     0. 
   3  -2  -9    609.19  620.20  0. 1.0000     0. 
   3  -2  -9   9279.43  622.62  0. 1.0000     0. 
  -3   2   9   1428.52  568.55  0. 1.0000     0. 
   3  -2  -9  11666.60  817.40  0. 1.0000     0. 
  -3   2   9  11876.10  912.09  0. 1.0000     0. 
  -3   2   9  11140.90  926.73  0. 1.0000     0. 
   3  -2  -9  12151.00  950.91  0. 1.0000     0. 
   3  -2  -9  12034.00  827.35  0. 1.0000     0. 
   3  -2  -9  10941.20  756.75  0. 1.0000     0. 
  -3   2   8   9347.63  872.72  0. 1.0000     0. 
  -3   2   8   8288.61  851.94  0. 1.0000     0. 
   3  -2  -8   6801.19  837.25  0. 1.0000     0. 
   3  -2  -8   9236.11  571.53  0. 1.0000     0. 
  -3   2   8   8330.92  729.56  0. 1.0000     0. 
  -3   2   8   8894.63  767.83  0. 1.0000     0. 
   3  -2  -8   7625.90  790.42  0. 1.0000     0. 
   3  -2  -8   9384.87  702.65  0. 1.0000     0. 
   3  -2  -8   8256.52  649.41  0. 1.0000     0. 
  -3   2   7  47596.70 1634.16  0. 1.0000     0. 
  -3   2   7  48807.30 1707.35  0. 1.0000     0. 
   3  -2  -7  45979.70 1126.13  0. 1.0000     0. 
   3  -2  -7  47253.90 1637.08  0. 1.0000     0. 
  -3   2   7  45004.20 1432.88  0. 1.0000     0. 
  -3   2   7  49904.40 1512.57  0. 1.0000     0. 
   3  -2  -7  45119.20 1548.39  0. 1.0000     0. 
   3  -2  -7  51644.20 1369.66  0. 1.0000     0. 
  -3   2   6 205527.00 2976.27  0. 1.0000     0. 
  -3   2   6 220640.00 3368.76  0. 1.0000     0. 
   3  -2  -6 201094.00 2310.51  0. 1.0000     0. 
   3  -2  -6 211867.98 3194.27  0. 1.0000     0. 
  -3   2   6 192775.00 2158.45  0. 1.0000     0. 
  -3   2   6 199345.00 2791.47  0. 1.0000     0. 
  -3   2   6 236014.00 3087.45  0. 1.0000     0. 
  -3   2   6 223575.00 2838.27  0. 1.0000     0. 
   3  -2  -6 195169.00 3033.52  0. 1.0000     0. 
   3  -2  -6 223969.00 2552.19  0. 1.0000     0. 
   3  -2  -6 184626.00 2062.71  0. 1.0000     0. 
  -3   2   5  58569.90 1480.16  0. 1.0000     0. 
  -3   2   5  59620.10 1684.27  0. 1.0000     0. 
   3  -2  -5  64191.60 1363.85  0. 1.0000     0. 
  -3   2   5  61607.90 1476.71  0. 1.0000     0. 
  -3   2   5  63924.10 1480.59  0. 1.0000     0. 
   3  -2  -5  62557.20 1672.20  0. 1.0000     0. 
  -3   2   4 292133.00 3024.47  0. 1.0000     0. 
  -3   2   4 289431.97 3576.33  0. 1.0000     0. 
   3  -2  -4 280463.97 2692.51  0. 1.0000     0. 
   3  -2  -4 295672.03 3454.45  0. 1.0000     0. 
  -3   2   4 307135.00 3052.27  0. 1.0000     0. 
  -3   2   4 292977.00 2888.01  0. 1.0000     0. 
  -3   2   4 289422.00 3014.29  0. 1.0000     0. 
   3  -2  -4 288381.00 3434.36  0. 1.0000     0. 
   3  -2  -4 316621.00 2364.54  0. 1.0000     0. 
  -3   2   3   1945.33  339.05  0. 1.0000     0. 
   3  -2  -3   2483.66  333.72  0. 1.0000     0. 
   3  -2  -3   2297.57  321.90  0. 1.0000     0. 
  -3   2   3   2104.93  188.62  0. 1.0000     0. 
   3  -2  -3   2170.19  430.23  0. 1.0000     0. 
   3  -2  -3   2273.56  291.58  0. 1.0000     0. 
  -3   2   3   1683.97  359.91  0. 1.0000     0. 
  -3   2   3   2091.22  314.62  0. 1.0000     0. 
  -3   2   3   2020.41  297.10  0. 1.0000     0. 
   3  -2  -3   2091.00  207.95  0. 1.0000     0. 
   3  -2  -3   1981.64  440.90  0. 1.0000     0. 
  -3   2   2 142481.98 1823.49  0. 1.0000     0. 
  -3   2   2 127672.01 2244.00  0. 1.0000     0. 
   3  -2  -2 133616.00 1844.29  0. 1.0000     0. 
   3  -2  -2 128160.00 1846.95  0. 1.0000     0. 
   3  -2  -2 132374.98 2151.93  0. 1.0000     0. 
   3  -2  -2 136467.98 1881.35  0. 1.0000     0. 
   3  -2  -2 114615.99 1309.48  0. 1.0000     0. 
  -3   2   2 135082.00 1746.97  0. 1.0000     0. 
  -3   2   2 132443.00 1876.05  0. 1.0000     0. 
  -3   2   2 128242.00 1405.87  0. 1.0000     0. 
   3  -2  -2 125938.00 2199.95  0. 1.0000     0. 
  -3   2   1  22769.40  682.19  0. 1.0000     0. 
  -3   2   1  20327.40  903.93  0. 1.0000     0. 
   3  -2  -1  20549.30  758.38  0. 1.0000     0. 
  -3   2   1  20631.00  630.04  0. 1.0000     0. 
   3  -2  -1  20683.10  778.99  0. 1.0000     0. 
   3  -2  -1  21518.50  742.53  0. 1.0000     0. 
  -3   2   1  20842.10  743.88  0. 1.0000     0. 
   3  -2  -1  20546.00  896.41  0. 1.0000     0. 
  -3   2   1  20209.10  700.70  0. 1.0000     0. 
  -3   2   0 642081.00 4831.91  0. 1.0000     0. 
   3  -2   0 642747.94 4236.45  0. 1.0000     0. 
  -3   2  -1 193205.98 2616.62  0. 1.0000     0. 
   3  -2   1 184509.00 2324.12  0. 1.0000     0. 
   3  -2   1 211001.00 2474.46  0. 1.0000     0. 
   3  -2   1 202427.00 2123.75  0. 1.0000     0. 
  -3   2  -1 192751.02 2137.75  0. 1.0000     0. 
   3  -2   1 195512.00 2298.71  0. 1.0000     0. 
  -3   2  -1 195144.00 2096.50  0. 1.0000     0. 
   3  -2   1 194655.00 2581.50  0. 1.0000     0. 
  -3   2  -1 201504.00 2381.35  0. 1.0000     0. 
  -3   2  -2  25500.20  958.35  0. 1.0000     0. 
   3  -2   2  24550.10  894.23  0. 1.0000     0. 
   3  -2   2  29360.30  954.34  0. 1.0000     0. 
  -3   2  -2  27699.70  481.29  0. 1.0000     0. 
  -3   2  -2  23140.90  805.51  0. 1.0000     0. 
   3  -2   2  25590.10  903.95  0. 1.0000     0. 
   3  -2   2  28049.50 1075.90  0. 1.0000     0. 
  -3   2  -2  26817.00  948.57  0. 1.0000     0. 
  -3   2  -3  18284.40  811.90  0. 1.0000     0. 
   3  -2   3  17286.50  786.41  0. 1.0000     0. 
   3  -2   3  20320.00  826.10  0. 1.0000     0. 
  -3   2  -3  20321.10  811.18  0. 1.0000     0. 
  -3   2  -3  20891.10  530.46  0. 1.0000     0. 
   3  -2   3  21610.50  887.29  0. 1.0000     0. 
  -3   2  -3  19996.90  876.06  0. 1.0000     0. 
  -3   2  -4 150001.98 2225.77  0. 1.0000     0. 
   3  -2   4 146322.02 2256.33  0. 1.0000     0. 
   3  -2   4 165578.02 2280.70  0. 1.0000     0. 
  -3   2  -4 156069.00 2329.22  0. 1.0000     0. 
   3  -2   4 163660.98 1628.62  0. 1.0000     0. 
   3  -2   4 156139.00 2460.74  0. 1.0000     0. 
  -3   2  -4 152704.00 2413.36  0. 1.0000     0. 
  -3   2  -5 152988.00 2229.44  0. 1.0000     0. 
   3  -2   5 154543.00 2185.61  0. 1.0000     0. 
  -3   2  -5 155071.98 2448.68  0. 1.0000     0. 
  -3   2  -5 157384.98 1906.58  0. 1.0000     0. 
   3  -2   5 154113.00 2573.10  0. 1.0000     0. 
  -3   2  -5 149977.00 2497.22  0. 1.0000     0. 
   3  -2   6  51846.50 1527.89  0. 1.0000     0. 
   3  -2   6  54052.50 1317.74  0. 1.0000     0. 
  -3   2  -6  53174.20 1285.20  0. 1.0000     0. 
  -3   2  -6  56908.70 1285.05  0. 1.0000     0. 
  -3   2  -6  54986.10 1606.16  0. 1.0000     0. 
   3  -2   7  15494.70  750.38  0. 1.0000     0. 
   3  -2   7  13239.40  881.82  0. 1.0000     0. 
   3  -2   8  98829.70 2166.26  0. 1.0000     0. 
   3  -2   8  81427.80 2726.55  0. 1.0000     0. 
   3  -2   9    124.79  438.35  0. 1.0000     0. 
  -3   2  -9    815.45  428.84  0. 1.0000     0. 
   3  -2   9   -131.20  392.39  0. 1.0000     0. 
  -3   1  13  57021.80 2508.40  0. 1.0000     0. 
   3  -1 -13  65670.80 2561.33  0. 1.0000     0. 
  -3   1  13  48952.80 1830.93  0. 1.0000     0. 
  -3   1  13  57979.90 2185.54  0. 1.0000     0. 
   3  -1 -13  60750.50 1959.46  0. 1.0000     0. 
  -3   1  13  56211.60 2120.67  0. 1.0000     0. 
   3  -1 -13  63164.30 2265.02  0. 1.0000     0. 
  -3   1  12  19764.50 1467.16  0. 1.0000     0. 
  -3   1  12  15219.70 1107.56  0. 1.0000     0. 
   3  -1 -12  21193.60 1156.33  0. 1.0000     0. 
  -3   1  12  19808.70 1301.22  0. 1.0000     0. 
  -3   1  12  21052.80 1395.40  0. 1.0000     0. 
   3  -1 -12  21552.30 1349.42  0. 1.0000     0. 
   3  -1 -12  14287.00 1051.36  0. 1.0000     0. 
  -3   1  11  54603.50 2122.03  0. 1.0000     0. 
   3  -1 -11  59365.00 1740.20  0. 1.0000     0. 
  -3   1  11  57547.90 1987.05  0. 1.0000     0. 
  -3   1  11  57643.00 2002.29  0. 1.0000     0. 
   3  -1 -11  59194.60 1963.15  0. 1.0000     0. 
   3  -1 -11  55303.80 1783.00  0. 1.0000     0. 
   3  -1 -10   2122.85  557.84  0. 1.0000     0. 
   3  -1 -10   2216.46  556.09  0. 1.0000     0. 
  -3   1  10   2268.64  696.19  0. 1.0000     0. 
   3  -1 -10   1358.28  413.40  0. 1.0000     0. 
   3  -1 -10   2031.82  623.82  0. 1.0000     0. 
  -3   1  10   2262.37  601.72  0. 1.0000     0. 
  -3   1  10   2099.52  566.47  0. 1.0000     0. 
  -3   1  10    658.60  559.50  0. 1.0000     0. 
  -3   1  10   1913.00  571.22  0. 1.0000     0. 
   3  -1 -10    627.58  623.44  0. 1.0000     0. 
  -3   1   9  12694.30 1023.49  0. 1.0000     0. 
  -3   1   9  13019.10  960.25  0. 1.0000     0. 
   3  -1  -9  10588.60  873.62  0. 1.0000     0. 
  -3   1   9  11853.20  886.79  0. 1.0000     0. 
  -3   1   9  13837.70 1036.71  0. 1.0000     0. 
  -3   1   9  11949.00  912.85  0. 1.0000     0. 
   3  -1  -9  13704.70  857.86  0. 1.0000     0. 
   3  -1  -9  12458.50  808.68  0. 1.0000     0. 
  -3   1   8  16213.70 1053.68  0. 1.0000     0. 
  -3   1   8  17952.10 1010.98  0. 1.0000     0. 
   3  -1  -8  17714.40  631.45  0. 1.0000     0. 
   3  -1  -8  16352.90 1015.66  0. 1.0000     0. 
  -3   1   8  18746.00 1053.72  0. 1.0000     0. 
  -3   1   8  18638.40  876.17  0. 1.0000     0. 
  -3   1   8  16776.90  959.03  0. 1.0000     0. 
   3  -1  -8  17650.70 1020.84  0. 1.0000     0. 
   3  -1  -8  20092.70  968.34  0. 1.0000     0. 
   3  -1  -8  17166.80  811.81  0. 1.0000     0. 
  -3   1   7 293013.00 3735.70  0. 1.0000     0. 
  -3   1   7 293900.97 3643.62  0. 1.0000     0. 
   3  -1  -7 323933.00 2736.04  0. 1.0000     0. 
   3  -1  -7 301104.00 3699.84  0. 1.0000     0. 
  -3   1   7 300599.00 3184.77  0. 1.0000     0. 
  -3   1   7 335095.97 3871.81  0. 1.0000     0. 
  -3   1   7 300734.03 3260.79  0. 1.0000     0. 
  -3   1   7 304405.03 3483.26  0. 1.0000     0. 
   3  -1  -7 308434.00 3687.55  0. 1.0000     0. 
   3  -1  -7 306995.00 3197.54  0. 1.0000     0. 
  -3   1   6   8262.31  673.14  0. 1.0000     0. 
  -3   1   6   7278.88  584.14  0. 1.0000     0. 
   3  -1  -6   8249.87  677.11  0. 1.0000     0. 
   3  -1  -6   8185.10  524.12  0. 1.0000     0. 
  -3   1   6   9585.56  425.60  0. 1.0000     0. 
  -3   1   6   9499.46  727.74  0. 1.0000     0. 
  -3   1   6   9120.64  583.82  0. 1.0000     0. 
  -3   1   6   9283.91  641.25  0. 1.0000     0. 
   3  -1  -6   8308.36  515.93  0. 1.0000     0. 
   3  -1  -6   8456.76  684.88  0. 1.0000     0. 
  -3   1   5 164879.00 2539.90  0. 1.0000     0. 
  -3   1   5 142692.00 2351.78  0. 1.0000     0. 
   3  -1  -5 145729.02 1777.69  0. 1.0000     0. 
   3  -1  -5 145454.98 2347.74  0. 1.0000     0. 
   3  -1  -5 153709.98 2165.62  0. 1.0000     0. 
  -3   1   5 165794.00 1399.24  0. 1.0000     0. 
  -3   1   5 142708.98 2076.18  0. 1.0000     0. 
  -3   1   5 157562.00 2228.31  0. 1.0000     0. 
   3  -1  -5 154101.00 2448.91  0. 1.0000     0. 
  -3   1   4  11944.40  712.77  0. 1.0000     0. 
  -3   1   4  12435.20  687.60  0. 1.0000     0. 
   3  -1  -4  12344.30  566.57  0. 1.0000     0. 
   3  -1  -4  11277.80  587.07  0. 1.0000     0. 
   3  -1  -4  11757.10  695.50  0. 1.0000     0. 
  -3   1   4  13011.60  334.22  0. 1.0000     0. 
  -3   1   4  11056.70  244.30  0. 1.0000     0. 
   3  -1  -4  10968.50  269.45  0. 1.0000     0. 
  -3   1   4  11567.50  632.87  0. 1.0000     0. 
  -3   1   4  11403.00  584.75  0. 1.0000     0. 
  -3   1   4  10107.10  527.24  0. 1.0000     0. 
   3  -1  -4  11356.50  501.08  0. 1.0000     0. 
   3  -1  -4  11895.90  708.74  0. 1.0000     0. 
  -3   1   3 361524.97 3191.80  0. 1.0000     0. 
   3  -1  -3 356008.00 2373.99  0. 1.0000     0. 
   3  -1  -3 362133.03 3502.42  0. 1.0000     0. 
  -3   1   3 349334.03 3550.48  0. 1.0000     0. 
   3  -1  -2    235.95  267.37  0. 1.0000     0. 
   3  -1  -2    595.88  248.65  0. 1.0000     0. 
  -3   1   2    450.36  197.21  0. 1.0000     0. 
   3  -1  -2    472.23  291.87  0. 1.0000     0. 
   3  -1  -2    314.56  134.27  0. 1.0000     0. 
   3  -1  -2    408.26  123.78  0. 1.0000     0. 
   3  -1  -1 103968.99 1548.03  0. 1.0000     0. 
   3  -1  -1  99114.21 1351.03  0. 1.0000     0. 
  -3   1   0  16307.80  556.27  0. 1.0000     0. 
   3  -1   0  15370.30  774.87  0. 1.0000     0. 
   3  -1   2  84925.00 1852.24  0. 1.0000     0. 
   3  -1   2 116754.00 1847.89  0. 1.0000     0. 
   3  -1   3  57786.30 1572.44  0. 1.0000     0. 
   3  -1   3 161537.00 2319.33  0. 1.0000     0. 
   3  -1   4  11376.50  675.92  0. 1.0000     0. 
  -3   1  -4  11750.40  637.27  0. 1.0000     0. 
   3  -1   5  26124.90 1042.88  0. 1.0000     0. 
  -3   1  -5  34334.10 1124.41  0. 1.0000     0. 
   3   0 -13   1938.17  732.22  0. 1.0000     0. 
  -3   0  13   1762.87  627.44  0. 1.0000     0. 
  -3   0  13   1215.19  819.27  0. 1.0000     0. 
   3   0 -13   2729.14  562.59  0. 1.0000     0. 
   3   0 -12   2865.03  712.81  0. 1.0000     0. 
   3   0 -12    606.41  568.53  0. 1.0000     0. 
  -3   0  12   1057.71  578.12  0. 1.0000     0. 
  -3   0  12   3305.24  834.59  0. 1.0000     0. 
   3   0 -12   2728.84  537.96  0. 1.0000     0. 
  -3   0  12   3451.18  756.86  0. 1.0000     0. 
   3   0 -11   3202.77  853.64  0. 1.0000     0. 
  -3   0  11   3024.74  818.40  0. 1.0000     0. 
  -3   0  11   3370.59  651.52  0. 1.0000     0. 
  -3   0  11   5046.79  823.14  0. 1.0000     0. 
  -3   0  11   3442.73  650.36  0. 1.0000     0. 
   3   0 -11   4974.10  722.73  0. 1.0000     0. 
   3   0 -11   4122.17  646.34  0. 1.0000     0. 
  -3   0  10 144828.00 3206.28  0. 1.0000     0. 
  -3   0  10 130298.99 2426.40  0. 1.0000     0. 
  -3   0  10 169305.00 3147.54  0. 1.0000     0. 
  -3   0  10 148733.98 2840.84  0. 1.0000     0. 
   3   0 -10 154269.98 2927.83  0. 1.0000     0. 
  -3   0   9  53915.89 1946.90  0. 1.0000     0. 
  -3   0   9  57647.50 1659.75  0. 1.0000     0. 
   3   0  -9  43568.60 1693.75  0. 1.0000     0. 
  -3   0   9  46481.00 1383.30  0. 1.0000     0. 
  -3   0   9  43610.30 1206.31  0. 1.0000     0. 
  -3   0   9  53595.00 1624.96  0. 1.0000     0. 
  -3   0   9  52709.20 1617.30  0. 1.0000     0. 
   3   0  -9  55730.39 1638.05  0. 1.0000     0. 
  -3   0   8  57770.90 1839.32  0. 1.0000     0. 
  -3   0   8  59034.89 1584.34  0. 1.0000     0. 
  -3   0   8  61471.40 1324.83  0. 1.0000     0. 
   3   0  -8  56941.90 1344.86  0. 1.0000     0. 
  -3   0   8  57761.90 1610.27  0. 1.0000     0. 
  -3   0   8  57653.50 1584.95  0. 1.0000     0. 
   3   0  -8  58232.20 1519.30  0. 1.0000     0. 
  -3   0   7 149872.00 2756.93  0. 1.0000     0. 
  -3   0   7 143623.00 2311.48  0. 1.0000     0. 
   3   0  -7 149636.98 1580.86  0. 1.0000     0. 
   3   0  -7 170609.00 2843.61  0. 1.0000     0. 
   3   0  -7 157623.00 2250.20  0. 1.0000     0. 
  -3   0   7 160569.02 1951.99  0. 1.0000     0. 
  -3   0   7 152673.00 2406.28  0. 1.0000     0. 
  -3   0   7 141686.00 2332.63  0. 1.0000     0. 
   3   0  -7 152154.98 2364.54  0. 1.0000     0. 
  -3   0   6 180207.02 2553.55  0. 1.0000     0. 
  -3   0   6 154572.98 2684.32  0. 1.0000     0. 
   3   0  -6 192209.00 1882.30  0. 1.0000     0. 
   3   0  -6 185740.02 2288.21  0. 1.0000     0. 
   3   0  -6 208358.02 2995.80  0. 1.0000     0. 
  -3   0   6 187262.00 1925.12  0. 1.0000     0. 
  -3   0   6 198198.00 2713.01  0. 1.0000     0. 
  -3   0   6 164673.02 2219.75  0. 1.0000     0. 
   3   0  -6 188329.98 2419.30  0. 1.0000     0. 
   3   0  -5   2833.31  322.40  0. 1.0000     0. 
   3   0  -5   2141.12  271.54  0. 1.0000     0. 
  -3   0   5   2771.27  461.32  0. 1.0000     0. 
  -3   0   5   2347.32  366.31  0. 1.0000     0. 
   3   0  -5   2125.30  308.14  0. 1.0000     0. 
   3   0  -4 136408.00 2484.77  0. 1.0000     0. 
  -3   0   4 127186.01 1214.06  0. 1.0000     0. 
   4  -6  -3   1401.00  753.95  0. 1.0000     0. 
   4  -6  -2  93598.80 2829.30  0. 1.0000     0. 
   4  -6  -2 182808.00 3932.74  0. 1.0000     0. 
   4  -6  -1   4832.49  875.42  0. 1.0000     0. 
   4  -6  -1   5649.11  897.07  0. 1.0000     0. 
   4  -6   0   5080.68  930.03  0. 1.0000     0. 
   4  -6   0   6263.31  935.49  0. 1.0000     0. 
   4  -5  -8   -161.17  773.02  0. 1.0000     0. 
  -4   5   8    136.41  660.21  0. 1.0000     0. 
   4  -5  -8    -26.14  814.43  0. 1.0000     0. 
   4  -5  -7  14864.40 1416.58  0. 1.0000     0. 
  -4   5   7  18031.30 1451.83  0. 1.0000     0. 
   4  -5  -7  15025.60 1122.44  0. 1.0000     0. 
   4  -5  -7  16999.20 1538.73  0. 1.0000     0. 
   4  -5  -6    917.06  833.00  0. 1.0000     0. 
  -4   5   6   1182.50  644.89  0. 1.0000     0. 
   4  -5  -6   1958.79  658.87  0. 1.0000     0. 
   4  -5  -6   1378.64  555.97  0. 1.0000     0. 
   4  -5  -6   1632.38  873.70  0. 1.0000     0. 
   4  -5  -5  56755.50 1883.68  0. 1.0000     0. 
   4  -5  -5  71487.71 2619.10  0. 1.0000     0. 
  -4   5   5  87720.29 2835.22  0. 1.0000     0. 
   4  -5  -5  78556.90 2284.12  0. 1.0000     0. 
   4  -5  -5  64775.11 2079.33  0. 1.0000     0. 
   4  -5  -5  73401.11 2684.30  0. 1.0000     0. 
   4  -5  -4  27909.80 1348.55  0. 1.0000     0. 
   4  -5  -4  27729.90 1354.93  0. 1.0000     0. 
   4  -5  -4  28229.80 1722.31  0. 1.0000     0. 
   4  -5  -3   9318.65  871.03  0. 1.0000     0. 
   4  -5  -3   9152.26  877.10  0. 1.0000     0. 
   4  -5  -3   7352.83 1088.98  0. 1.0000     0. 
   4  -5  -2  34490.61 1544.61  0. 1.0000     0. 
   4  -5  -2  37404.10 1562.57  0. 1.0000     0. 
   4  -5  -2  34994.50 1822.78  0. 1.0000     0. 
   4  -5  -1  29206.40 1484.39  0. 1.0000     0. 
   4  -5  -1  25984.40 1335.61  0. 1.0000     0. 
   4  -5  -1  30088.30 1732.70  0. 1.0000     0. 
   4  -5   0  21502.50 1344.19  0. 1.0000     0. 
   4  -5   0  19666.30 1184.04  0. 1.0000     0. 
   4  -5   0  22257.30 1515.28  0. 1.0000     0. 
   4  -5   1 124064.00 2782.67  0. 1.0000     0. 
   4  -5   1 127251.01 3238.62  0. 1.0000     0. 
   4  -5   2   2548.32  727.98  0. 1.0000     0. 
   4  -5   2   3685.29  696.79  0. 1.0000     0. 
   4  -5   2   1214.30  811.45  0. 1.0000     0. 
   4  -5   3   8118.32  971.94  0. 1.0000     0. 
   4  -5   3   8629.56  908.05  0. 1.0000     0. 
   4  -5   4     13.73  631.02  0. 1.0000     0. 
   4  -5   4    700.57  571.62  0. 1.0000     0. 
   4  -5   4   -197.49  724.53  0. 1.0000     0. 
   4  -5   5  99484.61 2973.76  0. 1.0000     0. 
   4  -5   5 103565.99 2789.77  0. 1.0000     0. 
  -4   4  10  52703.50 2473.09  0. 1.0000     0. 
   4  -4 -10  51325.40 2350.68  0. 1.0000     0. 
   4  -4 -10  48954.70 1887.16  0. 1.0000     0. 
  -4   4   9   9072.81 1148.45  0. 1.0000     0. 
   4  -4  -9   8593.25 1151.05  0. 1.0000     0. 
  -4   4   9   7265.86  934.71  0. 1.0000     0. 
   4  -4  -9   8638.21  903.22  0. 1.0000     0. 
  -4   4   9   7416.53  891.68  0. 1.0000     0. 
   4  -4  -9   8931.60 1176.22  0. 1.0000     0. 
  -4   4   8  55191.90 2220.15  0. 1.0000     0. 
   4  -4  -8  53549.39 2279.85  0. 1.0000     0. 
  -4   4   8  54480.80 1974.39  0. 1.0000     0. 
   4  -4  -8  52870.40 1839.58  0. 1.0000     0. 
  -4   4   8  46339.50 1702.54  0. 1.0000     0. 
   4  -4  -8  50633.90 2216.92  0. 1.0000     0. 
  -4   4   7  20597.30 1374.21  0. 1.0000     0. 
   4  -4  -7  18320.40 1382.28  0. 1.0000     0. 
   4  -4  -7  21097.20 1122.08  0. 1.0000     0. 
  -4   4   7  22516.10 1284.16  0. 1.0000     0. 
   4  -4  -7  18645.20 1164.63  0. 1.0000     0. 
   4  -4  -7  19832.50 1471.94  0. 1.0000     0. 
  -4   4   6  51770.20 1937.10  0. 1.0000     0. 
   4  -4  -6  51669.50 2126.96  0. 1.0000     0. 
   4  -4  -6  50977.89 1629.99  0. 1.0000     0. 
   4  -4  -6  51883.30 1741.62  0. 1.0000     0. 
   4  -4  -6  47553.70 2057.31  0. 1.0000     0. 
   4  -4  -5  11187.40  839.79  0. 1.0000     0. 
  -4   4   5  11399.70  979.00  0. 1.0000     0. 
   4  -4  -5  11524.90 1122.73  0. 1.0000     0. 
   4  -4  -5  10452.70  822.88  0. 1.0000     0. 
  -4   4   5  10917.40  863.48  0. 1.0000     0. 
   4  -4  -5  11778.40  925.22  0. 1.0000     0. 
   4  -4  -5  10090.10 1100.31  0. 1.0000     0. 
   4  -4  -4   1682.95  616.49  0. 1.0000     0. 
  -4   4   4   2171.06  796.78  0. 1.0000     0. 
   4  -4  -4    693.36  455.00  0. 1.0000     0. 
   4  -4  -4    944.14  570.37  0. 1.0000     0. 
   4  -4  -3    929.38  444.07  0. 1.0000     0. 
  -4   4   3   1071.81  499.01  0. 1.0000     0. 
   4  -4  -3   1535.20  486.32  0. 1.0000     0. 
   4  -4  -3   1435.42  453.04  0. 1.0000     0. 
   4  -4  -3   1141.41  651.86  0. 1.0000     0. 
   4  -4  -2 189952.98 3118.30  0. 1.0000     0. 
  -4   4   2 205412.98 3143.67  0. 1.0000     0. 
   4  -4  -2 191404.00 3069.11  0. 1.0000     0. 
   4  -4  -2 201687.00 3049.92  0. 1.0000     0. 
   4  -4  -2 181777.02 3556.75  0. 1.0000     0. 
   4  -4  -1   5837.13  665.48  0. 1.0000     0. 
  -4   4   1   7111.69  657.33  0. 1.0000     0. 
   4  -4  -1   6719.03  693.97  0. 1.0000     0. 
   4  -4  -1   3302.29  776.50  0. 1.0000     0. 
   4  -4  -1   4016.43  523.43  0. 1.0000     0. 
   4  -4  -1   6767.89  895.52  0. 1.0000     0. 
  -4   4   1   5723.26  588.95  0. 1.0000     0. 
  -4   4   1   6498.64  571.63  0. 1.0000     0. 
   4  -4   0  56520.00 1783.16  0. 1.0000     0. 
   4  -4   0  59431.70 1756.39  0. 1.0000     0. 
   4  -4   0  58841.30 2043.53  0. 1.0000     0. 
  -4   4   0  58948.00 1755.36  0. 1.0000     0. 
   4  -4   1   1290.72  499.67  0. 1.0000     0. 
   4  -4   1    709.51  461.19  0. 1.0000     0. 
   4  -4   1    972.01  413.56  0. 1.0000     0. 
   4  -4   2 165263.00 3086.69  0. 1.0000     0. 
   4  -4   2 171155.00 3026.88  0. 1.0000     0. 
   4  -4   3   4387.34  700.81  0. 1.0000     0. 
   4  -4   3   4714.69  677.26  0. 1.0000     0. 
   4  -4   3   5247.18  658.54  0. 1.0000     0. 
   4  -4   4  31749.60 1495.57  0. 1.0000     0. 
   4  -4   4  34521.30 1431.69  0. 1.0000     0. 
   4  -4   5  49668.10 1905.04  0. 1.0000     0. 
   4  -4   5  45726.61 1663.24  0. 1.0000     0. 
   4  -4   6  21722.30 1388.90  0. 1.0000     0. 
   4  -4   6  23288.30 1435.62  0. 1.0000     0. 
   4  -4   7  17365.80 1411.39  0. 1.0000     0. 
   4  -4   7  21844.40 1457.68  0. 1.0000     0. 
   4  -4   8   3207.90  699.61  0. 1.0000     0. 
   4  -4   8  25903.70 1647.36  0. 1.0000     0. 
  -4   3  11   8083.36 1166.17  0. 1.0000     0. 
  -4   3  11   9499.60 1105.29  0. 1.0000     0. 
   4  -3 -11   8752.29  906.65  0. 1.0000     0. 
  -4   3  11   8491.82 1010.91  0. 1.0000     0. 
   4  -3 -11   9387.39 1224.96  0. 1.0000     0. 
  -4   3  10  14732.10 1293.77  0. 1.0000     0. 
   4  -3 -10  15055.20 1334.10  0. 1.0000     0. 
  -4   3  10  16313.20 1238.66  0. 1.0000     0. 
   4  -3 -10  15179.70 1082.19  0. 1.0000     0. 
  -4   3  10  16009.40 1175.91  0. 1.0000     0. 
   4  -3 -10  15279.20 1352.66  0. 1.0000     0. 
  -4   3   9 150719.02 3486.68  0. 1.0000     0. 
   4  -3  -9 148949.00 3547.90  0. 1.0000     0. 
  -4   3   9 161489.00 3331.75  0. 1.0000     0. 
  -4   3   9 147202.00 3035.54  0. 1.0000     0. 
   4  -3  -9 150127.98 3501.75  0. 1.0000     0. 
  -4   3   8   1627.42  676.11  0. 1.0000     0. 
   4  -3  -8   1651.28  709.63  0. 1.0000     0. 
   4  -3  -8   1823.97  466.17  0. 1.0000     0. 
  -4   3   8   2337.02  668.58  0. 1.0000     0. 
   4  -3  -8   2642.48  619.16  0. 1.0000     0. 
  -4   3   8   2305.44  614.08  0. 1.0000     0. 
   4  -3  -8   1278.37  699.05  0. 1.0000     0. 
  -4   3   7   2659.96  697.57  0. 1.0000     0. 
   4  -3  -7   2358.42  702.63  0. 1.0000     0. 
   4  -3  -7   2341.62  463.46  0. 1.0000     0. 
  -4   3   7   2332.41  603.21  0. 1.0000     0. 
   4  -3  -7   2645.77  541.96  0. 1.0000     0. 
  -4   3   7   2250.19  501.81  0. 1.0000     0. 
   4  -3  -7   2643.47  724.48  0. 1.0000     0. 
  -4   3   6  32809.61 1512.53  0. 1.0000     0. 
   4  -3  -6  28700.90 1094.48  0. 1.0000     0. 
   4  -3  -6  29740.20 1507.50  0. 1.0000     0. 
   4  -3  -6  32690.50 1338.98  0. 1.0000     0. 
  -4   3   6  30325.80 1280.52  0. 1.0000     0. 
   4  -3  -6  29008.80 1506.27  0. 1.0000     0. 
  -4   3   5 133238.98 2804.65  0. 1.0000     0. 
   4  -3  -5 122515.00 2257.04  0. 1.0000     0. 
   4  -3  -5 140183.02 2955.71  0. 1.0000     0. 
   4  -3  -5 125153.01 2494.19  0. 1.0000     0. 
  -4   3   5 135539.00 2463.23  0. 1.0000     0. 
   4  -3  -5 122942.00 2830.36  0. 1.0000     0. 
  -4   3   4  34651.61 1214.42  0. 1.0000     0. 
   4  -3  -4  36189.50 1273.64  0. 1.0000     0. 
   4  -3  -4  40080.20 1384.81  0. 1.0000     0. 
  -4   3   4  40760.20 1426.15  0. 1.0000     0. 
   4  -3  -4  35971.70 1558.71  0. 1.0000     0. 
  -4   3   3 181181.02 2485.74  0. 1.0000     0. 
   4  -3  -3 180608.02 2829.74  0. 1.0000     0. 
  -4   3   3 177422.00 1972.92  0. 1.0000     0. 
  -4   3   2  21271.50  799.19  0. 1.0000     0. 
   4  -3  -2  19813.30 1012.23  0. 1.0000     0. 
  -4   3   2  20462.40  759.83  0. 1.0000     0. 
   4  -3  -2  19019.70  955.26  0. 1.0000     0. 
   4  -3  -2  22250.50 1013.83  0. 1.0000     0. 
   4  -3  -2  18492.10 1146.40  0. 1.0000     0. 
   4  -3  -1  95161.20 2048.23  0. 1.0000     0. 
   4  -3  -1  92723.09 2027.78  0. 1.0000     0. 
  -4   3   1  95897.90 2463.22  0. 1.0000     0. 
  -4   3   1  94868.10 1691.85  0. 1.0000     0. 
   4  -3  -1  84886.00 1472.53  0. 1.0000     0. 
   4  -3  -1 106269.00 2028.45  0. 1.0000     0. 
  -4   3   1  98972.40 1982.68  0. 1.0000     0. 
   4  -3  -1  95015.99 2344.90  0. 1.0000     0. 
   4  -3   0  40435.30 1366.55  0. 1.0000     0. 
  -4   3   0  44695.50 1680.13  0. 1.0000     0. 
   4  -3   0  42450.10 1381.05  0. 1.0000     0. 
  -4   3   0  47047.40 1276.16  0. 1.0000     0. 
   4  -3   0  35981.30 1178.00  0. 1.0000     0. 
  -4   3   0  43922.10 1271.84  0. 1.0000     0. 
   4  -3   0  46165.70 1671.24  0. 1.0000     0. 
  -4   3   0  33811.30 1178.42  0. 1.0000     0. 
   4  -3   1 174573.98 2820.34  0. 1.0000     0. 
   4  -3   1 194511.02 2915.00  0. 1.0000     0. 
  -4   3  -1 193196.02 3405.70  0. 1.0000     0. 
   4  -3   1 239634.00 3042.09  0. 1.0000     0. 
  -4   3  -1 164986.00 2303.80  0. 1.0000     0. 
   4  -3   1  27769.80 1050.47  0. 1.0000     0. 
  -4   3  -1 188148.02 2613.92  0. 1.0000     0. 
  -4   3  -1 177087.98 2745.83  0. 1.0000     0. 
   4  -3   2  14679.80  909.33  0. 1.0000     0. 
   4  -3   2  14880.90  882.57  0. 1.0000     0. 
  -4   3  -2  14957.90 1023.10  0. 1.0000     0. 
  -4   3  -2  14843.40  882.84  0. 1.0000     0. 
   4  -3   3  41770.30 1485.87  0. 1.0000     0. 
   4  -3   3  43341.60 1441.80  0. 1.0000     0. 
  -4   3  -3  43196.80 1660.48  0. 1.0000     0. 
   4  -3   4   2822.06  588.63  0. 1.0000     0. 
   4  -3   4   3068.32  536.65  0. 1.0000     0. 
  -4   3  -4   2798.25  617.18  0. 1.0000     0. 
   4  -3   5 150347.02 3277.85  0. 1.0000     0. 
   4  -3   5 102584.01 2334.20  0. 1.0000     0. 
   4  -3   6   1732.80  535.51  0. 1.0000     0. 
   4  -3   6    938.11  441.93  0. 1.0000     0. 
   4  -3   7    207.30  553.89  0. 1.0000     0. 
   4  -2 -11   1701.09  813.33  0. 1.0000     0. 
  -4   2  11   1643.86  755.87  0. 1.0000     0. 
  -4   2  11   1490.74  719.48  0. 1.0000     0. 
   4  -2 -11   1360.49  563.70  0. 1.0000     0. 
  -4   2  11   1677.05  699.68  0. 1.0000     0. 
   4  -2 -11   1009.83  781.87  0. 1.0000     0. 
  -4   2  10  16283.30 1306.97  0. 1.0000     0. 
   4  -2 -10    -52.01  676.15  0. 1.0000     0. 
   4  -2 -10  17216.70 1092.26  0. 1.0000     0. 
  -4   2  10  16144.60 1148.38  0. 1.0000     0. 
  -4   2  10  13754.60 1039.89  0. 1.0000     0. 
   4  -2 -10   1049.03  856.98  0. 1.0000     0. 
  -4   2   9  32620.70 1680.49  0. 1.0000     0. 
  -4   2   9  31912.80 1458.63  0. 1.0000     0. 
  -4   2   9  27700.30 1306.44  0. 1.0000     0. 
  -4   2   8  71769.20 2304.16  0. 1.0000     0. 
   4  -2  -8  63659.39 1487.89  0. 1.0000     0. 
  -4   2   8  68310.80 1969.17  0. 1.0000     0. 
  -4   2   8  62473.70 1742.36  0. 1.0000     0. 
   4  -2  -8  69443.40 2199.94  0. 1.0000     0. 
  -4   2   7 167242.02 3117.07  0. 1.0000     0. 
   4  -2  -7 167498.00 2410.50  0. 1.0000     0. 
  -4   2   7 166098.02 2878.48  0. 1.0000     0. 
   4  -2  -7 172409.00 3302.66  0. 1.0000     0. 
  -4   2   6 129903.01 2575.13  0. 1.0000     0. 
   4  -2  -6 140185.00 2292.66  0. 1.0000     0. 
  -4   2   6 145429.98 2676.80  0. 1.0000     0. 
   4  -2  -6 128248.99 2752.84  0. 1.0000     0. 
  -4   2   5  23177.00 1087.52  0. 1.0000     0. 
   4  -2  -5  23825.60  935.25  0. 1.0000     0. 
  -4   2   5  25667.80 1129.64  0. 1.0000     0. 
   4  -2  -5  23271.40 1222.15  0. 1.0000     0. 
  -4   2   4  51853.00 1474.54  0. 1.0000     0. 
  -4   2   4  44401.60 1545.56  0. 1.0000     0. 
  -4   2   4  46232.50  770.04  0. 1.0000     0. 
   4  -2  -4  51265.50 1325.99  0. 1.0000     0. 
   4  -2  -4  46005.50 1608.72  0. 1.0000     0. 
   4  -2  -4  52604.40 1440.71  0. 1.0000     0. 
   4  -2  -4  47221.50 1654.21  0. 1.0000     0. 
  -4   2   3  12914.20  728.97  0. 1.0000     0. 
  -4   2   3  11183.10  827.63  0. 1.0000     0. 
   4  -2  -3  12842.90  734.95  0. 1.0000     0. 
   4  -2  -3  12830.60  709.86  0. 1.0000     0. 
  -4   2   3  12275.20  714.19  0. 1.0000     0. 
  -4   2   3  12477.70  468.84  0. 1.0000     0. 
   4  -2  -3  12026.30  897.41  0. 1.0000     0. 
  -4   2   2 557466.00 4148.15  0. 1.0000     0. 
  -4   2   2 523610.00 5240.87  0. 1.0000     0. 
   4  -2  -2 552382.00 4486.38  0. 1.0000     0. 
   4  -2  -2 556008.00 4463.16  0. 1.0000     0. 
  -4   2   2 556729.00 4429.80  0. 1.0000     0. 
   4  -2  -2 531832.00 5106.68  0. 1.0000     0. 
   4  -2  -1    142.07  204.65  0. 1.0000     0. 
   4  -2  -1    892.66  329.58  0. 1.0000     0. 
  -4   2   1    956.74  239.19  0. 1.0000     0. 
  -4   2   1    900.96  300.85  0. 1.0000     0. 
  -4   2   1    742.41  328.89  0. 1.0000     0. 
   4  -2  -1    820.38  275.98  0. 1.0000     0. 
   4  -2  -1   1028.38  268.45  0. 1.0000     0. 
   4  -2   0   1453.95  360.34  0. 1.0000     0. 
   4  -2   0   2071.54  413.93  0. 1.0000     0. 
  -4   2   0   2066.90  436.32  0. 1.0000     0. 
   4  -2   0   1975.74  332.92  0. 1.0000     0. 
   4  -2   0   1221.17  537.92  0. 1.0000     0. 
  -4   2   0   1853.42  286.77  0. 1.0000     0. 
   4  -2   0   1799.66  326.97  0. 1.0000     0. 
   4  -2   1   2256.98  540.03  0. 1.0000     0. 
   4  -2   1    972.07  379.47  0. 1.0000     0. 
   4  -2   1   1649.41  321.75  0. 1.0000     0. 
   4  -2   1   1295.53  319.28  0. 1.0000     0. 
  -4   2  -2 207895.00 3127.76  0. 1.0000     0. 
   4  -2   2 137305.02 2475.88  0. 1.0000     0. 
   4  -2   2 108750.00 2394.65  0. 1.0000     0. 
   4  -2   2 140814.00 2139.29  0. 1.0000     0. 
   4  -2   2 198331.00 2770.96  0. 1.0000     0. 
  -4   2  -2 208560.98 2664.12  0. 1.0000     0. 
  -4   2  -3  97125.60 2153.41  0. 1.0000     0. 
   4  -2   3  32906.80 1260.20  0. 1.0000     0. 
   4  -2   3  35850.90 1489.53  0. 1.0000     0. 
   4  -2   3  35589.30 1051.33  0. 1.0000     0. 
   4  -2   3  76928.00 1853.38  0. 1.0000     0. 
  -4   2  -3  98739.10 1946.15  0. 1.0000     0. 
   4  -2   4  14884.90  981.09  0. 1.0000     0. 
   4  -2   4  16131.60  695.00  0. 1.0000     0. 
  -4   1  12   1901.43  900.10  0. 1.0000     0. 
   4  -1 -12   1235.04  542.99  0. 1.0000     0. 
   4  -1 -11   8409.46 1230.18  0. 1.0000     0. 
  -4   1  11   1697.38  636.67  0. 1.0000     0. 
   4  -1 -10  28330.50 1847.97  0. 1.0000     0. 
  -4   1  10  27163.20 1497.90  0. 1.0000     0. 
  -4   1   9 196338.00 3824.51  0. 1.0000     0. 
  -4   1   9 248442.02 4046.74  0. 1.0000     0. 
  -4   1   9 189363.98 3006.45  0. 1.0000     0. 
   4  -1  -9  66308.20 1901.07  0. 1.0000     0. 
  -4   1   8    255.00  506.05  0. 1.0000     0. 
   4  -1  -8   -192.77  613.30  0. 1.0000     0. 
   4  -1  -8     89.45  238.22  0. 1.0000     0. 
  -4   1   8   -322.30  584.87  0. 1.0000     0. 
  -4   1   8    402.43  392.41  0. 1.0000     0. 
   4  -1  -8    117.94  343.39  0. 1.0000     0. 
  -4   1   7  40264.50 1562.11  0. 1.0000     0. 
  -4   1   7  46522.40 1672.22  0. 1.0000     0. 
   4  -1  -7  34291.00 1015.85  0. 1.0000     0. 
   4  -1  -7   1007.54  720.27  0. 1.0000     0. 
  -4   1   7  53722.40 1731.31  0. 1.0000     0. 
   4  -1  -7  15786.60 1136.18  0. 1.0000     0. 
   4  -1  -7  26965.70 1024.43  0. 1.0000     0. 
  -4   1   6   1662.50  464.39  0. 1.0000     0. 
   4  -1  -6    862.50  545.18  0. 1.0000     0. 
   4  -1  -6   2185.97  349.44  0. 1.0000     0. 
  -4   1   6   2687.41  529.30  0. 1.0000     0. 
  -4   1   6   1174.41  489.27  0. 1.0000     0. 
   4  -1  -6   1852.23  367.90  0. 1.0000     0. 
   4  -1  -6    969.55  533.19  0. 1.0000     0. 
   4  -1  -6   1712.21  330.30  0. 1.0000     0. 
  -4   1   5 262824.00 3586.77  0. 1.0000     0. 
   4  -1  -5 209818.02 2619.41  0. 1.0000     0. 
   4  -1  -5 170114.00 2620.27  0. 1.0000     0. 
   4  -1  -5 293281.03 4512.13  0. 1.0000     0. 
  -4   1   5 258561.02 2957.93  0. 1.0000     0. 
   4  -1  -5 160327.00 2175.54  0. 1.0000     0. 
   4  -1  -5 209461.00 3476.07  0. 1.0000     0. 
   4  -1  -4    226.94  129.24  0. 1.0000     0. 
   4  -1  -3    192.95  255.74  0. 1.0000     0. 
   4  -1  -3     87.38  172.22  0. 1.0000     0. 
   4  -1  -3    -43.81  374.32  0. 1.0000     0. 
   5  -5  -3   1364.17  576.46  0. 1.0000     0. 
   5  -5  -3   2897.84  687.92  0. 1.0000     0. 
   5  -5  -2   4037.90  831.68  0. 1.0000     0. 
   5  -5  -2   6083.32  862.85  0. 1.0000     0. 
   5  -5  -1 102024.00 3282.07  0. 1.0000     0. 
   5  -5  -1 105236.01 2876.61  0. 1.0000     0. 
   5  -5   0   7719.12 1116.13  0. 1.0000     0. 
   5  -5   0   7058.16  919.16  0. 1.0000     0. 
   5  -5   1    654.41  736.63  0. 1.0000     0. 
   5  -5   1   1032.70  657.38  0. 1.0000     0. 
  -5   4   7  12608.80 1240.07  0. 1.0000     0. 
   5  -4  -7   9363.67  873.27  0. 1.0000     0. 
   5  -4  -7   8537.06  940.50  0. 1.0000     0. 
   5  -4  -7  10932.30 1369.91  0. 1.0000     0. 
  -5   4   6  12086.10 1140.57  0. 1.0000     0. 
   5  -4  -6  14843.30 1728.33  0. 1.0000     0. 
   5  -4  -6  12399.20  977.77  0. 1.0000     0. 
   5  -4  -6  11854.90 1338.94  0. 1.0000     0. 
   5  -4  -5   4076.70 1167.54  0. 1.0000     0. 
  -5   4   5   5062.92  862.13  0. 1.0000     0. 
   5  -4  -5   4256.97  672.37  0. 1.0000     0. 
   5  -4  -5   1826.43  566.43  0. 1.0000     0. 
   5  -4  -5   4331.53  960.60  0. 1.0000     0. 
   5  -4  -4  59720.00 1931.43  0. 1.0000     0. 
   5  -4  -4  55543.30 2348.28  0. 1.0000     0. 
  -5   4   3   8033.51  900.15  0. 1.0000     0. 
   5  -4  -3   7337.80  800.66  0. 1.0000     0. 
   5  -4  -2    215.85  295.93  0. 1.0000     0. 
  -5   4   2   1266.29  575.66  0. 1.0000     0. 
   5  -4  -2    826.98  499.40  0. 1.0000     0. 
   5  -4  -1  24280.40 1313.53  0. 1.0000     0. 
   5  -4  -1  20773.30 1591.64  0. 1.0000     0. 
   5  -4   0  83946.09 2721.62  0. 1.0000     0. 
   5  -4   0 159163.02 3228.45  0. 1.0000     0. 
   5  -4   1   1754.18  570.99  0. 1.0000     0. 
   5  -4   1   3861.96  712.65  0. 1.0000     0. 
   5  -4   2  26232.80 1603.93  0. 1.0000     0. 
   5  -4   2  26041.80 1399.01  0. 1.0000     0. 
   5  -4   3   3948.40  743.66  0. 1.0000     0. 
   5  -4   3   3246.29  671.49  0. 1.0000     0. 
   5  -4   4   1028.56  482.30  0. 1.0000     0. 
   5  -3  -9    419.03 1062.77  0. 1.0000     0. 
  -5   3   9    441.64  693.57  0. 1.0000     0. 
   5  -3  -9    263.40  598.66  0. 1.0000     0. 
   5  -3  -9    361.06  857.55  0. 1.0000     0. 
   5  -3  -8   2740.04 1108.45  0. 1.0000     0. 
  -5   3   8   2448.47  799.94  0. 1.0000     0. 
   5  -3  -8    748.42  548.55  0. 1.0000     0. 
   5  -3  -8   1110.48  859.73  0. 1.0000     0. 
  -5   3   7  91977.80 2840.91  0. 1.0000     0. 
   5  -3  -7  89581.80 3416.94  0. 1.0000     0. 
   5  -3  -7  19750.10 1061.67  0. 1.0000     0. 
   5  -3  -7  37444.40 1635.81  0. 1.0000     0. 
   5  -3  -6  11539.00  854.17  0. 1.0000     0. 
   5  -3  -6  14955.90 1536.33  0. 1.0000     0. 
   5  -3  -5  76630.80 2040.86  0. 1.0000     0. 
   5  -3  -5  26045.40 1306.03  0. 1.0000     0. 
  -5   3   4  15992.20  961.52  0. 1.0000     0. 
   5  -3  -4  13057.70  930.29  0. 1.0000     0. 
   5  -3  -3  45731.00 1599.03  0. 1.0000     0. 
   5  -3  -3    427.98  893.90  0. 1.0000     0. 
   5  -3  -2   5051.97  647.08  0. 1.0000     0. 
   5  -3  -2   5106.18  929.13  0. 1.0000     0. 
   5  -3  -1  44367.90 1577.88  0. 1.0000     0. 
   5  -3   0   2235.12  532.78  0. 1.0000     0. 
   5  -3   1   1647.73  480.03  0. 1.0000     0. 
-512 
#   3200 reflections output 
;
loop_
_symmetry_equiv_pos_as_xyz
x,y,z
-x,-y,-z
loop_
_atom_site_label
_atom_site_type_symbol
_atom_site_fract_x
_atom_site_fract_y
_atom_site_fract_z
_atom_site_U_iso_or_equiv
_atom_site_occupancy
_atom_site_adp_type
_atom_site_refinement_flags_posn
_atom_site_refinement_flags_adp
_atom_site_refinement_flags_occupancy
_atom_site_disorder_assembly
_atom_site_disorder_group
_atom_site_attached_hydrogens
Cu1 Cu 0.5000 1.0000 0.5000 0.0393 1.0000 Uani S . . . . .
Cu2 Cu 0.5000 0.5000 1.0000 0.0362 1.0000 Uani S . . . . .
S1 S 0.1248(6) 0.9857(6) 0.78627(14) 0.0337 1.0000 Uani . . . . . .
O1 O 0.359(2) 0.821(2) 0.4267(6) 0.0275(12) 1.0000 Uiso . . . . . .
O3 O 0.1740(17) 1.0940(16) 0.6508(4) 0.0182(10) 1.0000 Uiso . . . . . .
O6 O 0.2983(17) 0.7559(16) 0.8176(4) 0.0215(11) 1.0000 Uiso . . . . . .
O7 O 0.793(2) 0.5286(19) 0.9065(5) 0.0321(13) 1.0000 Uiso . . . . . .
O8 O 0.519(2) 0.245(2) 0.9155(5) 0.0393(15) 1.0000 Uiso . . . . . .
O4 O 0.132(2) 1.136(2) 0.8718(5) 0.0276(12) 1.0000 Uiso . . . . . .
O5 O -0.116(2) 0.9537(18) 0.8018(5) 0.0275(12) 1.0000 Uiso . . . . . .
O2 O 0.6491(16) 0.7084(15) 0.6174(4) 0.0218(11) 1.0000 Uiso . . . . . .
O9 O 1.1356(19) 0.5705(18) 0.6230(5) 0.0292(13) 1.0000 Uiso . . . . . .
H81 H 0.4000 0.2114 0.9020 0.0578 1.0000 Uiso . . . . . .
H82 H 0.6337 0.1542 0.8802 0.0578 1.0000 Uiso . . . . . .
H71 H 0.8980 0.4060 0.8956 0.0476 1.0000 Uiso . . . . . .
H72 H 0.8197 0.6570 0.8747 0.0476 1.0000 Uiso . . . . . .
H11 H 0.2878 0.8877 0.3597 0.0416 1.0000 Uiso . . . . . .
H12 H 0.2907 0.7449 0.4868 0.0416 1.0000 Uiso . . . . . .
H21 H 0.5433 0.7229 0.6779 0.0318 1.0000 Uiso . . . . . .
H22 H 0.7969 0.6666 0.6190 0.0318 1.0000 Uiso . . . . . .
H91 H 1.1470 0.4277 0.6312 0.0438 1.0000 Uiso . . . . . .
H92 H 1.1819 0.6234 0.6781 0.0438 1.0000 Uiso . . . . . .
loop_
_atom_site_aniso_label
_atom_site_aniso_U_11
_atom_site_aniso_U_22
_atom_site_aniso_U_33
_atom_site_aniso_U_23
_atom_site_aniso_U_13
_atom_site_aniso_U_12
Cu1 0.050(4) 0.029(3) 0.0168(7) 0.0021(11) 0.0034(11) 0.016(3)
Cu2 0.043(4) 0.028(3) 0.0184(6) -0.0016(10) 0.0073(11) 0.014(3)
S1 0.039(5) 0.027(4) 0.0150(7) 0.0000(12) 0.0031(14) 0.016(4)
loop_
_atom_type_symbol
_atom_type_scat_dispersion_real
_atom_type_scat_dispersion_imag
_atom_type_scat_Cromer_Mann_a1
_atom_type_scat_Cromer_Mann_b1
_atom_type_scat_Cromer_Mann_a2
_atom_type_scat_Cromer_Mann_b2
_atom_type_scat_Cromer_Mann_a3
_atom_type_scat_Cromer_Mann_b3
_atom_type_scat_Cromer_Mann_a4
_atom_type_scat_Cromer_Mann_b4
_atom_type_scat_Cromer_Mann_c
_atom_type_scat_source
H 0.0000 0.0000 0.4930 10.5109 0.3229 26.1257 0.1402 3.1424 0.0408 57.7998
0.0030 'International Tables Vol C 4.2.6.8 and 6.1.1.4'
O 0.0106 0.0060 3.0485 13.2771 2.2868 5.7011 1.5463 0.3239 0.8670 32.9089 0.2508
'International Tables Vol C 4.2.6.8 and 6.1.1.4'
S 0.1246 0.1234 6.9053 1.4679 5.2034 22.2151 1.4379 0.2536 1.5863 56.1720 0.8669
'International Tables Vol C 4.2.6.8 and 6.1.1.4'
Cu 0.3201 1.2651 13.3380 3.5828 7.1676 0.2470 5.6158 11.3966 1.6735 64.8126
1.1910 'International Tables Vol C 4.2.6.8 and 6.1.1.4'
loop_
_geom_angle_atom_site_label_1
_geom_angle_site_symmetry_1
_geom_angle_atom_site_label_2
_geom_angle_site_symmetry_2
_geom_angle_atom_site_label_3
_geom_angle_site_symmetry_3
_geom_angle
_geom_angle_publ_flag
O3 2_676 Cu1 . O2 2_676 91.93(19) yes
O3 2_676 Cu1 . O1 2_676 92.8(5) yes
O2 2_676 Cu1 . O1 2_676 87.7(4) yes
O3 2_676 Cu1 . O1 . 87.2(5) yes
O2 2_676 Cu1 . O1 . 92.3(4) yes
O1 2_676 Cu1 . O1 . 179.99 yes
O3 2_676 Cu1 . O3 . 180.00 yes
O2 2_676 Cu1 . O3 . 88.07(19) yes
O1 2_676 Cu1 . O3 . 87.2(5) yes
O1 . Cu1 . O3 . 92.8(5) yes
O3 2_676 Cu1 . O2 . 88.07(19) yes
O2 2_676 Cu1 . O2 . 179.99 yes
O1 2_676 Cu1 . O2 . 92.3(4) yes
O1 . Cu1 . O2 . 87.7(4) yes
O3 . Cu1 . O2 . 91.93(19) yes
O6 2_667 Cu2 . O8 2_667 86.8(3) yes
O6 2_667 Cu2 . O7 2_667 88.1(3) yes
O8 2_667 Cu2 . O7 2_667 88.4(6) yes
O6 2_667 Cu2 . O6 . 180.00 yes
O8 2_667 Cu2 . O6 . 93.2(3) yes
O7 2_667 Cu2 . O6 . 91.9(3) yes
O6 2_667 Cu2 . O7 . 91.9(3) yes
O8 2_667 Cu2 . O7 . 91.6(6) yes
O7 2_667 Cu2 . O7 . 179.99 yes
O6 . Cu2 . O7 . 88.1(3) yes
O6 2_667 Cu2 . O8 . 93.2(3) yes
O8 2_667 Cu2 . O8 . 179.99 yes
O7 2_667 Cu2 . O8 . 91.6(6) yes
O6 . Cu2 . O8 . 86.8(3) yes
O7 . Cu2 . O8 . 88.4(6) yes
O3 . S1 . O6 . 109.2(3) yes
O3 . S1 . O4 . 110.2(7) yes
O6 . S1 . O4 . 111.0(6) yes
O3 . S1 . O5 . 109.1(6) yes
O6 . S1 . O5 . 109.2(7) yes
O4 . S1 . O5 . 108.1(6) yes
Cu1 . O1 . H11 . 117.3 no
Cu1 . O1 . H12 . 108.1 no
H11 . O1 . H12 . 118.2 no
Cu1 . O3 . S1 . 132.3(3) yes
Cu2 . O6 . S1 . 139.6(4) yes
Cu2 . O7 . H71 . 118.5 no
Cu2 . O7 . H72 . 123.4 no
H71 . O7 . H72 . 118.1 no
Cu2 . O8 . H81 . 122.3 no
Cu2 . O8 . H82 . 132.2 no
H81 . O8 . H82 . 105.3 no
Cu1 . O2 . H21 . 96.6 no
Cu1 . O2 . H22 . 118.6 no
H21 . O2 . H22 . 130.3 no
H91 . O9 . H92 . 122.1 no
loop_
_geom_bond_atom_site_label_1
_geom_bond_site_symmetry_1
_geom_bond_atom_site_label_2
_geom_bond_site_symmetry_2
_geom_bond_distance
_geom_bond_publ_flag
Cu1 . O3 2_676 2.363(6) yes
Cu1 . O2 2_676 1.972(4) yes
Cu1 . O1 2_676 1.90(2) yes
Cu1 . O1 . 1.90(2) yes
Cu1 . O3 . 2.363(6) yes
Cu1 . O2 . 1.972(4) yes
Cu2 . O6 2_667 2.412(5) yes
Cu2 . O8 2_667 1.932(16) yes
Cu2 . O7 2_667 1.923(12) yes
Cu2 . O6 . 2.412(5) yes
Cu2 . O7 . 1.923(12) yes
Cu2 . O8 . 1.932(16) yes
S1 . O3 . 1.479(5) yes
S1 . O6 . 1.471(5) yes
S1 . O4 . 1.442(15) yes
S1 . O5 . 1.487(16) yes
O1 . H11 . 0.838 no
O1 . H12 . 0.838 no
O7 . H71 . 0.839 no
O7 . H72 . 0.835 no
O8 . H81 . 0.832 no
O8 . H82 . 0.841 no
O2 . H21 . 0.839 no
O2 . H22 . 0.841 no
O9 . H91 . 0.839 no
O9 . H92 . 0.839 no
loop_
_oxford_refln_omitted_index_h
_oxford_refln_omitted_index_k
_oxford_refln_omitted_index_l
_oxford_refln_omitted_flag
_oxford_refln_omitted_details
-2 1 3 x .
-2 -2 8 x .
-1 -3 9 x .
4 -2 4 x .
-2 -2 10 x .
3 -3 11 x .
2 -2 13 x .
-3 6 0 x .
0 2 9 x .
-1 -3 7 x .
0 -4 7 x .
-1 1 4 x .
0 0 4 x .
0 -4 8 x .
5 -3 1 x .
-1 -3 8 x .
-3 3 8 x .
0 -4 6 x .
-4 4 5 x .
-4 3 6 x .
