#------------------------------------------------------------------------------
#$Date: 2022-03-06 06:37:54 +0200 (Sun, 06 Mar 2022) $
#$Revision: 273468 $
#$URL: file:///home/coder/svn-repositories/cod/cif/1/56/59/1565963.cif $
#------------------------------------------------------------------------------
#
# This file is available in the Crystallography Open Database (COD),
# http://www.crystallography.net/
#
# All data on this site have been placed in the public domain by the
# contributors.
#
data_1565963
loop_
_publ_author_name
'Wildner, Manfred'
'Zakharov, Boris A.'
'Bogdanov, Nikita E.'
'Talla, Dominik'
'Boldyreva, Elena V.'
'Miletich, Ronald'
_publ_section_title
;
 Crystallography relevant to Mars and Galilean icy moons: crystal behavior
 of kieserite-type monohydrate sulfates at extraterrestrial conditions
 down to 15 K
;
_journal_issue                   2
_journal_name_full               IUCrJ
_journal_page_first              194
_journal_page_last               203
_journal_paper_doi               10.1107/S2052252521012720
_journal_volume                  9
_journal_year                    2022
_chemical_formula_sum            'H2 Ni O5 S'
_chemical_formula_weight         172.79
_space_group_crystal_system      monoclinic
_space_group_IT_number           15
_space_group_name_Hall           '-C 2yc'
_space_group_name_H-M_alt        'C 1 2/c 1'
_atom_sites_solution_hydrogens   difmap
_audit_creation_method           SHELXL-2017/1
_cell_angle_alpha                90
_cell_angle_beta                 117.597(10)
_cell_angle_gamma                90
_cell_formula_units_Z            4
_cell_length_a                   6.8069(10)
_cell_length_b                   7.6152(10)
_cell_length_c                   7.4398(10)
_cell_measurement_temperature    153(2)
_cell_volume                     341.77(9)
_computing_structure_refinement  'SHELXL-2017/1 (Sheldrick, 2017)'
_diffrn_ambient_temperature      153(2)
_diffrn_measured_fraction_theta_full 1.000
_diffrn_measured_fraction_theta_max 1.000
_diffrn_radiation_type           MoK\a
_diffrn_radiation_wavelength     0.71073
_diffrn_reflns_av_R_equivalents  0.0227
_diffrn_reflns_av_unetI/netI     0.0103
_diffrn_reflns_Laue_measured_fraction_full 1.000
_diffrn_reflns_Laue_measured_fraction_max 1.000
_diffrn_reflns_limit_h_max       12
_diffrn_reflns_limit_h_min       -12
_diffrn_reflns_limit_k_max       13
_diffrn_reflns_limit_k_min       -13
_diffrn_reflns_limit_l_max       13
_diffrn_reflns_limit_l_min       -13
_diffrn_reflns_number            10730
_diffrn_reflns_point_group_measured_fraction_full 1.000
_diffrn_reflns_point_group_measured_fraction_max 1.000
_diffrn_reflns_theta_full        25.242
_diffrn_reflns_theta_max         39.983
_diffrn_reflns_theta_min         4.296
_exptl_absorpt_coefficient_mu    6.163
_exptl_absorpt_correction_T_max  0.7482
_exptl_absorpt_correction_T_min  0.6574
_exptl_absorpt_correction_type   multi-scan
_exptl_absorpt_process_details
;
 SADABS 2016/2: Krause, L., Herbst-Irmer, R., Sheldrick G.M. & Stalke D.,
 J. Appl. Cryst. 48 (2015) 3-10
;
_exptl_crystal_density_diffrn    3.358
_exptl_crystal_F_000             344
_refine_diff_density_max         0.784
_refine_diff_density_min         -0.679
_refine_diff_density_rms         0.116
_refine_ls_extinction_coef       0.0198(12)
_refine_ls_extinction_expression Fc^*^=kFc[1+0.001xFc^2^\l^3^/sin(2\q)]^-1/4^
_refine_ls_extinction_method     'SHELXL-2017/1 (Sheldrick 2017)'
_refine_ls_goodness_of_fit_ref   1.110
_refine_ls_hydrogen_treatment    refall
_refine_ls_matrix_type           full
_refine_ls_number_parameters     40
_refine_ls_number_reflns         1062
_refine_ls_number_restraints     0
_refine_ls_restrained_S_all      1.110
_refine_ls_R_factor_all          0.0161
_refine_ls_R_factor_gt           0.0155
_refine_ls_shift/su_max          0.000
_refine_ls_shift/su_mean         0.000
_refine_ls_structure_factor_coef Fsqd
_refine_ls_weighting_details
'w=1/[\s^2^(Fo^2^)+(0.0210P)^2^+0.4800P] where P=(Fo^2^+2Fc^2^)/3'
_refine_ls_weighting_scheme      calc
_refine_ls_wR_factor_gt          0.0409
_refine_ls_wR_factor_ref         0.0413
_reflns_Friedel_coverage         0.000
_reflns_number_gt                1034
_reflns_number_total             1062
_reflns_threshold_expression     'I > 2\s(I)'
_cod_data_source_file            lt5044.cif
_cod_data_source_block           NiSO4H2O_N2_153K
_cod_depositor_comments
'Adding full bibliography for 1565934--1565967.cif.'
_cod_original_sg_symbol_H-M      'C 2/c'
_cod_database_code               1565963
_shelx_shelxl_version_number     2017/1
_shelx_space_group_comment
;
The symmetry employed for this shelxl refinement is uniquely defined
by the following loop, which should always be used as a source of
symmetry information in preference to the above space-group names.
They are only intended as comments.
;
_shelx_res_file
;
TITL 1991nikies 153K Apex in C2/c kieserite cell
    latt_corr_for_Nonius20C_nikies153K_0m.res
    created by SHELXL-2017/1 at 09:37:45 on 01-Dec-2018
REM meas. mon  6.7951(1) 7.6035(1) 7.3859(1) 90.0 117.0088(4) 90.0
REM trans. cryscomp 6.7951 7.6035 7.4257 90.0  117.606 90.0
REM meas.trcl 6.7951(1) 7.6035(1) 7.3860(1) 90.0311(5) 117.0090(4) 89.9596(5)
REM trans. cryscomp 6.7951 7.6035 7.4258 90.006 117.605 89.960
REM CELL 0.71073   6.7951 7.6035 7.4257 90.0  117.606 90.0
REM latt corr for Nonius20C +.0118 +.0117 +.0141     -.0088
CELL 0.71073   6.8069 7.6152 7.4398   90.0 117.597    90.0
ZERR    4.00   0.001   0.001   0.001   0.00   0.01   0.00
LATT  7
SYMM -X, Y, .5-Z
SFAC O H S NI
UNIT 20 8 4 4
SHEL 20 0.55285
REM DAMP 10000
L.S. 10
CONN 12 1.8 $O
EQIV $9 -x+1/2, y+1/2, -z+1/2
BOND $H
FMAP 2
PLAN 20
ACTA
HTAB O3 O2_$9
HTAB
WGHT    0.021000    0.480000
EXTI    0.019835
FVAR       0.69312
NI    4    0.000000    0.500000    0.000000    10.50000    0.00321    0.00392 =
         0.00349    0.00013    0.00146   -0.00011
S     3    0.000000    0.157501    0.250000    10.50000    0.00269    0.00365 =
         0.00388    0.00000    0.00144    0.00000
O1    1    0.172627    0.047558    0.404479    11.00000    0.00436    0.00841 =
         0.00797    0.00384    0.00232    0.00214
O2    1    0.104735    0.270844    0.155367    11.00000    0.00583    0.00570 =
         0.00795    0.00231    0.00435    0.00046
O3    1    0.000000    0.630672    0.250000    10.50000    0.00502    0.00622 =
         0.00542    0.00000    0.00243    0.00000
H     2    0.109068    0.695083    0.293806    11.00000    0.01819
HKLF 4 1  -1 0 0 0 -1 0 1 0 1




REM  1991nikies 153K Apex in C2/c kieserite cell
REM R1 =  0.0155 for    1034 Fo > 4sig(Fo)  and  0.0161 for all    1062 data
REM     40 parameters refined using      0 restraints

END

WGHT      0.0210      0.4876

REM Instructions for potential hydrogen bonds
EQIV $5 x+1/2, y+1/2, z
HTAB O3 S_$5
HTAB O3 O2_$9

REM Highest difference peak  0.784,  deepest hole -0.679,  1-sigma level  0.116
Q1    1   0.0679  0.4418  0.0017  11.00000  0.05    0.78
Q2    1   0.0564  0.5709  0.0137  11.00000  0.05    0.73
Q3    1   0.3249  0.1817  0.4963  11.00000  0.05    0.60
Q4    1   0.2011  0.6978  0.4982  11.00000  0.05    0.57
Q5    1  -0.1251  0.3822 -0.0014  11.00000  0.05    0.52
Q6    1   0.0753  0.4903  0.0959  11.00000  0.05    0.49
Q7    1   0.0919  0.2545  0.2336  11.00000  0.05    0.48
Q8    1  -0.1225  0.6231 -0.0018  11.00000  0.05    0.48
Q9    1   0.0982  0.1124  0.3563  11.00000  0.05    0.44
Q10   1   0.1770  0.3252  0.2504  11.00000  0.05    0.42
Q11   1   0.2346  0.3914  0.2522  11.00000  0.05    0.35
Q12   1   0.1552 -0.0059  0.2567  11.00000  0.05    0.30
Q13   1   0.2157 -0.0543  0.2582  11.00000  0.05    0.29
Q14   1   0.0470  0.3411  0.1400  11.00000  0.05    0.26
Q15   1   0.2040  0.2698  0.2071  11.00000  0.05    0.25
Q16   1   0.0467  0.3897  0.0849  11.00000  0.05    0.23
Q17   1   0.1670 -0.0145  0.3508  11.00000  0.05    0.20
Q18   1   0.2440  0.1294  0.3943  11.00000  0.05    0.20
Q19   1   0.0000  0.4696  0.2500  10.50000  0.05    0.19
Q20   1   0.2777  0.0550  0.4990  11.00000  0.05    0.19
;
_shelx_res_checksum              50882
_shelx_hkl_file
;
   2   0   0 65.2822 3.37751  10
   2   0   0 67.0679 2.38630  12
   2   0   0 62.0567 2.93115  14
  -2   0   0 63.5812 2.72204  16
  -2   0   0 62.1970 3.28476  10
  -2   0   0 62.4865 2.83308  11
  -2   0   0 64.8275 2.45032   8
  -2   0   0 64.1608 2.33501   5
  -2   0   0 80.0093 2.62169   1
   4   0   0 9826.38 226.521  14
  -4   0   0 9999.99 218.116   1
  -4   0   0 8920.40 211.166   5
   4   0   0 9400.91 216.671  12
   4   0   0 9977.81 234.256  10
   4   0   0 9459.59 219.836   4
  -4   0   0 9730.63 226.498  11
  -4   0   0 9656.17 225.871  16
  -4   0   0 9170.10 217.345   8
   6   0   0 13.0053 3.15519  10
  -6   0   0 12.6214 2.10129   1
   6   0   0 14.5274 2.18111  12
   6   0   0 11.0164 2.43338   4
  -6   0   0 11.1222 2.77432  11
  -6   0   0 13.7848 2.59819  16
  -6   0   0 20.7944 2.72443   8
  -6   0   0 9.31712 1.83324   5
   6   0   0 13.6517 2.68636  14
   8   0   0 1742.03 43.6246   4
   8   0   0 1693.97 43.2318  12
   8   0   0 1694.56 46.5914  14
  -8   0   0 1736.31 43.3375   8
  -8   0   0 1772.30 46.9933  11
   8   0   0 1667.94 48.2611  10
  -8   0   0 1759.69 43.5192   1
  10   0   0 23.6587 4.68470   4
 -10   0   0 28.7140 4.76873   1
 -10   0   0 20.4772 5.81328  11
  10   0   0 21.7589 3.93565  12
   1  -1   0 1499.86 37.3798  10
  -1  -1   0 1574.29 37.1855  10
  -1  -1   0 1495.45 33.9540  16
   1   1   0 1568.99 36.9174  14
  -1   1   0 1455.65 34.7743  16
  -1   1   0 1457.33 36.6540  10
   1   1   0 1533.42 37.4499  10
  -1   1   0 1443.48 34.4989  13
   3  -1   0 3.18294 1.24893  10
  -3  -1   0 2.93433 0.95598  10
   3  -1   0 4.46681 1.10883   4
  -3  -1   0 3.18895 1.12379  11
  -3  -1   0 5.86361 1.42028  16
  -3  -1   0 5.38650 1.13700   5
   3  -1   0 3.78754 0.85361  12
  -3  -1   0 4.08698 0.87067   8
  -3  -1   0 4.16919 0.95213   1
   3  -1   0 3.26227 0.76405   2
   3   1   0 4.65211 0.95043   4
   3   1   0 3.41631 1.04349  10
  -3   1   0 3.73507 0.77922   5
  -3   1   0 4.72498 0.88709   1
  -3   1   0 3.39059 0.82204  16
   3   1   0 6.39970 0.99941  12
   3   1   0 3.73855 1.17732  14
  -3   1   0 5.43373 1.01782   8
   5  -1   0 898.022 21.5549   2
  -5  -1   0 901.375 23.0751   5
  -5  -1   0 909.993 23.1804   8
   5  -1   0 885.491 23.0449  12
  -5  -1   0 920.491 24.9376  11
   5  -1   0 917.746 27.0335  10
   5  -1   0 914.152 24.9851  14
  -5  -1   0 922.360 25.1765  16
  -5  -1   0 899.686 23.0639   1
   5  -1   0 946.919 23.6049   4
   5   1   0 949.305 23.1776  12
  -5   1   0 943.881 23.3228   1
   5   1   0 924.633 25.4006  14
   5   1   0 922.431 25.7557  10
   5   1   0 908.647 23.2780   4
  -5   1   0 911.852 22.2743   5
  -5   1   0 954.001 23.8452  16
  -5   1   0 914.688 24.8457  11
  -5   1   0 897.627 22.9114   8
   7  -1   0 23.6394 3.27045   4
  -7  -1   0 20.8343 3.08865   1
  -7  -1   0 20.3414 3.15618   8
   7  -1   0 26.0564 4.71803  10
  -7  -1   0 19.9526 3.66994  11
   7  -1   0 20.9314 2.90082  12
  -7  -1   0 22.8991 3.07571   5
   7  -1   0 18.0618 3.76529  14
  -7  -1   0 25.6671 3.97673  16
   7   1   0 27.2628 4.44220  14
  -7   1   0 19.5168 2.96608   8
   7   1   0 21.2139 3.36572   4
  -7   1   0 21.0541 3.21049   1
  -7   1   0 21.9996 4.01343  11
   7   1   0 23.1246 3.06421  12
   7   1   0 18.8894 3.76624  10
   9  -1   0 119.579 9.05980  14
   9  -1   0 117.111 7.38956  12
  -9  -1   0 116.828 7.21155   1
  -9  -1   0 125.049 9.84441  11
   9  -1   0 126.269 7.68957   4
   9   1   0 125.476 7.60228   4
   9   1   0 114.166 8.68314  14
  -9   1   0 131.086 9.77782  11
  -9   1   0 128.493 8.07230   1
   9   1   0 123.685 7.50249  12
  -9   1   0 125.167 7.29008   8
 -11  -1   0 61.2993 8.04822  11
 -11  -1   0 61.9332 6.67798   1
  11  -1   0 81.9573 7.61029   4
 -11   1   0 73.6931 8.13551  11
  11   1   0 61.7711 6.19615   4
   0  -2   0 1885.66 41.9396   2
   0  -2   0 1907.98 47.0388  10
   0   2   0 1868.33 41.7995   3
   0   2   0 1930.40 43.0941  13
   0   2   0 1919.80 47.0332  10
   0   2   0 1800.80 43.1291  14
  -2  -2   0 709.158 17.8300  16
  -2  -2   0 675.860 16.4911   5
  -2  -2   0 685.487 16.8025  11
  -2  -2   0 714.472 16.5083  10
  -2  -2   0 676.764 16.0713   1
   2  -2   0 685.814 18.4853  10
   2  -2   0 685.024 16.5923   2
   2  -2   0 679.930 16.2666  12
  -2   2   0 675.956 18.2687  10
  -2   2   0 656.058 16.1256   1
  -2   2   0 674.914 15.5593  16
  -2   2   0 663.028 16.5299  13
  -2   2   0 674.667 16.5118   7
  -2   2   0 652.055 15.7512   8
  -2   2   0 672.169 16.5009   3
   2   2   0 684.752 16.0610  12
   2   2   0 651.492 15.8188   4
   2   2   0 679.769 17.2017  14
   4  -2   0 1969.52 45.7896  12
  -4  -2   0 1921.51 46.0672   5
  -4  -2   0 2022.00 48.3697  16
  -4  -2   0 1949.13 47.4142  10
   4  -2   0 1992.95 45.3747   2
  -4  -2   0 1965.21 45.7939   8
   4  -2   0 1983.58 46.0293   4
  -4  -2   0 2012.52 47.3752  11
  -4  -2   0 1998.47 45.6543   1
   4  -2   0 1997.61 49.9042  10
   4   2   0 2031.50 47.3694  10
  -4   2   0 1998.75 45.4286   8
   4   2   0 1985.32 45.6029   4
  -4   2   0 1970.78 44.3956   5
  -4   2   0 2013.62 45.8753   1
   4   2   0 1965.66 45.5933  12
   4   2   0 2016.90 47.9389  14
  -4   2   0 2043.63 45.3732  16
  -6  -2   0 1315.92 33.5312   6
   6  -2   0 1386.10 36.3946  14
  -6  -2   0 1369.09 33.8739   1
  -6  -2   0 1383.79 36.4082  11
   6  -2   0 1382.14 39.3414  10
  -6  -2   0 1350.92 34.0604   8
  -6  -2   0 1317.81 34.1097   5
  -6  -2   0 1411.46 37.0742  16
   6  -2   0 1371.60 34.3958   4
   6  -2   0 1345.54 34.0569  12
   6   2   0 1370.81 36.4177  10
   6   2   0 1377.67 36.8601  14
  -6   2   0 1374.04 33.6670   8
  -6   2   0 1414.66 36.4338  11
   6   2   0 1400.67 34.0146   4
  -6   2   0 1405.48 34.3123   1
   6   2   0 1400.91 34.0254  12
  -8  -2   0 866.052 24.6206   5
  -8  -2   0 880.703 27.7106  11
   8  -2   0 826.190 24.3388  12
  -8  -2   0 870.413 24.4934   1
   8  -2   0 853.727 25.1195   4
   8  -2   0 831.417 27.0906  14
  -8   2   0 899.496 25.2637   1
  -8   2   0 886.279 27.8962  11
   8   2   0 889.733 24.8227   4
   8   2   0 861.241 24.7684  12
   8   2   0 854.860 27.8508  14
  -8   2   0 886.027 24.5151   8
 -10  -2   0 776.195 24.0366   1
  10  -2   0 797.684 25.0032   4
  10  -2   0 765.047 24.5569  12
 -10  -2   0 808.303 28.3516  11
  10   2   0 750.414 24.3351  12
  10   2   0 811.231 24.7651   4
 -10   2   0 812.417 28.6585  11
 -10   2   0 797.531 25.0650   1
   1  -3   0 132.186 4.33535  12
  -1  -3   0 133.471 4.46542   5
   1  -3   0 129.500 4.70763   2
   1  -3   0 127.690 4.09036   6
  -1  -3   0 127.700 5.21633  16
   1  -3   0 135.524 5.38788  10
  -1  -3   0 123.033 4.25793  11
  -1  -3   0 130.641 4.27235   2
   1   3   0 142.811 4.83291  14
   1   3   0 124.715 4.41194   3
  -1   3   0 129.690 4.11400   7
   1   3   0 131.096 4.45055  13
   1   3   0 125.426 4.13584  12
  -1   3   0 135.146 5.27092  10
  -1   3   0 129.226 4.48386   3
  -1   3   0 131.609 4.43518  13
   1   3   0 128.638 3.60312   4
  -1   3   0 132.937 3.69401   8
   3  -3   0 866.674 24.9975  10
  -3  -3   0 927.913 22.0798  10
   3  -3   0 877.425 22.2656   2
  -3  -3   0 899.223 22.6523  11
  -3  -3   0 947.236 24.4334  16
   3  -3   0 870.465 21.8994  12
   3  -3   0 875.345 21.7727   4
  -3  -3   0 927.106 22.5198   5
  -3  -3   0 939.567 21.8184   1
  -3   3   0 876.672 22.2554   7
  -3   3   0 892.134 20.6783  16
   3   3   0 932.941 23.5830  14
  -3   3   0 880.868 22.4025   3
   3   3   0 889.110 22.2086   3
  -3   3   0 898.911 22.4717  13
   3   3   0 926.910 21.8145  12
  -3   3   0 875.787 21.8133   1
  -3   3   0 899.876 21.3015   8
   3   3   0 904.779 21.3856   4
   5  -3   0 22.2105 2.57042   2
   5  -3   0 19.5899 2.72616   4
  -5  -3   0 20.7215 2.51041   1
  -5  -3   0 22.0352 3.03531   5
  -5  -3   0 19.6409 3.42490  16
   5  -3   0 20.1440 2.51697  12
  -5  -3   0 16.7197 2.71906  11
   5  -3   0 30.0206 4.60509  10
   5   3   0 19.1727 2.33148  12
   5   3   0 20.4924 2.45870   4
  -5   3   0 20.2885 2.54522   1
  -5   3   0 16.4819 2.17280   8
   5   3   0 18.0316 2.23843  10
  -5   3   0 22.3954 3.23198  11
   5   3   0 20.6650 3.14534  14
  -7  -3   0 133.229 6.92014   1
  -7  -3   0 136.673 8.68393  11
   7  -3   0 151.098 10.7061  10
   7  -3   0 134.839 7.07780  12
  -7  -3   0 146.264 7.70763   5
   7  -3   0 152.534 7.87449   4
   7  -3   0 127.250 7.91533  14
  -7  -3   0 135.984 6.94592   6
  -7   3   0 150.349 8.84271  11
   7   3   0 144.425 8.80886  14
  -7   3   0 143.638 7.19953   1
  -7   3   0 140.093 6.74907   8
   7   3   0 139.278 6.93634  12
   7   3   0 136.448 6.99856   4
  -9  -3   0 10.7464 4.45413  11
   9  -3   0 2.29768 2.35189  14
  -9  -3   0 0.83993 2.36028   1
  -9  -3   0 2.65287 2.65911   5
   9  -3   0 6.11668 2.51045  12
   9  -3   0 4.31970 2.44077   4
  -9   3   0 1.05439 2.81713   1
  -9   3   0 0.71809 3.12720  11
   9   3   0 1.52183 1.91247   4
  -9   3   0 2.70709 2.19549   8
   9   3   0 -2.0337 1.55445  14
   9   3   0 -0.4524 1.78703  12
  11  -3   0 3.55770 2.93118   4
 -11  -3   0 2.09263 3.39608  11
 -11   3   0 0.75177 3.91581  11
 -11   3   0 -1.5044 2.99011   1
  11   3   0 2.29427 3.54243   4
   0  -4   0 2989.49 66.7680   6
   0  -4   0 2961.14 66.9198   2
   0  -4   0 2969.77 66.2643  12
   0  -4   0 2965.21 72.7508  10
   0   4   0 3029.61 66.5661  13
   0   4   0 2894.31 67.5273   7
   0   4   0 3044.32 66.2384  12
   0   4   0 3006.79 69.7145  14
   0   4   0 2943.76 66.6381   3
   2  -4   0 6606.47 160.186  10
  -2  -4   0 6134.53 147.960  11
   2  -4   0 6223.60 145.071   2
   2  -4   0 6449.79 149.370  12
  -2  -4   0 6013.88 144.530   2
   2  -4   0 6526.55 145.287   6
  -2  -4   0 6390.76 152.843  16
  -2  -4   0 6208.71 144.317   5
  -2  -4   0 6423.22 146.522  10
  -2   4   0 6291.99 149.404   3
   2   4   0 6481.54 146.967  12
   2   4   0 6427.46 141.087   3
  -2   4   0 6469.82 149.078  13
  -2   4   0 6507.22 147.923   7
   2   4   0 6727.44 142.345   4
   2   4   0 6757.63 156.451  14
  -2   4   0 6331.67 144.370   8
  -4  -4   0 755.613 20.3124   5
  -4  -4   0 759.716 19.3064   1
   4  -4   0 710.959 19.5738  12
  -4  -4   0 809.055 23.0044  16
   4  -4   0 753.166 23.8803  10
   4  -4   0 730.638 19.4284   4
  -4  -4   0 787.770 19.5861  10
  -4  -4   0 771.670 20.7736  11
   4  -4   0 728.729 19.8854   2
   4   4   0 756.771 21.5567  14
   4   4   0 739.281 18.7694   4
   4   4   0 767.246 19.5199  12
  -4   4   0 735.692 20.2301  13
   4   4   0 739.039 19.9911   3
  -4   4   0 724.943 18.6378   8
  -4   4   0 735.938 20.0338   7
  -4   4   0 725.562 19.4216   1
  -6  -4   0 1713.65 43.9235   6
   6  -4   0 1818.52 43.8877  12
   6  -4   0 1757.03 49.9005  10
  -6  -4   0 1769.88 45.5797  11
   6  -4   0 1792.41 43.6780   4
  -6  -4   0 1766.49 44.3699   5
  -6  -4   0 1850.47 43.2964   1
   6  -4   0 1761.56 42.8200   2
   6   4   0 1797.67 42.7084   4
   6   4   0 1759.38 44.0009   3
  -6   4   0 1776.94 42.5622   8
   6   4   0 1747.36 43.2694  12
  -6   4   0 1779.44 43.6567   1
  -6   4   0 1817.58 45.7544  11
   6   4   0 1807.57 46.8653  14
   8  -4   0 48.2933 5.49800  14
  -8  -4   0 47.5846 6.55894  11
  -8  -4   0 46.9387 5.56678   5
   8  -4   0 62.3119 5.99788   4
   8  -4   0 47.8690 5.14216  12
  -8  -4   0 47.5804 4.87991   1
  -8   4   0 53.6445 6.58850  11
   8   4   0 48.9361 5.02357   4
   8   4   0 46.2647 6.40507  14
  -8   4   0 40.0512 5.05700   1
   8   4   0 47.7741 4.69472  12
  -8   4   0 38.6561 4.23914   8
   8   4   0 48.0523 5.39376   3
 -10  -4   0 455.375 20.2923  11
 -10  -4   0 486.936 17.1886   1
  10  -4   0 487.314 17.8175   4
 -10   4   0 514.594 17.1348   8
  10   4   0 481.462 17.5251  12
 -10   4   0 501.474 18.1732   1
  10   4   0 442.763 17.5484   3
 -10   4   0 481.017 20.5848  11
  10   4   0 492.241 17.3995   4
   1  -5   0 77.2014 3.72097  12
  -1  -5   0 78.5920 3.31728  10
  -1  -5   0 75.7394 3.75395  11
   1  -5   0 78.2814 3.73003   6
  -1  -5   0 82.5147 4.14078   2
   1  -5   0 79.6967 4.37114   2
  -1  -5   0 78.2445 3.84609   5
  -1  -5   0 81.1268 4.34489   6
   1  -5   0 79.3803 4.63587  10
  -1   5   0 84.2806 4.05457  13
  -1   5   0 79.0306 3.57446  12
  -1   5   0 77.8950 2.92998   8
   1   5   0 74.9747 3.56850  12
  -1   5   0 80.1656 4.36307  10
  -1   5   0 79.2807 4.01514   3
   1   5   0 77.6417 3.87163  13
   1   5   0 71.9032 3.97613  14
   1   5   0 81.1821 4.10856   3
  -1   5   0 77.6106 3.41662   7
  -3  -5   0 106.121 5.46456   5
   3  -5   0 112.788 6.95125  10
   3  -5   0 104.129 4.84652  12
  -3  -5   0 100.028 3.51142  10
   3  -5   0 101.671 3.61835   6
  -3  -5   0 96.9099 3.95791   2
  -3  -5   0 90.8218 4.90023  11
   3  -5   0 109.845 5.50829   2
   3   5   0 104.010 4.72401  12
   3   5   0 92.3169 3.80353   4
  -3   5   0 108.971 3.67522  16
  -3   5   0 126.089 4.23970   8
   3   5   0 104.493 5.86492  14
  -3   5   0 108.473 4.85644   7
  -3   5   0 95.1293 5.08254   3
   3   5   0 92.2373 5.05404   3
  -3   5   0 101.353 5.09367  13
  -5  -5   0 15.8972 2.78807   6
  -5  -5   0 25.0153 3.39726   5
   5  -5   0 15.7127 3.65620  10
   5  -5   0 14.1459 2.47261  12
   5  -5   0 17.7968 2.71846   2
   5  -5   0 18.3123 2.61787   4
  -5  -5   0 19.5769 2.65538   1
  -5  -5   0 19.4212 3.02534  11
  -5   5   0 21.1850 3.19460   7
  -5   5   0 17.5422 2.97993  13
  -5   5   0 16.8584 2.79918   1
  -5   5   0 16.3031 2.06922   8
   5   5   0 15.9278 2.87061   3
   5   5   0 19.6542 2.69216  12
   5   5   0 18.6048 2.38676   4
  -7  -5   0 110.366 6.16257   1
  -7  -5   0 107.243 7.61044  11
  -7  -5   0 114.856 7.57096   5
  -7  -5   0 110.728 7.30127   6
   7  -5   0 105.672 6.64656  12
   7  -5   0 113.042 7.02008   4
   7   5   0 112.782 6.64255  12
   7   5   0 117.758 6.43663   4
  -7   5   0 127.377 6.28419   8
   7   5   0 104.164 8.36736  14
   7   5   0 115.349 7.31531   3
  -7   5   0 111.393 8.16092  11
  -7   5   0 110.840 7.32970   1
  -9  -5   0 16.7451 4.33651  11
   9  -5   0 18.8505 4.11057   4
  -9  -5   0 17.8171 3.63401   1
   9   5   0 11.4639 2.79872  12
   9   5   0 12.4965 3.61508   3
   9   5   0 11.2148 2.76745   4
  -9   5   0 13.6988 4.41761  11
  -9   5   0 11.4237 4.03110   1
   0  -6   0 2419.58 55.6695   6
   0  -6   0 2336.25 54.7414  12
   0  -6   0 2362.76 55.7548   2
   0  -6   0 2404.91 55.6786  10
   0   6   0 2398.57 55.1600  13
   0   6   0 2413.91 55.7187  14
   0   6   0 2375.40 55.5437   3
   0   6   0 2381.14 54.6902  12
   0   6   0 2409.20 54.3081   7
  -2  -6   0 192.707 7.33427  11
   2  -6   0 186.540 8.90254  10
   2  -6   0 196.098 7.29703  12
   2  -6   0 201.279 6.75446   6
  -2  -6   0 195.202 5.33756  10
   2  -6   0 205.399 8.40248   2
  -2  -6   0 197.044 7.62744   5
  -2  -6   0 193.186 5.28931  10
  -2  -6   0 190.096 8.02226   6
  -2  -6   0 191.945 7.07939   2
   2   6   0 198.073 7.79589   3
   2   6   0 192.580 8.02139  14
   2   6   0 193.264 7.11259  12
   2   6   0 202.748 7.59710  13
  -2   6   0 198.989 7.56330  13
  -2   6   0 184.824 7.52744   3
  -2   6   0 185.040 5.90897   8
  -2   6   0 196.614 6.82813   7
  -4  -6   0 2071.60 51.1420  11
   4  -6   0 2039.40 49.4042   4
   4  -6   0 2167.22 56.0717  10
  -4  -6   0 2140.69 51.2743   5
   4  -6   0 2167.21 51.5453   2
   4  -6   0 2081.71 50.5298  12
  -4  -6   0 2108.37 52.0425   6
   4   6   0 2066.72 50.1678  12
   4   6   0 2137.69 52.8091  14
  -4   6   0 2097.00 48.5641   8
  -4   6   0 2171.09 50.4980   7
  -4   6   0 2144.59 51.2329  13
   4   6   0 2159.66 51.2877   3
   4   6   0 2089.43 48.4740   4
  -4   6   0 2147.99 51.3044   3
  -4   6   0 2109.78 50.2819   1
  -6  -6   0 229.527 10.8240  11
   6  -6   0 211.646 9.63437  12
  -6  -6   0 236.929 10.7300   5
   6  -6   0 233.313 10.1005   2
   6  -6   0 226.609 9.50982   4
  -6  -6   0 250.849 11.1681   6
   6   6   0 225.978 10.2561   3
   6   6   0 220.197 8.48423   4
  -6   6   0 235.293 10.1098   1
  -6   6   0 237.290 10.5389  13
   6   6   0 221.012 11.3100  14
  -6   6   0 225.418 8.52598   8
   6   6   0 235.313 9.70212  12
  -8  -6   0 1308.72 38.2012  11
   8  -6   0 1290.06 35.3413   4
   8   6   0 1291.86 33.9605   4
   8   6   0 1280.42 36.3151   3
   8   6   0 1295.18 39.4423  14
  -8   6   0 1331.10 38.7056  11
   8   6   0 1295.22 35.5845  12
  -8   6   0 1325.55 36.2267   1
  10  -6   0 151.354 9.50300   4
 -10   6   0 155.906 10.4411   1
  10   6   0 167.831 10.1629   3
 -10   6   0 174.802 12.1055  11
  -1  -7   0 491.029 14.8427   2
  -1  -7   0 498.436 13.5411  10
   1  -7   0 492.588 15.8855  10
  -1  -7   0 514.648 15.7119   6
   1  -7   0 482.264 14.3769  12
   1  -7   0 483.353 15.5321   2
   1  -7   0 505.516 14.6873   6
  -1   7   0 479.674 13.9549  12
   1   7   0 485.769 13.8490   7
   1   7   0 481.138 15.1370  14
  -1   7   0 485.768 13.6760   7
  -1   7   0 512.485 15.2498   3
  -1   7   0 506.714 14.7771  13
   1   7   0 473.481 14.9260   3
   1   7   0 487.232 14.2557  12
   1   7   0 501.991 14.7391  13
  -1   7   0 482.126 12.6679   8
  -3  -7   0 697.933 18.8566   2
   3  -7   0 726.999 23.9148  10
   3  -7   0 707.371 19.9999  12
   3  -7   0 736.048 21.3591   2
  -3  -7   0 748.167 20.8754   5
  -3  -7   0 696.469 20.1734  11
  -3  -7   0 752.807 21.7840   6
  -3   7   0 724.883 20.5576  13
   3   7   0 696.364 19.7818  12
   3   7   0 700.496 20.1293  13
  -3   7   0 743.298 20.9185   3
   3   7   0 719.890 20.7242   3
   3   7   0 691.689 21.2907  14
  -3   7   0 688.988 17.9090   8
  -3   7   0 724.821 19.4440   7
  -5  -7   0 142.191 8.66334   6
   5  -7   0 139.210 7.24971  12
   5  -7   0 142.480 6.92737   4
  -5  -7   0 147.408 8.45164   5
   5  -7   0 147.705 8.35144   2
  -5  -7   0 156.115 8.24097  11
   5  -7   0 136.471 10.3329  10
  -5   7   0 143.876 7.32290   1
   5   7   0 144.216 7.98012   3
  -5   7   0 150.664 8.12536  13
   5   7   0 145.069 8.91950  14
   5   7   0 149.509 7.84242  13
   5   7   0 148.923 7.20009  12
  -5   7   0 146.427 7.39426   7
  -7  -7   0 362.875 15.0425  11
   7  -7   0 310.855 12.5390   4
  -7  -7   0 340.858 14.5623   6
   7  -7   0 310.711 12.9532   2
  -7   7   0 311.212 14.4771  11
   7   7   0 327.121 15.5830  14
   7   7   0 312.993 13.6809   3
   7   7   0 314.151 12.8399  12
  -7   7   0 339.353 13.7404   1
   9  -7   0 61.8086 6.24012   4
  -9  -7   0 52.8517 6.97612  11
   9   7   0 56.8780 6.38166   3
  -9   7   0 65.7042 6.72025   1
  -9   7   0 55.9061 7.34396  11
   0  -8   0 1193.48 30.7530   6
   0  -8   0 1127.93 30.4425   2
   0   8   0 1172.81 30.6550   3
   0   8   0 1105.65 29.1969  12
   0   8   0 1160.64 29.8353  13
   0   8   0 1153.44 28.6569   7
  -2  -8   0 1370.27 35.6148   2
   2  -8   0 1428.52 35.3237   6
   2  -8   0 1435.09 39.2861  10
   2  -8   0 1442.38 37.5773   2
  -2  -8   0 1522.37 38.2391   6
   2   8   0 1419.86 37.3936  14
   2   8   0 1412.58 35.3898   7
   2   8   0 1446.02 37.0506   3
  -2   8   0 1452.15 37.1677   3
   2   8   0 1436.82 36.2544  13
   2   8   0 1418.60 35.7730  12
  -2   8   0 1434.44 36.4921  13
   4  -8   0 686.108 25.0129  10
   4  -8   0 747.588 22.5016   2
  -4  -8   0 662.650 20.8635  11
   4  -8   0 698.568 19.2802   4
  -4  -8   0 747.800 23.2002   6
  -4   8   0 691.968 21.2841  13
  -4   8   0 721.775 21.8058   3
  -4   8   0 687.185 20.5844   1
   4   8   0 692.534 22.5513  14
   4   8   0 702.623 21.0887  13
   4   8   0 697.772 20.6165  12
   4   8   0 694.082 21.6450   3
  -6  -8   0 494.790 18.2601  11
   6  -8   0 499.897 16.4598   4
   6  -8   0 554.013 18.9209   2
  -6  -8   0 507.507 19.0324   6
   6   8   0 537.547 20.3855  14
  -6   8   0 538.044 18.7394  13
   6   8   0 516.806 18.5688   3
   6   8   0 507.577 17.9645  13
   6   8   0 513.695 17.4711  12
  -6   8   0 520.223 17.6197   1
  -8  -8   0 291.510 14.1425  11
  -8  -8   0 299.679 14.3165   6
   8  -8   0 258.094 11.7581   4
  -8   8   0 286.677 14.4212  11
   8   8   0 253.447 13.0487   3
  -8   8   0 279.972 13.0520   1
  -1  -9   0 82.1252 6.54678   6
   1  -9   0 80.9613 6.47722   2
   1  -9   0 73.2782 5.44274   6
  -1  -9   0 79.2959 5.83033   2
   1   9   0 86.5410 5.53604  13
  -1   9   0 75.2850 5.10021  13
  -1   9   0 74.0886 5.58459   3
   1   9   0 74.7118 5.74208  14
   1   9   0 83.5058 6.26916   3
  -3  -9   0 23.0372 4.47765   6
   3  -9   0 23.4596 4.07159   2
   3  -9   0 19.2621 4.04154  10
   3   9   0 18.6238 2.99860  12
   3   9   0 23.9947 3.77848   3
   3   9   0 23.6830 4.15709  14
   3   9   0 20.5450 3.22346  13
  -3   9   0 24.9079 3.50021  13
  -3   9   0 17.1820 3.25833   3
   3   9   0 20.6148 3.15133   7
  -5  -9   0 72.1637 7.32093   6
  -5  -9   0 68.2888 6.19759  11
   5  -9   0 72.9109 6.59029   2
   5   9   0 68.4141 5.68724  13
   5   9   0 61.3941 5.34921  12
  -5   9   0 63.7426 6.16972   1
  -5   9   0 67.5622 6.08065  13
   5   9   0 67.8255 7.02097  14
   5   9   0 69.2056 6.61486   3
  -7  -9   0 2.54690 3.51358   6
   7  -9   0 6.36724 3.58427   2
  -7   9   0 1.51403 2.76763  11
   7   9   0 8.17511 2.86431   3
  -7   9   0 6.94930 2.97542   1
   0 -10   0 11.7648 3.31074   6
   0 -10   0 26.7873 4.28411   2
   0  10   0 4.80966 2.85048   3
   0  10   0 8.46993 2.43676  13
  -2 -10   0 1892.94 49.1937   6
  -2 -10   0 1795.44 46.3220   2
   2 -10   0 1911.64 48.7904   2
   2  10   0 1800.52 48.0177  14
   2  10   0 1846.70 48.0488   3
  -2  10   0 1908.19 47.3948  13
   2  10   0 1829.52 46.5164  13
  -2  10   0 1800.16 47.9492   3
   4 -10   0 11.9881 4.38260   2
  -4 -10   0 19.3692 5.10765   6
   4  10   0 23.0955 4.50902   3
  -4  10   0 16.6685 3.25335   1
  -4  10   0 19.8070 4.34837   3
   4  10   0 12.6388 3.32940  14
   4  10   0 10.0980 2.74456  13
  -4  10   0 10.3861 2.69102  13
   6 -10   0 1200.96 35.3039   2
  -6 -10   0 1205.95 36.9711   6
   6  10   0 1186.84 35.2230   3
  -6  10   0 1191.03 34.2526   1
   8  10   0 37.2465 6.59151   3
  -1 -11   0 254.576 12.5201   6
   1 -11   0 244.177 12.2789   2
  -1 -11   0 226.963 11.2044   2
   1 -11   0 220.078 10.7270   6
  -1  11   0 243.467 10.7585  13
  -1  11   0 212.531 11.6745   3
   1  11   0 250.982 12.2521   3
   3 -11   0 206.603 11.8159   2
  -3 -11   0 178.977 11.4860   6
   3  11   0 171.525 10.1408  14
   3  11   0 193.384 11.0278   3
  -3  11   0 182.849 9.82917  13
  -3  11   0 182.151 10.3959   3
  -5 -11   0 169.522 11.7610   6
   5 -11   0 189.433 11.9138   2
   5  11   0 196.929 11.5090   3
  -5  11   0 194.467 10.5839   1
   7 -11   0 81.2044 8.48503   2
  -7 -11   0 99.2069 9.40291   6
  -7  11   0 93.0017 7.83423   1
   7  11   0 95.4755 8.50940   3
   0 -12   0 422.855 17.2253   2
   0 -12   0 432.290 17.2241   6
   0  12   0 446.952 17.9964   3
  -2 -12   0 371.709 16.9330   6
   2 -12   0 386.230 16.9862   2
   2  12   0 372.378 16.3014   3
  -2  12   0 356.886 16.0879   3
  -4 -12   0 366.864 17.6162   6
   4 -12   0 395.644 17.7907   2
   4  12   0 394.092 17.2487   3
  -4  12   0 392.217 17.5133   3
  -4  12   0 410.027 15.9004   1
  -6 -12   0 211.302 15.0194   6
   1 -13   0 3.28400 3.47652   2
  -1 -13   0 0.64422 3.57641   6
  -1 -13   0 4.72564 2.99031   2
   1  13   0 8.48021 3.26954   3
  -1  13   0 3.18643 2.88065   3
   3 -13   0 13.4408 4.75626   2
  -3 -13   0 10.1342 3.87956   6
   3  13   0 11.5887 3.67058   3
  -3  13   0 9.87783 3.62381   3
   0 -14   0 375.270 16.2856   2
   0  14   0 350.062 17.0973   3
 -10   0   1 1.96146 2.65128   8
  10   0  -1 2.38788 2.87067  14
 -10   0   1 1.11454 2.82663  11
 -10   0   1 -0.3753 2.53420   1
  10   0  -1 -2.1810 2.82126   4
   8   0  -1 9.39241 3.39853  10
   8   0  -1 -0.1598 1.47450  12
   8   0  -1 2.77309 2.26911  14
  -8   0   1 -0.2219 1.45545   5
  -8   0   1 0.31388 1.64361  16
  -8   0   1 -0.5532 2.49692  11
   8   0  -1 1.34015 2.25944   4
  -8   0   1 2.36461 1.59028   8
  -8   0   1 9.84582 2.58957   1
   6   0  -1 8.71374 2.66950  10
  -6   0   1 1.33874 1.18559   5
   6   0  -1 8.27124 2.28140  14
   6   0  -1 1.87835 1.57669   4
  -6   0   1 2.42955 1.45968   8
  -6   0   1 9.70027 2.50091  11
   6   0  -1 6.01642 1.45543  12
   4   0  -1 -0.0354 0.66871   4
  -4   0   1 1.84483 0.89703   8
   4   0  -1 0.87541 1.21245  10
  -4   0   1 0.63800 0.79628   5
   4   0  -1 0.71480 0.91862  14
  -4   0   1 2.66074 0.89617   1
   4   0  -1 0.39844 0.65240  12
  -4   0   1 -0.1473 0.87315  16
  -4   0   1 0.15286 0.80601  11
  -2   0  -1 0.60532 0.76004   7
   2   0   1 4.26127 0.89065   4
  -2   0  -1 3.01746 0.73401   8
   2   0   1 0.25588 0.27778  12
  -2   0  -1 1.67328 0.53806   5
  -2   0  -1 0.24441 0.46619  11
  -2   0  -1 0.83525 0.63581   1
  -2   0  -1 0.36687 0.49720  10
   2   0   1 3.90662 1.01222  10
  -4   0  -1 3.44933 0.76906   6
   4   0   1 2.15662 1.70922  10
   4   0   1 -0.0384 0.69479  12
   4   0   1 2.25296 1.31879   4
  -4   0  -1 0.43233 0.91138   8
  -4   0  -1 -0.4980 0.66174   1
  -4   0  -1 7.33678 1.31439   5
   4   0   1 2.37489 1.17280  14
  -4   0  -1 0.73850 1.15793  11
   6   0   1 1.83999 1.96070   4
   6   0   1 1.43133 2.04118  10
  -6   0  -1 1.01185 1.43306  11
   6   0   1 0.47590 1.76592  14
  -6   0  -1 1.95640 1.68787   1
  -6   0  -1 3.34373 1.65666   8
   6   0   1 0.67705 1.14331  12
  -6   0  -1 0.52655 1.02698   5
   8   0   1 4.11228 2.26614  14
  -8   0  -1 7.10579 2.80295  11
   8   0   1 -0.0156 1.66845  12
   8   0   1 -2.0980 1.65700   4
  -8   0  -1 3.51787 2.60101   1
 -10   0  -1 0.00896 3.28481   1
 -10   0  -1 2.72971 4.04825  11
  10   0   1 1.96511 3.39301   4
  10   0   1 -0.5034 2.00046  12
  11  -1  -1 295.445 13.6921   4
 -11  -1   1 299.192 15.9090  11
 -11   1   1 306.869 16.6553  11
  11   1  -1 298.170 13.2055   4
  -9  -1   1 464.814 15.3634   1
  -9  -1   1 450.849 18.2390  11
   9  -1  -1 444.077 15.7239  12
  -9  -1   1 442.783 15.5179   8
   9  -1  -1 452.434 15.9928   4
   9  -1  -1 431.231 17.5258  14
   9   1  -1 462.601 18.3415  14
   9   1  -1 466.630 16.0975   4
  -9   1   1 439.680 15.5105   1
  -9   1   1 438.621 18.2888  11
  -9   1   1 462.261 15.6153   8
   9   1  -1 430.838 15.7143  12
   7  -1  -1 1304.58 32.5658   4
   7  -1  -1 1207.43 36.8023  10
  -7  -1   1 1286.95 32.2459   8
  -7  -1   1 1310.05 34.8908  16
   7  -1  -1 1274.99 34.4512  14
   7  -1  -1 1267.94 32.3215  12
  -7  -1   1 1281.96 31.7317   1
  -7  -1   1 1285.36 34.5891  11
  -7  -1   1 1260.73 32.0234   5
  -7   1   1 1205.81 30.9388   5
   7   1  -1 1233.06 35.5635  10
   7   1  -1 1262.23 34.6971  14
   7   1  -1 1215.05 31.9747  12
  -7   1   1 1291.62 33.4219  16
  -7   1   1 1265.76 31.9200   1
   7   1  -1 1251.49 32.1397   4
  -7   1   1 1274.49 31.9698   8
  -7   1   1 1310.88 34.7439  11
   5  -1  -1 1384.75 32.2930   2
  -5  -1   1 1391.93 33.6280   5
   5  -1  -1 1403.64 33.6881  12
  -5  -1   1 1394.93 34.9189  11
   5  -1  -1 1406.34 37.4193  10
   5  -1  -1 1412.30 33.8060   4
   5  -1  -1 1407.91 35.1180  14
  -5  -1   1 1411.06 33.1909   1
  -5  -1   1 1411.18 33.5396   8
  -5  -1   1 1430.48 35.6836  16
   5   1  -1 1407.76 33.6449   4
  -5   1   1 1403.58 33.4358   8
   5   1  -1 1385.28 31.9389   9
  -5   1   1 1395.78 35.0654  11
  -5   1   1 1399.40 32.9126   5
  -5   1   1 1435.30 33.3932   1
   5   1  -1 1403.17 36.3501  10
   5   1  -1 1413.51 33.6496  12
   5   1  -1 1419.37 35.4840  14
  -5   1   1 1447.94 34.5351  16
  -3  -1   1 4825.95 118.501  16
  -3  -1   1 4908.85 116.925  11
  -3  -1   1 4877.62 113.886   5
   3  -1  -1 5055.48 114.588   2
   3  -1  -1 5126.81 116.395  12
   3  -1  -1 5073.88 114.180   4
   3  -1  -1 4895.10 125.868  10
  -3  -1   1 5004.58 120.868  10
  -3  -1   1 4880.98 114.720   8
  -3  -1   1 5363.26 114.483   1
   3  -1  -1 5190.70 120.200  14
  -3   1   1 5050.25 120.743  16
   3   1  -1 5075.15 115.241   4
  -3   1   1 4835.95 114.307   8
   3   1  -1 5169.11 120.215  14
   3   1  -1 5061.91 113.175   9
   3   1  -1 5131.59 125.074  10
   3   1  -1 5032.29 114.833  12
  -3   1   1 5151.37 112.583   1
  -3   1   1 4922.02 113.721   5
  -3   1   1 4744.35 119.788  10
  -3   1   1 4986.83 118.693  13
  -1  -1   1 2429.07 59.8513  16
   1  -1  -1 2502.04 61.6351  10
  -1   1   1 2370.73 61.6662  10
   1   1  -1 2610.98 59.5397  14
  -1   1   1 2427.17 57.6207  13
   1  -1   1 7129.21 166.476   2
  -1  -1  -1 7778.75 171.397  10
   1  -1   1 7041.46 177.457  10
  -1  -1  -1 8349.88 168.790   1
  -1  -1  -1 7085.68 166.609   6
  -1  -1  -1 7209.34 168.764   5
   1  -1   1 7064.16 165.667  12
  -1  -1  -1 8076.73 172.482  11
  -1   1  -1 7145.18 169.350  11
  -1   1  -1 7061.33 176.666  10
  -1   1  -1 7600.05 168.125   1
   1   1   1 8092.85 172.137  14
   1   1   1 7600.49 169.950  10
  -1   1  -1 7708.52 171.151   7
   3  -1   1 716.445 18.1110   4
   3  -1   1 740.322 17.4258   2
  -3  -1  -1 711.287 17.9086   5
  -3  -1  -1 727.118 17.9264   8
  -3  -1  -1 753.752 19.7041  10
  -3  -1  -1 708.570 19.1585  11
  -3  -1  -1 712.132 18.0591   1
   3  -1   1 750.342 20.8216  10
   3  -1   1 722.367 17.4975  12
  -3  -1  -1 705.614 17.6551   6
  -3   1  -1 734.391 18.1502   1
   3   1   1 726.604 19.6147  14
   3   1   1 750.933 17.4194  12
  -3   1  -1 718.828 16.9485   5
   3   1   1 739.672 19.5859  10
   3   1   1 726.767 17.9284   4
  -3   1  -1 715.304 18.9121   7
  -3   1  -1 728.503 17.6581   8
  -3   1  -1 715.655 18.9423  11
   5  -1   1 2866.23 64.6981   4
  -5  -1  -1 2830.64 64.5461   1
  -5  -1  -1 2843.60 66.7348  11
   5  -1   1 2796.25 66.8951  14
   5  -1   1 2792.77 68.7350  10
   5  -1   1 2801.31 63.8984  12
  -5  -1  -1 2772.94 64.0722   5
  -5  -1  -1 2653.91 63.1269   6
  -5   1  -1 2814.29 64.5948   1
   5   1   1 2778.59 67.1386  10
  -5   1  -1 2784.90 63.9412   8
  -5   1  -1 2690.67 62.7824   5
   5   1   1 2925.94 64.5524   4
   5   1   1 2817.99 63.7337  12
  -5   1  -1 2803.79 66.3287  11
   5   1   1 2837.79 67.2424  14
  -7  -1  -1 156.039 8.02503   1
  -7  -1  -1 165.327 7.41647   5
   7  -1   1 168.536 8.12244   4
   7  -1   1 162.830 7.58934  12
  -7  -1  -1 175.117 10.0117  11
   7  -1   1 162.099 10.5714  10
   7  -1   1 167.060 9.86132  14
  -7   1  -1 163.398 9.61272  11
  -7   1  -1 166.646 7.70039   8
   7   1   1 153.135 9.44203  10
   7   1   1 154.955 7.38080  12
   7   1   1 166.860 9.74065  14
  -7   1  -1 167.627 8.26213   1
   7   1   1 156.448 7.91145   4
  -9  -1  -1 888.675 26.4829   1
   9  -1   1 878.998 29.7399  14
   9  -1   1 872.865 26.2279  12
   9  -1   1 912.926 26.7044   4
  -9  -1  -1 915.117 30.4150  11
   9   1   1 882.094 26.3077   4
  -9   1  -1 930.717 30.4656  11
   9   1   1 867.196 26.0631  12
  -9   1  -1 893.824 26.9697   1
   9   1   1 866.264 29.6169  14
 -10  -2   1 118.113 7.62750   1
  10  -2  -1 113.330 8.67603  14
 -10  -2   1 123.568 9.59428  11
  10  -2  -1 117.110 8.27828   4
  10   2  -1 107.472 8.73382  14
 -10   2   1 124.912 8.02464   8
 -10   2   1 129.688 10.3672  11
 -10   2   1 119.025 8.00502   1
  10   2  -1 127.529 8.39730   4
  -8  -2   1 364.892 13.1563   5
  -8  -2   1 344.137 14.7910  11
  -8  -2   1 372.125 15.5524  16
   8  -2  -1 355.510 14.5522  14
   8  -2  -1 350.927 13.1591   4
  -8  -2   1 357.133 12.8357   8
  -8  -2   1 374.471 12.5664   1
   8  -2  -1 360.038 13.0661  12
  -8   2   1 356.877 12.5817   8
   8   2  -1 357.838 12.9636  12
   8   2  -1 367.406 12.9046   4
  -8   2   1 355.483 12.9219   1
  -8   2   1 371.432 15.3587  11
   8   2  -1 357.065 15.2596  14
  -6  -2   1 395.830 13.8751  11
   6  -2  -1 403.091 16.3553  10
  -6  -2   1 411.550 12.4931   8
  -6  -2   1 408.014 12.0510   1
  -6  -2   1 420.146 14.9226  16
   6  -2  -1 403.945 12.5594  12
   6  -2  -1 387.763 13.5943  14
  -6  -2   1 404.264 12.8308   5
   6  -2  -1 403.845 11.3510   2
   6  -2  -1 413.985 12.7577   4
   6   2  -1 370.787 13.9446  10
  -6   2   1 406.186 12.3039   8
  -6   2   1 401.900 11.3115   5
   6   2  -1 405.078 12.5063   4
   6   2  -1 403.326 14.3923  14
  -6   2   1 411.202 14.1557  11
   6   2  -1 412.564 12.6861  12
  -6   2   1 408.208 12.4130   1
  -6   2   1 408.869 12.6730  16
   4  -2  -1 1168.63 28.2280   4
   4  -2  -1 1170.18 28.3585  12
  -4  -2   1 1172.70 29.9402  10
  -4  -2   1 1196.25 29.1934  11
  -4  -2   1 1185.50 27.7255   1
  -4  -2   1 1224.56 28.6930   5
   4  -2  -1 1208.05 31.9441  10
   4  -2  -1 1194.90 27.9907   2
  -4  -2   1 1185.31 30.3933  16
  -4  -2   1 1193.44 28.1552   8
  -4   2   1 1208.03 28.3302  16
   4   2  -1 1169.06 29.6011  10
  -4   2   1 1138.50 27.1817   5
  -4   2   1 1197.58 27.9931   1
  -4   2   1 1197.76 28.8407  13
  -4   2   1 1173.07 27.9034   8
   4   2  -1 1179.00 28.2995  12
   4   2  -1 1194.85 29.8902  14
   4   2  -1 1160.13 26.4580   9
   4   2  -1 1200.66 28.1279   4
  -2  -2   1 2796.61 62.1772   5
   2  -2  -1 2664.43 61.5318   4
   2  -2  -1 2804.44 68.6838  10
   2  -2  -1 2827.54 62.0065  12
  -2  -2   1 2779.64 62.9094   8
  -2  -2   1 2889.00 66.0880  11
  -2  -2   1 2980.75 63.5110   1
   2  -2  -1 2774.50 62.2342   2
  -2  -2   1 2869.07 66.7542  16
   2  -2  -1 2682.66 63.4242   6
  -2  -2   1 2947.89 70.2341  10
  -2   2   1 2790.17 63.8826  10
  -2   2   1 2623.99 66.4109  13
   2   2  -1 2831.21 64.9125   3
  -2   2   1 2731.54 63.1399  12
   2   2  -1 2985.75 63.5922  12
  -2   2   1 2677.38 65.5934   7
  -2   2   1 2735.40 61.6370   8
   2   2  -1 2971.73 68.3776  14
  -2   2   1 2717.60 63.2203   3
   2   2  -1 2778.03 64.2997   4
   0  -2  -1 2773.20 63.6578  11
   0  -2  -1 2549.63 60.9588   2
   0  -2   1 2615.52 62.0462  12
   0  -2   1 2676.57 58.9654   2
   0  -2   1 2701.09 69.1814  10
   0  -2   1 2587.52 62.6953  16
   0  -2  -1 2626.46 60.8139   6
   0   2   1 2736.04 65.6552  13
   0   2   1 2691.84 59.6142  12
   0   2   1 2697.82 62.3704   3
   0   2  -1 2629.35 60.1800   3
   0   2   1 2650.35 62.0701  10
   0   2   1 2635.18 62.8635  14
   0   2  -1 2673.09 62.4228  13
   0   2  -1 2739.46 60.4361   7
  -2  -2  -1 3172.34 71.8789   5
   2  -2   1 3089.69 74.3641  10
   2  -2   1 3143.30 71.7960   2
  -2  -2  -1 3332.95 78.9948  10
  -2  -2  -1 3197.27 72.0334   6
  -2  -2  -1 3298.51 72.6195  11
  -2  -2  -1 3148.36 74.7694  15
  -2  -2  -1 3319.28 71.7334   1
   2  -2   1 3203.68 73.1111  12
  -2   2  -1 3216.37 71.6575   1
   2   2   1 3162.30 72.8012   4
   2   2   1 3445.30 72.2324  12
  -2   2  -1 2999.45 74.5302  13
  -2   2  -1 3225.52 72.2147   8
  -2   2  -1 3240.32 72.2545   7
   2   2   1 3333.42 79.9769  10
   2   2   1 3509.66 77.5156  14
  -2   2  -1 3198.96 74.3167  10
   4  -2   1 1051.67 25.2604  12
   4  -2   1 1045.84 29.4907  10
  -4  -2  -1 1036.79 27.2986  11
  -4  -2  -1 966.955 25.3802   6
   4  -2   1 1027.07 24.9590   2
  -4  -2  -1 1038.08 25.8496   5
   4  -2   1 1046.17 25.7975   4
  -4  -2  -1 1000.36 25.5006   1
  -4   2  -1 1032.02 25.7882   1
   4   2   1 1052.41 26.9323  10
   4   2   1 1047.35 27.8207  14
  -4   2  -1 1044.14 24.9788   8
   4   2   1 1057.17 25.3853   4
   4   2   1 1061.69 25.1040  12
  -4   2  -1 1039.89 26.9152  11
  -4   2  -1 1049.97 26.8811   7
   6  -2   1 704.616 19.5761  12
   6  -2   1 697.133 24.5243  10
  -6  -2  -1 674.927 19.7263   1
   6  -2   1 696.895 20.1120   4
  -6  -2  -1 690.110 19.7345   5
   6  -2   1 682.388 22.1359  14
  -6  -2  -1 716.955 22.3713  11
   6   2   1 794.349 19.8456  12
   6   2   1 732.819 22.9251  14
  -6   2  -1 700.506 19.3691   8
  -6   2  -1 705.321 20.2314   1
   6   2   1 679.761 21.7248  10
   6   2   1 719.682 19.7816   4
  -6   2  -1 702.783 21.8784  11
   8  -2   1 445.299 18.0941  14
   8  -2   1 471.500 16.4412   4
  -8  -2  -1 478.525 19.0224  11
   8  -2   1 442.566 15.3972  12
  -8  -2  -1 452.509 15.8382   1
  -8   2  -1 463.816 18.5693  11
  -8   2  -1 454.769 16.0819   1
   8   2   1 450.079 15.5872   4
   8   2   1 453.151 15.5463  12
   8   2   1 443.273 18.4722  14
  -8   2  -1 443.834 15.2260   8
 -10  -2  -1 186.104 13.2153  11
  10  -2   1 180.732 9.88605  12
  10  -2   1 186.436 10.7219   4
 -10  -2  -1 181.677 10.2150   1
 -10   2  -1 179.924 10.2000   1
  10   2   1 184.871 10.2639   4
 -10   2  -1 174.688 11.7871  11
  11  -3  -1 114.475 7.95398   4
 -11  -3   1 104.270 9.43110  11
 -11   3   1 110.372 8.28528   1
  11   3  -1 106.885 8.16933   4
 -11   3   1 107.629 9.51783  11
 -11   3   1 107.474 7.65799   8
   9  -3  -1 1289.08 33.8321   4
  -9  -3   1 1254.49 36.6190  11
  -9  -3   1 1217.83 33.7468   5
   9  -3  -1 1151.56 35.0798  14
  -9  -3   1 1259.42 32.4834   1
   9  -3  -1 1095.78 34.6560  12
  -9   3   1 1236.13 33.4704   1
   9   3  -1 1222.10 33.1205   4
  -9   3   1 1252.53 36.8447  11
   9   3  -1 1200.80 36.6242  14
   9   3  -1 1195.54 33.1960  12
  -9   3   1 1238.74 32.8951   8
  -7  -3   1 206.229 9.16344   5
   7  -3  -1 212.905 9.08178   4
  -7  -3   1 199.448 8.14286   1
   7  -3  -1 206.064 8.78933  12
  -7  -3   1 208.874 11.1177  16
   7  -3  -1 202.433 12.2513  10
  -7  -3   1 206.288 10.1529  11
   7  -3  -1 207.782 9.79355  14
  -7   3   1 216.920 8.87261   1
   7   3  -1 207.620 8.73608  12
   7   3  -1 229.393 8.95838   4
   7   3  -1 206.045 10.4212  14
  -7   3   1 215.256 8.52919   8
  -7   3   1 217.260 10.3238  11
   5  -3  -1 2413.43 55.9005   4
   5  -3  -1 2446.91 55.6765   2
  -5  -3   1 2318.61 56.3704   5
  -5  -3   1 2428.94 55.7967   8
   5  -3  -1 2485.89 61.2002  10
   5  -3  -1 2353.42 56.0522  12
  -5  -3   1 2407.64 55.2208   1
  -5  -3   1 2465.70 59.2152  16
  -5  -3   1 2394.51 57.1574  11
   5   3  -1 2382.47 55.8606  12
   5   3  -1 2446.56 58.3695  14
  -5   3   1 2518.40 57.0229  13
  -5   3   1 2440.64 55.4017  16
   5   3  -1 2378.70 55.4931   4
  -5   3   1 2449.40 55.4811   8
  -5   3   1 2422.60 55.7188   1
   3  -3  -1 945.381 22.7030   4
   3  -3  -1 925.599 23.3926   2
   3  -3  -1 954.826 22.0663   6
  -3  -3   1 1004.69 23.7395  10
  -3  -3   1 997.242 23.5959   5
  -3  -3   1 955.117 22.6773   8
  -3  -3   1 929.273 22.0292   2
   3  -3  -1 951.718 23.1657  12
   3  -3  -1 952.741 26.0134  10
  -3  -3   1 973.011 25.1953  16
  -3  -3   1 998.065 23.4870  11
  -3  -3   1 957.877 22.4297   1
   3   3  -1 944.490 23.0669   3
  -3   3   1 924.907 22.4965   8
   3   3  -1 947.963 22.5905   4
  -3   3   1 974.691 23.0005  16
  -3   3   1 980.579 23.6202  13
   3   3  -1 993.783 24.4768  14
  -3   3   1 1001.92 22.8991  12
  -3   3   1 925.883 23.1206   3
  -3   3   1 932.718 22.8782   7
   3   3  -1 971.085 23.0277  12
  -3   3   1 903.208 21.9145   5
  -1  -3   1 2967.41 74.7262  16
  -1  -3   1 3044.85 67.8577   5
   1  -3  -1 3041.81 68.3771   2
   1  -3  -1 3079.72 69.9931   6
  -1  -3   1 3057.78 68.1272   2
  -1  -3   1 3002.34 67.8727  12
   1  -3  -1 3168.17 77.0798  10
  -1   3   1 3030.48 71.0361  13
  -1   3   1 3138.87 67.7520  12
  -1   3   1 3110.04 73.0394  14
   1   3  -1 2982.39 73.9224  14
  -1   3   1 3092.68 73.6744  10
   1   3  -1 3199.53 73.0571  13
   1   3  -1 3095.41 68.0727   3
   1   3  -1 3189.98 69.9593   4
  -1   3   1 3000.58 67.9938   3
   1   3  -1 3028.63 69.2094  12
   1  -3   1 2556.83 57.9357  10
  -1  -3  -1 2385.38 55.1359  15
  -1  -3  -1 2404.60 56.1738   6
  -1  -3  -1 2467.80 55.0908   2
   1  -3   1 2459.91 56.0544   2
   1  -3   1 2516.01 55.4272  12
  -1  -3  -1 2494.12 56.0980  11
  -1   3  -1 2500.12 55.9634   3
   1   3   1 2472.37 56.0890  14
  -1   3  -1 2533.15 55.7842   7
   1   3   1 2522.97 56.8400  12
  -1   3  -1 2543.15 57.5891  10
   1   3   1 2522.99 55.8784   3
  -1   3  -1 2438.33 55.5123  13
  -3  -3  -1 3110.01 68.7257   1
  -3  -3  -1 3226.84 70.3265  11
  -3  -3  -1 3049.54 69.1920   5
  -3  -3  -1 2982.87 69.3201   6
  -3  -3  -1 2985.61 67.6487  15
   3  -3   1 2962.19 68.9938   2
   3  -3   1 3014.10 72.8405  10
  -3  -3  -1 3064.91 68.4012  10
   3  -3   1 3009.87 68.4988  12
   3   3   1 2969.58 67.8690   4
   3   3   1 3090.64 72.6971  10
   3   3   1 3137.50 70.6566  14
   3   3   1 3243.70 68.3158  12
  -3   3  -1 3035.20 67.7714   8
  -3   3  -1 3041.20 69.6417   7
  -3   3  -1 2943.07 68.6685   1
  -3   3  -1 3068.42 69.3739  13
   5  -3   1 1022.94 25.6199  12
   5  -3   1 981.381 25.8648   4
   5  -3   1 978.068 24.9499   2
  -5  -3  -1 1003.80 25.7201   1
  -5  -3  -1 970.176 25.9371   6
  -5  -3  -1 978.098 27.6340  11
   5  -3   1 1025.49 31.0624  10
  -5  -3  -1 996.483 26.1225   5
   5   3   1 985.470 28.1545  14
  -5   3  -1 1010.44 26.0743   1
  -5   3  -1 1015.19 24.9210   8
  -5   3  -1 992.928 27.3262  11
   5   3   1 1016.99 25.1906   4
   5   3   1 1002.11 25.4004  12
  -7  -3  -1 1274.92 34.0635   5
   7  -3   1 1277.42 36.7884  14
   7  -3   1 1271.12 33.5497  12
   7  -3   1 1310.07 34.1698   4
  -7  -3  -1 1224.27 36.1418  11
  -7  -3  -1 1324.73 33.8951   1
   7   3   1 1272.75 37.1684  14
   7   3   1 1319.30 33.2879   4
  -7   3  -1 1276.70 32.8618   8
  -7   3  -1 1321.07 36.6106  11
  -7   3  -1 1283.53 34.1770   1
   7   3   1 1301.02 33.4765  12
   9  -3   1 300.236 12.5954  12
  -9  -3  -1 273.700 12.3367   1
  -9  -3  -1 300.929 15.7149  11
   9  -3   1 315.291 13.1549   4
   9  -3   1 283.083 14.7114  14
  -9   3  -1 296.934 15.3636  11
   9   3   1 300.653 12.2200   4
  -9   3  -1 282.809 13.2697   1
   9   3   1 274.123 15.0607  14
  10  -4  -1 84.9597 7.20854   4
 -10  -4   1 70.9356 6.28944   5
 -10  -4   1 69.7762 8.25415  11
 -10   4   1 77.4690 9.24047  11
 -10   4   1 76.8383 6.34811   8
 -10   4   1 79.7557 7.53061   1
  10   4  -1 74.5036 6.12432   4
   8  -4  -1 311.426 11.9984   4
  -8  -4   1 303.600 11.2380   1
  -8  -4   1 295.840 13.4537  11
  -8  -4   1 294.452 11.8633   6
  -8  -4   1 309.308 12.6539   5
   8  -4  -1 300.619 12.0133  12
   8  -4  -1 300.832 13.1301  14
  -8   4   1 307.784 11.4342   8
   8   4  -1 305.166 11.4751   4
  -8   4   1 290.222 11.6655   1
  -8   4   1 313.303 14.2395  11
   8   4  -1 282.693 11.5710  12
   8   4  -1 286.638 13.7576  14
   8   4  -1 273.511 11.5809   3
   6  -4  -1 86.3841 4.95489   2
  -6  -4   1 91.6166 7.15979  16
  -6  -4   1 85.7051 5.71292   5
   6  -4  -1 92.4445 5.27656  12
  -6  -4   1 81.3090 4.61380   1
   6  -4  -1 87.1704 5.03003   4
   6  -4  -1 81.4362 7.14090  10
  -6  -4   1 82.8387 5.82501  11
   6   4  -1 87.4816 4.91273   4
   6   4  -1 81.7428 6.27958  14
   6   4  -1 85.4251 5.00032  12
  -6   4   1 89.2526 4.83558   8
   6   4  -1 85.7897 5.19782   3
  -6   4   1 85.9828 5.13483   1
  -6   4   1 92.6130 5.87006  13
  -4  -4   1 299.758 11.4684  16
   4  -4  -1 283.892 12.0121  10
  -4  -4   1 279.971 8.37148   1
   4  -4  -1 284.751 9.54174   2
   4  -4  -1 277.073 9.12244  12
  -4  -4   1 301.556 9.67156  11
  -4  -4   1 285.668 9.52098   5
   4  -4  -1 284.946 7.51629   6
   4  -4  -1 268.391 8.63870   4
  -4   4   1 280.170 8.35493  16
   4   4  -1 287.837 10.4019  14
   4   4  -1 273.265 8.37701   4
  -4   4   1 276.885 9.49225  13
  -4   4   1 271.730 9.21963   3
  -4   4   1 253.938 7.34567   5
   4   4  -1 286.650 9.06371  12
   4   4  -1 266.192 9.01126   3
  -4   4   1 269.829 8.80272   1
  -4   4   1 279.413 8.46037   8
  -2  -4   1 251.839 7.85399   5
  -2  -4   1 238.946 7.29855  11
  -2  -4   1 251.627 7.52015   2
   2  -4  -1 260.516 7.42501   6
   2  -4  -1 246.339 8.22698   2
   2  -4  -1 243.697 6.77273   4
  -2  -4   1 257.725 9.22953  16
   2  -4  -1 258.049 9.38081  10
   2  -4  -1 257.598 7.68761  12
  -2  -4   1 259.213 7.61142  12
  -2   4   1 258.495 9.13704  10
  -2   4   1 262.961 7.50174  12
   2   4  -1 245.830 7.44227  13
  -2   4   1 252.774 7.06961   8
   2   4  -1 252.472 6.98061   4
   2   4  -1 251.555 8.46079  14
  -2   4   1 250.646 6.97791   7
   2   4  -1 242.305 7.75190   3
   2   4  -1 243.788 7.50684  12
  -2   4   1 247.274 7.71894   3
  -2   4   1 259.875 8.12596  13
   0  -4   1 0.26709 0.60426  12
   0  -4   1 2.48851 0.73072   5
   0  -4  -1 1.10327 0.74911   6
   0  -4   1 2.16985 0.96154  10
   0  -4  -1 1.29707 0.89347   2
   0  -4   1 2.90714 0.98453   2
   0  -4  -1 3.51799 0.89410  11
   0   4   1 1.57774 0.45444  10
   0   4   1 3.47602 0.92428  13
   0   4  -1 1.55394 0.83987  14
   0   4  -1 1.46144 0.92265   3
   0   4  -1 1.31957 0.58017  13
   0   4  -1 0.45414 0.61713   7
   0   4   1 2.01007 0.62350  12
   0   4   1 2.73185 0.85136   3
  -2  -4  -1 223.231 8.06273  11
  -2  -4  -1 237.815 8.38669   6
   2  -4   1 241.010 8.33162   2
  -2  -4  -1 249.418 8.16034   5
   2  -4   1 243.911 6.41440   6
   2  -4   1 242.130 9.97646  10
   2  -4   1 246.247 7.64668  12
  -2  -4  -1 229.542 6.77579  15
  -2  -4  -1 228.340 6.68385   2
   2   4   1 237.104 6.45869   4
  -2   4  -1 237.995 8.06693   3
  -2   4  -1 239.431 6.47318   8
  -2   4  -1 240.774 7.93150   7
   2   4   1 256.514 8.61667  14
  -2   4  -1 249.653 7.89292  13
   2   4   1 228.803 7.22615  12
   2   4   1 250.075 8.14207   3
   4  -4   1 0.06121 1.35488   2
   4  -4   1 2.19939 1.48067   4
  -4  -4  -1 0.42353 1.41972   5
  -4  -4  -1 3.65689 1.49224   1
  -4  -4  -1 0.80272 1.04890  11
   4  -4   1 1.10744 1.40710  10
   4   4   1 0.05516 0.86612  12
  -4   4  -1 0.31559 1.35780   7
   4   4   1 -0.6188 1.20041   3
  -4   4  -1 1.86019 1.38279   1
   4   4   1 1.28772 1.74880  14
  -4   4  -1 2.12840 1.42792  13
   4   4   1 2.35249 1.07777   4
   6  -4   1 30.4920 3.64995  12
  -6  -4  -1 33.6317 3.93551   6
  -6  -4  -1 38.0720 5.21341  11
   6  -4   1 31.0538 4.05007   4
  -6  -4  -1 32.1413 4.28271   5
   6  -4   1 28.9492 5.56902  10
  -6  -4  -1 32.4346 3.89996   1
   6  -4   1 32.3743 3.58258   2
   6   4   1 34.4093 3.58592   4
  -6   4  -1 27.1196 3.87232   1
  -6   4  -1 40.1500 4.37451  11
   6   4   1 30.7496 3.47235  12
   6   4   1 33.8490 5.09252  14
  -6   4  -1 34.5226 3.33395   8
  -8  -4  -1 25.4661 4.04031   1
   8  -4   1 20.0339 4.01503  14
  -8  -4  -1 24.0580 5.34884  11
   8  -4   1 38.1218 4.82317   4
   8  -4   1 23.9895 3.93436  12
  -8   4  -1 25.8211 3.31505   8
  -8   4  -1 26.3105 4.15373   1
   8   4   1 29.4776 3.98016  12
   8   4   1 17.8730 3.80002   3
  -8   4  -1 22.0718 4.46182  11
   8   4   1 25.1840 4.75979  14
   8   4   1 21.5702 3.64320   4
 -10  -4  -1 -1.3003 1.88292   1
 -10  -4  -1 1.52096 4.20076  11
  10  -4   1 -1.9308 1.89498   4
  10   4   1 5.82799 2.57085   4
  10   4   1 -0.5874 1.88941  12
  10   4   1 3.01657 2.64623   3
 -10   4  -1 3.75751 2.99892  11
 -10   4  -1 3.06484 3.52396   1
  11   5  -1 302.353 14.8521   4
   9  -5  -1 222.397 10.3952   4
  -9  -5   1 218.318 12.3871  11
  -9  -5   1 222.685 11.3993   5
  -9  -5   1 174.906 12.3602   1
   9   5  -1 224.421 10.3236   4
  -9   5   1 210.285 12.6599  11
   9   5  -1 222.643 11.3537  12
  -9   5   1 230.080 11.2213   1
   9   5  -1 227.450 10.9673   3
   9   5  -1 218.430 12.5858  14
  -9   5   1 219.190 9.88219   8
   7  -5  -1 1089.78 30.2805  12
  -7  -5   1 1107.72 31.0819   6
   7  -5  -1 1137.55 29.6647   2
   7  -5  -1 1100.39 31.2555  14
  -7  -5   1 1145.51 35.2057  16
  -7  -5   1 1124.26 31.2081   5
  -7  -5   1 1153.91 29.1510   1
  -7  -5   1 1106.43 31.6767  11
   7  -5  -1 1151.53 30.1515   4
   7   5  -1 1100.15 30.4341   3
   7   5  -1 1087.29 32.8764  14
   7   5  -1 1109.92 30.1256  12
  -7   5   1 1138.46 30.2726   1
  -7   5   1 1163.28 29.3373   8
   7   5  -1 1133.77 29.3276   4
   5  -5  -1 1051.01 32.6541  10
   5  -5  -1 1037.49 27.7248  12
  -5  -5   1 1102.90 28.6549   5
   5  -5  -1 1091.47 28.2808   2
   5  -5  -1 1047.60 27.1162   4
  -5  -5   1 1161.76 31.9837  16
  -5  -5   1 1119.07 28.6085  11
   5   5  -1 1078.49 30.0871  14
  -5   5   1 1066.56 28.4427  13
  -5   5   1 1066.11 26.7006   8
  -5   5   1 1064.47 27.4696   1
   5   5  -1 1075.18 26.7596   4
   5   5  -1 1093.74 27.7763  12
   5   5  -1 1069.09 28.0376   3
  -3  -5   1 3395.61 79.3476   2
  -3  -5   1 3495.70 80.5760   5
   3  -5  -1 3672.21 80.3994  12
  -3  -5   1 3501.66 83.0985  16
   3  -5  -1 3614.42 83.9291  10
   3  -5  -1 3545.09 78.9906   6
   3  -5  -1 3460.41 79.0221   4
   3  -5  -1 3665.50 81.2662   2
  -3  -5   1 3409.44 79.9171  11
   3   5  -1 3509.19 80.4676   3
  -3   5   1 3637.27 80.9698  13
   3   5  -1 3600.68 80.0757  12
  -3   5   1 3499.32 79.0368   8
  -3   5   1 3622.50 80.6114   3
  -3   5   1 3617.24 79.4053   7
   3   5  -1 3584.49 79.0006   4
   3   5  -1 3637.31 81.9413  14
  -3   5   1 3484.20 79.6597  12
   3   5  -1 3672.23 80.2038  13
   1  -5  -1 2012.44 47.1824   2
  -1  -5   1 2031.32 46.1992   5
  -1  -5   1 1986.37 46.8831   2
   1  -5  -1 2031.88 47.4562  10
  -1  -5   1 2046.95 46.4086  12
  -1  -5   1 2051.61 47.1992  10
   1  -5  -1 2003.29 46.7894   6
   1   5  -1 1951.75 46.1054  12
   1   5  -1 2026.60 46.1421  13
  -1   5   1 2029.14 46.8189   3
  -1   5   1 2031.85 46.1960  12
  -1   5   1 1999.27 46.9286  13
  -1   5   1 2009.68 46.2334  14
   1   5  -1 2029.26 46.8687   3
   1   5  -1 2017.12 47.4363  14
   1   5  -1 2020.80 46.4832   7
  -1   5   1 2043.89 47.0769  10
  -1   5   1 2038.05 45.1880   7
  -1  -5  -1 3239.40 74.2103   2
   1  -5   1 3298.64 74.4609  12
  -1  -5  -1 3301.03 75.0705  11
   1  -5   1 3349.17 75.6032   2
   1  -5   1 3364.96 77.3740  10
  -1  -5  -1 3299.77 75.6118   6
   1   5   1 3318.36 74.9707   3
   1   5   1 3354.84 74.2675  12
  -1   5  -1 3300.17 75.1092   3
   1   5   1 3362.02 75.1650  13
  -1   5  -1 3356.81 74.5289  13
  -1   5  -1 3169.21 72.4415   8
   1   5   1 3320.92 75.1046  14
  -1   5  -1 3357.30 74.5617   7
  -3  -5  -1 675.488 19.6542  11
   3  -5   1 696.422 18.7861  12
  -3  -5  -1 702.041 20.0115   6
   3  -5   1 721.621 22.9838  10
  -3  -5  -1 711.049 19.5462   5
   3  -5   1 734.850 19.9517   2
   3   5   1 687.551 17.1440   4
  -3   5  -1 701.478 17.1813   8
  -3   5  -1 709.596 19.6949   3
   3   5   1 705.005 19.4966   3
   3   5   1 709.020 20.4038  14
  -3   5  -1 711.253 19.2641  13
  -3   5  -1 722.401 18.8633   1
  -3   5  -1 688.365 19.1243   7
   3   5   1 690.895 18.4485  12
   5  -5   1 1029.70 34.0184  10
  -5  -5  -1 1132.32 29.8914   6
   5  -5   1 1052.84 28.4551  12
  -5  -5  -1 1111.02 29.6903   5
  -5  -5  -1 1101.55 28.3379   1
   5  -5   1 1071.22 28.5454   4
   5  -5   1 1083.58 28.7717   2
  -5  -5  -1 1146.07 30.7207  11
   5   5   1 1120.74 31.3854  14
  -5   5  -1 1086.42 29.7398   7
  -5   5  -1 1129.35 30.2318  11
  -5   5  -1 1061.24 28.7105   1
   5   5   1 1099.50 27.1916   4
   5   5   1 1136.07 28.4180  12
  -5   5  -1 1071.69 26.9783   8
   5   5   1 1122.30 29.6267   3
   7  -5   1 160.893 8.47544  12
   7  -5   1 170.160 8.56005   4
  -7  -5  -1 159.034 10.2386  11
  -7  -5  -1 164.528 8.41943   1
  -7  -5  -1 160.059 8.79461   6
   7   5   1 158.692 8.08701  12
  -7   5  -1 145.694 9.24925   8
   7   5   1 163.114 10.4510  14
   7   5   1 163.016 7.41953   4
  -7   5  -1 156.885 8.55166   1
   7   5   1 162.687 8.81077   3
  -7   5  -1 182.768 10.3880  11
  -9  -5  -1 451.145 19.6318  11
  -9  -5  -1 429.156 16.0624   1
   9  -5   1 428.970 16.3342  12
   9  -5   1 442.718 16.9132   4
  -9   5  -1 455.911 17.6120   1
  -9   5  -1 419.228 18.9497  11
   9   5   1 432.863 17.2845   3
   9   5   1 408.695 15.9235  12
 -10  -6   1 131.468 10.4098  11
  10  -6  -1 127.790 8.14372   4
 -10   6   1 145.823 10.6030  11
  10   6  -1 146.606 9.61184   4
 -10   6   1 143.931 9.68468   1
   8  -6  -1 23.9424 3.89363   4
  -8  -6   1 22.5833 4.64324  11
  -8  -6   1 22.7509 4.93984   5
  -8  -6   1 20.4033 4.26151   6
   8   6  -1 21.0151 3.38088  12
   8   6  -1 26.0337 3.48118   4
   8   6  -1 25.7708 5.17552  14
   8   6  -1 28.5227 4.11396   3
  -8   6   1 24.5501 4.50747   1
  -8   6   1 20.2429 3.21159   8
  -8   6   1 27.0668 5.20171  11
   6  -6  -1 264.861 14.1826  10
   6  -6  -1 274.633 10.9076  12
   6  -6  -1 270.559 11.0110   2
  -6  -6   1 283.676 11.4999  11
  -6  -6   1 296.789 12.0810   6
  -6  -6   1 293.874 11.6816   5
   6  -6  -1 257.674 10.0273   4
   6   6  -1 260.855 10.2931  12
  -6   6   1 263.091 11.1588  13
   6   6  -1 270.798 11.0719   3
   6   6  -1 265.646 9.43609   4
   6   6  -1 284.460 12.9744  14
  -6   6   1 282.569 10.6480   1
  -6   6   1 267.074 9.57635   8
   4  -6  -1 80.8532 5.20046   2
   4  -6  -1 66.9900 3.83306   4
   4  -6  -1 69.5511 4.41211  12
  -4  -6   1 64.2081 5.76453  16
  -4  -6   1 66.6436 4.32740  11
  -4  -6   1 69.0515 5.05651   5
   4  -6  -1 71.9065 6.18412  10
  -4   6   1 93.2076 5.52873  13
  -4   6   1 75.2370 3.86685   8
   4   6  -1 81.5442 3.77961   4
  -4   6   1 76.4914 4.95878   3
  -4   6   1 71.9420 4.05206   7
   4   6  -1 75.5749 4.53020  13
   4   6  -1 76.7545 4.92387   3
   4   6  -1 87.8854 5.95776  14
   4   6  -1 64.0394 4.06366  12
  -2  -6   1 29.7833 2.37020  10
  -2  -6   1 29.2218 3.11060   5
  -2  -6   1 29.3042 2.36317  11
  -2  -6   1 30.4643 2.97363   2
   2  -6  -1 32.3670 2.49795  12
   2  -6  -1 30.8863 2.01809   4
   2  -6  -1 29.4228 3.45138  10
   2  -6  -1 30.2603 2.58388   6
   2  -6  -1 32.8134 3.65096   2
   2   6  -1 31.2622 2.76244   7
   2   6  -1 28.7178 3.27626  14
  -2   6   1 29.7174 2.98813  13
  -2   6   1 28.9626 2.10862   8
   2   6  -1 30.8946 2.40891  13
   2   6  -1 27.7386 3.08766   3
  -2   6   1 30.4340 2.99786   3
  -2   6   1 31.7501 2.50059  12
   2   6  -1 31.7756 2.55837  12
   0  -6   1 221.452 7.60662  12
   0  -6   1 217.614 8.74895  10
   0  -6   1 210.629 8.17758   2
   0  -6  -1 222.252 7.07107  10
   0  -6  -1 224.769 8.36341   6
   0  -6  -1 215.023 8.02689   2
   0  -6   1 214.760 7.73466   6
   0   6   1 208.452 7.97002   3
   0   6   1 209.966 6.57365   7
   0   6   1 223.341 7.50264  12
   0   6   1 213.990 8.01278  13
   0   6  -1 211.327 7.19330  12
   0   6  -1 215.721 7.51123  13
   0   6   1 210.297 7.62478  14
   0   6  -1 216.467 7.50572   7
   0   6  -1 221.496 8.16429   3
  -2  -6  -1 51.0674 4.31050   6
   2  -6   1 38.7679 4.16391   2
   2  -6   1 33.8539 2.30481   6
   2  -6   1 30.8242 2.84680  12
   2  -6   1 35.5426 4.36671  10
  -2  -6  -1 32.0131 2.95021  11
  -2  -6  -1 33.4048 2.56715   2
   2   6   1 34.8798 3.25562  13
   2   6   1 31.2925 3.31149  14
  -2   6  -1 34.9629 2.88890  13
   2   6   1 31.7367 3.05671   3
  -2   6  -1 30.8841 2.82031   7
   2   6   1 33.9898 2.79768  12
  -2   6  -1 38.2134 3.28760   3
  -4  -6  -1 69.5209 5.33769  11
   4  -6   1 73.0712 4.75083  12
   4  -6   1 77.1594 6.91453  10
   4  -6   1 72.6781 5.20138   2
  -4  -6  -1 75.2254 5.75526   6
   4  -6   1 67.8907 4.50681   4
  -4   6  -1 72.2389 4.97716   7
   4   6   1 67.7993 4.92242   3
  -4   6  -1 70.2790 5.04351  13
   4   6   1 72.1933 4.47068  12
  -4   6  -1 75.6222 4.70320   1
   4   6   1 64.7029 5.62305  14
  -6  -6  -1 13.0986 3.36798   6
   6  -6   1 2.12183 1.67539   4
   6  -6   1 4.12754 2.15382  12
   6  -6   1 2.62777 2.40075   2
  -6  -6  -1 -0.4002 2.51824  11
   6   6   1 2.83810 2.39744   3
  -6   6  -1 4.47180 2.24704  11
   6   6   1 1.74538 1.68818  12
   6   6   1 2.18574 2.77917  14
  -6   6  -1 2.56309 2.59756   1
  -8  -6  -1 0.46838 3.43148  11
   8  -6   1 1.02665 1.67878  14
   8  -6   1 5.53444 3.25419   4
   8  -6   1 1.76687 2.38950  12
   8   6   1 -0.2560 2.78975   3
   8   6   1 2.44625 2.06690  12
   8   6   1 0.68698 2.19947  14
  -8   6  -1 5.04139 2.77342   1
  -8   6  -1 1.89883 2.97169  11
  -9  -7   1 186.187 11.3744  11
   9  -7  -1 178.617 9.60270   4
  -9  -7   1 168.140 12.9442   6
   9   7  -1 198.241 10.6263   3
  -9   7   1 202.226 10.6071   1
  -9   7   1 191.394 12.3673  11
  -7  -7   1 953.261 28.2146   6
   7  -7  -1 849.939 24.8982   4
   7  -7  -1 892.447 26.4391   2
  -7  -7   1 910.914 27.4068   5
  -7  -7   1 928.366 27.3057  11
  -7   7   1 897.928 26.1167   1
   7   7  -1 902.633 24.5497   4
   7   7  -1 869.531 29.0045  14
   7   7  -1 899.992 26.1200  12
  -7   7   1 909.530 27.5739  13
   7   7  -1 872.852 26.3723   3
   5  -7  -1 190.984 7.59011   4
   5  -7  -1 196.007 9.25798   2
  -5  -7   1 196.782 9.49011   5
   5  -7  -1 196.154 11.5546  10
  -5  -7   1 196.970 9.65413   6
  -5  -7   1 173.954 8.32034  11
  -5   7   1 205.619 9.37248  13
   5   7  -1 176.060 8.05965  13
   5   7  -1 199.883 7.32670   4
   5   7  -1 183.348 8.84964   3
   5   7  -1 179.056 8.10237  12
  -5   7   1 195.554 7.34175   8
  -5   7   1 190.686 8.34502   1
   5   7  -1 184.997 10.0369  14
  -5   7   1 192.329 9.25147   3
  -3  -7   1 1039.55 27.0873   2
   3  -7  -1 1076.95 30.9386  10
  -3  -7   1 1036.66 26.9638  11
   3  -7  -1 1081.90 28.7994   2
  -3  -7   1 1096.48 28.1236   5
   3  -7  -1 1081.25 26.6273   6
  -3   7   1 1044.67 25.7979   8
   3   7  -1 1059.58 29.0929  14
   3   7  -1 1079.12 27.3669  13
   3   7  -1 1073.28 28.0422   3
  -3   7   1 1105.43 28.4487  13
   3   7  -1 1009.64 27.1476  12
  -3   7   1 1069.79 28.1727   3
  -1  -7   1 440.753 13.9912   2
  -1  -7   1 449.863 14.1982   6
   1  -7  -1 448.937 13.8297   6
   1  -7  -1 443.118 14.1412   2
   1  -7  -1 447.627 14.0601  10
  -1  -7   1 444.516 13.7892  10
   1   7  -1 443.299 14.0074   3
   1   7  -1 432.410 13.1696   7
   1   7  -1 432.115 12.9455  12
  -1   7   1 448.412 13.9844   3
   1   7  -1 437.454 13.0510  13
  -1   7   1 420.703 12.9420  12
   1   7  -1 448.494 14.4715  14
  -1   7   1 446.629 13.8137  13
  -1  -7  -1 1491.09 37.5911   2
   1  -7   1 1545.13 37.2874   6
   1  -7   1 1563.30 39.0835   2
   1  -7   1 1509.94 37.6675  12
   1  -7   1 1527.29 40.3820  10
  -1  -7  -1 1609.86 39.4670   6
  -1   7  -1 1571.27 37.7668  13
   1   7   1 1512.59 36.4089   7
   1   7   1 1542.86 38.2892  13
   1   7   1 1540.34 38.3928  14
  -1   7  -1 1581.99 37.5736   7
   1   7   1 1519.80 37.3646  12
   1   7   1 1557.10 38.4099   3
  -1   7  -1 1578.02 38.7204   3
  -3  -7  -1 786.502 23.0127  11
   3  -7   1 797.358 26.3956  10
   3  -7   1 825.199 23.6098   2
   3  -7   1 792.782 22.2358  12
  -3  -7  -1 812.347 23.9336   6
   3   7   1 796.397 21.9893  12
  -3   7  -1 824.887 22.1927   1
  -3   7  -1 825.387 22.3912   7
  -3   7  -1 812.279 23.3327   3
   3   7   1 799.460 23.1226   3
   3   7   1 783.366 23.4795  14
  -3   7  -1 821.477 22.6134  13
   3   7   1 829.971 23.1803  13
   5  -7   1 1323.35 35.2335  12
  -5  -7  -1 1358.30 37.4444   6
  -5  -7  -1 1319.15 36.6710  11
   5  -7   1 1364.02 34.7638   4
   5  -7   1 1379.34 36.2864   2
   5   7   1 1356.87 38.0493  14
   5   7   1 1335.53 36.3023   3
   5   7   1 1336.83 34.9567  12
  -5   7  -1 1353.95 36.1472  13
  -5   7  -1 1335.57 35.8056   7
  -5   7  -1 1343.31 35.2248   1
  -7  -7  -1 599.903 20.7441   6
   7  -7   1 534.328 18.4310   4
  -7  -7  -1 611.726 21.8177  11
   7  -7   1 531.055 19.0378  12
  -7   7  -1 566.020 20.8181  11
  -7   7  -1 553.595 19.6755   1
   7   7   1 567.070 22.1976  14
   7   7   1 571.568 18.9541  12
   7   7   1 563.457 20.2308   3
  -9  -7  -1 508.037 21.4483  11
   9  -7   1 536.425 19.1271   4
  -9   7  -1 532.640 21.2295  11
  -9   7  -1 525.290 19.6746   1
   9   7   1 527.208 19.9402   3
   9   7   1 514.563 18.8864  12
   8  -8  -1 24.1760 4.66268   2
  -8  -8   1 20.8549 4.25855   6
  -8   8   1 22.8514 5.00936  11
   8   8  -1 17.7337 4.06793   3
  -8   8   1 19.0710 4.49769   1
  -6  -8   1 366.794 15.8866  11
  -6  -8   1 377.375 15.0862   5
  -6  -8   1 378.392 15.8996   6
   6  -8  -1 406.412 15.5026   2
   6   8  -1 390.973 16.5872  14
   6   8  -1 345.646 15.4541  13
  -6   8   1 409.279 15.4706  13
   6   8  -1 387.817 14.9625   3
  -6   8   1 381.764 14.2825   1
  -4  -8   1 237.717 10.9529   6
  -4  -8   1 214.942 9.04659  11
   4  -8  -1 241.373 12.4004  10
   4  -8  -1 254.495 10.9523   2
  -4  -8   1 227.391 10.2904   5
   4   8  -1 223.831 10.9079  14
  -4   8   1 181.389 8.01247   8
   4   8  -1 243.739 9.52221  13
   4   8  -1 222.927 9.32789  12
  -4   8   1 236.911 10.4020   3
   4   8  -1 229.697 9.87973   3
  -4   8   1 255.760 10.6123  13
   2  -8  -1 301.893 12.5340  10
   2  -8  -1 324.921 11.2202   6
  -2  -8   1 363.766 13.0815   6
  -2  -8   1 331.338 11.6122   2
   2  -8  -1 333.969 12.4007   2
   2   8  -1 326.477 12.1051   3
   2   8  -1 320.156 11.1622   7
   2   8  -1 320.956 12.3867  14
  -2   8   1 326.308 12.0616   3
   2   8  -1 323.741 10.9382  13
  -2   8   1 319.532 11.7928  13
  -2   8   1 309.447 9.66165   8
   0  -8   1 946.400 25.1565   6
   0  -8  -1 933.273 25.6255   6
   0  -8   1 950.977 26.2126   2
   0  -8  -1 924.686 25.2378   2
   0   8  -1 903.023 25.3127   3
   0   8   1 881.199 24.1276  12
   0   8   1 944.873 25.2212  13
   0   8  -1 910.734 24.0768   7
   0   8   1 892.452 25.2446   3
   0   8   1 889.133 24.7202  14
   0   8  -1 901.982 24.2205  13
   2  -8   1 201.528 8.39454  12
  -2  -8  -1 202.261 8.10789   2
  -2  -8  -1 189.552 8.69006  11
  -2  -8  -1 207.098 10.0780   6
   2  -8   1 208.169 9.69575   2
   2  -8   1 199.873 10.7106  10
   2   8   1 206.363 8.42444  12
   2   8   1 213.976 9.15773  13
   2   8   1 227.151 11.5481   7
   2   8   1 190.397 9.03964   3
  -2   8  -1 207.010 8.33048   7
   2   8   1 189.588 9.02927  14
  -2   8  -1 204.807 8.70228  13
  -2   8  -1 204.439 9.43268   3
   4  -8   1 701.754 22.2162   2
  -4  -8  -1 732.314 23.5551   6
   4  -8   1 704.261 26.1772  10
   4  -8   1 666.589 19.7654   4
   4  -8   1 720.954 21.3314  12
  -4  -8  -1 704.223 22.2146  11
   4   8   1 679.349 21.7020  13
   4   8   1 696.907 20.8668  12
  -4   8  -1 725.410 21.2055   7
  -4   8  -1 752.398 21.9699  13
  -4   8  -1 727.557 22.6879   3
   4   8   1 694.496 22.9305  14
  -4   8  -1 693.055 20.9986   1
   4   8   1 704.231 22.1958   3
   6  -8   1 253.072 10.9429   4
   6  -8   1 254.903 12.2672   2
  -6  -8  -1 260.547 13.1688   6
  -6  -8  -1 257.896 12.9251  11
  -6   8  -1 266.609 12.6381  11
   6   8   1 262.170 12.1123  13
   6   8   1 264.188 11.4111  12
   6   8   1 265.677 13.3770  14
  -6   8  -1 261.861 12.0437   1
   6   8   1 258.641 12.5106   3
  -8  -8  -1 162.171 9.94979   6
   8  -8   1 160.721 9.40597   4
  -8  -8  -1 172.201 11.4231  11
   8   8   1 153.119 9.12939  12
  -8   8  -1 160.918 9.90100   1
   8   8   1 169.521 10.6056   3
  -9  -9   1 528.062 20.5985   6
   9   9  -1 521.075 19.5239   3
  -9   9   1 503.280 19.6715   1
  -9   9   1 497.276 20.8525  11
  -7  -9   1 124.437 9.63045   6
   7  -9  -1 132.413 8.68467   2
   7   9  -1 107.188 9.75663  14
  -7   9   1 140.587 8.93534  13
  -7   9   1 132.493 8.95277   1
   7   9  -1 136.180 9.02392   3
  -5  -9   1 1808.60 48.4877   6
   5  -9  -1 1797.75 47.3439   2
  -5   9   1 1777.98 46.6571  13
  -5   9   1 1795.87 46.7650   3
  -5   9   1 1857.42 45.9223   1
   5   9  -1 1755.81 46.5808   3
   5   9  -1 1750.21 48.4001  14
   3  -9  -1 307.056 13.1453   2
  -3  -9   1 293.323 12.9043   6
  -3  -9   1 292.453 11.1740   2
  -3   9   1 312.444 12.4924  13
   3   9  -1 310.450 11.2966  13
  -3   9   1 316.616 12.7672   3
   3   9  -1 306.897 13.0062  14
   3   9  -1 311.790 12.6650   3
   3   9  -1 316.036 11.7345   7
  -1  -9   1 2859.52 69.5087   2
   1  -9  -1 2952.73 70.0575   2
   1  -9  -1 2912.60 69.2489   6
  -1  -9   1 2956.71 70.0492   6
  -1   9   1 2930.87 69.8727   3
   1   9  -1 2855.34 67.9414   7
   1   9  -1 2915.62 68.1998  13
   1   9  -1 2903.47 69.7365   3
   1   9  -1 2841.75 70.1291  14
  -1   9   1 2954.07 69.4228  13
  -1  -9  -1 111.479 6.48715   2
  -1  -9  -1 90.4420 6.45021   6
   1  -9   1 87.8582 5.55542   6
   1  -9   1 93.3299 7.18643   2
  -1   9  -1 91.8041 5.51422  13
  -1   9  -1 93.0966 6.00817   7
   1   9   1 84.2238 5.40188  12
   1   9   1 90.2104 6.27451   3
   1   9   1 88.1214 6.00957  14
  -1   9  -1 94.0862 6.32267   3
   1   9   1 81.6414 5.59611  13
  -3  -9  -1 1723.62 46.1671   6
   3  -9   1 1716.19 48.9893  10
  -3  -9  -1 1680.72 44.1764  11
   3  -9   1 1747.75 45.5771   2
   3   9   1 1724.72 44.3664  13
  -3   9  -1 1753.94 45.3850   3
  -3   9  -1 1762.86 44.0150  13
   3   9   1 1709.31 44.6415   3
   3   9   1 1706.53 43.2811  12
   3   9   1 1663.21 44.9486  14
  -5  -9  -1 7.31267 3.41820  11
   5  -9   1 7.65107 3.93227   2
  -5  -9  -1 13.1997 4.27425   6
  -5   9  -1 11.9139 3.02308   1
   5   9   1 13.7100 3.91061   3
   5   9   1 11.1892 3.68936  14
   5   9   1 9.67488 2.80612  12
  -5   9  -1 15.4175 3.49183  13
   5   9   1 9.19089 2.94346  13
  -7  -9  -1 724.567 25.6674   6
   7  -9   1 767.881 24.6406   2
   7   9   1 751.404 25.4790   3
   7   9   1 707.026 23.9728  12
  -7   9  -1 770.173 24.9951   1
  -8 -10   1 10.1087 4.35786   6
   8 -10  -1 13.9787 3.57519   2
  -8  10   1 12.0846 3.59244   1
   8  10  -1 8.71730 2.99288   3
   6 -10  -1 50.7701 6.77658   2
  -6 -10   1 54.6738 6.82330   6
  -6  10   1 58.1365 5.80227  13
   6  10  -1 52.8718 6.35348   7
   6  10  -1 46.2460 6.54609  14
  -6  10   1 64.0005 6.62599   1
   6  10  -1 55.1971 6.20397   3
   4 -10  -1 -1.5914 3.08492   2
  -4 -10   1 -0.4456 2.21435   6
  -4  10   1 3.42358 2.27082   3
  -4  10   1 0.71843 1.57822  13
   4  10  -1 1.27836 1.91189  14
   4  10  -1 1.64742 2.82180   3
   4  10  -1 1.68632 2.15709   7
  -2 -10   1 0.71634 2.24883   2
  -2 -10   1 3.13879 2.99411   6
   2 -10  -1 2.63176 2.88850   2
   2 -10  -1 5.30767 2.50076   6
  -2  10   1 2.40933 1.77227  13
   2  10  -1 0.95357 1.16279  13
   2  10  -1 -0.5367 1.94510  14
   2  10  -1 0.35657 2.34754   3
  -2  10   1 4.06202 2.68991   3
   0 -10   1 76.6353 6.30075   2
   0 -10  -1 70.1952 6.23420   2
   0 -10   1 75.9347 6.23720   6
   0 -10  -1 82.8114 6.77798   6
   0  10  -1 73.7765 5.39302  13
   0  10   1 77.5462 6.71020   3
   0  10   1 80.0729 6.03758  13
   0  10  -1 77.5438 6.59762   3
  -2 -10  -1 41.7897 6.09151   6
   2 -10   1 44.5132 5.52095   2
   2  10   1 28.1038 4.28015  14
   2  10   1 39.1137 4.72239  13
  -2  10  -1 29.6102 4.73065   3
   2  10   1 45.0392 5.58393   3
   2  10   1 30.6025 4.03635  12
  -2  10  -1 36.6544 4.44108  13
   4 -10   1 42.9993 6.17054   2
  -4 -10  -1 45.2095 6.54044   6
  -4 -10  -1 44.0730 5.53936  11
  -4  10  -1 44.5384 5.31400   1
   4  10   1 40.2878 4.64740  12
   4  10   1 44.5340 6.14145  14
  -4  10  -1 43.3443 5.22227  13
   4  10   1 39.9433 5.61016   3
   4  10   1 37.6432 4.93746  13
  -4  10  -1 53.6768 6.66050   3
   6 -10   1 -1.0995 3.32505   2
  -6 -10  -1 3.46432 3.72943   6
  -6  10  -1 -0.7829 2.00216   1
   6  10   1 -1.7084 2.74909   3
  -7 -11   1 306.300 15.7893   6
   7 -11  -1 342.823 15.9257   2
   7  11  -1 327.071 15.1739   3
  -7  11   1 333.709 14.5516   1
   5 -11  -1 182.775 10.9418   2
  -5 -11   1 170.245 11.2869   6
  -5  11   1 156.579 11.0293  13
   5  11  -1 151.351 12.8987  14
  -5  11   1 175.474 10.2065   1
  -5  11   1 172.783 10.8254   3
   5  11  -1 177.459 10.8565   3
   3 -11  -1 212.927 11.4541   2
  -3 -11   1 222.820 12.1547   6
  -3  11   1 219.008 11.0062  13
  -3  11   1 213.371 11.0872   3
   3  11  -1 210.422 11.0240   3
   3  11  -1 202.271 11.4789  14
  -1 -11   1 316.235 13.9668   6
  -1 -11   1 330.939 13.9524   2
   1 -11  -1 330.893 13.7012   6
   1 -11  -1 321.681 14.1105   2
  -1  11   1 308.645 12.9258  13
   1  11  -1 300.396 13.7296   3
  -1  11   1 321.479 13.7713   3
   1 -11   1 325.763 14.6681   2
  -1 -11  -1 304.386 13.8934   6
  -1 -11  -1 301.102 12.7459   2
   1  11   1 327.180 13.3031  13
  -1  11  -1 309.597 12.5299  13
   1  11   1 306.368 13.9553   3
  -1  11  -1 301.423 14.0640   3
   3 -11   1 693.659 24.1642   2
  -3 -11  -1 677.690 24.5280   6
  -3  11  -1 664.998 21.8142  13
   3  11   1 633.247 22.8001  14
  -3  11  -1 673.642 21.5944   1
  -3  11  -1 695.031 23.8812   3
   3  11   1 700.412 23.7917   3
   5 -11   1 435.082 18.3236   2
  -5 -11  -1 402.697 18.5356   6
  -5  11  -1 423.423 16.4704   1
   5  11   1 408.226 17.3557   3
   6 -12  -1 2.89527 4.02221   2
  -6 -12   1 7.64547 4.52564   6
   6  12  -1 5.47932 3.66337   3
  -6  12   1 8.63187 3.38393   1
  -4 -12   1 99.7748 9.68240   6
   4 -12  -1 118.136 8.96581   2
   4  12  -1 111.793 9.00463   3
  -4  12   1 100.664 8.83254   3
  -2 -12   1 114.147 9.35941   6
  -2 -12   1 132.265 8.64359   2
   2 -12  -1 128.628 8.98463   2
  -2  12   1 130.827 9.68872   3
  -2  12   1 129.367 8.60189  13
   2  12  -1 130.041 8.93985   3
   0 -12  -1 23.1374 4.40839   2
   0 -12   1 21.6815 4.43854   6
   0 -12   1 18.2137 3.95032   2
   0 -12  -1 19.7359 4.05415   6
   0  12   1 18.3844 4.61063   3
   0  12  -1 23.5592 4.30925   3
   0  12   1 19.9729 3.76848  13
   2 -12   1 270.388 14.1853   2
  -2 -12  -1 264.733 14.2486   6
   2  12   1 256.199 13.1525   3
  -2  12  -1 272.711 13.4385   3
   4 -12   1 19.8311 5.60947   2
  -4 -12  -1 20.9910 5.87539   6
  -4  12  -1 22.3452 5.47148   3
   4  12   1 20.1760 4.96364   3
  -4  12  -1 28.8841 4.90874   1
  -3 -13   1 1059.37 33.9843   6
   3 -13  -1 1074.99 33.4594   2
   3  13  -1 1018.28 32.6811   3
  -3  13   1 1050.28 32.9161   3
  -1 -13   1 193.009 11.2863   2
  -1 -13   1 194.258 11.6008   6
   1 -13  -1 224.074 12.2067   2
  -1  13   1 211.898 12.5567   3
   1  13  -1 195.148 11.5940   3
  -1 -13  -1 763.854 26.5418   6
   1 -13   1 730.056 25.8324   2
  -1  13  -1 729.600 25.7401   3
   1  13   1 772.847 26.5665   3
  -3 -13  -1 76.0195 8.55258   6
   3 -13   1 73.2430 8.16063   2
   3  13   1 80.2323 8.27788   3
  -3  13  -1 67.5401 7.03722   1
  -3  13  -1 76.9986 7.78124   3
   0 -14   1 3.77294 2.53589   2
   0 -14  -1 -1.5391 2.72274   2
   0  14   1 4.73866 3.97111   3
   0  14  -1 1.02779 2.44435   3
  10   0  -2 1054.07 33.0973  14
 -10   0   2 1063.99 30.5220   8
 -10   0   2 1083.71 29.8245   1
 -10   0   2 1096.05 34.1557  11
  10   0  -2 1104.76 31.1424   4
   8   0  -2 556.705 17.3811  12
  -8   0   2 551.452 16.9236   5
  -8   0   2 573.197 17.3784   8
   8   0  -2 585.606 17.8409   4
   8   0  -2 555.873 21.2467  10
  -8   0   2 597.026 19.6721  11
   8   0  -2 582.262 19.3226  14
  -8   0   2 566.840 19.1939  16
  -8   0   2 576.988 16.8108   1
   6   0  -2 4253.30 96.6006  12
  -6   0   2 4349.70 95.7173   1
  -6   0   2 4346.05 98.6101  16
  -6   0   2 4213.10 96.2247   5
  -6   0   2 4294.72 96.4379   8
   6   0  -2 4284.05 95.2013   9
   6   0  -2 4202.00 100.539  10
   6   0  -2 4379.83 98.2448  14
  -6   0   2 4310.62 98.3187  11
   6   0  -2 4325.56 96.5849   4
  -4   0   2 2586.62 55.6454   1
  -4   0   2 2466.42 56.2984   5
   4   0  -2 2523.97 55.8665   9
   4   0  -2 2498.76 56.3901   4
  -4   0   2 2442.34 56.0887  12
   4   0  -2 2539.16 56.4851  12
   4   0  -2 2521.99 59.2013  10
  -4   0   2 2485.80 56.2603   8
  -4   0   2 2523.75 57.8483  16
   4   0  -2 2471.82 57.0306  14
   2   0  -2 8729.36 188.499   9
  -2   0   2 8160.87 194.270  16
  -2   0   2 8073.07 187.574   5
   2   0  -2 8676.28 187.727   4
  -2   0   2 8314.47 186.003   8
  -2   0   2 8121.73 186.688  12
  -2   0   2 7964.09 185.336  13
   2   0  -2 8253.56 187.351  14
  -2   0   2 8914.30 198.953  10
   0   0  -2 147.236 4.39213   7
   0   0  -2 144.322 4.76031  15
   0   0  -2 153.623 4.54541  11
   0   0  -2 146.834 4.28232   6
   0   0  -2 156.180 4.17332   1
   0   0  -2 143.158 4.14568   9
  -2   0  -2 4431.65 103.646  10
   2   0   2 4312.22 109.392  10
  -2   0  -2 4561.08 98.4445   1
   2   0   2 4559.00 99.6993  12
  -2   0  -2 4467.74 105.490  11
   2   0   2 4475.57 100.892   2
  -2   0  -2 4306.69 101.384   6
  -2   0  -2 4530.30 99.1119   7
   2   0   2 4453.79 99.6206  12
  -2   0  -2 4481.27 109.465  15
   4   0   2 17.9039 1.83537  12
   4   0   2 20.0733 3.31033  10
   4   0   2 20.1617 3.10603  14
  -4   0  -2 26.3351 2.77494   1
  -6   0  -2 2087.20 53.0271  11
   6   0   2 2050.63 53.6145  14
  -6   0  -2 2114.97 50.5986   1
   6   0   2 2038.19 54.3109  10
   6   0   2 2107.29 50.1915   4
   6   0   2 2056.51 49.2139  12
   8   0   2 8.36165 2.73589   4
  -8   0  -2 11.2801 4.25689  11
   8   0   2 5.49764 2.00676  12
   8   0   2 7.95234 3.54521  14
  -8   0  -2 5.94190 3.13440   1
 -10   0  -2 1249.93 35.6160   1
  10   0   2 1213.83 34.7147   4
  10   0   2 1258.11 35.0254  12
 -10   0  -2 1213.82 39.0986  11
  11  -1  -2 113.479 8.47896   4
 -11  -1   2 137.390 10.2890  11
 -11   1   2 119.417 7.87484   8
  11   1  -2 121.195 8.09166   4
 -11   1   2 118.839 10.6267  11
   9  -1  -2 -2.7677 2.04344   4
  -9  -1   2 -1.9187 1.61065   1
   9  -1  -2 4.17781 2.38640  14
  -9  -1   2 1.59329 2.01773   5
  -9  -1   2 -1.5753 2.01612   8
  -9  -1   2 -0.1398 2.13373  16
  -9  -1   2 2.86470 3.21691  11
  -9   1   2 0.93088 2.20375   8
   9   1  -2 -1.4056 2.27516   4
  -9   1   2 -1.4704 2.89874  11
  -9   1   2 1.62624 2.08780   1
   9   1  -2 2.03028 1.89168  12
   9   1  -2 -1.3425 2.03096  14
  -7  -1   2 124.577 5.52959   1
  -7  -1   2 132.768 6.19329   8
  -7  -1   2 128.761 7.34401  11
  -7  -1   2 153.795 8.25093  16
   7  -1  -2 131.860 7.20690  14
   7  -1  -2 126.833 5.32666   9
   7  -1  -2 128.378 8.60333  10
   7  -1  -2 128.127 6.30274  12
   7  -1  -2 123.696 6.17003   4
  -7  -1   2 156.952 6.79430   5
   7   1  -2 125.520 7.37558  14
   7   1  -2 120.328 6.31612   4
  -7   1   2 117.001 6.70872  16
  -7   1   2 123.340 5.66059   1
   7   1  -2 123.387 6.08130  12
  -7   1   2 129.154 7.55890  11
  -7   1   2 124.095 5.72150   5
  -7   1   2 128.882 6.13779   8
   7   1  -2 124.682 8.06337  10
  -5  -1   2 221.221 8.89858  16
  -5  -1   2 215.675 7.48607   5
   5  -1  -2 205.756 7.22784   4
  -5  -1   2 212.134 8.00788  11
   5  -1  -2 213.824 7.77991  14
   5  -1  -2 211.938 7.29375  12
  -5  -1   2 206.137 6.48921   1
   5  -1  -2 216.991 9.90255  10
  -5  -1   2 210.434 7.09445   8
   5   1  -2 217.497 7.27552   4
   5   1  -2 208.790 6.23797   9
   5   1  -2 204.752 8.94305  10
  -5   1   2 214.062 6.75710   1
  -5   1   2 212.226 8.02684  16
  -5   1   2 203.557 7.08747   8
  -5   1   2 208.885 6.86044   5
   5   1  -2 211.225 7.23194  12
   5   1  -2 209.548 8.19537  14
  -3  -1   2 256.421 8.26936  16
   3  -1  -2 246.237 7.01733   2
  -3  -1   2 235.230 8.26368  10
   3  -1  -2 248.385 8.81352  10
   3  -1  -2 239.083 6.80066   4
  -3  -1   2 249.524 6.81541   8
  -3  -1   2 237.083 7.10035   5
   3  -1  -2 246.176 6.83479   6
   3  -1  -2 242.302 6.82596  14
  -3  -1   2 247.784 6.92440  12
  -3  -1   2 255.430 6.35497   1
  -3   1   2 248.777 6.88618  12
  -3   1   2 240.191 6.87223   8
   3   1  -2 263.421 7.64318  14
  -3   1   2 242.956 6.82255   5
   3   1  -2 238.608 6.90539   4
  -3   1   2 236.104 8.59913  10
   3   1  -2 242.826 6.55123   9
  -3   1   2 249.857 6.46076   1
   3   1  -2 239.446 6.89161  12
  -3   1   2 257.556 7.87175  16
  -3   1   2 243.932 7.06404  13
  -1  -1   2 1986.47 42.9004   5
   1  -1  -2 1903.30 43.3521   6
  -1  -1   2 1971.24 47.6260  16
   1  -1  -2 1855.86 43.6060  15
  -1  -1   2 1934.78 44.1693  12
   1  -1  -2 1895.39 42.9427   9
  -1  -1   2 1996.76 42.7348  13
   1   1  -2 1959.84 46.6573  14
   1   1  -2 2055.92 43.0224   4
  -1   1   2 1945.30 44.7801  13
   1   1  -2 1940.92 43.0379   9
   1   1  -2 1997.70 43.3497   7
   1   1  -2 1907.08 44.8613  15
  -1   1   2 1851.97 43.2647  12
   1  -1   2 202.582 7.36365  10
  -1  -1  -2 201.517 5.24197   9
  -1  -1  -2 198.826 6.29509  15
  -1  -1  -2 210.647 6.45459  11
  -1  -1  -2 206.855 6.12124   7
  -1  -1  -2 203.099 5.90190   1
  -1  -1  -2 208.316 6.01274   6
   1  -1   2 202.960 4.58334  12
   1  -1   2 198.891 4.57935  12
  -1   1  -2 202.456 5.87431   1
  -1   1  -2 198.024 5.75331   9
   1   1   2 213.906 6.45517  10
  -1   1  -2 196.378 6.33218   7
  -1   1  -2 196.416 6.52044  15
  -1   1  -2 193.625 5.99003  11
   3  -1   2 240.690 9.87444  10
  -3  -1  -2 242.985 8.75670  11
  -3  -1  -2 221.353 7.02613   6
   3  -1   2 241.655 6.75659  12
   3  -1   2 233.796 6.90391   2
  -3  -1  -2 224.160 7.65698   1
  -3  -1  -2 231.942 7.86056  15
  -3   1  -2 234.672 8.33997  11
   3   1   2 231.539 7.33308   4
  -3   1  -2 226.350 7.58694   1
   3   1   2 233.155 6.54647  12
   3   1   2 231.378 8.80238  10
  -3   1  -2 232.541 8.38874   7
  -3   1  -2 235.467 7.05216   8
   3   1   2 231.871 8.93179  14
  -5  -1  -2 264.386 10.9644  11
   5  -1   2 260.705 12.4156  10
  -5  -1  -2 256.429 9.58905   1
   5  -1   2 270.010 9.62682   4
   5  -1   2 259.766 8.77960  12
  -5   1  -2 251.481 9.45954   1
   5   1   2 258.730 11.4474  14
   5   1   2 274.621 9.48226   4
   5   1   2 253.021 11.1206  10
   5   1   2 254.227 8.55130  12
  -5   1  -2 264.453 10.9091  11
  -7  -1  -2 6.60879 2.68068   1
   7  -1   2 10.9030 3.48225  14
   7  -1   2 8.97760 3.18656  10
  -7  -1  -2 10.4551 3.70980  11
   7  -1   2 11.2204 2.74140   4
   7  -1   2 7.85839 2.31311  12
   7   1   2 10.0420 3.10750   4
  -7   1  -2 6.87801 3.30912  11
  -7   1  -2 8.01803 2.49114   1
   7   1   2 8.06568 2.31890  12
   7   1   2 10.8217 3.57196  14
  -9  -1  -2 203.174 12.8086  11
   9  -1   2 196.054 9.96036  12
  -9  -1  -2 194.183 10.2074   1
   9  -1   2 185.230 10.0452   4
  -9   1  -2 195.289 10.9820   1
   9   1   2 190.690 9.72216  12
   9   1   2 194.160 9.89525   4
  -9   1  -2 196.517 12.2751  11
 -10  -2   2 76.5976 8.34706  11
  10  -2  -2 68.4570 5.93364   4
 -10  -2   2 79.2180 6.35127   5
 -10   2   2 71.4201 6.25747   8
 -10   2   2 61.1883 7.88442  11
 -10   2   2 65.0492 6.21434   1
  10   2  -2 77.2859 6.85032   4
  10   2  -2 66.0912 6.96112  14
  -8  -2   2 1077.08 29.0942   8
  -8  -2   2 1089.38 32.3512  16
  -8  -2   2 1085.20 27.9100   1
  -8  -2   2 1068.13 29.2960   5
   8  -2  -2 1117.34 29.3823   4
  -8  -2   2 1118.02 31.5712  11
   8  -2  -2 1033.63 34.5877  10
   8  -2  -2 1090.96 30.7997  14
   8  -2  -2 1091.49 29.4544  12
   8  -2  -2 1080.23 27.8751   9
  -8   2   2 1110.83 29.1248   8
  -8   2   2 1059.87 28.5687   1
   8   2  -2 1074.45 29.2008  12
   8   2  -2 1100.47 31.9624  14
   8   2  -2 1128.24 29.4164   4
  -8   2   2 1148.16 32.2540  11
  -6  -2   2 71.8649 4.59012   5
   6  -2  -2 69.2136 4.53331  14
   6  -2  -2 70.8565 6.11553  10
   6  -2  -2 67.2202 4.07767  12
  -6  -2   2 71.7440 5.68351  16
   6  -2  -2 70.6090 3.69793   2
  -6  -2   2 66.4819 3.59466   1
  -6  -2   2 67.7993 4.12733   8
   6  -2  -2 67.6708 4.34143   4
  -6  -2   2 69.1048 4.81116  11
   6   2  -2 65.4942 4.84772  14
  -6   2   2 70.6832 4.50606  16
  -6   2   2 67.7176 4.18426   8
  -6   2   2 67.3226 3.91597   1
  -6   2   2 70.9867 3.66006   5
   6   2  -2 71.1986 4.03142  12
  -4  -2   2 2829.41 66.0620  11
   4  -2  -2 2880.40 65.6837  14
  -4  -2   2 2977.75 68.1141  16
  -4  -2   2 2991.65 64.7334   1
   4  -2  -2 2855.85 65.4529   4
  -4  -2   2 2842.57 65.4479  12
  -4  -2   2 2908.23 66.1322   5
   4  -2  -2 2982.03 65.7899   2
  -4  -2   2 2911.54 65.4326   8
   4  -2  -2 2951.56 65.8060  12
   4  -2  -2 2942.54 69.2702  10
  -4   2   2 2982.32 66.5509  16
  -4   2   2 2923.48 65.4520  12
  -4   2   2 2927.89 65.1074   5
  -4   2   2 2937.54 65.5135   8
   4   2  -2 2938.23 65.6288   4
  -4   2   2 3004.40 65.1890   1
   4   2  -2 3020.81 67.2035  14
   4   2  -2 2801.56 65.0916   3
   4   2  -2 2906.85 65.6888  12
  -4   2   2 2937.62 66.0969  13
   4   2  -2 2945.44 64.4820   9
  -2  -2   2 679.513 16.2816  12
  -2  -2   2 702.569 16.5323   5
   2  -2  -2 648.847 15.6197   4
   2  -2  -2 683.549 17.8767  10
  -2  -2   2 699.691 15.7777   8
  -2  -2   2 706.240 17.6420  16
   2  -2  -2 666.148 16.4499   6
   2  -2  -2 665.347 16.7015   2
   2   2  -2 708.555 16.2918   4
  -2   2   2 678.578 16.1570  12
  -2   2   2 652.796 17.7678  10
   2   2  -2 703.860 17.1195  14
   2   2  -2 689.981 16.0093   3
  -2   2   2 663.769 16.1808   8
  -2   2   2 699.303 16.6943  13
   2   2  -2 694.389 16.0551   9
  -2   2   2 671.959 15.9021   3
   0  -2   2 7589.58 170.337   2
   0  -2  -2 7433.55 172.759   6
   0  -2   2 7353.63 169.265  12
   0  -2  -2 7388.12 169.342   9
   0  -2  -2 7353.66 172.383  15
   0  -2  -2 8090.63 169.121   1
   0  -2  -2 7480.47 170.475   2
   0  -2  -2 7684.59 175.325  11
   0  -2   2 7455.92 171.245  16
   0   2  -2 7664.22 173.171   3
   0   2   2 8034.44 173.745   3
   0   2  -2 7383.83 175.450  15
   0   2  -2 7209.29 171.338   9
   0   2  -2 7971.74 175.056   7
   0   2   2 7796.54 167.044  12
   0   2  -2 7335.57 169.113   1
   0   2   2 7730.63 172.818  14
   0   2  -2 7365.00 169.544  13
  -2  -2  -2 3236.68 71.1340   1
   2  -2   2 3082.67 74.0510  10
   2  -2   2 3109.01 73.1974  12
  -2  -2  -2 3109.71 71.1216  15
  -2  -2  -2 3283.20 72.3354  11
   2  -2   2 3083.62 71.0137   2
   2  -2   2 3174.53 71.2860  16
  -2  -2  -2 3209.57 71.4213   6
   2   2   2 3286.19 72.8872  12
  -2   2  -2 3131.84 71.9015   7
  -2   2  -2 3084.37 70.9806   1
   2   2   2 3348.93 81.2732  10
  -2   2  -2 3103.94 69.9666   8
   2   2   2 3414.41 72.8164  14
   2   2   2 3189.95 70.4099   4
  -2   2  -2 3088.67 71.4265  11
  -4  -2  -2 3368.75 78.2381  11
   4  -2   2 3370.67 76.2695   4
  -4  -2  -2 3268.12 76.1443   1
   4  -2   2 3301.54 75.1920   2
   4  -2   2 3473.28 75.3253  12
   4  -2   2 3330.61 80.7614  10
  -4  -2  -2 3183.92 75.6103   6
  -4   2  -2 3393.67 77.7269   7
   4   2   2 3432.30 78.9150  14
  -4   2  -2 3316.39 76.2744   1
  -4   2  -2 3339.61 75.1164   8
   4   2   2 3455.75 75.0374  12
   4   2   2 3353.39 77.5095  10
  -4   2  -2 3306.94 77.4629  11
   4   2   2 3354.42 75.5644   4
   6  -2   2 956.839 31.3628  10
  -6  -2  -2 983.858 26.7436   1
   6  -2   2 970.998 29.4705  14
   6  -2   2 965.818 25.8532  12
  -6  -2  -2 1004.48 29.3355  11
   6  -2   2 1003.00 26.8722   4
   6   2   2 972.468 25.6216  12
   6   2   2 1012.44 26.2246   4
   6   2   2 941.361 29.2546  14
  -6   2  -2 991.387 26.9611   1
  -6   2  -2 1001.62 28.9331  11
   8  -2   2 655.266 24.1929  14
  -8  -2  -2 644.836 24.0918  11
   8  -2   2 682.925 21.5843   4
   8  -2   2 652.536 20.4318  12
  -8  -2  -2 643.974 20.7890   1
   8   2   2 655.711 20.4203   4
  -8   2  -2 654.924 21.5798   1
   8   2   2 654.952 20.3213  12
   8   2   2 627.909 23.8491  14
  -8   2  -2 646.853 23.7984  11
  10  -2   2 209.534 10.7193  12
  10  -2   2 191.870 11.0294   4
 -10  -2  -2 183.286 13.4179  11
 -10  -2  -2 175.970 10.5918   1
 -10   2  -2 207.964 11.7732   1
  10   2   2 189.372 10.4437   4
 -10   2  -2 217.449 13.7224  11
 -11  -3   2 116.962 10.3060  11
  11  -3  -2 117.977 8.52510   4
  11   3  -2 110.647 8.30425   4
 -11   3   2 113.721 7.99071   8
   9  -3  -2 0.12486 1.76296   9
  -9  -3   2 1.73479 2.27343  11
  -9  -3   2 -3.5424 2.17384   5
  -9  -3   2 1.58908 2.22786  16
   9  -3  -2 0.47308 2.42540   4
   9   3  -2 2.96511 2.67967   4
  -9   3   2 0.66430 2.06208  11
   9   3  -2 -1.5104 1.60226   3
   9   3  -2 6.31975 3.30220  14
  -9   3   2 3.61452 2.00850   1
  -9   3   2 0.14012 2.15043   8
   7  -3  -2 91.9993 4.85124   2
  -7  -3   2 100.556 6.57004  11
  -7  -3   2 101.571 6.31838   5
  -7  -3   2 102.446 7.66106  16
   7  -3  -2 93.6360 8.29947  10
   7  -3  -2 95.5962 5.68338   4
   7  -3  -2 93.3993 5.37397  12
  -7  -3   2 92.1194 4.64360   1
   7  -3  -2 89.1891 5.80992  14
  -7  -3   2 95.1442 5.63834   8
   7   3  -2 92.6377 5.11108   3
   7   3  -2 102.301 5.62514  12
  -7   3   2 111.496 5.77492   8
   7   3  -2 104.485 5.83570   4
   7   3  -2 93.3516 6.78180  14
  -7   3   2 99.4542 5.52253   1
  -5  -3   2 219.185 8.34596  11
   5  -3  -2 227.729 8.09812  14
   5  -3  -2 243.056 10.9731  10
   5  -3  -2 220.737 7.91987  12
   5  -3  -2 219.624 7.68466   4
   5  -3  -2 221.240 7.86196   2
  -5  -3   2 234.389 7.13214   1
  -5  -3   2 233.742 8.39086   5
  -5  -3   2 240.059 10.0465  16
  -5  -3   2 233.685 7.69755   8
  -5   3   2 227.145 7.48599   1
   5   3  -2 224.273 6.22036   9
  -5   3   2 238.233 8.39411  13
   5   3  -2 217.847 7.74964  12
  -5   3   2 226.205 7.62490   8
   5   3  -2 223.337 7.69622   4
  -5   3   2 219.888 6.95749   5
   5   3  -2 221.683 9.06639  14
   5   3  -2 219.894 7.56979   3
  -5   3   2 225.138 7.48744  12
  -5   3   2 227.360 8.10206  16
  -3  -3   2 11.7279 1.24963  11
  -3  -3   2 10.1118 1.16064   8
   3  -3  -2 11.7541 2.17638  10
  -3  -3   2 8.46450 1.75725  16
  -3  -3   2 8.98538 1.60091   5
  -3  -3   2 7.32743 1.21539  12
   3  -3  -2 8.87510 1.23513   6
   3  -3  -2 8.41632 1.41487   2
   3  -3  -2 7.79261 1.11264   4
   3  -3  -2 9.75825 1.33309  12
  -3   3   2 15.0337 1.45149  12
   3   3  -2 8.99287 1.69010  14
   3   3  -2 9.19054 1.00186   9
   3   3  -2 8.58329 1.18498   4
  -3   3   2 8.69512 1.56360  16
  -3   3   2 8.35430 1.38291  13
   3   3  -2 9.34686 1.30657   3
   3   3  -2 7.92796 1.18314  12
  -3   3   2 9.53730 1.28995   3
   1  -3  -2 1484.39 34.8308   2
  -1  -3   2 1509.27 34.1637   5
  -1  -3   2 1510.24 35.2379  16
   1  -3  -2 1518.93 34.8414  10
  -1  -3   2 1471.96 34.8560   2
   1  -3  -2 1527.12 34.9828   6
  -1  -3   2 1541.80 34.4018  12
   1   3  -2 1528.63 34.3796   9
  -1   3   2 1492.58 34.3829   3
  -1   3   2 1520.45 34.1207  12
   1   3  -2 1509.44 34.5592   3
  -1   3   2 1475.55 35.5930  14
  -1   3   2 1494.94 34.9685  10
   1   3  -2 1522.83 34.9973   7
   1   3  -2 1521.37 35.4427  14
   1   3  -2 1530.90 33.6009  13
  -1   3   2 1539.92 35.1008  13
   1  -3   2 98.3557 3.61992  12
  -1  -3  -2 103.949 4.05691  15
   1  -3   2 104.472 4.44595   2
  -1  -3  -2 94.8884 4.35577  11
  -1  -3  -2 98.7612 4.38385   6
  -1  -3  -2 97.7851 3.47803   2
  -1  -3  -2 97.8356 3.86419   1
   1  -3   2 103.094 5.43089  10
  -1  -3  -2 93.6445 3.01807   9
   1   3   2 98.2394 2.98865   4
  -1   3  -2 96.9683 3.82567  13
  -1   3  -2 102.880 3.81410   1
  -1   3  -2 95.8647 4.18470   3
   1   3   2 97.0141 4.29403  14
   1   3   2 95.9928 3.29763  12
  -1   3  -2 101.837 4.38896   7
   1   3   2 114.115 2.71034  10
   1   3   2 95.0244 4.12874   3
   3  -3   2 21.2483 3.37976  10
  -3  -3  -2 21.9616 2.47569   1
  -3  -3  -2 28.6214 2.67031   6
   3  -3   2 21.8160 2.04944  12
  -3  -3  -2 24.2337 2.08976  15
   3  -3   2 38.0399 3.01015   2
  -3  -3  -2 22.8794 2.61862  11
   3   3   2 21.1095 3.00582  14
  -3   3  -2 25.5944 2.59300  11
  -3   3  -2 24.3755 1.76949   8
  -3   3  -2 20.3891 2.84955   7
   3   3   2 25.9959 2.08996  10
  -3   3  -2 33.0387 2.74653   1
   3   3   2 26.9261 1.95937  12
   3   3   2 22.9069 2.02855   4
   5  -3   2 17.3716 3.91497  10
  -5  -3  -2 4.37226 1.65461   1
  -5  -3  -2 4.65214 1.71881   6
   5  -3   2 6.32158 2.23947   4
   5  -3   2 4.67975 1.60426  12
  -5  -3  -2 1.43980 2.19437  11
  -5   3  -2 5.96835 2.17933   1
  -5   3  -2 4.12184 1.44867   8
  -5   3  -2 1.95916 1.58924   7
   5   3   2 4.49658 1.42804  12
   5   3   2 4.63206 2.07959  14
   5   3   2 4.74485 1.43606   4
  -5   3  -2 7.67414 2.42330  11
   7  -3   2 56.7105 4.96000  12
  -7  -3  -2 61.0003 5.22800   1
   7  -3   2 63.6039 5.95092   4
   7  -3   2 61.1061 6.26322  14
  -7  -3  -2 62.5065 6.51130  11
  -7   3  -2 74.3631 5.82439   1
   7   3   2 58.7073 6.84731  14
   7   3   2 63.8076 5.27700   4
   7   3   2 63.8371 5.02425  12
  -7   3  -2 69.8601 6.83261  11
  -9  -3  -2 13.8372 4.45103  11
  -9  -3  -2 12.0898 3.80291   1
   9  -3   2 11.1853 3.84106   4
   9  -3   2 14.3538 3.38065  12
  -9   3  -2 14.7769 4.32946   1
  -9   3  -2 6.18347 3.85966  11
   9   3   2 8.84091 2.76862  12
   9   3   2 17.2126 3.39204   4
 -10  -4   2 87.7898 8.54117  11
 -10  -4   2 79.5478 7.32469   5
  10  -4  -2 93.9268 6.76812   4
 -10   4   2 70.1379 6.04330   1
 -10   4   2 74.4424 8.51982  11
  10   4  -2 89.9142 7.07075   4
 -10   4   2 76.8256 6.39477   8
  10   4  -2 80.8912 8.22982  14
  -8  -4   2 2382.37 61.9246  16
  -8  -4   2 2334.89 55.1249   1
  -8  -4   2 2319.69 58.7156  11
   8  -4  -2 2328.34 56.5029   4
  -8  -4   2 2269.05 57.4149   5
   8   4  -2 2326.85 60.0166  14
  -8   4   2 2338.36 56.1975   8
   8   4  -2 2266.03 56.6219  12
  -8   4   2 2367.07 56.4249   1
   8   4  -2 2371.12 56.4352   4
   8   4  -2 2272.41 56.2680   3
  -8   4   2 2417.17 60.0862  11
   6  -4  -2 458.797 14.2957  14
  -6  -4   2 431.739 12.5937   1
  -6  -4   2 452.623 14.7304   5
   6  -4  -2 441.621 13.5565   4
  -6  -4   2 451.784 13.5180   8
  -6  -4   2 442.918 14.5657  11
  -6  -4   2 461.852 17.1044  16
   6  -4  -2 441.490 13.7809   2
   6  -4  -2 441.935 17.9804  10
   6  -4  -2 446.765 13.9504  12
  -6   4   2 452.684 14.7047  13
   6   4  -2 436.772 13.7464  12
  -6   4   2 466.043 13.4985   8
   6   4  -2 447.014 15.7871  14
   6   4  -2 427.036 13.5354   3
   6   4  -2 451.989 13.4810   4
  -6   4   2 446.917 13.4569  16
  -6   4   2 460.365 13.5318   1
   4  -4  -2 6118.10 139.507  10
   4  -4  -2 6022.16 134.442   4
  -4  -4   2 6315.36 138.470  16
  -4  -4   2 6170.97 135.084  12
  -4  -4   2 6130.87 135.906   5
   4  -4  -2 6097.63 134.165   6
   4  -4  -2 6106.54 135.889   2
  -4  -4   2 5819.35 134.082   2
  -4  -4   2 6447.89 142.632  11
   4  -4  -2 6045.33 135.358  12
   4   4  -2 6145.68 138.319   3
  -4   4   2 6208.73 141.088  13
  -4   4   2 6013.01 137.542   8
   4   4  -2 6400.46 134.828   4
   4   4  -2 6517.62 137.433  14
  -4   4   2 5937.00 135.766   5
   4   4  -2 6388.11 135.196  12
   4   4  -2 6026.06 135.644   9
  -4   4   2 5833.10 134.858  12
  -4   4   2 5907.27 141.566  16
  -4   4   2 5917.00 134.963   3
  -2  -4   2 568.008 14.8384   2
   2  -4  -2 572.361 16.0821  10
   2  -4  -2 582.661 14.8611   6
  -2  -4   2 538.799 13.4962  11
  -2  -4   2 555.432 14.6251   5
  -2  -4   2 560.720 14.6070  12
   2  -4  -2 553.071 15.2065   2
  -2  -4   2 556.487 16.0119  16
   2   4  -2 552.990 14.6345   3
   2   4  -2 574.977 15.8151  14
   2   4  -2 570.579 14.2708   4
   2   4  -2 592.587 14.4501  12
   2   4  -2 563.901 15.1604   7
  -2   4   2 569.556 16.0565  10
   2   4  -2 574.790 13.9986   9
  -2   4   2 558.448 14.4120  12
   2   4  -2 570.760 13.7725  13
  -2   4   2 559.153 14.5798   3
  -2   4   2 565.846 14.2263   8
  -2   4   2 562.666 15.2042  13
   0  -4   2 4845.75 119.546  10
   0  -4   2 4904.35 108.225   5
   0  -4   2 4757.09 112.911  12
   0  -4   2 4280.54 108.775  16
   0  -4  -2 4818.47 107.386   6
   0  -4  -2 4823.08 114.608  11
   0  -4  -2 4754.12 106.484   2
   0  -4   2 4914.06 107.357   2
   0   4   2 4980.28 109.949   3
   0   4   2 4837.82 108.119  12
   0   4   2 4835.82 111.635  14
   0   4  -2 4921.63 110.671   7
   0   4  -2 4909.47 113.095  13
   0   4  -2 4741.84 110.334   3
   0   4   2 5179.80 115.397  13
   0   4   2 4711.71 109.460  10
  -2  -4  -2 69.5014 4.33215  11
  -2  -4  -2 73.8045 4.24826   6
  -2  -4  -2 73.3556 2.87492   2
  -2  -4  -2 64.6916 3.29778  15
   2  -4   2 74.7796 3.63149  12
   2  -4   2 69.1113 4.29279   2
  -2  -4  -2 77.6402 3.89959   1
   2  -4   2 74.7665 5.66370  10
   2   4   2 72.1228 3.29081  12
   2   4   2 72.1419 4.42939  14
   2   4   2 71.6919 4.11617   3
   2   4   2 77.0601 2.83108   4
  -2   4  -2 69.1640 3.77684  13
  -2   4  -2 76.7923 4.21291   7
  -2   4  -2 76.0738 3.80349   1
  -2   4  -2 67.3284 4.09892   3
  -2   4  -2 76.5285 2.69828   8
  -4  -4  -2 1865.26 45.3970   6
   4  -4   2 1760.26 49.6350  10
  -4  -4  -2 1896.28 46.6250  11
  -4  -4  -2 1945.05 44.8222   1
   4  -4   2 1776.72 44.5305   2
   4  -4   2 1871.40 44.2058  12
  -4   4  -2 1821.25 42.7883   8
  -4   4  -2 1793.27 44.5951   1
   4   4   2 1943.59 47.2950  14
   4   4   2 1977.73 43.9055  12
  -4   4  -2 1853.83 45.8913   7
   4   4   2 1852.15 43.1351   4
  -4   4  -2 1841.24 45.5836  11
   6  -4   2 64.3542 5.15599   4
  -6  -4  -2 53.8350 5.19273   1
  -6  -4  -2 49.4615 4.61325   6
   6  -4   2 56.6403 4.60567  12
  -6  -4  -2 54.9489 6.55988  11
   6   4   2 52.1254 4.27937  12
  -6   4  -2 68.8568 4.38528   8
   6   4   2 65.7484 4.33348   4
   6   4   2 56.1785 5.70935  14
  -6   4  -2 59.2742 5.69154   1
  -6   4  -2 60.4427 5.44659  11
  -8  -4  -2 866.190 29.0381  11
   8  -4   2 836.038 25.7033   4
   8  -4   2 772.582 27.7979  14
   8  -4   2 813.262 24.8514  12
  -8  -4  -2 867.139 25.4974   1
   8   4   2 840.542 24.7700  12
   8   4   2 844.154 24.2902   4
  -8   4  -2 849.474 26.0783   1
   8   4   2 850.712 26.5333   3
  -8   4  -2 856.324 28.4785  11
   8   4   2 801.811 28.8285  14
 -11  -5   2 43.8131 6.70804  11
  11  -5  -2 46.0292 5.64237   4
 -11  -5   2 56.5770 7.02659   5
 -11   5   2 44.2162 5.60906   1
 -11   5   2 48.8884 5.49717   8
 -11   5   2 52.8526 7.48757  11
  11   5  -2 53.6353 5.87008   4
  -9  -5   2 398.835 15.8869   5
  -9  -5   2 389.004 16.3787  11
  -9  -5   2 386.596 15.2454   6
   9  -5  -2 393.120 14.4135   4
   9   5  -2 390.727 17.5921  14
  -9   5   2 405.723 15.0396   1
   9   5  -2 391.586 14.6984   3
  -9   5   2 401.029 17.5947  11
   9   5  -2 382.789 14.1747   4
  -9   5   2 381.999 14.1340   8
   7  -5  -2 311.330 11.4407   4
  -7  -5   2 318.328 12.6489  11
  -7  -5   2 326.559 12.6333   5
   7  -5  -2 314.113 15.7934  10
   7  -5  -2 322.541 11.7089   2
  -7  -5   2 326.139 15.0902  16
  -7   5   2 331.164 11.8425   1
   7   5  -2 313.996 11.7831  12
   7   5  -2 318.899 14.0974  14
   7   5  -2 316.268 11.3804   4
  -7   5   2 328.291 12.8916  13
   7   5  -2 317.709 11.8121   3
  -7   5   2 326.360 11.3269   8
   5  -5  -2 366.610 15.4236  10
   5  -5  -2 373.543 12.1094  12
   5  -5  -2 380.015 12.6849   2
   5  -5  -2 366.650 11.3409   4
  -5  -5   2 401.875 12.3177  11
  -5  -5   2 401.435 15.3056  16
  -5  -5   2 382.501 12.8531   5
   5   5  -2 379.663 11.4391   4
  -5   5   2 375.928 11.6771  16
  -5   5   2 368.441 11.4202   8
   5   5  -2 376.122 12.0441   3
   5   5  -2 378.215 12.0236  12
   5   5  -2 385.674 13.9019  14
  -5   5   2 380.858 12.2065   3
  -5   5   2 394.492 11.9683   1
  -5   5   2 394.287 13.0152  13
   3  -5  -2 1168.65 29.4641   2
  -3  -5   2 1144.68 28.3410   2
  -3  -5   2 1164.06 31.0807  16
  -3  -5   2 1097.13 27.5298  11
  -3  -5   2 1164.06 28.5063  12
   3  -5  -2 1209.61 31.5733  10
   3  -5  -2 1131.78 26.9849   4
  -3  -5   2 1160.77 28.9282   5
   3  -5  -2 1178.86 28.1579   6
   3   5  -2 1165.65 27.7078  13
   3   5  -2 1186.93 27.8887   4
  -3   5   2 1188.31 27.9285   8
  -3   5   2 1170.75 28.2942  12
   3   5  -2 1183.48 30.1537  14
   3   5  -2 1164.45 28.3545  12
   3   5  -2 1147.24 28.6264   3
  -3   5   2 1219.52 29.4203  13
  -3   5   2 1208.91 28.7536   3
  -1  -5   2 69.4428 3.95864   2
  -1  -5   2 66.9287 4.23774  10
  -1  -5   2 67.0725 3.25632   5
   1  -5  -2 72.3299 3.61916  10
   1  -5  -2 64.2366 3.86725   6
  -1  -5   2 63.4772 3.92228  16
   1  -5  -2 70.8393 3.83614   2
  -1   5   2 64.2701 3.03879  14
   1   5  -2 66.5524 3.76168   3
   1   5  -2 66.1171 3.73678   7
   1   5  -2 66.1286 3.01936  13
  -1   5   2 67.0528 3.72126   3
  -1   5   2 66.1531 3.33996  12
   1   5  -2 67.6908 4.21629  14
  -1   5   2 66.9122 3.44979  10
  -1   5   2 67.2997 3.96238  13
  -1  -5  -2 763.842 19.2078   2
   1  -5   2 781.385 20.7462   2
  -1  -5  -2 751.991 20.6034  11
  -1  -5  -2 754.032 20.6729   6
   1  -5   2 783.501 19.6109  12
   1  -5   2 771.520 22.7716  10
  -1  -5  -2 725.729 17.7654   9
  -1  -5  -2 722.799 19.3188  15
   1   5   2 768.262 20.2012   3
   1   5   2 753.733 19.1578  12
  -1   5  -2 804.358 19.6084  13
   1   5   2 754.388 20.0913  14
  -1   5  -2 773.784 20.2760   3
   1   5   2 776.460 20.7414  13
  -1   5  -2 784.484 20.2385   7
   3  -5   2 135.250 5.91874  12
  -3  -5  -2 130.103 6.63698   6
  -3  -5  -2 130.544 6.76222  11
   3  -5   2 132.644 8.36803  10
   3  -5   2 125.360 6.55026   2
   3   5   2 124.996 4.56091   4
  -3   5  -2 135.528 6.54466   7
   3   5   2 121.924 6.64545  14
  -3   5  -2 131.218 6.16176  11
  -3   5  -2 132.853 6.04308   1
   3   5   2 131.773 6.54582   3
   3   5   2 124.098 5.47636  12
  -3   5  -2 131.278 6.21701  13
   5  -5   2 53.8107 4.77974   4
  -5  -5  -2 60.9422 4.85995   1
   5  -5   2 52.2059 4.71912   2
   5  -5   2 49.4674 4.27028  12
  -5  -5  -2 55.3172 5.62552  11
  -5  -5  -2 59.5343 5.08542   6
   5  -5   2 58.8489 6.62861  10
   5   5   2 58.9816 4.20986  12
  -5   5  -2 55.8891 5.11353  11
  -5   5  -2 65.4838 5.68351   7
   5   5   2 64.2918 6.20974  14
   5   5   2 58.2790 5.29720   3
   5   5   2 57.6091 3.76198   4
  -5   5  -2 55.4493 4.95339   1
  -7  -5  -2 144.363 8.39746   1
   7  -5   2 135.525 8.49352   4
  -7  -5  -2 142.638 10.4464  11
   7  -5   2 138.615 8.08226  12
   7   5   2 139.713 8.91880   3
  -7   5  -2 151.533 9.80722  11
   7   5   2 137.399 10.0898  14
   7   5   2 136.868 7.57309  12
  -7   5  -2 131.605 8.63157   1
  -9  -5  -2 1.81271 4.36257  11
  -9  -5  -2 4.20397 3.26818   1
   9  -5   2 2.14032 3.16609   4
   9  -5   2 1.27864 2.36346  12
  -9   5  -2 0.98338 2.28360  11
  -9   5  -2 -2.7628 3.16875   1
   9   5   2 3.65336 2.94389   3
   9   5   2 2.52463 2.28265  12
 -10  -6   2 802.989 26.0438   5
 -10  -6   2 750.345 26.2764  11
  10  -6  -2 762.367 24.0525   4
  10  -6  -2 819.813 24.5828   9
 -10   6   2 794.393 24.7643   1
 -10   6   2 810.457 28.6002  11
  10   6  -2 784.095 23.9655   4
 -10   6   2 770.578 23.6475   8
  -8  -6   2 18.4453 4.44935   5
  -8  -6   2 16.5972 3.98717   6
  -8  -6   2 15.4231 3.76542  11
  -8  -6   2 20.1668 5.54534  16
   8  -6  -2 30.1215 4.11476   2
   8  -6  -2 18.2926 2.98944   4
   8   6  -2 17.2550 3.09958   3
   8   6  -2 22.1513 3.57714   4
  -8   6   2 16.1732 3.10033   8
  -8   6   2 13.6076 3.48594   1
   8   6  -2 24.5547 4.82453  14
  -6  -6   2 1666.61 41.1207  11
  -6  -6   2 1713.69 45.9141  16
   6  -6  -2 1587.32 39.4926   4
   6  -6  -2 1609.38 41.4048   2
  -6  -6   2 1658.97 41.8452   5
   6  -6  -2 1557.83 46.2297  10
   6   6  -2 1643.49 43.6150  14
  -6   6   2 1624.93 39.6700   8
  -6   6   2 1597.10 40.2907   1
  -6   6   2 1577.55 41.5889  13
   6   6  -2 1675.37 40.9159  12
   6   6  -2 1629.38 40.9199   3
   6   6  -2 1662.02 39.8625   4
   4  -6  -2 73.2878 5.21478   2
  -4  -6   2 72.6256 4.03406   2
   4  -6  -2 73.8053 3.91127   6
  -4  -6   2 72.0814 5.02262   5
   4  -6  -2 66.5888 3.43023   4
  -4  -6   2 69.0514 3.88743  11
  -4  -6   2 68.3651 6.09968  16
   4  -6  -2 77.2997 6.34044  10
  -4   6   2 76.5075 4.00888   8
   4   6  -2 67.6179 3.78730   4
   4   6  -2 71.5939 5.48561  14
   4   6  -2 75.3978 4.66762   3
   4   6  -2 65.3866 4.08008  12
   4   6  -2 65.3811 3.77773  13
  -4   6   2 66.8026 4.65542  13
  -4   6   2 75.2374 4.57517  16
  -4   6   2 73.8756 4.42139   3
  -4   6   2 72.0785 3.99968  12
   2  -6  -2 3391.20 78.0223   2
  -2  -6   2 3239.35 78.8004  16
  -2  -6   2 3364.50 76.6655   5
   2  -6  -2 3451.78 78.5623  10
  -2  -6   2 3280.72 77.8754  10
  -2  -6   2 3335.84 76.8047  12
  -2  -6   2 3307.79 77.2402   2
   2  -6  -2 3472.25 77.2624   6
  -2   6   2 3410.96 75.9811   8
  -2   6   2 3469.16 77.2785   3
   2   6  -2 3393.76 77.3603   3
   2   6  -2 3364.29 77.2862  12
   2   6  -2 3420.22 78.6139  14
   2   6  -2 3471.38 75.9881  13
  -2   6   2 3406.48 77.8079  13
  -2   6   2 3424.00 76.7506  12
   2   6  -2 3451.51 77.4695   7
   0  -6  -2 452.972 14.0255   6
   0  -6   2 445.009 15.2273  10
   0  -6   2 454.932 14.1833   2
   0  -6   2 440.797 13.0136  12
   0  -6  -2 447.530 13.2478   2
   0   6   2 433.625 12.8100  14
   0   6  -2 442.378 13.3141   7
   0   6  -2 449.283 12.5522  13
   0   6   2 429.836 13.3713   3
   0   6   2 459.523 12.8174  12
   0   6   2 451.474 13.8175  13
   0   6  -2 444.885 13.5443   3
   2  -6   2 3811.55 85.8709  12
   2  -6   2 3888.75 87.3629   2
   2  -6   2 3755.65 90.7647  10
  -2  -6  -2 3730.05 87.1840  11
  -2  -6  -2 3703.90 84.4640   2
  -2  -6  -2 3630.53 84.6900  15
  -2  -6  -2 3770.04 87.5587   6
  -2   6  -2 3786.95 87.0396   3
  -2   6  -2 3734.37 86.3202   7
   2   6   2 3851.23 85.4171  12
  -2   6  -2 3787.55 85.5680   1
   2   6   2 3841.09 86.7901   3
   2   6   2 3768.92 87.0321  14
  -2   6  -2 3849.57 85.9498  13
   2   6   2 3811.59 87.3123  13
   4  -6   2 370.074 13.4788   2
   4  -6   2 372.441 12.5931  12
   4  -6   2 362.063 16.6543  10
  -4  -6  -2 348.174 13.5095   6
  -4  -6  -2 367.717 13.9639  11
   4   6   2 364.004 14.2477  14
   4   6   2 365.385 12.0635  12
  -4   6  -2 375.764 13.3677   7
  -4   6  -2 363.869 12.9886  11
  -4   6  -2 353.364 12.5612   1
   4   6   2 382.694 13.6371   3
   6  -6   2 1774.33 45.5019   4
   6  -6   2 1705.23 45.1179  12
   6  -6   2 1703.69 44.8966   2
  -6  -6  -2 1849.84 46.9558   6
  -6  -6  -2 1898.80 48.7768  11
   6   6   2 1822.88 45.0441  12
   6   6   2 1782.03 46.8124   3
   6   6   2 1787.90 48.7214  14
  -6   6  -2 1757.35 45.8858   1
  -6   6  -2 1785.17 47.2628  11
   8  -6   2 111.468 8.29431   4
   8  -6   2 94.2756 7.21273  12
  -8  -6  -2 102.757 9.03596  11
   8   6   2 90.0426 7.53461   3
  -8   6  -2 103.232 7.83970   1
   8   6   2 107.746 7.01650  12
  -8   6  -2 104.740 8.94299  11
  -9  -7   2 40.4870 6.07886   5
   9  -7  -2 34.1008 4.62181   4
  -9  -7   2 35.9020 5.79648   6
   9   7  -2 26.3920 4.26280   3
   9   7  -2 39.5194 4.76875   4
  -9   7   2 36.7095 6.02538  11
  -7  -7   2 13.5516 3.48468   5
   7  -7  -2 10.0817 3.29883   2
   7  -7  -2 11.1925 2.51826   4
  -7   7   2 11.8464 3.17046   1
  -7   7   2 13.8663 3.22729  13
   7   7  -2 7.02040 3.47955  14
  -7   7   2 10.6804 2.47051   8
   7   7  -2 13.5974 3.23327   3
   7   7  -2 9.15925 2.45366   4
  -5  -7   2 16.8703 3.53479   5
  -5  -7   2 21.2279 4.62879  16
   5  -7  -2 15.0607 3.41456   2
   5  -7  -2 14.7596 3.73354  10
   5   7  -2 15.0220 2.31456   4
   5   7  -2 14.8414 2.96454   3
  -5   7   2 17.2324 3.01887   3
   5   7  -2 13.5009 3.06292  14
  -5   7   2 15.6772 2.39830   8
  -5   7   2 15.7103 3.23250  13
   5   7  -2 14.8119 2.37304  13
   3  -7  -2 178.155 8.38578   2
  -3  -7   2 172.630 9.09572  16
  -3  -7   2 164.298 7.46600  10
   3  -7  -2 169.679 7.04408   6
  -3  -7   2 171.243 7.55914   5
  -3  -7   2 176.241 7.55745   2
   3   7  -2 178.666 7.81887   7
   3   7  -2 173.747 6.63607  13
   3   7  -2 174.366 7.70888   3
  -3   7   2 175.232 6.55872   8
  -3   7   2 174.462 7.59737   3
   3   7  -2 172.246 8.60383  14
  -3   7   2 184.141 8.15301  13
  -3   7   2 180.974 7.11231  12
   1  -7  -2 9.11155 2.27252   6
  -1  -7   2 8.42680 2.08603  10
   1  -7  -2 4.59513 1.99726   2
  -1  -7   2 7.50770 1.77229  12
   1  -7  -2 6.50417 1.41637  10
  -1  -7   2 5.24826 1.91871   2
  -1  -7   2 7.77618 1.71262   5
  -1   7   2 8.58612 2.19089   3
   1   7  -2 7.63321 2.14314   3
   1   7  -2 9.17834 2.11010  14
   1   7  -2 10.5801 1.74507  13
  -1   7   2 6.23462 1.44304  14
  -1   7   2 6.87804 2.10041  13
   1   7  -2 7.46274 1.75210   7
  -1   7   2 16.3245 2.26500  12
  -1  -7  -2 268.486 9.26931  15
  -1  -7  -2 267.006 9.48227   2
   1  -7   2 288.921 10.9653   2
   1  -7   2 266.415 9.06632   6
   1  -7   2 281.143 12.4170  10
  -1  -7  -2 277.528 10.9501   6
   1  -7   2 272.559 9.80694  12
  -1  -7  -2 276.267 10.5766  11
  -1   7  -2 269.908 10.5115   3
  -1   7  -2 292.553 9.75263  13
   1   7   2 278.819 9.55511  12
   1   7   2 272.241 10.5829  13
  -1   7  -2 270.302 9.92111   7
   1   7   2 260.432 9.88351  14
   1   7   2 282.708 10.4860   3
   3  -7   2 107.039 7.30443   2
  -3  -7  -2 110.825 6.86217   6
   3  -7   2 101.444 8.09861  10
   3  -7   2 119.398 6.05775  12
  -3  -7  -2 118.812 7.21078  11
  -3   7  -2 112.623 6.26561  13
   3   7   2 105.112 6.50034  13
   3   7   2 98.5746 5.57649  12
   3   7   2 110.204 6.77709   3
  -3   7  -2 101.167 6.40529   3
   3   7   2 101.121 6.63283  14
  -3   7  -2 95.1825 5.57868   1
  -3   7  -2 106.419 6.35357   7
   5  -7   2 115.264 6.82468  12
  -5  -7  -2 116.839 7.87158   6
  -5  -7  -2 115.229 8.40244  11
   5  -7   2 135.065 8.23483   2
   5  -7   2 123.247 7.16040   4
  -5   7  -2 126.558 7.57652   7
  -5   7  -2 118.465 7.47901  11
  -5   7  -2 123.127 7.20058   1
   5   7   2 117.385 8.02353   3
   5   7   2 104.011 8.18098  14
   5   7   2 108.814 7.71063  13
   5   7   2 113.899 6.69873  12
   7  -7   2 187.634 9.75512   4
   7  -7   2 184.443 9.81786  12
  -7  -7  -2 199.351 11.0301   6
  -7  -7  -2 198.948 12.3757  11
   7   7   2 190.900 12.1289  14
   7   7   2 183.162 10.9653   3
   7   7   2 188.275 9.55908  12
  -7   7  -2 198.963 10.5246   1
  -7   7  -2 191.095 11.0952  11
  10  -8  -2 545.846 19.9216   9
 -10   8   2 560.367 20.3493   1
 -10   8   2 586.307 25.7641  11
   8  -8  -2 281.411 12.4645   2
  -8  -8   2 288.844 14.1236   6
  -8  -8   2 287.275 13.7704   5
   8   8  -2 254.695 14.7963  14
  -8   8   2 282.383 12.6970   1
   8   8  -2 281.626 12.6418   3
  -8   8   2 269.555 13.1272  13
  -6  -8   2 1254.43 35.9877   6
  -6  -8   2 1283.65 35.4105   5
   6  -8  -2 1279.39 35.2793   2
   6   8  -2 1236.68 34.2787   3
  -6   8   2 1277.16 33.6574   1
   6   8  -2 1277.20 36.9726  14
  -6   8   2 1217.38 31.8638   8
  -6   8   2 1245.81 35.0199  13
   4  -8  -2 554.834 18.1696   2
  -4  -8   2 558.199 17.7827   5
   4  -8  -2 528.908 19.5725  10
  -4  -8   2 509.831 16.2190   2
   4   8  -2 550.419 17.4443   7
  -4   8   2 579.940 18.1834  13
  -4   8   2 530.710 17.1955   3
   4   8  -2 535.217 17.2501   3
   4   8  -2 521.342 18.7101  14
  -4   8   2 525.145 15.2324   8
   2  -8  -2 1619.62 39.6057   6
  -2  -8   2 1538.88 39.7636   2
  -2  -8   2 1567.93 38.5764   5
   2  -8  -2 1578.90 40.4154   2
  -2   8   2 1502.89 37.4431   8
  -2   8   2 1607.29 39.9245   3
   2   8  -2 1601.15 39.5352   7
   2   8  -2 1568.67 39.7986   3
  -2   8   2 1553.18 38.7427  12
  -2   8   2 1626.57 40.3586  13
   2   8  -2 1609.71 41.2500  14
   2   8  -2 1521.63 37.8339  13
   0  -8  -2 487.359 15.8432   2
   0  -8   2 524.901 17.1932   2
   0  -8  -2 520.743 16.9211   6
   0  -8   2 499.691 15.6435  12
   0  -8   2 518.716 15.7758   6
   0  -8   2 519.715 18.1613  10
   0   8   2 520.678 16.5579  13
   0   8  -2 526.044 16.8247   3
   0   8   2 531.295 15.7039  12
   0   8  -2 520.540 15.2370  13
   0   8  -2 521.463 15.9608   7
   0   8   2 524.995 16.4356   3
   0   8   2 499.005 15.5238  14
  -2  -8  -2 813.224 22.9345   2
   2  -8   2 825.891 27.7440  10
  -2  -8  -2 845.924 24.8772  11
   2  -8   2 822.425 23.5332  12
   2  -8   2 881.399 25.6865   2
  -2  -8  -2 869.545 25.6941   6
   2   8   2 844.642 24.5713   3
   2   8   2 803.693 24.0918  14
  -2   8  -2 865.233 23.9710   7
  -2   8  -2 869.755 23.5797  13
  -2   8  -2 821.163 24.6706   3
   2   8   2 839.474 24.6764  13
   2   8   2 866.591 23.3593  12
   4  -8   2 306.780 12.1626  12
  -4  -8  -2 317.416 13.7505  11
  -4  -8  -2 315.660 13.8023   6
   4  -8   2 314.216 13.6347   2
   4   8   2 323.921 12.0663  12
  -4   8  -2 300.882 12.0090   1
   4   8   2 312.473 13.0738  13
   4   8   2 297.936 13.3858  14
  -4   8  -2 310.070 12.4892   7
   4   8   2 295.382 13.0841   3
  -4   8  -2 321.391 12.6656  13
   6  -8   2 340.064 14.1770  12
   6  -8   2 362.547 14.1217   4
  -6  -8  -2 353.224 16.2069  11
  -6  -8  -2 360.420 15.5632   6
   6  -8   2 385.192 15.2356   2
   6   8   2 377.224 15.7389   3
  -6   8  -2 358.341 14.9101   1
   6   8   2 351.029 16.0298  14
   6   8   2 361.726 15.5330  13
   6   8   2 360.894 14.0310  12
   8  -8   2 244.012 12.0785   4
  -8  -8  -2 264.478 14.8099  11
  -8   8  -2 243.045 13.1300   1
   8   8   2 266.507 12.1887  12
   8   8   2 255.056 13.3364   3
  -9  -9   2 -0.4185 3.12341   6
  -9   9   2 2.25912 3.34668  11
  -9   9   2 -0.1827 2.36354   1
  -7  -9   2 -0.3377 3.74802   5
  -7  -9   2 3.57601 3.84847   6
   7  -9  -2 3.13103 3.55635   2
  -7   9   2 -0.2218 2.55758  13
  -7   9   2 4.24824 3.26245   1
   7   9  -2 4.89478 2.92117  14
   7   9  -2 -1.8514 2.25746   3
  -5  -9   2 4.07382 3.55172   6
  -5  -9   2 4.03099 3.30334   5
   5  -9  -2 8.00200 3.70450   2
   5   9  -2 4.16700 2.68248   3
  -5   9   2 4.88353 2.70004  13
   5   9  -2 5.15548 3.07351  14
  -5   9   2 5.01920 2.27248   3
   5   9  -2 7.93061 2.64141   7
  -3  -9   2 2.08291 2.92045   6
   3  -9  -2 6.28580 2.06701   6
   3  -9  -2 1.14118 2.54687   2
  -3  -9   2 13.3785 3.12583   2
  -3  -9   2 7.11159 2.33192   5
   3   9  -2 12.8580 3.33001  14
  -3   9   2 3.06965 1.97649   3
   3   9  -2 3.58763 2.16023   7
   3   9  -2 1.96536 2.27357   3
  -3   9   2 1.10688 1.03661   8
  -3   9   2 3.10708 2.31845  13
  -1  -9   2 35.4395 4.55100   6
   1  -9  -2 47.2993 5.14669   2
  -1  -9   2 36.8239 4.53757   2
   1  -9  -2 41.6562 4.32954   6
   1   9  -2 31.3235 3.39590   7
  -1   9   2 32.9418 2.90286   8
   1   9  -2 37.8372 4.59537   3
  -1   9   2 34.7951 4.44939   3
   1   9  -2 42.6328 3.50383  13
  -1   9   2 36.1477 3.41119  12
  -1   9   2 37.7284 4.00081  13
  -1  -9  -2 1.34701 2.66899   6
   1  -9   2 1.15776 2.20854   2
  -1  -9  -2 -2.7840 1.35637   2
   1  -9   2 9.03888 3.11751  10
   1   9   2 3.35050 2.05700   3
   1   9   2 -0.1469 1.43210  14
  -1   9  -2 3.40532 1.95366   7
  -1   9  -2 0.74325 1.32951  13
   1   9   2 2.11750 2.00682  13
  -1   9  -2 1.29490 1.62155   3
   1   9   2 0.98186 1.44447  12
   3  -9   2 25.9913 3.85721  12
  -3  -9  -2 28.5781 4.68525  11
   3  -9   2 36.4307 5.64432   2
  -3  -9  -2 27.0261 5.04295   6
   3   9   2 27.8766 4.05807  13
  -3   9  -2 32.7080 4.13604  13
   3   9   2 23.9948 4.05816  14
   3   9   2 36.9692 5.09083   3
  -3   9  -2 27.0775 4.05298   7
  -3   9  -2 29.2453 4.08831   1
  -3   9  -2 19.4673 4.16050   3
   3   9   2 24.7460 3.60661  12
  -5  -9  -2 19.8604 4.59869  11
  -5  -9  -2 26.5778 5.20237   6
   5  -9   2 28.0997 4.13620   4
   5  -9   2 17.2656 4.79719   2
   5   9   2 18.0600 3.50582  12
  -5   9  -2 29.3488 4.79392   1
   5   9   2 29.3303 4.56101  13
   5   9   2 20.6781 4.61113  14
   5   9   2 24.4066 4.91281   3
  -7  -9  -2 5.82618 4.28036  11
   7  -9   2 0.91311 2.56844   4
  -7  -9  -2 -4.4629 2.77115   6
   7   9   2 4.37278 2.87485   3
   7   9   2 0.84349 2.07614  12
  -7   9  -2 0.68634 2.44792   1
   8 -10  -2 443.839 17.9765   2
  -8 -10   2 421.175 18.4512   6
   8  10  -2 416.122 17.2065   3
  -8  10   2 458.701 17.6671   1
   8  10  -2 431.460 17.8928   7
  -6 -10   2 153.826 10.8782   6
   6 -10  -2 168.811 10.8029   2
  -6  10   2 159.841 9.84803  13
  -6  10   2 151.491 8.87934   1
   6  10  -2 153.153 9.23675   7
   6  10  -2 143.136 10.5298  14
   6  10  -2 156.483 9.58350   3
   4 -10  -2 864.386 27.2251   2
  -4 -10   2 852.069 27.6335   6
  -4  10   2 855.255 26.5285  13
  -4  10   2 872.590 26.3286   3
   4  10  -2 855.642 25.7516   7
   4  10  -2 872.723 26.5161   3
   4  10  -2 848.633 27.5908  14
  -2 -10   2 200.342 10.6934   6
   2 -10  -2 188.611 9.56520   6
   2 -10  -2 208.776 10.6611   2
  -2 -10   2 201.541 10.1694   2
  -2  10   2 195.976 9.96112  13
  -2  10   2 209.282 10.0880   3
   2  10  -2 188.025 9.24086   7
   2  10  -2 219.925 10.7441   3
   0 -10   2 1342.15 36.7869   2
   0 -10  -2 1291.27 36.3422   6
   0 -10  -2 1283.23 35.0557   2
   0  10   2 1251.64 34.1731  12
   0  10   2 1326.83 36.0039   3
   0  10  -2 1317.15 36.1671   3
   0  10  -2 1288.40 36.1505   7
   0  10   2 1287.96 35.6451  13
  -2 -10  -2 143.808 9.67060   6
   2 -10   2 144.420 9.33010   2
   2  10   2 150.731 9.39422   3
   2  10   2 151.871 7.94061  12
  -2  10  -2 146.739 7.94492  13
   2  10   2 134.505 8.39066  13
   2  10   2 141.102 8.48610  14
  -2  10  -2 158.430 9.30237   3
  -4 -10  -2 1134.80 33.8834  11
   4 -10   2 1180.23 34.4509   2
  -4 -10  -2 1129.30 34.8528   6
   4  10   2 1100.92 33.3629  13
   4  10   2 1168.02 32.3321  12
   4  10   2 1181.20 34.3486   3
  -4  10  -2 1155.67 32.5422   1
   4  10   2 1091.44 33.6903  14
  -4  10  -2 1154.30 32.7870  13
  -6 -10  -2 53.0539 6.84332  11
  -6 -10  -2 59.0081 7.62397   6
   6 -10   2 79.3002 8.23373   2
  -6  10  -2 74.2735 7.39658   1
   6  10   2 71.9568 7.70402   3
   6  10   2 71.6965 6.06935  12
  -7 -11   2 97.4383 9.39447   6
   7 -11  -2 100.539 8.55817   2
   7  11  -2 93.0031 8.17959   3
  -7  11   2 103.437 7.90813   1
   5 -11  -2 144.090 9.72448   2
  -5 -11   2 134.427 9.98486   6
   5  11  -2 120.814 9.80198  14
   5  11  -2 129.200 9.19080   3
  -5  11   2 135.771 9.44622   3
   3 -11  -2 146.894 9.84772   2
  -3 -11   2 147.661 9.68983   6
  -3 -11   2 140.009 8.43173   2
   3  11  -2 142.329 9.34420   3
  -3  11   2 140.249 8.61135  13
   3  11  -2 136.725 9.62015  14
  -3  11   2 162.709 9.47837   3
  -1 -11   2 199.060 11.1395   2
  -1 -11   2 202.480 10.4599   6
   1 -11  -2 201.162 10.3740   2
   1 -11  -2 181.662 10.3384   6
  -1  11   2 182.529 10.0915  13
   1  11  -2 220.217 11.3387   3
  -1  11   2 188.557 10.3392   3
  -1 -11  -2 143.354 10.1149   6
  -1 -11  -2 136.422 8.11284   2
   1 -11   2 146.534 9.59936   2
   1  11   2 145.975 8.90972  13
  -1  11  -2 142.934 9.47377   3
   1  11   2 160.964 10.0332   3
  -3 -11  -2 157.621 11.2992   6
   3 -11   2 162.082 10.5681   2
  -3  11  -2 155.475 10.6379   3
   3  11   2 162.903 9.53677  13
   3  11   2 171.684 10.8591   3
  -3  11  -2 170.685 9.56239   1
   5 -11   2 94.8381 9.61392   2
  -5 -11  -2 79.6968 8.09739   6
   5  11   2 100.469 8.28500   3
  -5  11  -2 99.5319 8.17158   1
  -6 -12   2 683.272 26.1350   6
   6 -12  -2 689.274 25.0928   2
   6  12  -2 657.294 23.5608   3
  -6  12   2 638.404 22.3170   1
   4 -12  -2 87.8281 8.98343   2
  -4 -12   2 95.6099 9.55700   6
  -4  12   2 94.9444 8.55398   3
   4  12  -2 100.784 8.52564   3
  -2 -12   2 769.496 25.3827   2
   2 -12  -2 795.477 26.4215   2
  -2 -12   2 834.476 26.9340   6
   2  12  -2 794.904 26.3981   3
  -2  12   2 783.827 26.3360   3
  -2  12   2 802.988 26.0714  13
   0 -12  -2 167.024 10.7113   6
   0 -12   2 156.431 10.5501   2
   0 -12  -2 150.750 9.28876   2
   0  12  -2 158.315 10.4644   3
   0  12   2 175.254 10.0888  13
   0  12   2 141.343 9.60143   3
  -2 -12  -2 585.181 22.7858   6
   2 -12   2 604.543 23.1108   2
   2  12   2 631.948 23.7952  13
   2  12   2 624.672 22.8691   3
  -2  12  -2 635.000 20.8614   1
  -2  12  -2 604.325 22.9242   3
  -4 -12  -2 167.167 12.0025   6
   4 -12   2 183.415 12.4159   2
  -4  12  -2 172.771 10.4795   1
   4  12   2 184.516 11.6860   3
  -5  13   2 51.8223 6.73464   1
   3 -13  -2 67.0191 7.60488   2
  -3 -13   2 81.1111 9.12069   6
   3  13  -2 63.7008 7.08893   3
  -3  13   2 83.9963 8.74750   3
   1 -13  -2 49.6127 6.37609   2
   1 -13  -2 53.5937 6.99112   6
  -1 -13   2 47.5233 6.03421   2
   1  13  -2 61.0796 7.54765   3
  -1  13   2 46.1587 6.81400   3
   1 -13   2 46.7932 6.45217   2
  -1 -13  -2 48.4848 7.27773   6
  -1  13  -2 51.6572 7.09755   3
  -3 -13  -2 33.3759 6.75844   6
   3 -13   2 32.7434 6.61639   2
  -3  13  -2 34.5908 5.38532   1
   3  13   2 34.0938 6.32525   3
  -3  13  -2 41.6481 6.32986   3
   0 -14   2 124.710 9.40138   2
 -12   0   3 0.68022 4.39742  11
  12   0  -3 -0.2582 2.05963   4
 -12   0   3 1.65472 2.96020   8
 -10   0   3 4.83610 3.81310  11
  10   0  -3 0.90839 2.14529  14
 -10   0   3 4.16839 2.14675   8
  10   0  -3 -0.8292 1.61708   4
  -8   0   3 0.63334 1.27115   1
  -8   0   3 3.45903 2.27691  16
  -8   0   3 0.51951 2.27264  11
   8   0  -3 2.95336 1.29686   9
  -8   0   3 0.37314 1.38275   8
  -8   0   3 1.33100 1.76567   5
   8   0  -3 -0.2807 1.54038  14
   8   0  -3 0.92906 1.96475   4
   8   0  -3 3.06727 2.38054  10
  -6   0   3 0.83082 0.95147   8
   6   0  -3 1.16196 0.91419  14
   6   0  -3 -0.2260 0.79357  12
  -6   0   3 3.29840 1.53050   5
  -6   0   3 2.63458 1.76366  16
  -6   0   3 1.84258 1.49696  11
   6   0  -3 1.93060 1.39462   4
   6   0  -3 1.50660 0.91377   9
   6   0  -3 3.45200 1.92692  10
  -6   0   3 1.31883 0.85099   1
  -4   0   3 0.76950 0.42282   1
  -4   0   3 1.67125 1.13812  16
  -4   0   3 2.44873 0.94673   8
   4   0  -3 0.47927 0.61907  14
   4   0  -3 3.00822 0.76204   9
  -4   0   3 2.00086 0.95102   5
   2   0  -3 2.20710 0.71664  15
   2   0  -3 5.28159 0.71504  14
   2   0  -3 9.17001 1.06515   9
   0   0  -3 0.26653 0.39040   6
   0   0  -3 1.73413 0.52626   9
   0   0  -3 0.76533 0.53897   7
   0   0  -3 0.63459 0.53001   1
   0   0  -3 0.57252 0.59438  15
   0   0  -3 0.17782 0.44680  11
   2   0   3 3.19106 1.41072  10
  -2   0  -3 -0.0621 0.84714  11
  -2   0  -3 3.55103 1.22811  15
  -2   0  -3 0.54732 0.63905   6
  -2   0  -3 6.76312 1.62207   7
  -2   0  -3 0.08615 0.85697   1
   4   0   3 5.81956 1.17007  12
   4   0   3 0.50180 1.66543  10
  -4   0  -3 -0.8365 0.81428   1
   4   0   3 -1.5779 1.25651   4
  -4   0  -3 0.60548 1.61131  11
   6   0   3 -0.7385 2.26184  14
   6   0   3 0.15208 1.49416  10
   6   0   3 -0.1919 1.56177   4
   6   0   3 1.15848 1.29383  12
  -6   0  -3 -0.3886 2.33472  11
  -6   0  -3 0.65419 2.26264   1
   8   0   3 0.63983 1.90324  12
  -8   0  -3 1.23604 2.19537   1
   8   0   3 -1.7636 2.77846   4
   8   0   3 -0.7054 1.89856  14
  -8   0  -3 0.93332 3.52840  11
  11  -1  -3 377.555 15.3294   4
 -11  -1   3 390.451 17.5642  11
 -11  -1   3 393.262 15.3159   8
 -11   1   3 371.212 14.9102   8
 -11   1   3 363.166 17.6789  11
  11   1  -3 291.131 16.2769  14
  11   1  -3 393.589 15.5315   4
  -9  -1   3 677.415 20.2948   5
   9  -1  -3 655.040 21.5211  14
   9  -1  -3 676.677 20.4948   4
  -9  -1   3 655.290 22.9288  16
  -9  -1   3 677.029 22.5994  11
  -9  -1   3 662.375 20.2235   8
   9   1  -3 645.204 21.7756  14
  -9   1   3 618.098 19.1798   5
   9   1  -3 654.678 20.4059   4
  -9   1   3 675.019 22.8751  11
  -9   1   3 642.646 19.0045   1
  -9   1   3 681.243 20.1810   8
  -7  -1   3 1343.44 32.2928   1
  -7  -1   3 1347.01 33.8536   5
   7  -1  -3 1278.25 33.5327  12
   7  -1  -3 1336.22 38.6216  10
  -7  -1   3 1383.43 36.7808  16
   7  -1  -3 1401.14 34.0276   4
   7  -1  -3 1352.30 34.7174  14
   7  -1  -3 1370.21 32.9310   9
  -7  -1   3 1336.86 35.2021  11
  -7  -1   3 1379.24 33.7583   8
   7   1  -3 1293.27 33.5794  12
  -7   1   3 1382.84 35.8319  16
   7   1  -3 1350.25 32.1114   9
  -7   1   3 1311.28 33.1813   5
   7   1  -3 1408.13 35.6911  14
   7   1  -3 1377.49 34.0169   4
  -7   1   3 1382.75 35.7558  11
  -7   1   3 1367.37 32.7177   1
  -7   1   3 1329.98 33.5975   8
  -5  -1   3 1290.32 30.2708   8
   5  -1  -3 1293.44 30.6176  14
  -5  -1   3 1232.86 30.5525   5
  -5  -1   3 1291.51 29.0470   1
  -5  -1   3 1262.31 30.2129  12
  -5  -1   3 1273.05 32.6467  16
  -5  -1   3 1274.29 31.1224  11
   5  -1  -3 1234.59 30.3112  12
   5  -1  -3 1253.71 30.3032   4
   5  -1  -3 1264.95 30.1755   9
   5  -1  -3 1279.98 34.1678  10
   5   1  -3 1260.98 31.3794  14
  -5   1   3 1274.55 30.2168  12
   5   1  -3 1228.96 30.3324  12
  -5   1   3 1259.52 30.2419   5
   5   1  -3 1282.78 30.5077   4
  -5   1   3 1258.58 30.2401   8
   5   1  -3 1305.48 29.7352   9
  -5   1   3 1281.41 29.4006   1
  -5   1   3 1275.47 30.4950  13
  -5   1   3 1270.33 31.9771  16
  -3  -1   3 4718.24 107.666   5
   3  -1  -3 4860.06 109.969  14
   3  -1  -3 4774.67 110.860   9
   3  -1  -3 4721.37 109.010   4
   3  -1  -3 4889.17 109.784   6
  -3  -1   3 4716.95 117.350  16
  -3  -1   3 4666.29 107.443   8
  -3   1   3 4899.29 108.762   8
  -3   1   3 4644.28 107.846  13
   3   1  -3 4907.70 111.518   9
  -3   1   3 4748.48 111.476  10
  -3   1   3 4903.34 107.113   5
   3   1  -3 4800.96 109.027   4
   3   1  -3 4881.22 114.007  14
  -3   1   3 4545.22 110.532  16
  -3   1   3 4802.62 110.827  12
   3   1  -3 4719.54 111.021  15
  -1  -1   3 1145.63 26.4579  16
  -1  -1   3 1154.48 24.8300  12
   1  -1  -3 1083.69 25.8321  11
   1  -1  -3 1060.50 24.8814   1
  -1  -1   3 1195.48 24.6941   8
   1  -1  -3 1054.58 25.3240   9
   1  -1  -3 1041.64 26.2883  15
   1  -1  -3 1064.79 25.9206   6
   1  -1  -3 1060.07 25.0098   7
  -1  -1   3 1176.83 25.3712   5
   1   1  -3 1170.48 25.9780   7
   1   1  -3 1096.48 25.5595   9
  -1   1   3 1089.98 25.6001  13
   1   1  -3 1089.35 26.2103  15
   1  -1   3 3961.05 98.6049  10
  -1  -1  -3 4110.14 94.6315  15
  -1  -1  -3 4158.03 92.8234   1
  -1  -1  -3 4156.08 93.1069   9
  -1  -1  -3 4266.01 90.6411   7
  -1  -1  -3 4237.44 92.8393   6
  -1  -1  -3 4170.87 97.0996  11
  -1   1  -3 4142.44 90.1243   1
  -1   1  -3 3955.89 91.8568   6
  -1   1  -3 4003.28 92.1977   9
  -1   1  -3 3926.89 90.8299   7
  -1   1  -3 3927.47 95.5374  15
   1   1   3 4277.10 104.481  10
  -1   1  -3 3839.28 92.7550  11
  -3  -1  -3 1106.17 29.7191  11
   3  -1   3 1189.91 26.8679  12
  -3  -1  -3 1137.77 28.6736   1
  -3  -1  -3 1152.14 29.1988  15
   3  -1   3 1190.71 27.6605   2
   3  -1   3 1210.84 32.1946  10
  -3  -1  -3 1109.02 27.7335   6
   3   1   3 1174.04 30.7502  14
  -3   1  -3 1169.45 29.8028   7
  -3   1  -3 1140.72 29.6141  11
   3   1   3 1157.58 26.5605  12
   3   1   3 1178.81 30.4558  10
   3   1   3 1178.99 28.1363   4
  -3   1  -3 1165.38 28.7232   1
   5  -1   3 916.181 23.6561  12
  -5  -1  -3 949.776 27.4493  11
   5  -1   3 920.947 24.9592   4
   5  -1   3 912.321 28.9360  10
  -5  -1  -3 927.487 25.4481   1
   5   1   3 944.812 24.7502   4
   5   1   3 945.031 23.6047  12
  -5   1  -3 939.385 27.0753  11
   5   1   3 943.625 28.1589  14
  -5   1  -3 924.862 25.3407   1
   5   1   3 904.589 27.3728  10
  -7  -1  -3 627.746 20.2271   1
   7  -1   3 615.918 20.0121   4
  -7  -1  -3 629.716 22.7107  11
   7  -1   3 645.786 19.1354  12
   7  -1   3 637.938 23.5375  14
  -7   1  -3 624.865 20.5551   1
   7   1   3 607.719 18.8165  12
  -7   1  -3 641.376 22.7838  11
   7   1   3 637.351 19.7934   4
   7   1   3 596.718 22.7335  14
  -9  -1  -3 295.846 16.0762  11
   9  -1   3 298.923 13.5866   4
  -9  -1  -3 309.465 13.9444   1
   9  -1   3 306.279 12.8788  12
  -9   1  -3 282.292 15.0977  11
  -9   1  -3 279.088 13.0375   1
   9   1   3 290.795 12.5572  12
   9   1   3 295.259 12.9632   4
 -12  -2   3 81.6664 9.29980  11
  12  -2  -3 70.3948 7.05961   4
  12   2  -3 84.2609 7.94995   4
 -12   2   3 81.6833 7.18822   8
 -12   2   3 82.8584 9.67347  11
 -10  -2   3 177.135 11.6582  16
 -10  -2   3 191.256 9.79938   8
 -10  -2   3 167.894 9.38704   5
  10  -2  -3 176.296 9.28491   4
 -10  -2   3 170.597 11.2092  11
 -10   2   3 187.924 9.59549   8
 -10   2   3 173.672 11.4801  11
  10   2  -3 167.419 9.10407   4
  -8  -2   3 260.749 10.4109   5
  -8  -2   3 280.332 11.8695  11
   8  -2  -3 262.361 10.3900   4
   8  -2  -3 255.039 9.51148   9
  -8  -2   3 279.643 10.4660   8
  -8  -2   3 250.344 12.1996  16
   8  -2  -3 250.356 10.6159  14
   8  -2  -3 253.870 13.9667  10
   8   2  -3 264.429 10.3296   4
   8   2  -3 251.482 11.6528  14
  -8   2   3 267.063 9.62783   1
  -8   2   3 263.468 10.3064   8
  -8   2   3 262.939 11.1788  16
  -8   2   3 261.508 12.1350  11
  -8   2   3 272.604 9.65829   5
   6  -2  -3 214.983 10.7541  10
  -6  -2   3 222.544 8.49839   5
   6  -2  -3 217.649 8.07073  14
  -6  -2   3 215.672 7.81912   8
  -6  -2   3 232.944 10.2942  16
   6  -2  -3 205.521 7.86660  12
   6  -2  -3 218.742 7.79139   9
  -6  -2   3 215.244 6.74539   1
   6  -2  -3 229.500 7.96162   4
  -6  -2   3 220.751 8.55268  11
  -6   2   3 217.166 7.31944   1
  -6   2   3 210.578 7.43560   5
  -6   2   3 225.607 9.00715  16
  -6   2   3 227.768 7.93945   8
   6   2  -3 216.286 6.72824   9
   6   2  -3 223.474 8.07342   4
   6   2  -3 230.171 9.31582  14
  -6   2   3 223.406 8.32345  13
   6   2  -3 194.262 6.96177   3
  -6   2   3 212.818 7.55741  12
   6   2  -3 211.917 7.85897  12
   4  -2  -3 620.112 16.0083   9
   4  -2  -3 617.566 15.0545  14
  -4  -2   3 620.704 15.5102   8
   4  -2  -3 620.401 15.5388   4
   4  -2  -3 643.685 15.9540   6
  -4  -2   3 641.636 18.0712  16
   4  -2  -3 620.111 18.8260  10
  -4  -2   3 599.525 14.3140   1
  -4  -2   3 600.705 15.7893  12
  -4  -2   3 620.316 15.8919  11
  -4  -2   3 621.149 16.3164   5
   4  -2  -3 618.430 16.2336   2
  -4   2   3 632.471 17.3953  16
  -4   2   3 625.212 15.7972  12
   4   2  -3 592.346 14.9512   3
  -4   2   3 629.362 15.8061   5
   4   2  -3 621.377 15.9184   4
  -4   2   3 629.261 15.8758   8
   4   2  -3 596.164 14.9136  15
  -4   2   3 640.436 16.2135  13
   4   2  -3 605.577 15.7315  12
   4   2  -3 636.270 15.3408   9
   4   2  -3 621.812 16.8689  14
   2  -2  -3 315.092 9.23950   6
  -2  -2   3 326.681 8.58287  12
  -2  -2   3 329.768 8.90193   5
   2  -2  -3 313.539 7.98784   4
   2  -2  -3 315.800 8.81375   9
  -2  -2   3 336.528 8.01666   8
  -2  -2   3 335.478 9.97217  16
   2   2  -3 343.278 8.97107   4
  -2   2   3 309.646 10.0467  10
   2   2  -3 333.037 8.86868   9
   2   2  -3 320.950 8.86954  15
   2   2  -3 343.211 9.58302  14
  -2   2   3 328.306 9.10299  13
  -2   2   3 324.222 8.38686  12
  -2   2   3 315.452 8.69834   8
   2   2  -3 352.667 8.40574   3
   2   2  -3 326.600 9.35613   7
  -2   2   3 320.623 8.15893   3
   0  -2  -3 566.493 13.7876   9
   0  -2  -3 598.051 15.0888   6
   0  -2   3 579.134 13.3046  12
   0  -2   3 560.197 13.4127   5
   0  -2  -3 577.459 13.9677   7
   0  -2  -3 575.904 15.2104  15
   0  -2  -3 595.128 14.3014   1
   0  -2  -3 558.130 15.0452  11
   0  -2   3 560.915 14.1625  16
   0   2   3 559.709 14.5228  14
   0   2  -3 575.410 15.0593   7
   0   2  -3 591.001 13.9970   1
   0   2  -3 580.282 14.5080   9
   0   2  -3 575.917 15.3406  15
  -2  -2  -3 563.333 16.1641  11
   2  -2   3 549.991 14.9527   2
   2  -2   3 566.898 13.7314  12
  -2  -2  -3 563.638 15.2305   6
  -2  -2  -3 553.523 15.4763  15
  -2  -2  -3 559.643 13.4008   9
   2  -2   3 567.440 18.0248  10
  -2  -2  -3 576.850 15.1643   1
   2   2   3 592.730 16.6047  14
   2   2   3 598.505 15.7645  10
   2   2   3 582.644 13.1283  12
  -2   2  -3 552.238 15.0254   1
   2   2   3 568.626 14.3044   4
   2   2   3 582.928 13.0944  12
  -2   2  -3 527.990 15.2397  11
  -2   2  -3 534.569 15.8173   7
   4  -2   3 215.236 7.54167   2
   4  -2   3 215.731 7.34121  12
  -4  -2  -3 198.690 7.60193   6
  -4  -2  -3 209.277 8.29113   1
  -4  -2  -3 214.625 9.74178  11
   4  -2   3 228.388 11.4566  10
   4   2   3 222.288 10.1754  14
  -4   2  -3 216.308 9.19062  11
  -4   2  -3 211.877 8.36786   1
   4   2   3 223.267 7.91376   4
   4   2   3 223.772 7.07039  12
  -4   2  -3 219.317 9.45632   7
   6  -2   3 307.684 14.3208  14
  -6  -2  -3 305.194 13.9488  11
   6  -2   3 309.256 11.0250  12
  -6  -2  -3 297.025 11.8824   1
   6  -2   3 302.118 11.8449   4
  -6   2  -3 314.059 13.5835  11
   6   2   3 297.310 10.6033  12
   6   2   3 319.504 11.5211   4
   6   2   3 287.826 13.8892  14
  -6   2  -3 316.662 12.4461   1
   8  -2   3 100.957 9.29297  14
   8  -2   3 111.059 7.22190  12
  -8  -2  -3 109.245 9.72140  11
  -8  -2  -3 104.095 7.55392   1
   8  -2   3 117.872 7.96490   4
   8   2   3 115.620 9.93587  14
  -8   2  -3 118.167 8.61238   1
  -8   2  -3 122.431 9.32489  11
   8   2   3 121.954 7.34671   4
   8   2   3 121.065 7.23686  12
  11  -3  -3 674.876 22.3438   4
 -11  -3   3 657.091 22.4566   5
 -11  -3   3 652.386 24.6683  11
  11   3  -3 714.094 22.7066   4
 -11   3   3 717.212 26.4208  11
 -11   3   3 721.422 22.6185   8
   9  -3  -3 50.1832 4.65250   9
  -9  -3   3 60.2202 5.00561   8
  -9  -3   3 55.1497 6.39416  11
   9  -3  -3 63.7643 5.11569   4
  -9  -3   3 62.4193 6.36369   5
  -9  -3   3 51.4154 7.15185  16
  -9   3   3 62.7106 7.10634  11
  -9   3   3 48.5040 4.71598   1
  -9   3   3 51.3997 4.99468   8
   9   3  -3 63.9362 5.81284   4
   9   3  -3 55.6716 6.18227  14
  -7  -3   3 2088.41 50.7909   5
   7  -3  -3 2120.31 56.3855  10
  -7  -3   3 2090.76 51.1993  11
   7  -3  -3 2050.70 49.5546   9
  -7  -3   3 2088.06 54.0508  16
  -7  -3   3 2107.76 49.7775   8
   7  -3  -3 2129.47 49.8322   4
  -7   3   3 2103.45 49.8398   8
  -7   3   3 2097.98 50.9259  13
   7   3  -3 2105.02 52.5394  14
  -7   3   3 2138.89 49.3205   1
   7   3  -3 2036.42 49.9664  12
   7   3  -3 1975.08 48.9316   3
   7   3  -3 2162.73 50.2321   4
  -7   3   3 2094.14 50.9181  16
  -7   3   3 2039.60 48.6300   5
   5  -3  -3 236.886 8.27169   2
   5  -3  -3 235.737 7.53531  14
   5  -3  -3 246.792 7.57919   6
  -5  -3   3 239.810 8.54252   5
  -5  -3   3 236.329 8.20452  11
  -5  -3   3 233.067 7.91734  12
   5  -3  -3 241.516 10.9634  10
  -5  -3   3 241.873 10.1956  16
   5  -3  -3 244.225 7.72333   4
  -5  -3   3 236.412 7.73643   8
  -5  -3   3 230.053 6.71581   1
   5   3  -3 233.775 9.12863  14
   5   3  -3 219.503 7.39512   3
  -5   3   3 244.300 9.00880  16
  -5   3   3 227.687 7.47160   5
   5   3  -3 237.822 8.09463   4
   5   3  -3 239.843 6.97786   9
  -5   3   3 236.337 8.53217  13
  -5   3   3 245.248 7.99892  12
  -5   3   3 247.316 7.66724   1
   5   3  -3 233.076 8.02289  12
  -5   3   3 252.248 8.12420   8
  -3  -3   3 6390.77 152.202  16
  -3  -3   3 6261.23 141.256  11
  -3  -3   3 5999.73 140.690  12
   3  -3  -3 6057.76 139.580   4
   3  -3  -3 6185.56 149.657  10
  -3  -3   3 6123.60 139.758   8
   3  -3  -3 6329.30 138.855   6
   3  -3  -3 6002.68 140.675   2
  -3  -3   3 6213.50 139.906   5
   3   3  -3 6185.25 141.128   9
   3   3  -3 6715.78 138.942  13
   3   3  -3 6585.77 149.484  14
  -3   3   3 6185.81 148.474  13
   3   3  -3 5848.47 141.272  15
  -3   3   3 6091.68 136.259   8
  -3   3   3 6059.30 140.890   3
  -3   3   3 5858.37 142.070  12
   3   3  -3 6534.40 136.002   3
   3   3  -3 6482.81 145.688   4
   1  -3  -3 879.046 22.7176  15
   1  -3  -3 916.819 22.5554   6
   1  -3  -3 879.974 22.0383   2
   1  -3  -3 870.468 21.3074   9
  -1  -3   3 916.587 21.2171   5
  -1  -3   3 922.982 21.4142  12
  -1  -3   3 906.076 22.2581  16
  -1   3   3 908.987 22.2229  10
   1   3  -3 912.321 21.8329   9
   1   3  -3 934.173 20.4914  13
  -1   3   3 927.669 22.5334  13
  -1   3   3 894.777 21.5270   3
   1   3  -3 921.486 22.5356   7
  -1   3   3 893.161 20.7508  14
   1   3  -3 897.150 22.1921  15
   1   3  -3 940.903 21.8529   3
  -1   3   3 895.973 20.9709  12
  -1  -3  -3 5867.19 135.089  11
  -1  -3  -3 5630.69 132.364  15
  -1  -3  -3 5707.39 126.089   6
  -1  -3  -3 5839.55 128.542   1
  -1  -3  -3 5726.78 126.618   9
   1  -3   3 5371.44 127.222  16
   1  -3   3 5639.68 125.681   2
   1  -3   3 5746.37 142.986  10
   1  -3   3 5681.03 131.573  12
   1   3   3 5653.37 128.907  12
   1   3   3 5626.96 127.292   4
   1   3   3 5536.85 135.609  14
   1   3   3 5677.50 131.683  10
  -1   3  -3 5670.98 130.311  11
  -1   3  -3 5821.21 133.899   7
  -1   3  -3 5677.00 127.588   1
   3  -3   3 471.383 12.8976  12
  -3  -3  -3 479.614 13.9773   1
   3  -3   3 461.858 17.3415  10
  -3  -3  -3 489.399 14.3588   6
  -3  -3  -3 468.161 13.8402  15
   3  -3   3 487.220 13.9099   2
  -3  -3  -3 491.525 15.4086  11
  -3   3  -3 441.567 13.7866   1
   3   3   3 478.245 13.6936  10
   3   3   3 489.028 12.4351  12
  -3   3  -3 464.953 14.3570  11
  -3   3  -3 467.081 15.0017   7
   3   3   3 473.132 12.8567   4
   3   3   3 499.845 15.8462  14
   5  -3   3 2028.64 48.3404   4
   5  -3   3 1995.98 46.9688  12
  -5  -3  -3 1956.16 48.1738   1
  -5  -3  -3 1944.08 50.5891  11
   5  -3   3 1875.45 53.3107  10
  -5  -3  -3 1845.13 47.4121   6
   5   3   3 1973.75 46.4766  12
   5   3   3 1964.92 51.1434  14
  -5   3  -3 1963.37 49.8043  11
   5   3   3 2020.52 46.9712   4
  -5   3  -3 2083.02 50.6105   7
  -5   3  -3 1975.23 48.4251   1
  -7  -3  -3 83.1844 8.26272  11
   7  -3   3 80.4938 5.87947  12
   7  -3   3 82.1388 7.69203  14
   7  -3   3 84.2608 6.44833   4
  -7  -3  -3 82.8041 6.80641   1
  -7   3  -3 81.6297 7.19708  11
   7   3   3 85.3432 5.82967  12
  -7   3  -3 95.4178 7.37302   1
   7   3   3 90.9339 8.39255  14
   7   3   3 98.8368 6.42835   4
   9  -3   3 546.063 19.5926   4
  -9  -3  -3 552.810 23.0217  11
  -9  -3  -3 530.040 19.3698   1
   9   3   3 540.862 18.6632  12
  -9   3  -3 529.408 20.1653   1
  -9   3  -3 553.752 22.4854  11
   9   3   3 521.298 18.2014   4
 -10  -4   3 178.464 12.4356  16
 -10  -4   3 186.704 10.5906   5
  10  -4  -3 204.081 9.87521   4
  10  -4  -3 201.643 9.55673   9
 -10  -4   3 202.305 11.2921  11
 -10   4   3 190.871 9.29262   1
  10   4  -3 193.753 11.9729  14
 -10   4   3 194.369 9.90668   8
  10   4  -3 193.154 9.77024   4
 -10   4   3 202.203 12.6294  11
  -8  -4   3 342.856 13.7608  11
   8  -4  -3 373.671 12.8640   9
  -8  -4   3 353.308 12.4999   8
  -8  -4   3 377.449 14.0864   5
   8  -4  -3 386.227 13.0020   4
  -8  -4   3 356.530 16.2459  16
   8   4  -3 324.726 11.9996   3
  -8   4   3 369.652 12.8954   8
   8   4  -3 346.149 15.0222  14
   8   4  -3 366.831 13.0592   4
  -8   4   3 360.438 12.5479   1
  -6  -4   3 316.709 10.1474   8
   6  -4  -3 332.356 14.6510  10
  -6  -4   3 292.640 10.6587  11
   6  -4  -3 309.392 10.0440   4
  -6  -4   3 319.557 11.4596   5
  -6  -4   3 327.351 13.6180  16
   6  -4  -3 310.832 10.8769   2
   6   4  -3 306.016 12.1877  14
   6   4  -3 302.193 10.0649   3
  -6   4   3 307.815 9.54845   5
  -6   4   3 323.335 11.4629  13
   6   4  -3 290.001 10.3366  12
   6   4  -3 322.145 10.6200   4
  -6   4   3 321.165 11.1022  16
  -6   4   3 315.018 10.4121   8
  -6   4   3 322.201 10.1974   1
  -4  -4   3 1381.58 32.9015  11
   4  -4  -3 1333.09 32.0915  14
   4  -4  -3 1401.16 33.5098   6
   4  -4  -3 1334.32 32.5410   4
  -4  -4   3 1440.53 33.8745  12
  -4  -4   3 1407.62 33.4103   2
  -4  -4   3 1454.22 32.8979   8
  -4  -4   3 1497.95 36.9652  16
   4  -4  -3 1430.07 34.7529   2
  -4  -4   3 1477.93 34.5728   5
   4  -4  -3 1447.03 37.5967  10
  -4   4   3 1389.27 33.5107   8
  -4   4   3 1431.80 34.6131  13
  -4   4   3 1403.25 33.6550  12
  -4   4   3 1445.06 35.4029  16
   4   4  -3 1388.12 33.3392   3
   4   4  -3 1403.60 33.5204   4
  -4   4   3 1365.22 33.1956   3
   4   4  -3 1430.67 33.6129  12
   4   4  -3 1468.92 35.6881  14
  -2  -4   3 832.627 20.6068  12
   2  -4  -3 831.310 21.3627   2
   2  -4  -3 811.695 21.0937   6
  -2  -4   3 820.738 21.9889  16
  -2  -4   3 840.927 20.5194   5
  -2  -4   3 836.783 21.1654   2
  -2   4   3 818.886 21.9082  10
   2   4  -3 847.848 20.3520   9
  -2   4   3 855.339 21.4533  13
   2   4  -3 828.102 21.3940   7
   2   4  -3 835.731 20.6122   3
  -2   4   3 847.569 20.4423   3
   2   4  -3 830.412 21.8871  14
  -2   4   3 820.077 20.2695  12
   0  -4   3 1323.47 30.6419  12
   0  -4   3 1251.43 30.3620  16
   0  -4  -3 1337.63 32.3144   6
   0  -4   3 1338.46 32.0453   2
   0  -4  -3 1316.65 32.1713  11
   0  -4  -3 1255.25 29.8795   9
   0  -4   3 1313.31 34.0372  10
   0  -4   3 1296.31 29.5253   5
   0  -4  -3 1290.50 30.9450   2
   0  -4  -3 1272.35 31.7183  15
   0   4   3 1338.51 30.2164  12
   0   4   3 1333.06 32.2024  13
   0   4  -3 1329.41 30.4778   1
   0   4   3 1258.87 29.5858  10
   0   4  -3 1348.84 30.3284  13
   0   4   3 1306.11 30.8296  14
   0   4  -3 1342.38 31.9584   7
   0   4   3 1329.15 31.3679   3
   0   4  -3 1301.66 31.4761   3
  -2  -4  -3 921.017 25.0295  11
  -2  -4  -3 908.309 23.4995  15
  -2  -4  -3 927.007 23.5219   1
  -2  -4  -3 903.508 24.4702   6
   2  -4   3 935.248 24.1845   2
   2  -4   3 926.952 27.5904  10
   2  -4   3 941.940 22.8418  12
  -2   4  -3 919.650 23.3817   1
   2   4   3 946.723 20.6725  10
   2   4   3 918.869 21.7068   4
   2   4   3 912.053 24.6656  14
  -2   4  -3 912.502 23.2627  11
  -2   4  -3 930.386 24.6181   7
   2   4   3 939.316 24.1580   3
   2   4   3 936.839 22.2734  12
  -4  -4  -3 297.741 12.0560  11
   4  -4   3 260.832 9.33116  12
   4  -4   3 259.867 9.91284   2
  -4  -4  -3 274.154 10.5534   6
   4  -4   3 262.119 13.6358  10
  -4  -4  -3 273.391 10.2247   1
  -4   4  -3 263.119 10.5985  11
  -4   4  -3 270.392 10.2471   1
   4   4   3 280.741 11.8407  14
   4   4   3 271.604 8.76125   4
   4   4   3 278.449 9.02300  12
  -4   4  -3 270.935 11.2130   7
   6  -4   3 339.821 13.2852   4
  -6  -4  -3 338.437 13.0027   1
   6  -4   3 335.591 12.3779  12
  -6  -4  -3 330.956 15.1952  11
   6   4   3 343.875 11.7387   4
  -6   4  -3 341.854 14.4704  11
   6   4   3 335.923 11.9611  12
  -6   4  -3 353.926 13.4068   1
   6   4   3 324.871 15.1394  14
   8  -4   3 84.2895 6.51863  12
  -8  -4  -3 97.4178 9.77695  11
   8  -4   3 80.8578 7.61443   4
  -8  -4  -3 78.0665 7.38197   1
  -8   4  -3 87.9236 7.87652  11
   8   4   3 69.0465 5.82985  12
   8   4   3 75.2775 7.48286   3
  -8   4  -3 81.2678 6.91737   1
 -11  -5   3 297.477 14.1938   5
  11  -5  -3 302.530 13.1324   4
  11   5  -3 272.308 12.3165   4
 -11   5   3 305.339 16.3308  11
 -11   5   3 268.898 12.3538   8
   9  -5  -3 952.488 27.4617   4
  -9  -5   3 963.062 33.0728  16
  -9  -5   3 978.860 29.2441   5
   9  -5  -3 1003.71 28.0690   9
  -9  -5   3 959.155 29.3908  11
  -9   5   3 974.340 31.0449  11
   9   5  -3 978.299 31.2794  14
  -9   5   3 994.374 27.7617   1
  -9   5   3 1013.82 27.8483   8
   9   5  -3 963.849 27.5765   4
  -7  -5   3 687.072 21.0150   5
  -7  -5   3 677.328 23.8505  16
   7  -5  -3 665.764 25.2651  10
   7  -5  -3 706.052 19.3842   4
   7  -5  -3 720.120 20.5787   2
  -7  -5   3 656.822 20.2616  11
  -7   5   3 707.145 21.2459  13
   7   5  -3 645.280 19.3520   3
   7   5  -3 675.238 19.5658   4
   7   5  -3 694.044 22.6839  14
  -7   5   3 701.236 19.6279   8
  -7   5   3 714.966 19.6890   1
  -5  -5   3 2024.22 47.2193   5
  -5  -5   3 1948.24 45.4590  11
  -5  -5   3 2036.70 50.2340  16
   5  -5  -3 1973.41 51.2780  10
  -5  -5   3 1838.58 44.8372   2
   5  -5  -3 1963.09 47.2098   2
   5  -5  -3 1826.87 44.6176   4
  -5   5   3 1918.89 45.7628   3
   5   5  -3 1985.01 48.5565  14
   5   5  -3 1958.32 45.6740   4
  -5   5   3 1862.11 45.4868   8
  -5   5   3 1901.52 45.7540  12
   5   5  -3 1975.36 45.9531   3
  -5   5   3 1945.73 47.1514  13
  -5   5   3 1946.91 47.1375  16
   3  -5  -3 822.525 21.1952   6
  -3  -5   3 819.755 21.1576   5
   3  -5  -3 839.102 22.0193   2
  -3  -5   3 809.201 21.2223   2
  -3  -5   3 798.143 20.9565  12
  -3  -5   3 817.930 23.1536  16
   3  -5  -3 828.209 23.1880  10
  -3   5   3 807.378 20.5658   8
  -3   5   3 824.570 21.9386  13
   3   5  -3 811.394 20.6010   4
   3   5  -3 816.317 22.5780  14
   3   5  -3 801.950 19.3428  13
   3   5  -3 809.315 21.8416   7
   3   5  -3 812.145 21.0149   3
  -3   5   3 826.965 20.7801  12
  -3   5   3 808.987 20.7300   3
   3   5  -3 833.665 20.1435   9
   1  -5  -3 1757.25 41.5120   9
  -1  -5   3 1791.81 45.0606  10
   1  -5  -3 1765.89 43.2699   6
  -1  -5   3 1777.91 42.8881  16
   1  -5  -3 1814.61 42.8791   2
  -1  -5   3 1841.73 41.4316   5
  -1  -5   3 1870.01 43.4801   2
  -1  -5   3 1842.00 42.2806  12
  -1   5   3 1767.51 41.7436  10
  -1   5   3 1855.41 43.4799  13
  -1   5   3 1790.46 41.2090  14
  -1   5   3 1820.92 42.4677   3
   1   5  -3 1808.85 43.1550   7
  -1   5   3 1812.48 41.8398  12
   1   5  -3 1855.82 41.0473  13
   1   5  -3 1816.18 42.7269   3
  -1  -5  -3 552.756 16.8128  11
  -1  -5  -3 545.303 15.7304  15
  -1  -5  -3 574.452 14.9943   2
   1  -5   3 556.436 15.2698  12
   1  -5   3 586.331 19.3199  10
  -1  -5  -3 524.344 13.4818   9
  -1  -5  -3 561.826 16.8459   6
   1  -5   3 582.298 16.7897   2
  -1   5  -3 555.867 16.2362   3
   1   5   3 565.070 15.9915  14
   1   5   3 566.494 16.7952  13
   1   5   3 569.136 16.1249   3
  -1   5  -3 590.124 15.3619  13
  -1   5  -3 572.280 16.5096   7
   1   5   3 559.538 14.7666  12
  -1   5  -3 542.269 15.0934   1
   3  -5   3 1164.06 34.8715  10
   3  -5   3 1152.41 30.1883   2
  -3  -5  -3 1134.48 29.2249   1
   3  -5   3 1140.94 28.8478  12
  -3  -5  -3 1166.11 30.7572   6
  -3  -5  -3 1158.86 31.3673  11
  -3   5  -3 1139.18 29.3624   1
   3   5   3 1105.09 28.1644  12
  -3   5  -3 1160.59 30.6163   7
  -3   5  -3 1147.89 29.4902  11
   3   5   3 1170.96 31.2705  14
   3   5   3 1157.25 30.3420   3
   5  -5   3 389.737 13.9515   2
  -5  -5  -3 420.584 15.0110   6
  -5  -5  -3 430.221 14.4653   1
   5  -5   3 398.207 14.2763   4
   5  -5   3 389.517 13.5891  12
  -5  -5  -3 413.708 16.4848  11
   5   5   3 403.492 13.1849  12
  -5   5  -3 424.191 14.7122   1
  -5   5  -3 418.197 15.2859  11
  -5   5  -3 411.326 15.7196   7
   5   5   3 413.341 16.4888  14
   5   5   3 382.285 14.8273   3
  -7  -5  -3 795.249 27.1453  11
  -7  -5  -3 732.532 23.5855   1
   7  -5   3 781.080 23.7020  12
   7  -5   3 752.763 24.1192   4
  -7   5  -3 759.873 25.8603  11
  -7   5  -3 777.761 24.4816   1
   7   5   3 774.346 22.9366  12
   7   5   3 773.400 25.1542   3
   7   5   3 739.202 26.7380  14
   9  -5   3 227.662 11.6331  12
   9   5   3 272.846 15.8479   3
   9   5   3 224.818 12.6818  12
  10  -6  -3 70.6044 6.74082   9
 -10  -6   3 78.2310 8.21877   5
  10  -6  -3 76.8523 5.95855   4
  10   6  -3 75.2296 6.82043   4
 -10   6   3 91.3875 9.23896  11
 -10   6   3 72.0111 6.36222   8
 -10   6   3 82.6552 7.09382   1
   8  -6  -3 138.616 8.14673   2
  -8  -6   3 142.475 9.03423   5
   8  -6  -3 140.305 7.27063   4
  -8  -6   3 151.002 11.2853  16
   8   6  -3 141.833 7.70347   3
  -8   6   3 137.499 8.39407  13
   8   6  -3 138.201 9.35886  14
  -8   6   3 145.676 8.00326   1
  -8   6   3 143.473 7.66076   8
   8   6  -3 142.612 7.54972   4
  -6  -6   3 616.134 18.9832   5
  -6  -6   3 632.983 22.2104  16
   6  -6  -3 573.013 22.4586  10
   6  -6  -3 605.747 19.0935   2
  -6   6   3 598.063 17.4030   8
  -6   6   3 595.077 18.9441  13
   6   6  -3 600.523 17.4511   4
   6   6  -3 613.407 20.4734  14
  -6   6   3 604.084 17.6298   1
   6   6  -3 613.435 18.0657   3
   4  -6  -3 209.251 7.89549   6
   4  -6  -3 216.875 9.21983   2
  -4  -6   3 205.751 7.98365   2
  -4  -6   3 232.855 8.98534   5
  -4  -6   3 208.493 8.12443  12
   4  -6  -3 215.183 10.3757  10
  -4  -6   3 211.144 10.3915  16
   4   6  -3 219.860 7.84092   4
  -4   6   3 216.621 7.84595   8
  -4   6   3 233.600 9.22529  13
   4   6  -3 215.911 8.29130   3
   4   6  -3 212.455 6.97281  13
   4   6  -3 208.073 9.62060  14
  -4   6   3 221.805 8.10803  12
  -4   6   3 218.430 8.19692   3
   2  -6  -3 1034.61 27.2442   2
  -2  -6   3 1015.31 27.8869  16
  -2  -6   3 1046.33 28.5719  10
  -2  -6   3 1020.10 27.0904   2
   2  -6  -3 1079.09 27.3102   6
  -2  -6   3 1051.43 25.9566   5
  -2  -6   3 1072.07 26.5445  12
  -2   6   3 1053.20 26.5468   3
  -2   6   3 1060.60 26.1923  12
   2   6  -3 1035.68 26.7161   3
   2   6  -3 1031.63 24.7952  13
  -2   6   3 1057.78 27.4582  13
   2   6  -3 1033.27 27.1108   7
   2   6  -3 1047.29 28.2001  14
  -2   6   3 1063.43 25.9344   8
   0  -6  -3 507.034 15.7867  11
   0  -6   3 514.631 14.5684  12
   0  -6  -3 498.233 14.6544   2
   0  -6   3 520.369 15.9449   2
   0  -6   3 501.233 17.4229  10
   0  -6  -3 482.017 14.9072  15
   0  -6  -3 507.917 15.9011   6
   0  -6  -3 492.417 13.1600   9
   0   6  -3 518.549 15.4431   7
   0   6  -3 527.742 15.4585   3
   0   6   3 521.607 14.2660  12
   0   6   3 472.551 14.0052  14
   0   6   3 535.494 15.3399   3
   0   6  -3 513.356 13.8717  13
   0   6   3 508.927 15.8389  13
  -2  -6  -3 279.589 11.1751   6
   2  -6   3 290.195 11.2331   2
  -2  -6  -3 261.722 9.22856  15
  -2  -6  -3 275.305 11.1745  11
   2  -6   3 285.258 9.82499  12
   2  -6   3 278.389 13.1839  10
   2   6   3 264.001 9.08157  12
   2   6   3 272.479 10.9169  13
   2   6   3 277.058 10.6614   3
  -2   6  -3 275.738 9.65344   1
  -2   6  -3 288.188 10.8888   7
   2   6   3 253.215 10.2619  14
  -2   6  -3 284.286 9.79882  13
  -2   6  -3 273.025 10.7838   3
  -4  -6  -3 474.045 16.6645   6
   4  -6   3 442.812 19.8628  10
   4  -6   3 484.983 16.0409   2
   4  -6   3 465.582 15.0234  12
  -4  -6  -3 437.106 16.8130  11
   4   6   3 467.812 14.4746  12
  -4   6  -3 459.737 15.4356  11
   4   6   3 465.719 16.3934   3
  -4   6  -3 455.257 16.2673   7
   4   6   3 470.016 17.0427  14
  -4   6  -3 484.882 15.5227   1
   6  -6   3 36.8903 4.38171  12
  -6  -6  -3 37.4527 5.21684   6
  -6  -6  -3 51.9989 7.25773  11
   6  -6   3 42.3474 4.96677   4
  -6   6  -3 30.0468 4.67107  11
   6   6   3 36.0970 4.35788  12
   6   6   3 40.4984 6.06879  14
  -6   6  -3 47.7249 5.38145   1
   6   6   3 35.0323 4.87887   3
   8  -6   3 118.451 8.69075   4
   8  -6   3 116.366 8.06169  12
  -8  -6  -3 120.392 10.8783  11
   8   6   3 130.517 9.12835   3
   8   6   3 130.047 8.05369  12
  -8   6  -3 111.876 9.19862   1
  -9  -7   3 548.111 20.2703   5
   9  -7  -3 521.378 18.6220   9
  -9  -7   3 519.295 19.8773   6
  -9   7   3 542.287 18.5789   1
  -9   7   3 496.285 17.1019   8
   9   7  -3 529.247 17.7837   4
   9   7  -3 536.691 25.0068  14
  -7  -7   3 84.6428 7.14620   5
   7  -7  -3 70.5044 5.86061   2
  -7  -7   3 72.4039 8.39564  16
  -7   7   3 71.5662 5.77765   1
   7   7  -3 74.1481 5.67778   3
   7   7  -3 79.0556 5.15869   4
  -7   7   3 83.9356 6.68390  13
  -7   7   3 76.4375 5.09006   8
   7   7  -3 79.6197 7.32901  14
  -5  -7   3 1603.13 40.7688   5
   5  -7  -3 1601.65 44.6954  10
   5  -7  -3 1605.28 41.3314   2
  -5  -7   3 1542.72 44.0341  16
  -5   7   3 1610.90 41.2551  13
   5   7  -3 1562.24 39.8884   3
   5   7  -3 1587.44 38.8493   4
  -5   7   3 1569.61 38.7484   8
   5   7  -3 1648.38 42.8354  14
  -5   7   3 1625.08 40.0293   3
  -3  -7   3 457.272 16.4970  16
  -3  -7   3 460.027 14.2545  12
  -3  -7   3 457.972 15.4889  10
  -3  -7   3 478.611 14.4238   5
  -3  -7   3 459.433 14.6144   2
   3  -7  -3 474.611 14.4967   6
   3  -7  -3 459.856 15.6224  10
   3  -7  -3 487.197 15.6236   2
   3   7  -3 450.280 14.8158   7
  -3   7   3 469.947 15.3080  13
   3   7  -3 455.466 15.8872  14
  -3   7   3 465.906 14.3915   3
  -3   7   3 446.541 13.8591  12
   3   7  -3 461.678 14.6129   3
  -3   7   3 448.821 13.4398   8
  -1  -7   3 3013.35 71.4262  12
  -1  -7   3 3115.00 70.0993   5
   1  -7  -3 3216.77 73.1695   6
  -1  -7   3 3124.37 72.8894   2
   1  -7  -3 3077.16 72.1134   2
  -1  -7   3 3011.38 74.5211  10
  -1   7   3 3160.82 72.8557  13
  -1   7   3 3126.88 71.9794   3
   1   7  -3 3174.99 72.4435   7
  -1   7   3 3090.28 71.1787  12
   1   7  -3 3107.00 72.2940   3
  -1   7   3 3014.45 70.2592  14
  -1  -7  -3 612.805 17.5945   2
  -1  -7  -3 651.360 19.9020  11
  -1  -7  -3 589.661 17.7865  15
   1  -7   3 658.317 20.0301   2
  -1  -7  -3 654.977 20.1429   6
   1  -7   3 629.328 22.0014  10
   1  -7   3 629.019 18.2121  12
  -1   7  -3 642.495 17.8704   1
   1   7   3 624.896 18.3814  14
   1   7   3 641.128 17.8197  12
  -1   7  -3 655.660 17.8081  13
   1   7   3 654.907 19.7311  13
  -1   7  -3 637.998 19.2987   3
   1   7   3 628.898 19.0891   3
  -1   7  -3 637.563 19.0971   7
   3  -7   3 2012.59 49.9088   2
   3  -7   3 1979.53 47.9965  12
  -3  -7  -3 1966.97 50.3606  11
   3  -7   3 1918.77 54.3078  10
  -3  -7  -3 1937.45 50.1289   6
  -3   7  -3 1994.68 49.4225   7
   3   7   3 1949.76 50.0788  13
   3   7   3 1928.59 47.2799  12
  -3   7  -3 1928.55 47.8782   1
   3   7   3 1885.99 49.4584  14
   3   7   3 2013.53 49.5466   3
   5  -7   3 179.353 9.07696  12
   5  -7   3 173.966 8.75629   4
   5  -7   3 186.236 10.0573   2
  -5  -7  -3 168.415 10.8334  11
  -5  -7  -3 163.766 9.68383   6
  -5   7  -3 176.854 10.1417   7
   5   7   3 183.030 9.91832   3
   5   7   3 194.537 10.7041  13
  -5   7  -3 186.066 9.39183   1
   5   7   3 169.444 10.4953  14
   5   7   3 188.309 8.78192  12
  -7  -7  -3 626.926 23.5981  11
   7  -7   3 552.652 19.9754  12
   7  -7   3 596.534 20.4366   4
   7   7   3 548.660 19.1484  12
  -7   7  -3 576.204 20.8250   1
   7   7   3 592.817 21.4696   3
  10  -8  -3 46.3200 6.12404   9
 -10  -8   3 32.7953 5.99500   5
 -10  -8   3 37.6428 6.13340   6
 -10   8   3 45.0852 7.35011  11
 -10   8   3 48.7282 6.27157   1
  -8  -8   3 75.7193 8.17516   5
   8  -8  -3 59.0531 6.43308   2
  -8  -8   3 59.6907 6.97841   6
  -8   8   3 57.4379 6.72737  13
  -8   8   3 63.0062 5.38881   8
   8   8  -3 51.9259 4.72650   4
   8   8  -3 50.4755 5.64738   3
  -8   8   3 65.3759 5.76078   1
   8   8  -3 52.0909 7.14454  14
  -6  -8   3 261.625 14.2764  16
   6  -8  -3 272.345 12.2062   2
  -6  -8   3 275.785 12.0221   5
   6   8  -3 262.061 13.2687  14
   6   8  -3 259.037 11.2397   3
  -6   8   3 275.984 11.5524   3
   6   8  -3 272.454 10.3153   4
  -6   8   3 257.735 10.7348   1
  -6   8   3 270.997 10.1512   8
  -6   8   3 274.786 12.2768  13
  -4  -8   3 12.3483 2.73051   5
   4  -8  -3 11.2062 2.73738  10
  -4  -8   3 16.6610 3.06882   2
   4  -8  -3 12.7101 3.03012   2
  -4  -8   3 16.5142 3.71906  16
   4  -8  -3 12.1741 2.43638   6
  -4   8   3 14.4225 2.47238   8
  -4   8   3 23.1879 3.80174  13
  -4   8   3 15.2871 2.74829   3
   4   8  -3 12.8707 3.08336   7
   4   8  -3 17.2328 3.07192   3
  -2  -8   3 296.688 11.0502  12
  -2  -8   3 296.390 12.4015  10
  -2  -8   3 305.310 10.4634   5
   2  -8  -3 321.825 11.9965   6
  -2  -8   3 311.515 12.1073   2
   2  -8  -3 319.201 12.1913   2
  -2   8   3 303.214 10.9266  12
   2   8  -3 296.236 11.4228   3
  -2   8   3 301.467 11.3493   3
   2   8  -3 310.998 11.7466   7
   2   8  -3 312.046 12.7502  14
  -2   8   3 308.131 10.3283   8
  -2   8   3 318.116 12.0132  13
   0  -8  -3 109.406 6.87647   6
   0  -8   3 111.705 6.17391  12
   0  -8   3 119.424 7.62459   2
   0  -8   3 108.723 7.57403  10
   0  -8  -3 113.025 6.20586  15
   0  -8  -3 118.454 6.48787   2
   0   8  -3 110.653 6.78536   3
   0   8   3 110.835 6.62527  13
   0   8   3 114.867 6.91395   3
   0   8  -3 111.292 6.56816   7
   0   8  -3 111.161 5.36394  13
   0   8   3 113.920 5.97130  12
   2  -8   3 67.9476 5.18614  12
   2  -8   3 71.3184 7.31366  10
  -2  -8  -3 71.1448 6.44210   6
   2  -8   3 72.4319 6.80240   2
  -2  -8  -3 65.7996 5.76994  11
  -2   8  -3 70.7771 6.15612   3
   2   8   3 72.3462 5.98249  13
  -2   8  -3 70.3611 4.93113  13
  -2   8  -3 65.7206 5.70008   7
  -2   8  -3 71.0150 5.17088   1
   2   8   3 67.3914 5.57273   3
   2   8   3 72.0780 4.94425  12
   2   8   3 68.0546 5.11676  14
   4  -8   3 274.681 11.5361  12
  -4  -8  -3 291.019 13.6534   6
  -4  -8  -3 289.033 13.8482  11
   4  -8   3 286.451 13.1575   2
  -4   8  -3 275.514 11.6742   1
   4   8   3 277.410 12.8582   3
   4   8   3 273.741 12.8836  14
   4   8   3 290.636 13.2398  13
   4   8   3 275.911 11.1296  12
  -4   8  -3 281.665 12.4323   7
   6  -8   3 23.4423 4.62850   2
  -6  -8  -3 23.6010 5.61143  11
   6  -8   3 32.9241 4.63512  12
  -6  -8  -3 13.2626 4.01811   6
   6  -8   3 20.1676 4.09631   4
   6   8   3 22.0668 4.67891  13
   6   8   3 20.6991 3.60667  12
   6   8   3 24.1496 4.90238   3
  -6   8  -3 24.5725 4.25397   1
   6   8   3 20.0881 5.84570  14
  -9  -9   3 308.199 15.4987   5
  -9  -9   3 311.855 15.5116   6
   9  -9  -3 297.827 14.0422   9
   9  -9  -3 296.970 13.7435   2
  -9   9   3 324.387 14.2526   1
   7  -9  -3 1083.03 32.2464   2
  -7  -9   3 1085.17 32.1415   5
  -7  -9   3 1056.86 33.1497   6
  -7   9   3 1034.63 31.6740  13
   7   9  -3 1061.10 32.4009   7
   7   9  -3 1050.91 34.1669  14
  -7   9   3 1088.43 30.5025   1
   5  -9  -3 321.222 13.7362   2
  -5  -9   3 332.540 13.7007   5
   5   9  -3 329.043 14.6699  14
  -5   9   3 304.714 13.1711  13
   5   9  -3 338.851 13.8434   7
  -5   9   3 311.136 12.9165   3
   5   9  -3 307.697 12.8940   3
  -5   9   3 321.351 11.3188   8
  -3  -9   3 910.923 26.6442   2
   3  -9  -3 940.747 27.5503   2
   3  -9  -3 928.515 26.1844   6
  -3  -9   3 919.496 25.6110   5
   3   9  -3 931.792 28.4879  14
  -3   9   3 926.878 24.6040   8
   3   9  -3 906.317 26.6771   3
  -3   9   3 956.841 27.4835  13
   3   9  -3 952.251 27.0561   7
  -3   9   3 947.776 26.7783   3
  -1  -9   3 141.077 7.63381   6
   1  -9  -3 145.856 7.83682   2
  -1  -9   3 142.913 8.74332   2
   1  -9  -3 171.042 9.13252   6
   1   9  -3 143.892 7.64671   7
   1   9  -3 182.087 9.00200   3
  -1   9   3 138.735 8.20450   3
  -1   9   3 140.793 8.23948  13
  -1   9   3 152.934 7.61005  12
  -1  -9  -3 646.607 19.3406   2
   1  -9   3 651.546 21.8067   2
  -1  -9  -3 664.984 22.0886   6
   1  -9   3 631.904 19.8625  12
   1  -9   3 630.838 23.5836  10
   1   9   3 663.004 19.7689  12
  -1   9  -3 634.473 21.0172   3
   1   9   3 674.914 21.3612  13
  -1   9  -3 646.184 20.5112   7
   1   9   3 656.571 20.8950   3
   3  -9   3 100.568 8.59085   2
  -3  -9  -3 98.4573 7.74622   6
   3  -9   3 108.190 7.02890  12
  -3  -9  -3 99.8071 8.34410  11
   3   9   3 93.2689 7.07877  14
  -3   9  -3 109.442 7.54297   7
   3   9   3 97.7064 7.47248  13
  -3   9  -3 103.702 7.05914   1
   3   9   3 99.5564 7.43962   3
   3   9   3 103.016 6.52929  12
  -3   9  -3 102.034 6.72402  13
  -5  -9  -3 666.178 23.5728   6
   5  -9   3 649.421 21.5831  12
  -5  -9  -3 658.423 24.0121  11
   5  -9   3 665.987 22.8006   2
   5   9   3 656.853 23.0575   3
  -5   9  -3 631.106 21.7503   1
   5   9   3 637.224 21.0463  12
   5   9   3 643.279 23.0719  13
   5   9   3 617.242 23.0690  14
  -5   9  -3 644.939 22.4748   7
  -7  -9  -3 163.266 11.6697   6
  -7  -9  -3 164.041 12.2616  11
   7  -9   3 157.754 9.47695   4
  -7   9  -3 153.418 10.2879   1
   7   9   3 164.171 11.2194   3
   7   9   3 164.497 9.44604  12
  -8 -10   3 10.6994 4.72276   6
  -8 -10   3 1.92707 4.45156   5
   8 -10  -3 1.38112 2.61485   2
   8  10  -3 1.67641 3.36372   7
  -8  10   3 1.62806 3.29605   1
  -6 -10   3 92.6114 8.86766   5
  -6 -10   3 85.2070 8.85419   6
   6 -10  -3 76.6137 8.08192   2
   6  10  -3 82.1110 6.90594   7
   6  10  -3 81.7736 8.25688  14
  -6  10   3 82.2397 6.50480   1
   6  10  -3 86.2885 7.26908   3
  -6  10   3 82.2910 6.93326  13
  -6  10   3 85.2603 7.32202   3
  -4 -10   3 16.3218 3.89324   5
  -4 -10   3 16.0445 4.62534   6
   4 -10  -3 16.1939 3.82199   2
  -4  10   3 15.0170 2.96588   8
  -4  10   3 14.2735 3.56633   3
   4  10  -3 18.3257 3.91052   3
   4  10  -3 15.6838 4.20368  14
  -4  10   3 17.3523 3.47234  13
   4  10  -3 13.1823 3.46385   7
   2 -10  -3 98.0098 7.28554   6
  -2 -10   3 83.3611 7.26814   2
  -2 -10   3 96.1365 7.54484   6
   2 -10  -3 100.953 7.47437   2
  -2  10   3 96.6696 6.94703  13
   2  10  -3 96.8263 6.91007   7
  -2  10   3 86.0737 5.36350   8
   2  10  -3 96.7685 7.24468   3
  -2  10   3 101.112 6.94817   3
   0 -10  -3 3.26086 1.88883   2
   0 -10  -3 14.5555 4.21928   6
   0 -10   3 1.39869 3.34839   2
   0  10   3 10.1058 2.59077  12
   0  10  -3 3.28778 2.52441   7
   0  10   3 4.56562 3.09589   3
   0  10   3 2.14603 2.40848  13
   0  10  -3 2.35767 2.58414   3
  -2 -10  -3 6.63294 3.18431   6
   2 -10   3 1.34960 3.70693   2
  -2  10  -3 -1.0111 2.21732   1
  -2  10  -3 1.30063 1.79349   7
   2  10   3 1.40753 1.69519  13
   2  10   3 -2.3743 2.74683   3
   2  10   3 1.63846 1.90511  12
  -2  10  -3 -1.9644 2.53261   3
   4 -10   3 65.1651 7.19336   2
  -4 -10  -3 68.1888 7.09537   6
  -4 -10  -3 70.1135 7.71845  11
  -4  10  -3 68.4323 6.79116   1
   4  10   3 58.6696 5.62168  12
   4  10   3 68.3573 6.91017  13
   4  10   3 50.7205 6.86156   3
  -6 -10  -3 22.0224 5.67321  11
  -6 -10  -3 16.0652 4.05064   6
   6 -10   3 20.0100 4.83102   2
   6  10   3 16.6808 3.58788  12
  -6  10  -3 20.4330 4.69749   1
   6  10   3 19.3490 4.91804   3
   7 -11  -3 93.1404 9.01887   2
  -7 -11   3 60.3782 8.32120   6
   7  11  -3 49.2083 5.82158   3
   7  11  -3 66.4761 7.22769   7
  -5 -11   3 626.969 23.3535   6
   5 -11  -3 653.829 23.2599   2
   5  11  -3 626.119 21.6769   3
  -5  11   3 605.819 24.4294  13
   5  11  -3 488.348 25.3287  14
  -5  11   3 663.658 21.8955   3
   3 -11  -3 257.160 12.9744   2
  -3 -11   3 261.138 12.8379   6
  -3 -11   3 248.368 11.6355   2
  -3  11   3 250.317 12.4341   3
   3  11  -3 240.996 12.1422   3
   3  11  -3 251.029 11.8803   7
  -3  11   3 247.503 12.4139  13
   1 -11  -3 1266.78 36.4434   6
  -1 -11   3 1270.40 35.3656   6
  -1 -11   3 1271.89 36.8304   2
   1 -11  -3 1257.78 35.6995   2
  -1  11   3 1231.84 32.7164   8
   1  11  -3 1252.16 36.3874   3
  -1  11   3 1274.36 36.2002   3
  -1  11   3 1272.73 36.2938  13
  -1 -11  -3 374.820 17.0130   6
   1 -11   3 396.506 17.2784   2
   1  11   3 385.355 15.8366  13
  -1  11  -3 388.917 16.3152   3
   1  11   3 365.437 14.4943  12
  -1  11  -3 388.580 14.5644   1
   1  11   3 408.226 16.3922   3
   3 -11   3 910.062 29.0228   2
  -3 -11  -3 861.472 29.6338   6
   3  11   3 829.838 26.1169  12
  -3  11  -3 824.389 25.8823   1
   3  11   3 843.443 28.1282   3
  -5 -11  -3 163.106 11.6484   6
   5 -11   3 176.636 11.7474   2
   5  11   3 178.036 11.4277   3
  -5  11  -3 165.972 10.3980   1
   5  11   3 170.113 9.76708  12
  -6 -12   3 1.42392 4.33726   6
   6 -12  -3 3.18835 4.00128   2
   6  12  -3 1.65900 2.67442   3
  -6  12   3 -2.5378 3.22194   1
  -4 -12   3 137.214 10.0261   6
   4 -12  -3 129.596 10.0471   2
  -4  12   3 142.614 9.32644   3
   4  12  -3 142.111 9.19412   3
  -2 -12   3 1.94731 3.33342   2
  -2 -12   3 0.11623 3.39555   6
   2 -12  -3 0.84185 2.96351   2
   2 -12  -3 5.08233 3.35588   6
  -2  12   3 -0.7050 2.44509  13
  -2  12   3 3.77530 3.51545   3
   2  12  -3 3.38680 2.51692   3
   0 -12   3 48.2862 6.90619   2
   0 -12  -3 42.3312 6.57327   6
   0 -12  -3 43.7241 5.27844   2
   0  12  -3 53.8292 6.46058   3
   0  12   3 36.7890 5.30039  13
   0  12   3 54.5551 6.95782   3
   2 -12   3 69.8105 8.23165   2
  -2 -12  -3 68.5667 8.60181   6
  -2  12  -3 72.1989 6.71671   1
   2  12   3 63.7652 7.90810   3
  -2  12  -3 58.9542 7.08812   3
   4 -12   3 6.92625 4.66812   2
  -4 -12  -3 0.34347 3.59744   6
   4  12   3 3.64364 4.08374   3
  -4  12  -3 1.50923 2.22901   1
   5 -13  -3 882.414 27.4314   9
   5  13  -3 907.698 32.1786   3
   3 -13  -3 6.84782 3.75320   2
  -3 -13   3 7.82405 3.69150   6
   3  13  -3 5.56099 3.45225   3
  -3  13   3 8.35412 3.34772   3
  -1 -13   3 703.489 24.8032   2
   1  13  -3 693.697 24.6888   3
  -1  13   3 670.759 24.3689   3
  -1 -13  -3 11.7644 5.02301   6
   1 -13   3 7.95140 4.48668   2
  -1  13  -3 4.54724 3.57885   3
  -1  13  -3 8.93715 2.73429   1
   1  13   3 7.77934 4.17747   3
 -12   0   4 1558.41 41.9953   8
  12   0  -4 1526.35 42.2564   4
 -12   0   4 1542.50 45.8250  11
 -10   0   4 83.4327 7.15350  16
 -10   0   4 79.8217 6.21198   5
  10   0  -4 90.1842 6.94433   4
 -10   0   4 88.4181 6.89658   8
 -10   0   4 91.8010 8.34972  11
   8   0  -4 2726.74 65.9716  14
  -8   0   4 2800.51 68.4128  16
   8   0  -4 2696.84 63.3660   9
  -8   0   4 2741.76 64.9243   5
  -8   0   4 2774.04 67.0700  11
  -8   0   4 2754.99 64.8912   8
   8   0  -4 2795.45 65.1536   4
  -6   0   4 77.6502 3.20014   1
  -6   0   4 78.2879 4.32041   8
  -6   0   4 79.2522 4.02186  12
  -6   0   4 81.9108 5.64137  16
  -6   0   4 78.3683 4.52556   5
   6   0  -4 78.4488 4.27386   4
   6   0  -4 71.8990 3.79514   9
   6   0  -4 76.6006 4.37633  14
   4   0  -4 2946.24 67.8323  15
  -4   0   4 2951.70 67.9835  13
  -4   0   4 3022.71 69.4996  16
  -4   0   4 2993.95 67.4846   5
  -4   0   4 3008.26 66.9256   8
   4   0  -4 2998.61 66.9026  14
   4   0  -4 2935.29 66.9803   4
  -4   0   4 3015.64 66.9514  12
   4   0  -4 3087.91 67.3017   9
   2   0  -4 50.6372 2.56268   7
   2   0  -4 43.2120 2.85260  15
  -2   0   4 59.7050 3.65104  16
  -2   0   4 52.1851 2.32901   8
  -2   0   4 47.1718 1.80893  12
   2   0  -4 51.8405 2.63323   9
   0   0  -4 3234.63 70.5539   1
   0   0  -4 3172.35 71.3011   7
   0   0  -4 3178.78 71.1097  11
   0   0  -4 3142.17 70.6609   9
   0   0  -4 3258.02 71.1065   6
   0   0  -4 3085.05 72.2986  15
  -2   0  -4 509.722 13.6328   6
  -2   0  -4 509.231 14.4155   1
  -2   0  -4 517.641 15.2854  11
  -2   0  -4 501.752 15.0708   7
   2   0   4 553.910 17.0919  10
  -2   0  -4 512.440 15.6100  15
  -4   0  -4 2407.48 56.9952   1
  -4   0  -4 2348.41 58.2841  11
   4   0   4 2437.45 56.2971   4
   4   0   4 2423.72 54.2316  12
   4   0   4 2337.65 60.0962  10
   6   0   4 403.296 13.2635  12
  -6   0  -4 421.808 17.1283  11
   6   0   4 431.685 14.9221   4
  -6   0  -4 409.689 15.3388   1
   6   0   4 420.040 18.0031  14
  -8   0  -4 1087.11 32.2097   1
   8   0   4 1093.00 31.3835   4
  -8   0  -4 1068.52 34.9425  11
  11  -1  -4 110.021 8.00062   4
 -11  -1   4 111.671 9.72632  11
 -11  -1   4 102.526 7.27740   8
 -11  -1   4 112.114 7.65487   5
 -11   1   4 113.793 7.48849   8
  11   1  -4 112.472 8.15225   4
 -11   1   4 104.809 9.87685  11
  -9  -1   4 11.0738 3.46060  11
   9  -1  -4 4.61116 1.83739   9
  -9  -1   4 4.27347 2.91962  16
   9  -1  -4 8.61496 2.80017   4
  -9  -1   4 6.41162 2.78178   5
  -9  -1   4 8.84150 2.43715   8
   9   1  -4 8.52123 2.42560   4
  -9   1   4 8.43119 2.35779   8
  -9   1   4 10.4740 2.62364   5
   9   1  -4 6.68714 2.43249  14
  -9   1   4 7.22677 3.41946  11
  -9   1   4 5.13210 2.65622  16
  -7  -1   4 489.968 15.1118   5
  -7  -1   4 494.537 14.6974   8
   7  -1  -4 512.571 14.9857   4
   7  -1  -4 482.423 14.7527  14
  -7  -1   4 488.656 15.7565  11
  -7  -1   4 486.423 17.3063  16
   7  -1  -4 464.337 14.0695   9
  -7   1   4 468.610 14.5004   5
   7   1  -4 497.146 15.7546  14
  -7   1   4 490.461 16.7134  16
  -7   1   4 498.199 13.3602   1
   7   1  -4 494.892 14.9867   4
   7   1  -4 478.114 13.5936   9
  -7   1   4 490.934 14.7338   8
   5  -1  -4 1.05959 0.86974   9
   5  -1  -4 1.65648 0.75900  14
  -5  -1   4 1.40867 1.03186   5
  -5  -1   4 2.57415 0.92974   8
  -5  -1   4 2.68029 0.96861  12
   5  -1  -4 0.88628 0.75313   4
  -5  -1   4 0.80641 1.06019  16
  -5   1   4 0.88677 0.82987   8
  -5   1   4 1.24339 0.59959   1
  -5   1   4 0.82251 0.96609  16
   5   1  -4 0.13572 0.86724  14
  -5   1   4 1.55265 0.90310   5
   5   1  -4 1.09345 0.81228   4
  -5   1   4 3.43775 0.94291  12
  -5   1   4 3.36429 1.06125  13
   5   1  -4 1.98123 0.76332   9
   5   1  -4 1.43727 0.72397  15
  -3  -1   4 224.742 6.93535   5
  -3  -1   4 211.579 7.96147  16
   3  -1  -4 215.078 7.17681   6
   3  -1  -4 220.239 7.57960  15
  -3  -1   4 204.609 5.27487  13
   3  -1  -4 213.388 6.74956   9
   3  -1  -4 207.788 6.22700   7
  -3  -1   4 216.187 6.32484  12
  -3  -1   4 218.295 6.19864   8
   3  -1  -4 214.472 6.30217   4
   3   1  -4 209.371 6.99023   7
   3   1  -4 212.275 6.75102   9
  -3   1   4 224.134 6.51799  13
   3   1  -4 228.575 6.79158   4
   3   1  -4 213.684 6.85385  14
  -3   1   4 224.074 8.30458  16
  -3   1   4 223.998 6.65409   8
  -3   1   4 213.876 6.24935  12
   3   1  -4 215.473 7.07324  15
   1  -1  -4 336.408 9.73896  11
  -1  -1   4 355.792 10.4925  16
   1  -1  -4 345.653 10.5715  15
   1  -1  -4 334.611 9.16014   7
   1  -1  -4 326.284 9.92143   6
   1  -1  -4 324.558 9.27795   9
   1  -1  -4 334.084 8.84041   1
   1   1  -4 347.759 8.84707  11
   1   1  -4 351.312 8.68726   1
   1   1  -4 342.416 10.4697  15
   1   1  -4 359.884 9.69831   6
   1   1  -4 352.947 9.64750   9
  -1   1   4 342.098 9.62312  13
   1   1  -4 352.452 9.92455   7
  -1  -1  -4 75.8624 4.10887  11
  -1  -1  -4 83.5031 3.76978   1
  -1  -1  -4 76.7742 4.35946  15
   1  -1   4 79.6295 5.08298  10
  -1  -1  -4 89.1191 4.01197   6
  -1  -1  -4 90.9762 3.41524   9
  -1  -1  -4 73.6726 3.90270   7
  -1   1  -4 79.0189 4.47515  15
  -1   1  -4 67.1349 3.45059   1
  -1   1  -4 72.2672 3.20679   6
   1   1   4 82.7380 4.64657  10
  -1   1  -4 66.8219 3.60089  11
  -1   1  -4 70.2980 3.98624   7
  -1   1  -4 76.0369 3.58469   9
  -3  -1  -4 341.523 10.9454   6
  -3  -1  -4 372.763 12.1349   1
   3  -1   4 385.187 14.9209  10
   3  -1   4 398.405 11.1937   2
   3  -1   4 383.793 9.93552  12
  -3  -1  -4 366.656 13.0246  11
  -3  -1  -4 384.022 12.8754  15
  -3   1  -4 369.199 12.7497  11
  -3   1  -4 368.457 12.0303   1
  -3   1  -4 399.283 13.2855   7
   3   1   4 388.257 13.7343  10
   3   1   4 384.057 11.4929   4
   3   1   4 375.075 13.6849  14
   3   1   4 380.620 9.61434  12
  -5  -1  -4 -0.3477 1.24423   1
   5  -1   4 2.01765 2.31406   4
  -5  -1  -4 0.05388 1.61067  11
   5  -1   4 3.22338 1.40986  12
   5  -1   4 0.14802 1.60226  10
  -5   1  -4 0.73664 2.07344  11
   5   1   4 0.40018 1.05441  12
   5   1   4 1.09518 2.40183  14
  -5   1  -4 2.41363 2.11258   1
   5   1   4 -1.4757 1.78768   4
   7  -1   4 50.2411 4.73210  12
   7  -1   4 44.2568 5.18387   4
   7  -1   4 44.1790 6.42042  14
  -7  -1  -4 53.9009 6.79610  11
  -7  -1  -4 50.1286 5.87611   1
   7   1   4 37.0583 5.99638  14
   7   1   4 43.7441 5.22760   4
  -7   1  -4 44.9100 5.68824   1
  -7   1  -4 45.2334 6.14067  11
   7   1   4 49.1431 4.47607  12
   9  -1   4 39.4415 5.61587   4
  -9  -1  -4 41.3859 7.23357  11
  -9  -1  -4 36.4776 5.63478   1
   9   1   4 35.0649 5.11113   4
  -9   1  -4 40.2676 6.79933  11
   9   1   4 49.8689 5.73695  12
  -9   1  -4 41.0613 6.07275   1
 -12  -2   4 102.203 8.97545  11
  12  -2  -4 104.485 7.70549   4
 -12   2   4 114.819 8.45181   8
 -12   2   4 105.724 10.5959  11
  12   2  -4 111.510 7.99133   4
 -10  -2   4 409.566 18.3818  16
  10  -2  -4 407.068 15.1961   4
 -10  -2   4 411.134 15.5940   5
 -10  -2   4 402.359 15.0595   8
 -10  -2   4 399.081 16.8275  11
 -10   2   4 417.512 15.2944   8
 -10   2   4 412.206 17.7629  11
  10   2  -4 399.008 15.3146   4
  10   2  -4 396.608 16.7175  14
   8  -2  -4 417.049 13.2998   9
  -8  -2   4 433.611 13.6343   8
   8  -2  -4 392.933 17.8558  10
   8  -2  -4 403.915 13.5286   4
  -8  -2   4 416.635 14.3322   5
  -8  -2   4 418.822 14.9225  11
  -8  -2   4 408.397 16.6067  16
   8   2  -4 407.497 13.8131   4
  -8   2   4 410.806 12.5285   1
  -8   2   4 417.455 13.8406   8
   8   2  -4 408.806 15.1450  14
  -8   2   4 402.239 13.2677   5
  -8   2   4 405.933 15.0799  16
   6  -2  -4 2541.94 58.4297   4
   6  -2  -4 2547.93 58.7076   9
   6  -2  -4 2487.49 63.4994  10
  -6  -2   4 2502.50 58.5140  12
  -6  -2   4 2533.57 58.3121   8
  -6  -2   4 2492.89 59.2079   5
  -6  -2   4 2598.93 62.2562  16
  -6  -2   4 2513.69 59.1151  11
  -6   2   4 2531.83 58.8186  13
   6   2  -4 2575.92 58.8712   4
  -6   2   4 2572.66 60.8365  16
  -6   2   4 2586.90 57.3359   1
  -6   2   4 2596.97 58.7057   8
  -6   2   4 2488.93 58.4783  12
   6   2  -4 2552.07 57.5531   9
  -6   2   4 2502.55 58.4101   5
   6   2  -4 2494.68 59.9767  14
   4  -2  -4 2040.38 47.5151   9
  -4  -2   4 2004.71 46.6973  11
   4  -2  -4 2062.15 47.3899  14
  -4  -2   4 2062.09 46.6334   8
  -4  -2   4 2067.02 47.7438   5
  -4  -2   4 2071.96 49.7498  16
   4  -2  -4 2083.93 47.7522   6
   4  -2  -4 2034.88 46.6563   4
  -4  -2   4 2057.63 47.2006  12
   4   2  -4 1972.78 46.8171  15
   4   2  -4 2061.63 47.3990   4
  -4   2   4 2088.69 47.5768   5
  -4   2   4 2100.01 47.3423   8
  -4   2   4 2087.53 47.1857  12
  -4   2   4 2112.54 47.5211  13
   4   2  -4 2035.66 48.1585  14
   4   2  -4 2051.02 47.0075   9
  -4   2   4 2167.08 49.9726  16
  -2  -2   4 7745.28 184.630  16
   2  -2  -4 7774.18 182.888  15
  -2  -2   4 8068.08 170.175   8
   2  -2  -4 7291.79 175.275   6
  -2  -2   4 7985.08 175.602   5
  -2  -2   4 7446.77 173.075  12
   2  -2  -4 7577.65 176.420   9
  -2   2   4 7565.43 181.102  10
   2   2  -4 7785.48 173.518   3
  -2   2   4 7497.65 173.267  12
   2   2  -4 7683.71 181.207  15
  -2   2   4 7430.01 169.677  14
  -2   2   4 7419.69 173.347  13
   2   2  -4 8109.35 181.823   7
   2   2  -4 7936.86 173.076   9
  -2   2   4 7741.60 172.310   3
   0  -2   4 1482.90 34.1932  16
   0  -2  -4 1449.65 33.3907   9
   0  -2   4 1473.86 32.2047  12
   0  -2  -4 1444.19 33.7908   1
   0  -2  -4 1451.34 34.7665   6
   0  -2  -4 1437.50 33.6422   7
   0  -2  -4 1449.96 35.3225  15
   0  -2   4 1491.60 32.2555  12
   0  -2   4 1462.21 32.9375   5
   0  -2   4 1474.61 37.3310  10
   0  -2  -4 1447.98 34.9689  11
   0   2  -4 1416.89 33.1466  11
   0   2  -4 1440.66 33.5101   1
   0   2  -4 1488.75 35.5951  15
   0   2  -4 1442.53 34.1077   9
   0   2   4 1460.05 34.5028  14
   0   2  -4 1461.32 34.9168   7
  -2  -2  -4 3720.09 84.9540  11
  -2  -2  -4 3774.22 83.7632   6
   2  -2   4 3482.67 81.9470  16
   2  -2   4 3715.17 83.4521   2
  -2  -2  -4 3663.91 81.5185   9
   2  -2   4 3686.34 84.2646  12
  -2  -2  -4 3671.89 83.5174   1
  -2  -2  -4 3813.95 84.6511  15
   2  -2   4 3662.03 87.8451  10
   2   2   4 3824.98 85.3789  14
   2   2   4 3725.15 82.4469  12
  -2   2  -4 3640.65 83.4224   1
   2   2   4 3829.99 84.6565  10
  -2   2  -4 3583.86 83.7845  11
   2   2   4 3749.38 82.5204  12
   2   2   4 3778.93 82.5285   4
  -2   2  -4 3613.35 84.6757   7
  -4  -2  -4 140.028 6.83983   1
   4  -2   4 142.923 5.70009  12
  -4  -2  -4 141.312 8.14663  11
   4  -2   4 149.749 9.64007  10
  -4  -2  -4 131.774 6.11044   6
   4   2   4 145.417 8.57923  14
  -4   2  -4 146.453 8.00403   7
   4   2   4 138.007 5.28291  12
   4   2   4 137.438 6.15898   4
  -4   2  -4 146.848 7.73961  11
  -4   2  -4 141.542 6.89968   1
   6  -2   4 768.305 27.1214  14
   6  -2   4 839.374 22.6265  12
  -6  -2  -4 800.989 26.5705  11
  -6  -2  -4 798.990 23.8987   1
   6  -2   4 837.023 24.2441   4
   6   2   4 779.172 22.8244   4
   6   2   4 746.385 26.5907  14
  -6   2  -4 844.097 26.3837  11
   6   2   4 770.278 21.8539  12
  -6   2  -4 780.431 24.1297   1
  -8  -2  -4 20.5149 5.41647  11
   8  -2   4 22.2844 3.82284  12
  -8  -2  -4 26.4607 5.14075   1
   8  -2   4 22.6705 4.80930   4
  -8   2  -4 23.5831 5.22692  11
  -8   2  -4 25.1981 5.10337   1
   8   2   4 35.5009 4.45714   4
   8   2   4 19.9785 3.41938  12
 -11  -3   4 0.66289 3.49032  11
 -11  -3   4 -0.4869 2.91867   5
  11  -3  -4 1.82879 2.01340   4
 -11   3   4 2.16249 4.15632  11
 -11   3   4 2.37736 2.92055   8
  11   3  -4 0.14709 2.95054   4
  -9  -3   4 67.6890 6.31387   5
  -9  -3   4 59.3828 6.25455  11
   9  -3  -4 59.0122 4.64373   9
   9  -3  -4 60.2945 4.88157   4
  -9  -3   4 54.8108 4.77800   8
  -9  -3   4 63.9567 7.21990  16
  -9   3   4 60.4210 6.28281  11
  -9   3   4 61.0632 5.41034   1
   9   3  -4 57.1429 5.95703  14
   9   3  -4 65.3542 5.82454   4
  -9   3   4 58.8623 5.40677   8
  -7  -3   4 102.986 7.66410  16
   7  -3  -4 109.341 5.66642   4
  -7  -3   4 104.812 6.38033   5
   7  -3  -4 107.295 5.79281   9
  -7  -3   4 106.771 6.11126  11
   7  -3  -4 106.737 8.06973  10
  -7  -3   4 109.426 5.39804   8
  -7   3   4 103.169 5.31985   5
  -7   3   4 106.586 6.51642  16
  -7   3   4 106.423 5.05049   1
   7   3  -4 109.927 6.79841  14
  -7   3   4 107.547 5.67274   8
  -7   3   4 98.0263 5.69978  13
   7   3  -4 103.753 5.90707   4
   5  -3  -4 31.2672 2.66583   9
  -5  -3   4 28.8225 2.35845  11
  -5  -3   4 30.9136 3.42931   5
   5  -3  -4 31.9062 2.68786   6
  -5  -3   4 33.3891 2.48386   8
   5  -3  -4 28.7034 2.34247   4
  -5  -3   4 32.1307 4.26392  16
   5  -3  -4 34.5109 3.91632  10
  -5  -3   4 28.5047 2.51115  12
   5   3  -4 27.7661 2.00451   3
  -5   3   4 32.2901 2.77476  13
   5   3  -4 29.3429 2.08572   9
  -5   3   4 26.5390 2.27710  12
  -5   3   4 28.8969 3.35061  16
  -5   3   4 29.0791 2.91645   8
   5   3  -4 33.3255 3.30886  14
  -5   3   4 30.0466 2.45579   5
   5   3  -4 30.6134 2.62999   4
  -3  -3   4 175.624 6.16243   5
   3  -3  -4 156.426 6.24664   6
   3  -3  -4 159.565 4.83598   4
  -3  -3   4 168.770 5.78088  12
  -3  -3   4 171.509 7.32288  16
  -3  -3   4 170.227 4.91653   8
   3  -3  -4 160.995 5.91314   9
  -3   3   4 162.435 5.07927   3
  -3   3   4 166.079 5.89493   8
  -3   3   4 159.136 5.52971  12
   3   3  -4 163.065 5.71429   9
  -3   3   4 161.033 6.18579  13
   3   3  -4 176.485 5.39524   3
   3   3  -4 167.162 6.52917   7
   3   3  -4 164.903 5.67486  15
   3   3  -4 175.194 6.11413   4
   3   3  -4 169.795 6.74862  14
   1  -3  -4 357.259 10.0034   9
   1  -3  -4 376.910 11.4206  11
   1  -3  -4 379.241 11.3600   6
  -1  -3   4 375.108 10.8752  16
  -1  -3   4 373.361 9.76578   5
   1  -3  -4 359.841 11.4922  15
  -1  -3   4 377.605 9.77391  12
  -1   3   4 363.919 11.0446  13
  -1   3   4 377.759 9.27059  12
   1   3  -4 367.049 10.5858   9
  -1   3   4 358.103 10.8590  10
   1   3  -4 370.449 9.53152   1
  -1   3   4 370.030 10.2124   3
   1   3  -4 372.577 10.3793   3
   1   3  -4 371.434 11.3007   7
   1   3  -4 368.867 11.1953  15
  -1   3   4 359.337 9.62740  14
  -1  -3  -4 4.64549 1.61210  11
   1  -3   4 4.85160 0.84939  16
   1  -3   4 3.81580 1.54011   2
  -1  -3  -4 5.27161 0.89044   9
  -1  -3  -4 5.36572 1.49233  15
  -1  -3  -4 4.95611 1.27034   1
   1  -3   4 4.83868 1.80852  10
  -1  -3  -4 8.64602 1.93075   6
   1  -3   4 5.40959 0.95260  12
   1   3   4 5.24553 1.56950  14
  -1   3  -4 4.70304 1.06048  11
  -1   3  -4 4.17573 1.72270   7
   1   3   4 6.77466 1.03160   4
   1   3   4 4.45468 0.62389  12
  -1   3  -4 3.82783 1.27242   1
   1   3   4 4.92234 1.10563  10
   1   3   4 6.30993 0.72672  12
  -3  -3  -4 320.674 11.0670  15
   3  -3   4 296.090 10.3978   2
  -3  -3  -4 305.074 10.7899   6
  -3  -3  -4 308.447 10.6212   1
  -3  -3  -4 314.492 12.1305  11
   3  -3   4 301.641 9.32293  12
   3  -3   4 301.206 14.0013  10
  -3   3  -4 292.170 10.7952  11
   3   3   4 318.750 8.85068  12
   3   3   4 304.069 9.48163   4
  -3   3  -4 309.464 10.5973   1
   3   3   4 338.721 12.6036  14
  -3   3  -4 308.998 11.9082   7
   5  -3   4 10.1718 3.14065   4
  -5  -3  -4 -1.0351 2.36296  11
  -5  -3  -4 1.42437 2.33352   1
   5  -3   4 2.91505 1.84937  12
   5   3   4 2.47803 1.33323  12
  -5   3  -4 3.87115 2.35330  11
  -5   3  -4 -0.5367 2.44370   7
   5   3   4 -0.0491 2.53811  14
   5   3   4 2.97037 1.94448   4
  -5   3  -4 2.60080 2.23192   1
  -7  -3  -4 33.1798 6.07763  11
   7  -3   4 32.6162 4.15407  12
  -7  -3  -4 24.5005 4.52608   1
   7  -3   4 33.7375 4.80767   4
   7  -3   4 28.4749 5.92895  14
  -7   3  -4 33.0855 5.46304  11
   7   3   4 34.1840 4.01454   4
   7   3   4 29.2561 3.95478  12
  -7   3  -4 32.0021 5.05892   1
  12  -4  -4 188.965 11.6229   4
 -12  -4   4 186.253 11.0398   5
  10  -4  -4 1313.48 35.3586   4
 -10  -4   4 1260.18 36.8154  11
  10  -4  -4 1321.76 35.0120   9
 -10  -4   4 1292.36 36.5583   5
 -10  -4   4 1268.40 40.9056  16
  10   4  -4 1291.17 35.4900   4
 -10   4   4 1297.46 35.3604   8
 -10   4   4 1339.89 39.4144  11
  -8  -4   4 178.481 10.9689  16
  -8  -4   4 167.965 8.53456  11
   8  -4  -4 169.775 7.75849   4
  -8  -4   4 168.833 7.70756   8
  -8  -4   4 176.431 9.16028   5
   8  -4  -4 178.023 8.21830   9
  -8   4   4 184.907 8.44683   8
   8   4  -4 173.144 8.12831   4
  -8   4   4 168.882 7.57719   1
  -8   4   4 170.475 8.60194  13
   8   4  -4 178.354 9.87388  14
   6  -4  -4 2300.83 53.4658   9
  -6  -4   4 2273.20 57.1283  16
   6  -4  -4 2235.76 52.0884   6
   6  -4  -4 2311.82 58.7702  10
   6  -4  -4 2189.57 52.0243   4
  -6  -4   4 2204.01 52.0455   8
   6  -4  -4 2271.63 53.7890   2
  -6  -4   4 2266.09 53.9697   5
  -6  -4   4 2129.73 52.4716  11
  -6   4   4 2142.14 51.9626   5
  -6   4   4 2152.19 52.5849  12
   6   4  -4 2451.50 51.9051   9
  -6   4   4 2269.35 54.7725  16
  -6   4   4 2312.23 53.9350  13
  -6   4   4 2255.91 52.9560   8
   6   4  -4 2225.39 55.1979  14
   6   4  -4 2127.51 51.7320   3
   6   4  -4 2286.17 53.1339   4
  -6   4   4 2295.37 52.0546   1
   4  -4  -4 41.8416 3.13699   6
  -4  -4   4 42.1761 3.02056  12
   4  -4  -4 43.7508 2.28843   4
   4  -4  -4 45.1202 4.27970  10
  -4  -4   4 41.3881 2.36355   8
   4  -4  -4 40.6183 3.29999   2
  -4  -4   4 47.0123 3.70704   5
   4  -4  -4 42.9631 3.03716   9
  -4  -4   4 42.8970 4.45182  16
  -4   4   4 39.1064 3.01347   8
  -4   4   4 41.5711 2.88961  12
  -4   4   4 48.5725 4.23547  16
  -4   4   4 41.4467 2.64446   3
   4   4  -4 51.3093 4.07216  14
   4   4  -4 43.1131 2.97889   4
  -4   4   4 42.9861 3.45234  13
   4   4  -4 51.3656 2.89522   3
  -2  -4   4 3047.90 68.0589  12
   2  -4  -4 3005.47 68.0562   9
  -2  -4   4 3072.36 67.9478   5
  -2  -4   4 3033.39 69.0300   2
   2  -4  -4 3036.25 69.3522   6
  -2  -4   4 3003.89 69.6650  16
   2  -4  -4 2901.31 68.9468   2
   2   4  -4 3018.35 68.2555   9
  -2   4   4 3052.17 67.7977   3
  -2   4   4 3092.81 69.3249  13
   2   4  -4 3148.87 69.6453   7
   2   4  -4 3022.59 68.1299   3
  -2   4   4 2894.08 69.4301  10
  -2   4   4 3020.13 67.5511  12
   0  -4  -4 45.0519 3.45983   6
   0  -4  -4 41.5793 3.55491  11
   0  -4   4 44.2217 2.13721   5
   0  -4  -4 43.5124 2.33677   9
   0  -4   4 44.6566 3.67162   2
   0  -4   4 40.4620 2.47674  16
   0  -4   4 45.4027 2.67887  12
   0  -4  -4 39.9523 3.22174  15
   0  -4   4 49.5320 4.58443  10
   0   4   4 47.0854 3.52071  13
   0   4  -4 41.6462 2.63095   1
   0   4   4 43.4230 2.47514  10
   0   4   4 47.3367 3.27067   3
   0   4   4 48.0802 2.96876  14
   0   4  -4 58.1682 3.97689   7
   0   4   4 46.4654 2.36114  12
   0   4  -4 42.2493 3.17941   3
  -2  -4  -4 3024.10 70.9409  11
  -2  -4  -4 2991.98 68.8208   1
  -2  -4  -4 2905.56 69.8593   6
   2  -4   4 3008.53 67.6525  12
   2  -4   4 3056.31 74.4584  10
  -2  -4  -4 2934.54 69.2059  15
   2  -4   4 3059.21 69.6145   2
  -2   4  -4 2950.79 68.6368   1
  -2   4  -4 2931.23 68.3236  11
   2   4   4 3013.56 70.3385  14
  -2   4  -4 3038.93 70.4778   7
   2   4   4 3005.45 66.8301  12
   4  -4   4 177.971 7.25628  12
  -4  -4  -4 180.119 9.74590  11
   4  -4   4 169.121 7.76442   2
  -4  -4  -4 168.303 8.19044   6
   4  -4   4 156.166 10.9576  10
  -4  -4  -4 173.938 8.06059   1
   4   4   4 166.911 9.39796  14
  -4   4  -4 164.018 7.84430   1
  -4   4  -4 172.852 9.29639   7
  -4   4  -4 176.339 8.50902  11
   4   4   4 173.518 6.66349  12
   4   4   4 162.040 6.58490   4
   6  -4   4 1767.84 44.0697  12
  -6  -4  -4 1740.38 48.5096  11
   6  -4   4 1752.85 45.3317   4
  -6  -4  -4 1750.68 45.3320   1
   6   4   4 1747.24 43.4151  12
  -6   4  -4 1707.45 45.5584   1
   6   4   4 1708.97 48.4553  14
  -6   4  -4 1806.54 47.3870  11
   8  -4   4 125.880 8.15557  12
  -8  -4  -4 142.607 9.49361   1
  -8  -4  -4 128.308 10.9812  11
   8  -4   4 145.810 9.72591   4
   8   4   4 140.482 8.03868  12
   8   4   4 145.779 9.54755   3
  -8   4  -4 127.694 9.30531   1
  -8   4  -4 141.378 10.4520  11
  11  -5  -4 6.57372 3.03886   9
  11  -5  -4 5.81623 2.90589   4
 -11  -5   4 10.3192 4.30213   5
 -11   5   4 11.6200 5.05747  11
  11   5  -4 6.27123 3.58478   4
 -11   5   4 12.3644 3.61852   8
  -9  -5   4 173.448 9.60208   5
  -9  -5   4 185.840 12.1086  16
   9  -5  -4 180.563 9.39273   9
   9  -5  -4 182.284 8.76788   4
   9   5  -4 177.983 11.0248  14
   9   5  -4 177.688 9.00356   4
  -9   5   4 186.285 8.60236   1
  -9   5   4 166.253 8.89520   8
   7  -5  -4 23.6887 2.99979   4
   7  -5  -4 24.9982 4.98697  10
  -7  -5   4 29.4731 3.36900   8
   7  -5  -4 19.4371 3.52065   2
   7  -5  -4 21.4266 3.22416   9
  -7  -5   4 25.3313 4.30959   5
  -7  -5   4 28.9836 5.28158  16
   7   5  -4 25.3748 3.49025   4
  -7   5   4 22.6162 3.30566   8
  -7   5   4 26.3154 3.03992   1
  -7   5   4 21.7809 3.99680  16
   7   5  -4 23.7235 4.09782  14
  -7   5   4 28.3714 3.96665  13
  -7   5   4 23.1317 2.82157   5
  -5  -5   4 570.303 18.9798  16
  -5  -5   4 505.905 14.9480   2
   5  -5  -4 515.634 18.8046  10
   5  -5  -4 528.257 15.2314   6
  -5  -5   4 531.506 14.1721   8
   5  -5  -4 535.034 16.5177   2
   5  -5  -4 517.444 13.9024   4
  -5  -5   4 545.158 16.2297   5
  -5  -5   4 539.707 15.5801  12
   5   5  -4 517.706 14.8707   3
   5   5  -4 532.548 17.3880  14
   5   5  -4 546.559 15.4289   4
  -5   5   4 539.069 17.0914  16
  -5   5   4 508.190 15.1979  12
   5   5  -4 546.661 14.1534   9
  -5   5   4 526.521 15.2757   8
  -5   5   4 531.548 16.3552  13
  -5   5   4 507.177 14.6424   3
  -3  -5   4 309.667 10.0864  12
   3  -5  -4 304.821 9.97812   9
   3  -5  -4 315.606 10.6615   6
  -3  -5   4 321.821 10.2172   5
  -3  -5   4 321.851 10.6596   2
  -3  -5   4 324.955 11.8840  16
   3  -5  -4 325.414 11.0656   2
   3   5  -4 331.950 9.86585   9
  -3   5   4 309.228 9.79293  12
   3   5  -4 308.672 10.8898   7
  -3   5   4 318.303 9.73537   3
   3   5  -4 317.681 11.4581  14
  -3   5   4 316.550 10.0010   8
  -3   5   4 320.871 10.9511  13
   3   5  -4 320.464 10.0533   3
   1  -5  -4 312.380 9.43516   9
   1  -5  -4 337.711 11.5174   6
  -1  -5   4 329.938 12.9506  10
   1  -5  -4 327.481 10.5953   2
  -1  -5   4 330.618 10.5318  16
  -1  -5   4 321.683 9.20153   5
  -1  -5   4 337.594 11.3460   2
   1  -5  -4 310.446 11.1238  15
  -1  -5   4 325.062 10.0391  12
   1   5  -4 331.449 10.4856   3
   1   5  -4 330.061 9.37554   1
   1   5  -4 332.225 11.2950   7
  -1   5   4 331.682 10.3988   3
  -1   5   4 339.595 9.71681  12
   1   5  -4 333.705 8.79648  13
  -1   5   4 305.516 8.97085  14
  -1   5   4 340.683 11.4328  13
  -1  -5  -4 920.487 26.0548  11
  -1  -5  -4 929.580 25.8252   6
  -1  -5  -4 933.103 25.0602  15
   1  -5   4 954.342 25.6493   2
   1  -5   4 950.040 23.8135  12
   1  -5   4 950.362 28.8689  10
   1   5   4 941.707 26.0501  13
  -1   5  -4 1001.95 26.0076   7
  -1   5  -4 929.713 23.9080   1
   1   5   4 938.440 23.1496  12
   1   5   4 929.588 24.8236  14
   1   5   4 956.004 25.1116   3
   3  -5   4 178.055 7.08143  12
   3  -5   4 163.679 10.7609  10
  -3  -5  -4 158.667 8.26116   6
  -3  -5  -4 154.264 8.82948  11
  -3  -5  -4 133.039 6.85292  15
   3  -5   4 153.505 7.88602   2
  -3  -5  -4 155.754 7.23860   1
  -3   5  -4 149.352 8.28713   7
   3   5   4 149.907 6.18637  12
   3   5   4 151.262 8.34627  14
  -3   5  -4 145.548 7.27469   1
  -3   5  -4 183.147 9.11795  11
   3   5   4 153.696 8.01285   3
   5  -5   4 504.751 17.3250   4
  -5  -5  -4 567.367 20.3342  11
  -5  -5  -4 508.398 17.2356   1
   5  -5   4 479.116 16.0063  12
  -5  -5  -4 514.613 17.5891   6
  -5   5  -4 484.363 17.6614  11
   5   5   4 510.652 19.2818  14
   5   5   4 531.859 18.4621   3
  -5   5  -4 488.953 18.7360   7
  -5   5  -4 498.475 17.3285   1
   5   5   4 511.516 15.7120  12
   7  -5   4 147.255 8.86522   4
  -7  -5  -4 123.076 8.71615   1
   7  -5   4 133.024 8.22452  12
  -7  -5  -4 131.191 11.0001  11
   7   5   4 126.084 7.45314  12
   7   5   4 140.510 9.70520   3
  -7   5  -4 128.640 9.24149   1
 -10  -6   4 36.7602 5.97504   5
  10  -6  -4 39.3641 5.39658   9
 -10   6   4 43.9974 7.29408  11
 -10   6   4 32.4489 4.74677   8
  10   6  -4 44.5128 5.53275   4
  -8  -6   4 1254.02 39.5214  16
  -8  -6   4 1284.81 35.4306   5
   8  -6  -4 1318.30 34.7056   9
   8  -6  -4 1294.33 34.5878   2
   8  -6  -4 1208.50 32.3909   4
   8   6  -4 1269.80 37.3106  14
  -8   6   4 1252.46 33.0686   1
  -8   6   4 1296.14 33.5875   8
  -8   6   4 1250.93 35.2735  13
   8   6  -4 1232.60 33.4174   4
  -6  -6   4 266.122 10.9322   5
   6  -6  -4 246.490 12.9009  10
  -6  -6   4 262.031 13.1394  16
   6  -6  -4 232.372 10.4841   2
   6   6  -4 261.565 9.50280   3
  -6   6   4 238.886 10.5086  13
  -6   6   4 240.344 9.22585   8
  -6   6   4 223.960 8.44705   5
  -6   6   4 239.142 10.3014  16
   6   6  -4 252.890 11.4296  14
   6   6  -4 234.022 9.39423   4
  -4  -6   4 3211.89 79.4200  16
  -4  -6   4 3383.25 76.9038   5
  -4  -6   4 3287.10 76.7512   2
   4  -6  -4 3340.66 79.6311  10
   4  -6  -4 3300.98 76.6490   6
   4  -6  -4 3346.29 77.8655   2
  -4  -6   4 3289.07 76.5963  12
   4   6  -4 3374.78 79.0140  14
   4   6  -4 3465.79 78.2143   7
  -4   6   4 3320.52 76.0144   8
  -4   6   4 3371.57 76.4022  12
   4   6  -4 3245.72 76.2199   3
  -4   6   4 3373.58 77.6882  13
  -2  -6   4 563.017 16.3396  12
   2  -6  -4 569.285 17.3714   6
   2  -6  -4 602.362 17.3681   2
   2  -6  -4 578.151 15.9654   9
  -2  -6   4 583.068 17.5391   2
  -2  -6   4 585.242 15.8250   5
  -2  -6   4 565.332 19.0530  10
  -2  -6   4 563.276 17.4738  16
  -2   6   4 573.792 16.3024   3
   2   6  -4 561.400 16.5996   3
  -2   6   4 597.912 16.2157  12
  -2   6   4 604.390 17.6420  13
   2   6  -4 599.635 17.5906   7
   0  -6  -4 3504.94 81.1912   6
   0  -6  -4 3438.29 79.0440   2
   0  -6  -4 3490.76 81.1501  11
   0  -6   4 3491.25 80.8946   2
   0  -6  -4 3362.77 79.9961  15
   0  -6  -4 3312.02 77.1584   9
   0  -6   4 3461.02 84.1111  10
   0  -6   4 3432.14 78.8896  12
   0   6  -4 3601.22 77.9725  13
   0   6  -4 3440.07 78.3049   1
   0   6   4 3307.25 78.3429  14
   0   6   4 3520.95 78.3505  12
   0   6   4 3579.82 81.1489  13
   0   6  -4 3473.71 80.1663   3
   0   6   4 3559.17 79.9098   3
   0   6  -4 3506.81 80.6900   7
   2  -6   4 169.393 10.5393  10
  -2  -6  -4 165.071 8.78813   6
  -2  -6  -4 165.670 7.35865  15
   2  -6   4 201.634 7.77137  12
  -2  -6  -4 166.888 8.81882  11
   2  -6   4 186.062 9.06750   2
   2   6   4 175.190 6.94973  12
   2   6   4 185.035 8.63497   3
  -2   6  -4 166.549 7.47865   1
  -2   6  -4 172.713 8.72431   7
   2   6   4 167.762 8.02773  14
   2   6   4 169.284 8.82784  13
   4  -6   4 1428.53 37.9534   2
  -4  -6  -4 1354.63 38.2535   6
   4  -6   4 1447.58 36.6115  12
  -4  -6  -4 1424.85 39.9516  11
   4   6   4 1430.55 35.8574  12
  -4   6  -4 1446.62 39.1976   7
   4   6   4 1433.50 38.4662   3
  -4   6  -4 1446.41 37.5585   1
   4   6   4 1394.23 39.0751  14
   6  -6   4 22.8371 4.47821   4
   6  -6   4 16.9473 3.36946  12
  -6  -6  -4 26.8888 5.25688  11
  -6   6  -4 16.1872 3.97699   1
   6   6   4 16.6942 3.10614  12
   6   6   4 23.0361 4.64070   3
   6   6   4 12.2833 4.09525  14
   8  -6   4 456.479 19.8908   4
  -8   6  -4 457.835 20.1895   1
  -9  -7   4 179.514 10.3713   5
   9  -7  -4 177.503 10.1348   9
  -9  -7   4 165.672 12.1693  16
  -9   7   4 175.224 10.6106  13
  -9   7   4 186.510 9.24867   1
   9   7  -4 167.322 10.9966  14
   9   7  -4 177.238 9.36877   4
  -9   7   4 173.493 8.82461   8
   7  -7  -4 30.4010 4.93604   2
  -7  -7   4 30.3654 5.10235   5
  -7  -7   4 36.3755 6.20259  16
   7   7  -4 31.4721 3.96718   4
  -7   7   4 33.5184 4.05536   1
  -7   7   4 31.9617 3.70562   8
   7   7  -4 23.8075 3.54555   3
  -7   7   4 25.6576 4.43537  13
   7   7  -4 41.7735 5.99949  14
  -5  -7   4 213.298 9.47226   5
  -5  -7   4 187.704 10.9541  16
   5  -7  -4 201.039 9.48681   2
  -5  -7   4 184.734 8.18639   2
   5  -7  -4 198.790 8.23058   6
   5  -7  -4 202.401 10.9793  10
  -5   7   4 184.677 8.03837   3
  -5   7   4 205.211 8.13350   8
   5   7  -4 188.377 9.57220   7
   5   7  -4 195.462 8.51985   3
  -5   7   4 198.776 8.38890  12
  -5   7   4 203.008 9.34199  13
  -5   7   4 203.220 9.75970  16
   5   7  -4 198.360 10.2553  14
  -3  -7   4 70.6559 5.32634   2
  -3  -7   4 67.6340 4.52169   5
   3  -7  -4 63.1841 4.31505   9
   3  -7  -4 67.1938 5.39569   2
   3  -7  -4 70.2163 4.80674   6
  -3  -7   4 62.3179 5.55217  16
  -3  -7   4 61.3090 5.25756  10
  -3  -7   4 63.1909 4.30203  12
  -3   7   4 73.2856 5.18914  13
  -3   7   4 70.0666 4.32332  12
   3   7  -4 67.2724 4.48070   3
  -3   7   4 59.2634 4.40966   3
  -3   7   4 75.5068 4.37880   8
   3   7  -4 55.2665 4.55561   7
   3   7  -4 66.7329 5.62327  14
  -1  -7   4 22.8775 3.80001   2
   1  -7  -4 22.9008 2.45804   9
  -1  -7   4 18.8851 3.58871  10
   1  -7  -4 24.1831 3.29759   2
   1  -7  -4 19.0609 2.89589  15
   1  -7  -4 27.3362 3.96856   6
   1   7  -4 20.0352 3.32335   7
   1   7  -4 27.9067 3.47414   3
  -1   7   4 23.2598 3.27524   3
  -1   7   4 21.3881 2.60365  12
  -1   7   4 22.3412 3.46488  13
   1  -7   4 106.356 8.39415  10
   1  -7   4 107.563 5.88325  12
  -1  -7  -4 117.441 7.47406   6
   1  -7   4 106.734 7.01754   2
  -1  -7  -4 111.526 7.48452  11
  -1  -7  -4 107.344 5.96307  15
   1   7   4 119.312 7.17280  13
  -1   7  -4 108.223 6.82200   3
   1   7   4 107.116 5.62114  12
  -1   7  -4 110.414 6.71122   7
   1   7   4 114.924 6.91995   3
  -1   7  -4 113.368 5.81935   1
   1   7   4 124.660 6.28421  14
  -3  -7  -4 2.07332 2.64745   6
   3  -7   4 5.09216 3.20287   2
  -3  -7  -4 15.4621 4.12910  11
   3  -7   4 0.50349 1.35919  12
   3   7   4 0.71046 2.05655  13
   3   7   4 2.89098 1.61807  12
  -3   7  -4 1.36285 1.96710   7
  -3   7  -4 -2.1153 1.76371   1
   3   7   4 -3.0764 2.26430   3
   3   7   4 1.69836 2.20114  14
  -5  -7  -4 47.9648 7.05297  11
   5  -7   4 47.2933 5.92961   2
   5  -7   4 44.5887 4.98916  12
   5  -7   4 49.6811 5.50394   4
  -5  -7  -4 41.6821 5.61578   6
   5   7   4 36.4425 5.34528  13
   5   7   4 42.1661 5.92588   3
   5   7   4 48.3597 6.51091  14
   5   7   4 44.3000 4.50014  12
  -5   7  -4 40.7575 5.64809   7
  -5   7  -4 44.1463 5.18627   1
  -7  -7  -4 7.30493 4.85991  11
   7  -7   4 3.73043 3.17754   4
   7  -7   4 4.56351 2.22703  12
   7   7   4 2.33231 2.57083   3
  -7   7  -4 3.81179 3.50185   1
   7   7   4 8.40608 2.90418  12
 -10  -8   4 336.385 15.9166   5
 -10  -8   4 342.041 15.9203   6
  10  -8  -4 342.033 14.6540   9
 -10   8   4 311.175 14.6594   1
 -10   8   4 347.575 17.3359  11
 -10   8   4 314.260 14.0622   8
   8  -8  -4 538.162 19.2953   9
  -8  -8   4 606.800 21.1009   5
   8  -8  -4 571.273 20.3832   2
  -8  -8   4 566.261 24.2545  16
   8   8  -4 560.915 18.1802   4
   8   8  -4 578.942 22.5386  14
  -8   8   4 567.706 18.8453   1
  -8   8   4 537.196 20.2313  13
  -8   8   4 530.454 17.9123   8
  -6  -8   4 356.637 16.7642  16
   6  -8  -4 359.838 14.8602   2
  -6  -8   4 372.345 14.2263   5
   6   8  -4 371.094 15.0338   7
  -6   8   4 361.516 12.6020   8
   6   8  -4 359.648 13.4436   3
  -6   8   4 362.828 13.2075   3
   6   8  -4 359.298 15.5123  14
  -6   8   4 358.118 14.5852  13
   4  -8  -4 829.336 23.4016   6
  -4  -8   4 777.880 23.2115   2
   4  -8  -4 836.928 24.8771   2
  -4  -8   4 768.767 25.8018  16
  -4  -8   4 806.971 23.0876   5
   4   8  -4 815.899 25.6471  14
   4   8  -4 790.854 23.1882   3
  -4   8   4 807.788 24.1960  13
  -4   8   4 816.066 22.1801   8
  -4   8   4 805.368 22.8740   3
   4   8  -4 815.322 24.3724   7
  -4   8   4 830.643 22.9931  12
   2  -8  -4 311.732 12.3979   6
  -2  -8   4 305.851 12.1764   2
  -2  -8   4 301.174 10.3633   5
   2  -8  -4 288.849 11.6873   2
  -2  -8   4 268.744 11.7087  16
  -2  -8   4 293.201 13.1993  10
  -2  -8   4 306.498 11.4370  12
  -2   8   4 307.898 10.8502   8
   2   8  -4 352.307 12.3847   3
  -2   8   4 310.005 11.4725   3
  -2   8   4 305.543 12.2178  13
  -2   8   4 297.708 10.9506  12
   2   8  -4 306.354 12.0545   7
   0  -8  -4 967.550 26.2763   2
   0  -8  -4 992.347 28.4280   6
   0  -8   4 943.793 26.1681  12
   0  -8  -4 918.844 26.5072  15
   0  -8   4 947.408 30.5639  10
   0  -8   4 984.476 28.4153   2
   0   8  -4 943.547 27.1805   3
   0   8  -4 1003.39 27.7369   7
   0   8   4 963.912 26.8088   3
   0   8   4 953.497 25.7858  12
   0   8  -4 958.084 25.3384   1
   0   8   4 935.521 27.7301  13
  -2  -8  -4 272.787 12.8430   6
  -2  -8  -4 252.420 12.3196  11
   2  -8   4 265.074 12.0664   2
   2  -8   4 271.455 10.9385  12
   2   8   4 263.506 10.3249  12
  -2   8  -4 257.375 11.5483   7
  -2   8  -4 257.632 10.5475   1
   2   8   4 267.260 12.4772  13
   2   8   4 260.798 11.8282   3
   4  -8   4 855.786 26.7660   2
   4  -8   4 836.142 25.0482  12
  -4  -8  -4 839.821 28.1201  11
  -4  -8  -4 804.228 26.8448   6
  -4   8  -4 855.265 26.9250   7
   4   8   4 821.935 27.1210  13
   4   8   4 843.465 26.4003   3
  -4   8  -4 835.901 25.3958   1
   4   8   4 794.009 26.5361  14
   4   8   4 843.704 24.3530  12
   6  -8   4 197.792 10.4926  12
  -6  -8  -4 206.085 13.5276  11
   6  -8   4 195.913 10.7854   4
  -6  -8  -4 185.020 11.3203   6
   6   8   4 208.707 12.2500   3
   6   8   4 199.195 10.0741  12
  -6   8  -4 202.110 10.8694   1
   9  -9  -4 -1.2830 3.10241   9
  -9  -9   4 -0.2040 2.52185   6
  -9  -9   4 2.63145 4.16395   5
   9   9  -4 1.31205 2.65319   7
  -9   9   4 5.77726 3.43945   1
   7  -9  -4 30.4062 4.80666   9
  -7  -9   4 31.0012 5.80462   5
   7  -9  -4 29.2908 4.92640   2
   7   9  -4 28.8894 5.63918  14
   7   9  -4 24.0408 4.62487   7
  -7   9   4 29.0166 4.74833  13
  -7   9   4 28.7032 4.20722   1
  -7   9   4 27.4273 3.78672   8
  -5  -9   4 2.83991 3.19532   5
   5  -9  -4 1.50657 2.11770   2
  -5  -9   4 5.07936 3.67789  16
   5   9  -4 2.16725 2.63112  14
  -5   9   4 3.01412 1.61533   8
  -5   9   4 0.83989 2.51965  13
   5   9  -4 0.66928 2.58959   7
   5   9  -4 1.81965 2.23722   3
  -5   9   4 0.15920 2.10094   3
  -3  -9   4 7.54020 3.15584   2
   3  -9  -4 9.37226 3.20851   2
  -3  -9   4 4.34837 2.43586   5
   3  -9  -4 8.52046 3.04308   6
   3  -9  -4 8.79830 2.15463   9
  -3   9   4 5.09359 2.04044  12
   3   9  -4 5.63460 2.06764   3
   3   9  -4 7.75451 2.51143   7
  -3   9   4 6.89628 2.90102  13
  -3   9   4 11.1104 2.29202   8
  -3   9   4 16.1676 2.99256   3
   1  -9  -4 0.80746 2.64061   6
  -1  -9   4 3.58528 2.24937  10
   1  -9  -4 1.58580 2.07491   2
   1  -9  -4 1.59618 1.79968  15
  -1  -9   4 3.57854 1.99779  12
  -1  -9   4 -0.0330 2.96885   2
  -1   9   4 2.92242 1.78826  12
   1   9  -4 2.95946 2.50869   7
  -1   9   4 -0.5690 1.50655  13
  -1   9   4 0.84625 2.41772   3
   1   9  -4 1.95257 1.69823   3
  -1  -9  -4 11.1853 3.87172   6
   1  -9   4 7.30504 3.86067   2
   1  -9   4 4.84323 1.90632  12
   1   9   4 5.32816 2.89905   3
   1   9   4 3.18457 1.95976  12
  -1   9  -4 0.77302 1.84333   1
  -1   9  -4 2.93406 2.62007   3
  -1   9  -4 3.47922 2.69747   7
   1   9   4 6.11675 2.35921  13
  -3  -9  -4 10.6208 4.22649  11
  -3  -9  -4 9.50654 3.32546   6
   3  -9   4 10.0923 3.61195   2
   3  -9   4 8.00082 2.81162  12
  -3   9  -4 8.80858 2.74397   1
  -3   9  -4 7.64079 2.92810   7
   3   9   4 10.0084 3.27780   3
   3   9   4 10.8045 2.82604  12
   3   9   4 8.26426 2.80348  13
  -5  -9  -4 6.03865 3.61460   6
   5  -9   4 9.13591 3.37716   2
  -5  -9  -4 6.53759 3.46320  11
   5  -9   4 4.22736 2.95404   4
   5  -9   4 3.56456 2.68578  12
   5   9   4 8.20438 4.16552   3
  -5   9  -4 1.57201 3.05708   1
  -5   9  -4 9.77996 4.14079   7
   5   9   4 8.88813 2.83255  12
  -8 -10   4 60.0015 7.87863   6
  -8 -10   4 50.9739 7.45119   5
   8 -10  -4 54.7115 6.10343   9
   8 -10  -4 61.6411 7.34675   2
  -8  10   4 62.6376 6.34080   1
   8  10  -4 59.6908 7.61981   7
   6 -10  -4 1009.57 29.3214   9
   6 -10  -4 1025.17 31.1776   2
  -6 -10   4 980.924 29.7034   5
   6  10  -4 967.047 29.0020   3
   6  10  -4 984.058 30.4396   7
  -6  10   4 1010.83 30.8232  13
   6  10  -4 953.784 32.0182  14
  -6  10   4 948.073 27.1769   8
   4 -10  -4 187.895 10.7560   2
   4 -10  -4 178.787 9.07095   9
   4 -10  -4 182.064 9.53641   6
  -4 -10   4 172.979 9.19454   5
  -4 -10   4 187.190 9.91288   2
  -4  10   4 180.117 8.42766   8
  -4  10   4 179.208 9.79968   3
   4  10  -4 167.693 9.93747   7
  -4  10   4 182.751 10.1537  13
   4  10  -4 180.646 9.70979   3
   4  10  -4 179.182 10.7780  14
  -2 -10   4 1204.80 34.1189   2
   2 -10  -4 1142.74 33.4021   6
  -2 -10   4 1153.08 32.9985   6
   2 -10  -4 1137.15 33.6413  15
   2 -10  -4 1181.92 33.3821   2
  -2  10   4 1128.80 31.6478  12
  -2  10   4 1168.54 30.9812   8
   2  10  -4 1154.98 33.1090   7
   2  10  -4 1190.22 33.4476   3
  -2  10   4 1181.65 33.0029   3
  -2  10   4 1177.46 33.8625  13
   0 -10  -4 245.439 12.4521   6
   0 -10   4 271.906 13.5295   2
   0 -10  -4 250.326 11.0968   2
   0  10  -4 247.068 12.1791   3
   0  10   4 246.856 11.9969  13
   0  10   4 253.725 10.9374  12
   0  10  -4 246.931 11.8602   7
   0  10   4 253.282 11.8905   3
   2 -10   4 720.850 23.8117  12
   2 -10   4 797.288 26.7939   2
  -2 -10  -4 780.400 26.8651   6
   2  10   4 790.043 25.6182   3
   2  10   4 784.911 23.9416  12
   2  10   4 765.252 25.8298  13
  -2  10  -4 792.914 25.4491   7
  -2  10  -4 823.380 24.1760   1
  -4 -10  -4 188.203 12.1581  11
  -4 -10  -4 172.433 11.1736   6
   4 -10   4 194.093 11.2119   2
   4 -10   4 162.145 9.17710   4
   4  10   4 189.629 11.5474   3
  -4  10  -4 165.110 9.98781   1
  -4  10  -4 183.484 11.0455   7
   4  10   4 149.876 9.01491  12
   7 -11  -4 132.982 9.18783   9
   7 -11  -4 130.321 10.5182   2
  -7 -11   4 144.426 10.4672   5
  -7 -11   4 139.817 11.2686   6
   7  11  -4 138.424 9.46967   7
  -7  11   4 133.938 9.23261   1
   5 -11  -4 139.492 8.75336   9
  -5 -11   4 148.252 10.2270   6
   5 -11  -4 142.032 10.2115   2
   5  11  -4 138.817 9.53510   7
   5  11  -4 128.245 8.84093   3
  -3 -11   4 164.170 10.3250   2
   3 -11  -4 163.201 10.3788   2
   3 -11  -4 173.343 8.68620   9
  -3 -11   4 181.779 10.9869   6
   3 -11  -4 187.942 10.3088   6
   3  11  -4 180.529 10.3090   3
  -3  11   4 166.031 10.0782   3
  -3  11   4 159.742 9.68806  13
  -3  11   4 162.621 7.98876   8
   3  11  -4 162.334 9.93927   7
   1 -11  -4 181.086 11.1482   6
   1 -11  -4 176.204 9.90409   2
  -1 -11   4 179.784 11.4725   2
   1  11  -4 184.996 10.3679   7
  -1  11   4 172.960 9.29958  12
   1  11  -4 180.879 10.5618   3
  -1  11   4 182.496 10.1914   3
  -1  11   4 177.562 8.64746   8
  -1  11   4 175.659 10.1540  13
   1 -11   4 132.800 10.3628   2
  -1 -11  -4 145.753 10.0111   6
  -1  11  -4 138.532 9.35347   3
  -1  11  -4 130.188 8.01464   1
   1  11   4 131.099 8.12904  12
  -1  11  -4 138.213 8.88338   7
   1  11   4 125.903 9.55047   3
   1  11   4 128.055 8.84159  13
   3 -11   4 116.833 10.2616   2
  -3 -11  -4 135.294 10.6080   6
   3  11   4 133.661 8.43955  12
  -3  11  -4 132.727 8.37976   1
   3  11   4 140.904 10.4561   3
   6 -12  -4 161.551 11.4642   2
  -6 -12   4 121.233 10.9710   6
   6 -12  -4 148.484 9.35330   9
  -6  12   4 149.508 9.87627   1
   6  12  -4 138.816 15.1325   7
   6  12  -4 142.011 9.51224   3
   4 -12  -4 651.092 23.9328   2
  -4 -12   4 674.885 24.6080   6
   4 -12  -4 631.857 21.0312   9
  -4  12   4 665.868 22.8426   3
   4  12  -4 687.870 23.5358   3
   2 -12  -4 100.029 8.58515   6
  -2 -12   4 109.810 9.24196   2
  -2 -12   4 103.936 8.72214   6
   2 -12  -4 106.831 8.00014   2
   2  12  -4 111.032 8.30168   3
  -2  12   4 108.293 8.05797   3
   0 -12  -4 770.997 26.6365   6
   0 -12   4 743.845 26.1097   2
   0  12  -4 734.242 25.5207   3
   0  12   4 718.245 22.3590   8
   0  12   4 747.240 25.4667   3
   0  12  -4 717.589 22.5345   1
   2 -12   4 65.1174 7.90741   2
  -2 -12  -4 64.4094 8.52230   6
   2  12   4 57.6818 5.90129  12
  -2  12  -4 65.5853 5.93194   1
   2  12   4 69.0788 8.36748   3
   3 -13  -4 53.0753 7.29755   2
  -3 -13   4 38.9564 6.29429   6
  -3  13   4 40.7660 5.96779   3
   3  13  -4 49.9142 6.49214   3
  -1 -13   4 40.1891 6.02341   2
   1 -13  -4 40.4819 6.81645   6
  -1  13   4 35.4354 5.40610   3
   1  13  -4 50.0437 6.93047   3
   1 -13   4 59.5673 7.54435   2
  -1 -13  -4 66.2592 8.89946   6
   1  13   4 78.0552 8.64270   3
  -1  13  -4 81.4295 8.41571   3
 -12   0   5 2.57368 4.07686  11
  12   0  -5 4.43365 3.14716   4
 -12   0   5 -0.1197 2.31135   8
 -10   0   5 5.37994 3.16185  16
 -10   0   5 4.77870 2.83378   5
 -10   0   5 3.37053 2.95774   8
  10   0  -5 1.87597 1.86870   4
 -10   0   5 0.86747 3.27158  11
   8   0  -5 0.19891 1.20063   4
   8   0  -5 0.05509 1.21411  14
  -8   0   5 9.89922 2.90719  11
  -8   0   5 0.33298 2.16930  16
   8   0  -5 2.23007 1.37350   9
  -8   0   5 1.27598 2.04216   5
  -8   0   5 0.78057 1.91727   8
   6   0  -5 3.20570 1.26773  15
  -6   0   5 1.11447 1.53344   5
  -6   0   5 1.33206 1.41539   8
  -6   0   5 0.80202 1.69279  16
   6   0  -5 2.09012 1.26108   9
   6   0  -5 -0.0949 0.79987  14
   6   0  -5 1.83936 1.28545   4
   4   0  -5 2.11935 0.80672   4
   4   0  -5 -0.3094 0.46913  14
  -4   0   5 0.32443 1.02719   5
  -4   0   5 0.81369 0.90589   8
  -4   0   5 0.03771 0.39419  12
  -4   0   5 0.80603 1.27239  16
  -4   0   5 3.50000 0.75843  13
   4   0  -5 1.26812 0.95605   9
   4   0  -5 0.39780 0.83064  15
   4   0  -5 1.27019 0.88749   7
  -2   0   5 1.03300 0.69006   8
   2   0  -5 1.05763 0.77988  15
  -2   0   5 0.90733 0.34641  12
  -2   0   5 0.95914 0.35029  12
   2   0  -5 1.20137 0.68962   9
  -2   0   5 -0.0501 1.01913  16
   2   0  -5 1.08729 0.82574   7
   2   0  -5 1.53634 1.04698   6
   2   0  -5 0.83172 0.39998   1
  -2   0   5 2.01438 0.64567  13
   0   0  -5 -0.0829 0.69125   1
   0   0  -5 0.03332 0.81708   6
   0   0  -5 1.29980 0.88556  11
   0   0  -5 0.21434 0.72357   9
   0   0  -5 0.64085 0.98783  15
   0   0  -5 0.96025 1.04049   7
  -2   0  -5 -0.2229 0.75634   6
  -2   0  -5 3.45045 1.83031   7
  -2   0  -5 1.07485 1.37388   1
  -2   0  -5 1.55577 1.59731  15
  -2   0  -5 0.32901 1.22325  11
  -4   0  -5 -0.3530 1.83647  11
  -4   0  -5 -0.2968 1.33314   1
   4   0   5 1.22110 1.09387  12
   4   0   5 -0.6719 2.14406  14
   4   0   5 2.05092 2.08956   4
   4   0   5 -0.3809 1.95901  10
   6   0   5 8.27796 3.95503  14
  -6   0  -5 2.21649 2.71990   1
  -6   0  -5 0.65960 2.76233  11
   6   0   5 2.09163 2.96863   4
   6   0   5 -0.4851 1.51577  12
   8   0   5 0.59044 3.31668   4
  -8   0  -5 0.60469 3.32505   1
  -8   0  -5 -0.6895 3.36308  11
   8   0   5 3.09244 2.19068  12
 -11  -1   5 939.337 27.4371   8
  11  -1  -5 922.243 27.6025   4
 -11  -1   5 893.330 29.6271  11
 -11  -1   5 877.974 27.2947   5
 -11   1   5 940.825 30.6740  11
 -11   1   5 919.281 27.4246   8
  11   1  -5 915.587 27.7878   4
  -9  -1   5 147.929 8.85829  11
  -9  -1   5 145.111 7.91411   8
  -9  -1   5 150.698 8.23139   5
   9  -1  -5 162.127 8.26089   4
  -9  -1   5 155.529 10.2074  16
   9  -1  -5 153.825 7.06464   9
  -9   1   5 141.889 9.18110  11
  -9   1   5 139.104 7.72477   5
   9   1  -5 151.543 7.87493   4
   9   1  -5 144.431 8.18495  14
  -9   1   5 151.625 8.12243   8
  -9   1   5 165.186 9.90416  16
  -7  -1   5 1962.66 48.8331  11
   7  -1  -5 1944.41 47.8869   4
  -7  -1   5 2033.43 51.7292  16
   7  -1  -5 2054.48 47.9952   9
  -7  -1   5 2026.83 48.6070   5
  -7  -1   5 1936.94 47.7482  12
  -7  -1   5 1997.93 47.7572   8
  -7   1   5 2057.34 51.3323  16
   7   1  -5 2079.54 48.4570   4
   7   1  -5 2029.12 47.2915   9
   7   1  -5 2006.20 48.8750  14
  -7   1   5 2000.85 48.2093   5
  -7   1   5 2048.46 48.0795   8
   5  -1  -5 535.966 14.8987   9
  -5  -1   5 535.062 14.6073  12
   5  -1  -5 526.244 15.9505  15
  -5  -1   5 542.453 15.3117   5
   5  -1  -5 542.554 13.6397  14
  -5  -1   5 544.243 17.1805  16
  -5  -1   5 536.852 14.2797   8
   5  -1  -5 530.582 14.4557   4
   5   1  -5 527.379 14.8657   4
  -5   1   5 546.433 14.6932   8
  -5   1   5 559.596 17.3404  16
  -5   1   5 529.396 14.2164  13
   5   1  -5 516.137 14.9077  15
  -5   1   5 517.417 14.9351   5
   5   1  -5 542.287 14.7258   9
  -5   1   5 535.916 14.5797  12
   5   1  -5 564.276 15.2629  14
   3  -1  -5 3244.47 73.0516   9
   3  -1  -5 3215.64 73.7108   6
  -3  -1   5 3097.89 72.8133  13
  -3  -1   5 3289.92 75.1917  16
   3  -1  -5 3248.19 74.4573  15
   3  -1  -5 3223.28 72.2687   7
  -3  -1   5 3204.08 74.1850  12
   3  -1  -5 3244.92 72.2646   4
  -3  -1   5 3236.50 72.9602   5
  -3  -1   5 3271.74 71.9228   8
   3   1  -5 3266.78 73.3347   7
   3   1  -5 3224.96 73.8929  15
  -3   1   5 3320.08 75.8035  12
  -3   1   5 3304.45 72.3294  13
   3   1  -5 3336.29 73.1220   9
  -3   1   5 3292.86 75.7739  16
   3   1  -5 3207.01 72.7126   4
  -3   1   5 3271.59 72.5425   8
   1  -1  -5 1234.74 31.0636   6
  -1  -1   5 1280.14 31.8353  16
   1  -1  -5 1254.54 32.1765  15
   1  -1  -5 1246.62 30.8231  11
   1  -1  -5 1267.49 30.2829   7
   1  -1  -5 1269.90 30.2834   9
   1  -1  -5 1208.64 29.5532   1
   1   1  -5 1293.09 29.7669  11
   1   1  -5 1306.44 30.7604   6
   1   1  -5 1330.88 31.2516   7
  -1   1   5 1297.61 30.7409  13
   1   1  -5 1317.70 29.4722   1
   1   1  -5 1374.81 32.2213  15
   1   1  -5 1277.05 30.5646   9
  -1  -1  -5 2243.57 50.6590   9
  -1  -1  -5 2356.15 52.0728   6
  -1  -1  -5 2200.85 53.3286  15
   1  -1   5 2194.23 55.2158  10
  -1  -1  -5 2318.02 52.9074  11
  -1  -1  -5 2251.75 52.1711   7
  -1  -1  -5 2295.94 51.5713   1
  -1   1  -5 2073.27 51.5691  11
  -1   1  -5 2247.68 51.5026   1
   1   1   5 2328.43 54.0987  10
  -1   1  -5 2216.84 53.6752  15
  -1   1  -5 2204.79 52.8000   7
  -1   1  -5 2165.03 51.1939   9
  -1   1  -5 2084.79 50.7186   6
  -3  -1  -5 825.412 23.7924  15
  -3  -1  -5 806.137 23.7928  11
  -3  -1  -5 761.741 21.2625   6
  -3  -1  -5 834.046 22.6316   1
   3  -1   5 844.630 21.3876   2
   3  -1   5 841.857 26.3483  10
   3  -1   5 828.683 19.6168  12
   3   1   5 821.504 24.9272  14
  -3   1  -5 834.660 23.9205   7
   3   1   5 815.271 19.1603  12
  -3   1  -5 816.500 22.5946   1
   3   1   5 804.867 24.6205  10
   3   1   5 813.817 21.6798   4
  -3   1  -5 802.161 23.3590  11
  -5  -1  -5 727.420 24.2348  11
   5  -1   5 758.147 22.2854   4
   5  -1   5 745.594 20.1027  12
  -5  -1  -5 719.100 22.3092   1
   5  -1   5 732.177 25.5574  14
  -5   1  -5 760.204 22.6882   1
  -5   1  -5 717.367 23.8288  11
   5   1   5 742.651 21.6605   4
   5   1   5 749.605 19.8296  12
   5   1   5 739.269 25.6146  14
   7  -1   5 387.697 13.8588  12
   7  -1   5 386.492 15.0868   4
  -7  -1  -5 364.287 15.1143   1
  -7  -1  -5 374.289 17.5134  11
   7   1   5 385.761 14.9123   4
  -7   1  -5 385.030 17.4536  11
   7   1   5 363.345 13.3800  12
  -7   1  -5 384.795 15.5520   1
 -12  -2   5 194.581 10.9071   8
 -12  -2   5 174.713 11.8093  11
  12  -2  -5 197.421 10.3992   4
 -12  -2   5 191.390 10.7111   5
 -12   2   5 200.246 10.8815   8
  12   2  -5 192.339 10.5242   4
 -12   2   5 192.380 13.1472  11
 -10  -2   5 458.298 16.8706   5
  10  -2  -5 455.566 16.3097   4
 -10  -2   5 449.787 19.6061  16
 -10  -2   5 439.705 17.4741  11
  10  -2  -5 446.320 15.2708   9
 -10  -2   5 462.422 16.1713   8
  10   2  -5 440.807 17.3466  14
 -10   2   5 462.726 16.4974   8
  10   2  -5 467.216 16.7262   4
 -10   2   5 483.716 19.2142  11
   8  -2  -5 512.460 15.6100   9
  -8  -2   5 470.722 16.0511  11
  -8  -2   5 495.163 19.0713  16
   8  -2  -5 492.490 15.4729   4
  -8  -2   5 496.381 15.3105   8
  -8  -2   5 502.750 16.5595   5
   8   2  -5 493.594 16.8611  14
   8   2  -5 480.504 14.2899   9
  -8   2   5 505.094 15.8235   8
  -8   2   5 502.824 15.5220   5
   8   2  -5 469.984 15.5953   4
  -8   2   5 490.625 17.7342  16
   6  -2  -5 807.938 21.1856   4
  -6  -2   5 793.233 21.4999  11
  -6  -2   5 810.705 22.2072   5
  -6  -2   5 793.434 21.4889  12
  -6  -2   5 849.437 24.9401  16
  -6  -2   5 801.919 21.0158   8
   6  -2  -5 817.077 21.8379   9
  -6   2   5 826.714 21.6752   8
   6   2  -5 815.146 21.8136   4
   6   2  -5 838.589 22.7832  14
  -6   2   5 837.585 21.5900  12
  -6   2   5 830.711 21.8375   5
   6   2  -5 832.073 21.1205   9
  -6   2   5 846.942 24.3038  16
  -6   2   5 816.518 19.8514   1
  -6   2   5 804.171 21.4306  13
   4  -2  -5 1136.25 28.2282   6
   4  -2  -5 1106.27 26.5744   4
  -4  -2   5 1130.35 27.8388   5
  -4  -2   5 1128.79 27.1542  12
  -4  -2   5 1154.25 29.9961  16
  -4  -2   5 1124.91 26.4818   8
   4  -2  -5 1123.41 27.7411   9
   4  -2  -5 1079.18 26.2091   7
   4  -2  -5 1145.63 29.3639  15
   4   2  -5 1132.54 27.4025   9
   4   2  -5 1147.65 28.2670  14
   4   2  -5 1101.81 27.5188   4
  -4   2   5 1114.36 27.2993   8
   4   2  -5 1094.68 27.5939  15
  -4   2   5 1172.19 30.4359  16
   4   2  -5 1130.73 28.3464   7
  -4   2   5 1152.50 27.3828  13
  -4   2   5 1136.44 26.9739  12
  -2  -2   5 864.664 19.1594   8
  -2  -2   5 825.990 19.4455  12
  -2  -2   5 883.410 20.5191   5
   2  -2  -5 795.351 22.1360  15
   2  -2  -5 798.248 20.5016   9
  -2  -2   5 858.521 22.1798  16
   2  -2  -5 799.356 21.5065   6
   2  -2  -5 785.503 19.4820   7
  -2  -2   5 825.487 18.1888  13
   2   2  -5 837.247 21.7515  15
  -2   2   5 791.344 20.7516  13
  -2   2   5 819.108 19.1296  12
   2   2  -5 862.740 21.5735   7
  -2   2   5 835.083 19.0835  12
   2   2  -5 838.653 20.8735   9
  -2   2   5 807.260 19.4988   3
   0  -2   5 1007.49 22.4655  12
   0  -2   5 1056.46 28.9364  10
   0  -2  -5 985.732 24.1190   9
   0  -2   5 986.047 23.5988   5
   0  -2  -5 1037.15 25.8824   6
   0  -2   5 995.954 25.1467  16
   0  -2  -5 983.240 26.4229  15
   0  -2  -5 1019.71 24.5737   1
   0  -2  -5 993.944 25.8833  11
   0  -2  -5 976.782 24.4967   7
   0  -2   5 1013.55 22.4888  12
   0   2  -5 1011.63 24.3034   1
   0   2  -5 1003.70 26.6164  15
   0   2  -5 1013.87 24.9856   9
   0   2  -5 965.114 23.9295  11
   0   2  -5 1015.89 26.0127   7
  -2  -2  -5 434.566 13.4275   6
  -2  -2  -5 436.776 11.6669   9
   2  -2   5 419.740 13.1402   2
   2  -2   5 428.951 16.7458  10
   2  -2   5 446.606 11.0774  12
  -2  -2  -5 419.900 13.3080   1
  -2  -2  -5 430.902 14.3793  15
  -2  -2  -5 453.555 14.7833  11
   2   2   5 454.945 14.5621  10
  -2   2  -5 401.470 13.2119  11
   2   2   5 449.732 9.91015  12
   2   2   5 438.302 14.7864  14
  -2   2  -5 415.569 13.1095   1
   2   2   5 451.994 9.90330  12
  -2   2  -5 432.829 14.5374   7
   4  -2   5 300.711 14.7377  10
  -4  -2  -5 304.107 11.8058   1
   4  -2   5 308.570 9.81824  12
  -4  -2  -5 316.340 13.6355  11
   4   2   5 306.156 9.29196  12
   4   2   5 313.718 10.9417   4
  -4   2  -5 301.865 12.3151  11
  -4   2  -5 321.663 13.3327   7
  -4   2  -5 322.182 12.1119   1
   4   2   5 307.547 13.8258  14
   6  -2   5 195.760 12.2717  14
  -6  -2  -5 193.712 10.1875   1
   6  -2   5 190.078 10.3078   4
  -6  -2  -5 193.698 11.6117  11
   6  -2   5 197.709 8.70148  12
  -6   2  -5 183.374 9.81289   1
  -6   2  -5 185.649 11.1659  11
   6   2   5 195.336 9.42759   4
   6   2   5 192.010 12.1534  14
   6   2   5 178.725 8.02462  12
  -8  -2  -5 70.7032 6.99673   1
   8  -2   5 66.7245 6.83032   4
  -8  -2  -5 66.5544 8.78281  11
   8  -2   5 73.5680 6.00623  12
   8   2   5 63.4743 5.90221  12
  -8   2  -5 69.1206 7.97652  11
  -8   2  -5 78.1482 7.48912   1
 -11  -3   5 199.031 11.0897   5
  11  -3  -5 219.169 10.7739   4
 -11  -3   5 212.373 10.3261   8
 -11   3   5 204.452 13.0827  11
  11   3  -5 191.279 10.6786   4
 -11   3   5 209.535 10.9303   8
  -9  -3   5 993.254 32.2681  16
  -9  -3   5 967.647 27.0066   8
   9  -3  -5 1021.65 27.5172   9
  -9  -3   5 992.879 28.5608   5
   9  -3  -5 976.161 27.2995   4
   9   3  -5 1004.73 29.8365  14
   9   3  -5 987.591 27.9044   4
  -9   3   5 941.716 26.5481   5
  -9   3   5 992.378 29.6517  16
  -9   3   5 984.383 27.5585   8
  -7  -3   5 655.967 19.8803   5
   7  -3  -5 649.802 18.3377   4
   7  -3  -5 676.723 19.1704   9
  -7  -3   5 655.916 18.1936   8
  -7  -3   5 636.516 18.7323  11
  -7  -3   5 677.743 22.7914  16
   7   3  -5 672.512 19.2245   4
  -7   3   5 661.735 18.9390   8
   7   3  -5 668.887 20.5083  14
   7   3  -5 663.506 17.6187   9
  -7   3   5 642.619 19.0128  13
  -7   3   5 650.936 18.6878  12
  -7   3   5 664.510 20.9025  16
  -7   3   5 668.830 18.6624   5
  -5  -3   5 2606.05 60.8066   5
   5  -3  -5 2627.70 60.6621   6
  -5  -3   5 2557.66 59.0737   8
   5  -3  -5 2545.80 59.0801   4
   5  -3  -5 2620.14 60.6221   9
  -5  -3   5 2659.00 63.6824  16
  -5  -3   5 2626.45 60.2767  12
   5   3  -5 2701.63 61.9541  14
   5   3  -5 2618.95 59.6708   9
  -5   3   5 2651.43 60.0578  12
   5   3  -5 2561.30 60.2401   4
  -5   3   5 2685.65 63.5201  16
  -5   3   5 2553.04 60.3763  13
  -5   3   5 2592.25 60.3275   5
  -5   3   5 2628.61 60.1856   8
   3  -3  -5 1162.41 29.5373   9
  -3  -3   5 1249.51 31.6075  16
  -3  -3   5 1260.83 29.2028  12
   3  -3  -5 1203.43 30.5373   6
   3  -3  -5 1163.01 31.3334  15
  -3  -3   5 1269.66 29.6947   5
  -3  -3   5 1238.12 27.8481   8
   3   3  -5 1256.16 28.5498   3
  -3   3   5 1186.83 28.1426   3
  -3   3   5 1181.42 29.4905   8
   3   3  -5 1242.14 29.7057   9
   3   3  -5 1290.02 30.9962  14
   3   3  -5 1270.95 30.8198   7
  -3   3   5 1229.48 28.8003  12
  -3   3   5 1216.98 29.9949  13
   3   3  -5 1188.53 29.8240  15
  -1  -3   5 2962.34 65.0358  12
   1  -3  -5 2939.93 67.7243  11
   1  -3  -5 2864.94 67.5894   6
  -1  -3   5 2881.00 66.7786  16
   1  -3  -5 2945.82 68.3774  15
   1  -3  -5 2857.09 65.7217   9
  -1   3   5 3001.57 64.3144  12
  -1   3   5 2969.41 66.0342   3
   1   3  -5 2857.76 66.5235   9
   1   3  -5 2852.69 65.0893   1
  -1   3   5 2986.84 67.4570  13
  -1   3   5 2843.73 65.5584  14
   1   3  -5 2985.59 67.9465  15
  -1   3   5 3018.11 64.3129  12
   1   3  -5 2920.83 67.5729   7
  -1  -3  -5 407.784 13.6077  11
  -1  -3  -5 402.289 12.2353   1
  -1  -3  -5 394.099 12.9852   6
   1  -3   5 404.036 15.7260  10
  -1  -3  -5 383.957 10.7567   9
   1  -3   5 425.199 10.7675  12
  -1  -3  -5 400.967 13.3619  15
   1  -3   5 400.330 12.7762   2
  -1   3  -5 395.638 11.8953   1
   1   3   5 412.669 9.52386  12
  -1   3  -5 416.915 13.6225   7
  -1   3  -5 386.571 11.4794  11
   1   3   5 409.486 13.2224  14
   1   3   5 406.162 9.53713  12
   1   3   5 408.470 12.5521  10
  -3  -3  -5 1667.71 40.4741   1
  -3  -3  -5 1606.50 40.3722   6
   3  -3   5 1508.20 45.2078  10
   3  -3   5 1598.10 39.9679   2
  -3  -3  -5 1741.75 43.1413  11
  -3  -3  -5 1632.36 41.1684  15
   3  -3   5 1635.72 38.1787  12
  -3   3  -5 1510.67 40.2716  11
  -3   3  -5 1598.30 42.1392   7
  -3   3  -5 1605.48 40.2833   1
   3   3   5 1684.06 37.4062  12
   3   3   5 1659.92 42.7179  14
   3   3   5 1605.12 38.5487   4
  -5  -3  -5 68.6508 7.32275  11
   5  -3   5 70.9837 4.87707  12
   5  -3   5 71.5290 6.39906   4
  -5  -3  -5 81.5647 6.35921   1
  -5   3  -5 71.1874 6.72373   7
  -5   3  -5 84.0340 6.77758  11
   5   3   5 77.6963 7.52560  14
   5   3   5 70.3049 4.43530  12
  -5   3  -5 71.9899 5.70319   1
   5   3   5 76.9074 5.40876   4
   7  -3   5 737.201 22.4125  12
  -7  -3  -5 727.254 26.9857  11
  -7  -3  -5 738.785 24.0176   1
   7  -3   5 752.181 23.9268   4
  -7   3  -5 710.468 23.9977   1
  -7   3  -5 716.976 25.7319  11
   7   3   5 720.404 21.6069  12
 -12  -4   5 -2.1876 2.78360   5
  12  -4  -5 -1.0081 2.33287   4
 -12   4   5 3.43514 2.21746   8
 -12   4   5 -0.0349 4.90714  11
  12   4  -5 1.80227 2.56288   4
 -10  -4   5 43.3325 6.71799  16
 -10  -4   5 53.1885 5.68971   8
 -10  -4   5 52.3971 6.51137   5
  10  -4  -5 50.7489 5.60029   9
  10  -4  -5 55.5652 5.63022   4
 -10   4   5 54.7529 5.80570   8
 -10   4   5 47.5398 7.01016  11
  10   4  -5 43.4677 6.09034  14
  10   4  -5 45.9808 5.23012   4
   8  -4  -5 3.23450 1.77359   9
  -8  -4   5 5.18937 2.92029   5
  -8  -4   5 9.66014 3.89911  16
   8  -4  -5 3.96583 1.52351   4
  -8  -4   5 2.68220 1.96392   8
   8   4  -5 0.31426 1.38252   4
  -8   4   5 5.77486 2.06924   5
  -8   4   5 2.76918 1.83383   8
   8   4  -5 2.93412 2.17137  14
  -8   4   5 1.30591 1.57311  13
  -8   4   5 2.14300 1.99301  16
  -6  -4   5 49.1282 5.18106  16
   6  -4  -5 54.2674 3.95448   6
   6  -4  -5 50.1234 3.32091   4
  -6  -4   5 65.3757 4.70524   5
  -6  -4   5 50.5742 3.33848   8
  -6  -4   5 50.4418 3.79195  12
   6  -4  -5 48.1794 3.90349   9
  -6   4   5 60.0246 4.36533   8
  -6   4   5 54.8746 3.42988   1
   6   4  -5 55.7699 3.25641   9
  -6   4   5 51.4300 3.70838   5
   6   4  -5 55.7218 4.94175  14
   6   4  -5 70.0276 4.65538   4
  -6   4   5 57.7211 4.20635  13
  -6   4   5 57.6539 3.81477  12
  -6   4   5 54.7823 4.72611  16
  -4  -4   5 123.050 4.28776   8
  -4  -4   5 122.189 5.38103  12
   4  -4  -5 129.264 6.09321   6
  -4  -4   5 135.969 7.49959  16
   4  -4  -5 129.418 5.73123   9
  -4  -4   5 130.622 5.96716   5
   4   4  -5 125.177 5.60118   4
  -4   4   5 116.206 5.75220  13
  -4   4   5 121.349 5.57186   8
   4   4  -5 124.320 4.95227  15
  -4   4   5 113.533 4.49718   3
  -4   4   5 129.406 5.34028  12
  -4   4   5 126.241 7.36845  16
   4   4  -5 122.504 6.25499   7
   4   4  -5 135.124 6.73218  14
   4   4  -5 135.973 5.36270   9
   4   4  -5 130.820 4.94251   3
  -2  -4   5 19.9736 2.77085  16
   2  -4  -5 21.9237 3.06270  15
  -2  -4   5 23.4983 2.40120   5
   2  -4  -5 23.2408 2.24602   9
  -2  -4   5 23.2274 2.15447  12
   2  -4  -5 18.7307 2.79451   6
   2   4  -5 22.3740 1.54276   1
   2   4  -5 22.9560 2.91473   7
  -2   4   5 23.0629 1.88832  12
   2   4  -5 25.3405 2.28774   3
   2   4  -5 22.0246 2.43906   9
   2   4  -5 20.5845 2.36365  15
  -2   4   5 21.9367 2.09197   3
  -2   4   5 29.7043 3.06486  13
   0  -4  -5 351.464 10.2165   9
   0  -4  -5 358.123 12.4523   6
   0  -4   5 376.137 14.8540  10
   0  -4   5 370.866 12.3216   2
   0  -4  -5 352.809 12.4894  15
   0  -4   5 369.622 10.4438  12
   0  -4  -5 368.183 12.6623  11
   0   4   5 368.378 9.70975  12
   0   4  -5 365.230 10.7580   1
   0   4  -5 363.157 12.4242   7
   0   4   5 358.484 11.1815  14
   0   4   5 374.951 12.7241  13
   0   4   5 393.447 11.7889   3
   0   4   5 378.416 11.0606  10
  -2  -4  -5 116.461 6.43270  15
  -2  -4  -5 125.051 6.31989   1
   2  -4   5 129.930 9.20287  10
   2  -4   5 125.100 6.52875   2
  -2  -4  -5 120.785 7.31992  11
   2  -4   5 119.593 5.21258  12
  -2  -4  -5 124.204 6.64258   6
  -2   4  -5 133.525 7.35674   7
   2   4   5 125.879 7.15271  14
   2   4   5 120.390 4.54602  12
  -2   4  -5 122.386 5.95493   1
  -4  -4  -5 182.607 8.96354   1
   4  -4   5 171.142 8.30985   2
  -4  -4  -5 184.740 10.5581  11
  -4  -4  -5 169.090 8.45315   6
   4  -4   5 169.015 7.34042  12
   4   4   5 173.313 6.87950  12
  -4   4  -5 157.618 8.18076   1
  -4   4  -5 156.593 8.36812  11
  -4   4  -5 169.048 9.89187   7
   4   4   5 180.025 10.1824  14
  -6  -4  -5 175.273 10.2690   1
  -6  -4  -5 187.972 12.3955  11
   6  -4   5 193.198 9.07287  12
   6  -4   5 201.088 10.7462   4
  -6   4  -5 196.762 10.7276   1
   6   4   5 177.813 11.7672  14
   6   4   5 179.951 8.39114  12
  11  -5  -5 540.769 18.8458   9
 -11  -5   5 530.566 20.0913   5
  11  -5  -5 534.957 18.5136   4
 -11   5   5 557.247 23.1148  11
 -11   5   5 534.452 18.8985   8
  11   5  -5 571.932 19.8742   4
   9  -5  -5 213.271 9.28240   4
  -9  -5   5 218.424 13.7735  16
  -9  -5   5 238.533 11.8480   5
   9  -5  -5 227.800 10.7659   9
  -9   5   5 218.371 10.9934  13
   9   5  -5 229.805 12.2886  14
   9   5  -5 227.211 10.6855   4
  -9   5   5 233.827 10.2989   8
   7  -5  -5 875.907 24.2130   9
   7  -5  -5 808.492 21.9736   4
  -7  -5   5 775.721 21.8543   8
  -7  -5   5 826.417 24.4893   5
  -7  -5   5 849.017 27.9264  16
  -7   5   5 833.671 23.3098   8
  -7   5   5 831.392 24.2221  13
  -7   5   5 831.355 25.0939  16
   7   5  -5 807.967 23.3468   4
  -7   5   5 848.778 22.3250   1
  -7   5   5 844.364 22.6679   5
   7   5  -5 917.945 26.4045  14
   5  -5  -5 341.403 12.4808   2
  -5  -5   5 339.454 11.3811  12
   5  -5  -5 326.196 11.4337   6
   5  -5  -5 340.575 11.8205   9
  -5  -5   5 332.075 11.3749   2
  -5  -5   5 364.242 14.3861  16
  -5  -5   5 362.291 12.1588   5
  -5  -5   5 357.605 10.3270   8
   5   5  -5 372.414 11.8067   4
   5   5  -5 349.747 13.0718  14
  -5   5   5 338.659 11.3251   8
  -5   5   5 330.740 12.0177  13
  -5   5   5 330.551 13.2263  16
   5   5  -5 347.716 12.6810   7
  -5   5   5 333.507 11.1962  12
   5   5  -5 335.574 10.5136   9
   5   5  -5 353.719 10.7072   3
   3  -5  -5 1521.57 37.4146   9
  -3  -5   5 1547.31 38.4532   2
  -3  -5   5 1557.44 37.4463  12
  -3  -5   5 1536.09 39.5416  16
   3  -5  -5 1597.54 38.9378   6
   3  -5  -5 1590.93 40.2779  15
  -3  -5   5 1579.71 37.3664   5
   3   5  -5 1574.25 39.1102   7
   3   5  -5 1561.85 37.2449   3
  -3   5   5 1532.75 36.9293  12
  -3   5   5 1533.65 37.4112   8
   3   5  -5 1549.71 37.3052   9
  -3   5   5 1567.17 38.6165  13
   3   5  -5 1498.81 39.2915  14
  -3   5   5 1545.72 36.6876   3
  -1  -5   5 744.122 20.8846   2
  -1  -5   5 708.951 18.8420  12
  -1  -5   5 692.722 19.1886  16
  -1  -5   5 736.526 23.5410  10
   1  -5  -5 703.525 20.8170  15
  -1  -5   5 711.551 17.8284   5
   1  -5  -5 717.452 20.8344   6
   1  -5  -5 677.992 18.2676   9
   1   5  -5 705.957 18.0742   1
  -1   5   5 721.625 19.3260   3
   1   5  -5 719.080 20.7061   7
  -1   5   5 730.854 18.2602  12
  -1   5   5 736.261 20.8041  13
   1   5  -5 717.076 19.6117   3
  -1  -5  -5 1615.19 42.3518  11
   1  -5   5 1675.37 39.3168  12
   1  -5   5 1616.22 45.6178  10
  -1  -5  -5 1608.60 41.8508   6
  -1  -5  -5 1615.82 41.2046  15
   1  -5   5 1699.51 41.6970   2
   1   5   5 1644.16 38.3389  12
  -1   5  -5 1581.66 39.5185   1
   1   5   5 1620.82 42.1378  13
   1   5   5 1681.97 40.9716   3
  -1   5  -5 1716.42 42.2955   7
   1   5   5 1631.96 40.6137  14
  -3  -5  -5 691.468 21.5166   6
  -3  -5  -5 664.043 20.1151   1
   3  -5   5 696.847 19.2609  12
  -3  -5  -5 630.275 21.5847  15
  -3  -5  -5 681.828 22.6779  11
   3  -5   5 710.613 21.1761   2
  -3   5  -5 681.740 20.2611   1
   3   5   5 701.151 21.4460   3
   3   5   5 688.982 18.4423  12
  -3   5  -5 696.954 22.3073   7
   3   5   5 665.336 21.6601  14
  -5  -5  -5 923.221 27.2207   1
  -5  -5  -5 955.967 30.5689  11
   5  -5   5 916.752 25.8978  12
   5  -5   5 879.759 27.0978   4
   5   5   5 906.240 29.6185  14
  -5   5  -5 913.249 29.5210   7
  -5   5  -5 910.567 27.4399   1
   5   5   5 929.334 28.2944   3
   5   5   5 943.789 25.1902  12
   7  -5   5 257.224 11.8542  12
  -7  -5  -5 268.003 15.4114  11
  -7  -5  -5 250.170 12.2442   1
   7  -5   5 274.670 12.8834   4
   7   5   5 270.246 11.3039  12
   7   5   5 242.489 13.0221   3
  -7   5  -5 277.297 13.2092   1
  10  -6  -5 19.2248 4.35529   9
 -10  -6   5 13.6513 4.66890   5
 -10   6   5 15.7686 3.74906   8
  10   6  -5 11.7090 3.77558   4
  -8  -6   5 38.7579 6.32824  16
   8  -6  -5 37.4311 4.65428   9
  -8  -6   5 43.2509 5.60543   5
  -8   6   5 36.0701 4.40870   8
  -8   6   5 37.1495 4.97906  13
   8   6  -5 33.6406 4.48604   4
   8   6  -5 36.5331 5.56928  14
  -8   6   5 35.1789 4.02259   1
   6  -6  -5 10.1542 3.07474   2
  -6  -6   5 7.64147 2.92853  16
   6  -6  -5 8.85519 2.26944   6
  -6  -6   5 10.9104 3.34350   5
  -6  -6   5 15.5400 2.57086   2
   6  -6  -5 6.50598 1.99760   9
   6   6  -5 7.52969 2.79524  14
  -6   6   5 10.4620 2.15687  12
   6   6  -5 6.46584 1.98173   4
  -6   6   5 7.26652 2.10992   5
   6   6  -5 13.6481 3.02794   7
  -6   6   5 9.00554 2.78033  13
  -6   6   5 6.44621 2.41665   8
  -6   6   5 6.55605 2.41203  16
  -4  -6   5 4.52348 1.43897  12
  -4  -6   5 5.21244 2.20065   2
   4  -6  -5 4.91923 1.76474   6
   4  -6  -5 6.54726 2.06076   2
   4  -6  -5 10.4050 2.31486   9
  -4  -6   5 4.67361 2.11890   5
  -4  -6   5 12.5555 3.24238  16
  -4   6   5 6.44605 1.64218   3
  -4   6   5 4.40001 1.85157  13
  -4   6   5 7.60977 1.83488   8
   4   6  -5 3.48383 1.49407   3
   4   6  -5 9.45762 1.91809   9
   4   6  -5 5.03071 2.28034  14
  -4   6   5 4.89964 1.62377  12
  -2  -6   5 204.651 7.36155   5
   2  -6  -5 201.424 9.15287   6
   2  -6  -5 197.867 9.30692  15
  -2  -6   5 215.445 9.29820   2
  -2  -6   5 193.597 7.89208  12
  -2  -6   5 205.812 8.70291  16
   2  -6  -5 207.478 8.71272   2
   2  -6  -5 198.530 7.47260   9
  -2  -6   5 204.373 10.5255  10
   2   6  -5 204.589 7.96285   1
  -2   6   5 210.364 9.17083  13
  -2   6   5 201.401 7.78121   3
   2   6  -5 200.634 8.08424   3
  -2   6   5 198.195 7.47469  12
   2   6  -5 210.722 9.26580   7
   0  -6   5 7.98840 2.94705  10
   0  -6  -5 6.88258 2.05007  15
   0  -6   5 8.29491 1.90978  12
   0  -6  -5 13.8121 3.11657   6
   0  -6   5 8.50910 2.40948   2
   0  -6  -5 10.5985 2.86428  11
   0   6  -5 7.35818 2.19313   7
   0   6   5 12.6405 2.58015   3
   0   6  -5 7.59563 2.26719   3
   0   6   5 7.15413 2.48453  13
   0   6  -5 4.38956 1.54780   1
   0   6   5 7.02308 1.59494  12
  -2  -6  -5 207.423 10.1466   6
  -2  -6  -5 194.973 8.91513  15
  -2  -6  -5 241.242 11.4810  11
   2  -6   5 211.428 10.1819   2
   2  -6   5 214.448 12.8055  10
   2  -6   5 206.844 8.41586  12
   2   6   5 200.328 7.92240  12
  -2   6  -5 205.322 10.0855   7
  -2   6  -5 228.063 9.16905   1
   2   6   5 200.612 9.44730   3
   2   6   5 202.674 10.2287  13
   4  -6   5 99.2360 7.53041   2
  -4  -6  -5 98.6508 8.77749  11
  -4  -6  -5 91.2519 6.92852   6
   4  -6   5 91.2671 6.09341  12
   4   6   5 93.7757 5.72269  12
  -4   6  -5 84.9813 7.16322   7
  -4   6  -5 84.6215 6.76292   1
   4   6   5 106.668 7.49721   3
   4   6   5 88.0751 7.59424  14
  -6  -6  -5 69.8887 8.59012  11
   6  -6   5 59.4772 5.75308  12
   6  -6   5 56.6646 6.15621   4
  -6   6  -5 54.3526 6.54503   1
   6   6   5 57.3641 5.10004  12
   6   6   5 65.8137 6.81051   3
  -9  -7   5 337.633 18.8375  16
  -9  -7   5 352.432 15.8563   5
   9  -7  -5 372.688 15.1328   9
  -9   7   5 379.848 14.2799   8
   9   7  -5 344.223 14.1251   4
  -9   7   5 340.159 14.9900  13
  -9   7   5 344.299 13.5333   1
   9   7  -5 371.938 17.1906  14
  -7  -7   5 1226.04 33.3567   5
  -7  -7   5 1172.63 36.8300  16
   7  -7  -5 1152.89 33.3343   2
   7  -7  -5 1181.79 32.6646   9
  -7   7   5 1155.12 30.9321   1
  -7   7   5 1149.24 33.1724  13
   7   7  -5 1209.84 34.4720   7
  -7   7   5 1157.10 31.4748   8
   7   7  -5 1195.39 35.3217  14
   7   7  -5 1213.93 31.9960   4
  -5  -7   5 839.656 24.0124   5
   5  -7  -5 819.956 23.4225   6
  -5  -7   5 807.708 26.8840  16
   5  -7  -5 839.908 25.1304   2
   5  -7  -5 822.294 23.6418   9
  -5  -7   5 814.627 23.5522   2
   5   7  -5 813.156 22.9509   3
  -5   7   5 862.578 26.5506  16
  -5   7   5 827.503 23.0352   8
   5   7  -5 830.071 25.8731  14
   5   7  -5 802.375 24.9214   7
  -5   7   5 867.361 24.9523  13
  -5   7   5 846.479 23.3236  12
  -3  -7   5 1557.33 42.4026  16
  -3  -7   5 1637.63 40.6674  12
  -3  -7   5 1533.96 43.9784  10
  -3  -7   5 1654.74 41.9504   2
   3  -7  -5 1675.02 40.3485   9
  -3  -7   5 1636.71 39.9261   5
   3  -7  -5 1692.90 42.1286   6
   3  -7  -5 1676.38 42.1386   2
  -3   7   5 1628.88 40.1658   3
  -3   7   5 1660.24 40.2849  12
   3   7  -5 1592.14 40.5427   3
  -3   7   5 1676.65 40.4426   8
   3   7  -5 1612.71 42.1206   7
  -3   7   5 1678.67 42.2519  13
   1  -7  -5 515.627 17.6386   6
  -1  -7   5 501.046 19.7065  10
  -1  -7   5 509.534 17.4900   2
  -1  -7   5 511.146 15.6991  12
   1  -7  -5 509.218 14.4838   9
   1  -7  -5 511.289 17.1792  15
  -1   7   5 503.236 17.1878  13
   1   7  -5 521.292 17.3950   7
  -1   7   5 527.333 15.3357  12
  -1   7   5 532.633 16.2559   3
   1   7  -5 506.246 14.6137   1
   1   7  -5 522.621 16.5970   3
  -1  -7  -5 916.369 27.8217   6
  -1  -7  -5 917.554 26.2130  15
   1  -7   5 909.261 31.0503  10
   1  -7   5 925.586 27.3828   2
   1  -7   5 921.472 25.2221  12
  -1  -7  -5 961.455 28.4312  11
   1   7   5 944.153 24.7565  12
   1   7   5 928.448 27.9115  13
  -1   7  -5 935.809 27.4858   7
  -1   7  -5 911.107 24.9925   1
   1   7   5 938.743 26.4503   3
   3  -7   5 105.041 8.09346   2
  -3  -7  -5 95.3200 7.81036   6
   3  -7   5 109.072 6.68287  12
  -3  -7  -5 106.757 8.78736  11
   3   7   5 109.102 6.10752  12
   3   7   5 93.1111 7.17450  14
   3   7   5 106.440 7.94251   3
  -3   7  -5 109.410 6.84823   1
   3   7   5 92.6840 7.36318  13
  -3   7  -5 99.2643 7.50880   7
  -5  -7  -5 416.276 17.2920   6
  -5  -7  -5 445.034 19.8324  11
   5  -7   5 426.850 15.9388  12
   5  -7   5 432.313 16.3808   4
  -5   7  -5 431.008 16.5562   1
   5   7   5 452.032 18.1303   3
  -5   7  -5 453.158 18.7324   7
   5   7   5 408.367 17.9247  14
   5   7   5 435.469 15.2975  12
 -10  -8   5 81.2185 8.96661   5
  10  -8  -5 75.4099 6.96377   9
  10   8  -5 85.7204 8.95810   7
  10   8  -5 80.7082 7.05260   4
 -10   8   5 78.6075 6.71076   8
  -8  -8   5 463.192 18.0726   5
   8  -8  -5 469.914 17.4604   9
  -8  -8   5 460.788 21.3271  16
   8   8  -5 442.758 18.9034  14
  -8   8   5 438.482 15.6403   1
  -8   8   5 407.814 16.8530  13
   8   8  -5 474.615 16.4153   4
  -8   8   5 447.958 15.7625   8
   8   8  -5 437.051 18.4404   7
  -6  -8   5 294.614 15.1102  16
   6  -8  -5 285.344 13.3002   2
  -6  -8   5 315.487 12.7921   5
   6  -8  -5 297.657 12.3833   9
  -6   8   5 292.197 13.0575  13
   6   8  -5 272.965 13.4619  14
  -6   8   5 313.709 11.7293   8
   6   8  -5 287.077 13.1054   7
   4  -8  -5 244.462 11.2873   2
  -4  -8   5 203.615 10.7698  12
  -4  -8   5 227.965 10.4794   2
  -4  -8   5 226.999 9.87031   5
   4  -8  -5 242.347 10.7067   6
  -4  -8   5 234.445 11.8062  16
   4  -8  -5 243.115 10.0429   9
  -4   8   5 230.278 9.36045   8
   4   8  -5 249.447 11.4122   7
  -4   8   5 240.023 9.73336   3
  -4   8   5 225.451 9.52365  12
  -4   8   5 236.541 10.9986  13
   4   8  -5 220.031 9.71811   3
   4   8  -5 218.641 11.4434  14
  -2  -8   5 608.932 22.5340  10
   2  -8  -5 631.783 20.6378   6
   2  -8  -5 648.295 20.1854   2
  -2  -8   5 646.286 20.7331   2
  -2  -8   5 615.020 19.1339  12
   2  -8  -5 621.602 20.8885  15
   2  -8  -5 636.362 18.0967   9
  -2   8   5 648.001 19.5140   3
  -2   8   5 644.739 20.7794  13
   2   8  -5 650.724 20.8761   7
  -2   8   5 634.716 18.8388  12
   2   8  -5 642.329 19.7860   3
  -2   8   5 629.473 18.8461   8
   0  -8   5 81.6601 7.28075   2
   0  -8   5 80.3129 5.63379  12
   0  -8  -5 73.2572 5.64943  15
   0  -8  -5 75.4286 6.95803   6
   0  -8   5 76.1876 7.26160  10
   0   8   5 73.1582 5.98926  13
   0   8   5 86.4185 6.38174   3
   0   8  -5 76.4073 6.08382   7
   0   8   5 75.5643 5.08870  12
   0   8  -5 78.2646 5.00354   1
   0   8  -5 80.0326 6.01336   3
   2  -8   5 306.139 13.7660   2
   2  -8   5 297.394 11.8949  12
  -2  -8  -5 302.592 14.5345  11
  -2  -8  -5 288.217 13.9973   6
   2   8   5 310.821 11.6456  12
  -2   8  -5 309.245 12.1346   1
   2   8   5 294.367 12.9255   3
   2   8   5 309.564 14.0313  13
  -2   8  -5 301.957 13.7237   7
  -4  -8  -5 99.1351 8.64209   6
   4  -8   5 100.617 7.16721  12
   4  -8   5 111.994 9.08189   2
  -4  -8  -5 95.9939 9.41531  11
   4   8   5 103.700 6.75523  12
   4   8   5 110.953 8.20032   3
  -4   8  -5 109.036 8.45758   7
  -4   8  -5 96.7408 7.58507   1
   4   8   5 108.658 8.73823  13
   6  -8   5 12.6985 3.92251   4
   6  -8   5 21.2180 4.24797  12
  -6  -8  -5 14.1427 5.94880  11
   6   8   5 27.0437 5.90611   3
   6   8   5 18.2845 3.61754  12
  -6   8  -5 22.1876 4.71068   1
   9  -9  -5 965.145 29.5368   9
  -9  -9   5 991.004 30.8413   5
  -9   9   5 893.656 26.9446   8
   9   9  -5 917.901 30.8039   7
  -9   9   5 892.377 27.4646   1
  -7  -9   5 10.3110 4.30256   5
   7  -9  -5 6.82552 2.57625   9
   7  -9  -5 7.07418 4.00235   2
  -7  -9   5 8.40375 4.44221  16
  -7   9   5 6.67626 3.13435   1
  -7   9   5 8.03862 2.83069   8
   7   9  -5 11.4791 3.51066   7
   7   9  -5 6.23428 2.85983  14
  -7   9   5 13.3869 3.98480  13
  -5  -9   5 1066.83 30.7742   2
   5  -9  -5 1124.52 30.9828   9
  -5  -9   5 1039.72 33.8855  16
   5  -9  -5 1126.90 32.8764   2
   5  -9  -5 1125.90 30.8807   6
  -5  -9   5 1119.17 30.9950   5
  -5   9   5 1104.38 32.2623  13
   5   9  -5 1123.36 33.9168  14
   5   9  -5 1070.42 30.5114   3
  -5   9   5 1128.18 29.9430   8
   5   9  -5 1103.62 32.4877   7
   3  -9  -5 8.48330 2.66609  15
   3  -9  -5 19.9982 3.78942   2
  -3  -9   5 10.1504 3.57841   2
   3  -9  -5 21.4785 4.32978   6
   3  -9  -5 10.6031 2.65319   9
  -3   9   5 9.76208 2.70635   8
  -3   9   5 12.7636 3.16055   3
   3   9  -5 10.2373 2.58206   3
  -3   9   5 9.76728 3.35277  13
   3   9  -5 9.26108 3.37355   7
  -3   9   5 11.8172 2.61700  12
   1  -9  -5 1487.81 41.0055   6
  -1  -9   5 1403.58 38.4822  12
  -1  -9   5 1503.39 41.1530   2
   1  -9  -5 1487.91 39.0772   2
   1  -9  -5 1439.06 39.7184  15
   1   9  -5 1474.57 39.7956   3
  -1   9   5 1521.24 39.4277   3
   1   9  -5 1475.68 37.0560   1
  -1   9   5 1514.93 38.2224  12
   1   9  -5 1493.03 40.3723   7
  -1   9   5 1466.61 40.4647  13
   1  -9   5 144.348 8.22361  12
   1  -9   5 151.691 10.3069   2
  -1  -9  -5 136.100 9.73080   6
  -1   9  -5 140.835 7.76867   1
   1   9   5 148.236 7.85598  12
  -1   9  -5 154.287 9.06742   7
   1   9   5 138.774 9.22607  13
   1   9   5 143.522 9.11131   3
   3  -9   5 1247.35 35.0011  12
   3  -9   5 1294.38 37.5916   2
  -3  -9  -5 1303.25 38.6509  11
  -3  -9  -5 1224.06 37.8352   6
  -3   9  -5 1269.30 35.1638   1
  -3   9  -5 1311.82 37.5284   7
   3   9   5 1276.10 37.0695   3
   3   9   5 1262.34 34.3943  12
   3   9   5 1194.42 37.2880  13
  -5  -9  -5 214.460 12.5962   6
   5  -9   5 205.720 11.1374   4
  -5  -9  -5 195.474 12.8116  11
   5  -9   5 225.330 11.3119  12
  -5   9  -5 197.515 11.1990   1
   5   9   5 209.247 10.4867  12
  -5   9  -5 209.630 12.7863   7
   5   9   5 212.581 12.7400   3
  -8 -10   5 25.9039 5.70043   5
   8 -10  -5 44.2370 5.61712   9
   8  10  -5 37.1991 5.86327   7
  -8  10   5 43.0172 5.52679   1
  -6 -10   5 2.60833 2.69995   5
   6 -10  -5 -0.7618 2.35783   9
   6 -10  -5 -3.3483 3.30608   2
  -6  10   5 -0.0239 1.48012   8
  -6  10   5 0.12353 3.22573  13
   6  10  -5 2.71740 2.52213   7
   6  10  -5 1.63770 3.63128  14
   4 -10  -5 2.05915 2.06970   2
   4 -10  -5 8.83233 2.87113   9
   4 -10  -5 0.55002 2.61246   6
  -4 -10   5 3.64470 2.47773   2
   4  10  -5 -0.6799 1.85791   7
  -4  10   5 0.73930 2.61647  13
  -4  10   5 0.94991 2.07542   8
   4  10  -5 2.64218 2.45118   3
  -4  10   5 0.83241 2.33890   3
   2 -10  -5 81.0456 6.55334   2
   2 -10  -5 83.6941 7.08164  15
   2 -10  -5 72.8546 7.19473   6
  -2 -10   5 92.6777 8.51307   2
  -2  10   5 75.9569 5.84231  12
  -2  10   5 78.2025 6.83641   3
  -2  10   5 78.8073 6.69552  13
  -2  10   5 83.7531 6.02794   8
   2  10  -5 78.8509 6.73357   3
   2  10  -5 65.8909 6.78905   7
   0 -10  -5 13.8725 4.51841   6
   0 -10   5 9.41257 2.96601  12
   0 -10   5 8.69572 4.27831   2
   0  10  -5 11.6885 3.64837   3
   0  10   5 8.91223 3.35949  13
   0  10   5 10.7245 2.65148  12
   0  10  -5 11.1716 3.28751   7
   0  10   5 7.07032 3.46190   3
   0  10  -5 10.6162 2.63592   1
   2 -10   5 52.6995 5.80918  12
  -2 -10  -5 64.5859 8.07715   6
   2 -10   5 51.5903 7.52488   2
   2  10   5 41.3534 6.35529  13
  -2  10  -5 49.2522 5.21295   1
  -2  10  -5 57.2885 6.83171   7
   2  10   5 47.7641 6.27181   3
   2  10   5 56.5304 5.12315  12
  -4 -10  -5 4.40294 3.70812   6
  -4 -10  -5 6.00922 4.43686  11
   4 -10   5 4.17898 2.39889   4
   4 -10   5 3.42209 2.06654  12
   4 -10   5 4.46212 4.38993   2
  -4  10  -5 5.19935 4.00770   7
   4  10   5 3.81024 3.96146   3
  -4  10  -5 5.56738 2.53357   1
   4  10   5 3.30760 2.43364  12
  -7 -11   5 397.816 16.7560   5
   7 -11  -5 448.822 19.1020   2
   7 -11  -5 428.052 17.1324   9
  -7 -11   5 408.722 19.1154   6
  -7  11   5 421.820 16.5743   1
   5 -11  -5 777.582 26.1140   2
   5 -11  -5 732.513 23.3520   9
   5  11  -5 680.996 23.4671   3
  -5  11   5 721.910 22.0754   8
   5  11  -5 738.311 25.1419   7
  -3 -11   5 569.600 21.0460   2
   3 -11  -5 579.714 20.7281   6
  -3 -11   5 566.614 20.3619   6
   3 -11  -5 554.246 20.6501   2
   3 -11  -5 543.578 20.8137  15
  -3  11   5 540.744 20.5918  13
   3  11  -5 523.272 19.6490   3
   3  11  -5 555.899 20.2226   7
  -3  11   5 552.718 18.1488   8
  -3  11   5 531.645 19.3970   3
  -1 -11   5 401.863 17.8474   2
   1 -11  -5 410.423 17.7796   6
   1  11  -5 404.555 16.8947   3
   1  11  -5 397.765 16.6321   7
  -1  11   5 387.578 14.6389   8
  -1  11   5 396.505 16.8436  13
  -1  11   5 393.748 15.3188  12
  -1  11   5 406.613 16.5030   3
   1 -11   5 315.766 16.1719   2
  -1 -11  -5 321.159 16.1974   6
  -1  11  -5 294.640 12.5813   1
   1  11   5 295.059 13.9791   3
  -1  11  -5 307.195 14.4288   7
   1  11   5 291.246 12.9256  12
   3 -11   5 77.3263 8.45061   2
  -3 -11  -5 78.4651 9.11721   6
   3  11   5 84.2823 6.52170  12
   3  11   5 84.2774 7.96486   3
  -3  11  -5 80.0064 7.11740   1
   6 -12  -5 85.4829 6.91815   9
  -6 -12   5 97.3153 9.80032   6
   6 -12  -5 100.036 9.20543   2
   6  12  -5 81.4453 8.20622   7
   4 -12  -5 135.541 10.2109  15
   4 -12  -5 142.714 9.84819   2
  -4 -12   5 155.312 10.9156   6
   4  12  -5 140.414 9.10084   3
   4  12  -5 143.075 10.1163   7
   2 -12  -5 10.5213 4.55959   6
  -2 -12   5 14.8042 4.27579   2
   2 -12  -5 16.2881 4.00906   2
  -2  12   5 15.1334 3.57476   3
  -2  12   5 11.5339 3.05101   8
   2  12  -5 11.8235 4.22268   7
   2  12  -5 13.3510 3.48353   3
   0 -12   5 237.960 13.2757   2
   0 -12  -5 209.102 12.6374   6
   0  12   5 207.745 12.3011   3
   0  12   5 206.053 10.5943  12
   0  12  -5 199.041 11.6787   3
   0  12   5 217.547 10.3568   8
  -2 -12  -5 8.99511 3.81161   6
   2 -12   5 10.7979 5.39382   2
   2  12   5 17.5823 3.40074  12
   2  12   5 12.8664 4.66092   3
  -3 -13   5 426.944 18.1264   2
   3 -13  -5 419.714 17.8946   2
   3  13  -5 418.590 17.7990   3
   1 -13  -5 50.0629 7.56493   6
  -1 -13   5 44.8632 6.98051   2
  -1  13   5 40.3690 6.34028   3
   1  13  -5 51.2791 6.89157   3
  12   0  -6 11.8720 3.70479   4
 -12   0   6 11.8053 4.60681  11
 -12   0   6 7.72394 3.86448   8
 -10   0   6 1470.51 43.3374  16
  10   0  -6 1499.94 39.4249   4
 -10   0   6 1481.88 41.3671  11
 -10   0   6 1456.93 39.4492   5
 -10   0   6 1505.08 39.2345   8
  -8   0   6 122.007 6.76559   8
  -8   0   6 119.617 7.10974   5
   8   0  -6 147.985 7.21694   4
   8   0  -6 137.294 6.61351   9
  -8   0   6 137.239 9.07762  16
  -8   0   6 113.988 6.24102  12
  -6   0   6 3835.05 85.6805   5
   6   0  -6 3761.01 84.2000  14
   6   0  -6 3750.69 86.0575  15
   6   0  -6 3711.02 84.8852   4
  -6   0   6 3737.55 84.5347   8
  -6   0   6 3778.36 84.8198  12
  -6   0   6 3814.89 88.7422  16
  -6   0   6 3561.31 83.1627  13
   6   0  -6 3723.19 84.9655   9
  -4   0   6 17.9202 1.79776  12
  -4   0   6 24.0202 2.74557   5
  -4   0   6 19.8876 1.48750  13
   4   0  -6 28.4406 2.40409   7
  -4   0   6 24.7642 3.15895  16
   4   0  -6 16.5622 2.26290   9
   4   0  -6 17.8054 2.09930   4
  -4   0   6 19.0347 2.12469   8
  -2   0   6 7434.76 161.643  12
  -2   0   6 7058.89 163.019   8
   2   0  -6 7200.94 165.907   7
   2   0  -6 7428.80 172.937  15
  -2   0   6 7424.70 169.166  16
   2   0  -6 7287.86 164.339   9
   2   0  -6 7025.46 162.972   1
  -2   0   6 7051.35 161.591  13
  -2   0   6 7300.62 161.620  12
   2   0  -6 7392.94 165.518   6
   0   0  -6 160.115 6.93832   7
   0   0  -6 160.678 6.61098  11
   0   0  -6 166.921 6.34118   9
   0   0   6 163.852 8.48259  10
   0   0  -6 159.816 7.77119  15
   0   0  -6 161.888 6.68971   6
   0   0  -6 163.873 6.04496   1
  -2   0  -6 4693.46 107.716  15
  -2   0  -6 4604.74 106.433  11
   2   0   6 4646.46 109.513  10
  -2   0  -6 4581.36 105.131   1
  -2   0  -6 4605.35 104.271   6
  -2   0  -6 4769.13 106.851   7
  -4   0  -6 61.1338 5.35542   1
   4   0   6 54.2394 6.90569  14
  -4   0  -6 63.2236 6.20929  11
   4   0   6 63.6031 3.52266  12
   4   0   6 56.7951 4.74644   4
   6   0   6 1289.92 45.8483  14
   6   0   6 1360.54 36.7122   4
   6   0   6 1373.31 34.5495  12
  -6   0  -6 1343.51 37.4873   1
  -6   0  -6 1336.65 40.0012  11
 -11  -1   6 11.6165 3.80388   8
 -11  -1   6 16.1402 5.03913  16
 -11  -1   6 26.8195 4.90149   5
  11  -1  -6 20.1085 4.15275   4
 -11  -1   6 19.8608 4.94766  11
  11   1  -6 14.7364 3.28899   4
 -11   1   6 6.76510 4.25604  11
 -11   1   6 12.9254 3.46546   5
 -11   1   6 15.2947 3.50482   8
  -9  -1   6 156.938 10.2507  16
   9  -1  -6 164.558 7.99663   4
   9  -1  -6 139.774 7.39408   9
  -9  -1   6 151.887 8.22706   5
  -9  -1   6 153.985 8.08725   8
  -9  -1   6 153.184 8.75654  11
  -9   1   6 152.637 8.22827   8
  -9   1   6 153.780 8.19037   5
   9   1  -6 142.301 6.86492   9
   9   1  -6 151.650 8.10301   4
  -9   1   6 160.644 10.1150  16
  -9   1   6 156.376 9.29535  11
   7  -1  -6 328.557 12.3764  15
   7  -1  -6 340.828 11.5942   9
  -7  -1   6 348.209 14.4384  16
  -7  -1   6 349.148 12.2327   5
   7  -1  -6 332.633 11.2612   4
  -7  -1   6 331.727 11.3205  12
  -7  -1   6 345.040 11.2533   8
   7   1  -6 340.325 11.1457   9
   7   1  -6 330.676 11.6484   4
   7   1  -6 338.796 11.6446  14
  -7   1   6 317.093 10.5507  13
  -7   1   6 341.795 13.9954  16
  -7   1   6 325.702 11.7534   5
  -7   1   6 338.808 11.3814   8
  -7   1   6 327.572 11.2274  12
  -5  -1   6 21.0231 2.76815   5
  -5  -1   6 18.4800 2.22551   8
   5  -1  -6 16.1900 2.64839  15
   5  -1  -6 18.1962 1.99667   7
  -5  -1   6 19.9609 3.26742  16
   5  -1  -6 18.6119 2.54902   9
   5  -1  -6 21.4538 2.37974   4
   5   1  -6 19.7216 2.27089  14
  -5   1   6 20.0399 2.28446  12
  -5   1   6 20.1732 2.78393   5
   5   1  -6 20.7106 2.45106  15
  -5   1   6 24.6823 3.86653  16
  -5   1   6 18.8461 1.88931  13
   5   1  -6 20.7277 2.56990   9
  -5   1   6 20.7191 2.51071   8
   5   1  -6 23.0769 2.69667   4
   5   1  -6 22.4515 2.89342   7
  -3  -1   6 949.132 22.4410   8
   3  -1  -6 891.094 23.4911   9
   3  -1  -6 902.746 22.8514   7
  -3  -1   6 905.128 21.1898  13
   3  -1  -6 973.452 24.6332   6
  -3  -1   6 942.190 22.1905  12
  -3  -1   6 959.422 25.9625  16
  -3  -1   6 960.845 23.7395   5
   3  -1  -6 932.493 25.3020  15
   3   1  -6 904.740 23.8299   7
  -3   1   6 917.771 22.7313  13
  -3   1   6 952.764 23.0780   8
   3   1  -6 932.141 24.8834  15
   3   1  -6 927.689 23.7697   9
  -3   1   6 973.120 26.6956  16
  -3   1   6 974.792 22.1338  12
  -1  -1   6 41.3623 3.50097  16
   1  -1  -6 58.9054 3.38724   9
   1  -1  -6 43.1164 2.64295   1
   1  -1  -6 42.1134 3.24868  11
   1  -1  -6 50.9692 3.71841   6
   1  -1  -6 44.8569 3.79086  15
   1  -1  -6 45.9772 3.08276   7
  -1   1   6 45.7206 3.24458  13
   1   1  -6 46.9822 3.27246   9
   1   1  -6 54.6944 3.77825   7
   1   1  -6 50.7299 3.39028   6
   1   1  -6 51.6489 2.94396  11
   1   1  -6 48.0024 2.55808   1
   1   1  -6 53.7500 4.24521  15
  -1  -1  -6 240.010 10.0175  15
  -1  -1  -6 228.335 7.64990   9
   1  -1   6 231.275 11.2696  10
  -1  -1  -6 228.462 8.52631   6
  -1  -1  -6 219.498 8.72935   7
  -1  -1  -6 211.189 7.96740   1
  -1  -1  -6 231.546 9.19041  11
  -1   1  -6 208.669 7.99805   1
  -1   1  -6 220.661 8.09362   9
  -1   1  -6 220.425 9.90746  15
  -1   1  -6 216.867 9.16370   7
   1   1   6 233.034 10.3829  10
  -1   1  -6 217.732 8.38168  11
  -1   1  -6 204.468 7.54876   6
  -3  -1  -6 234.430 9.55517   1
   3  -1   6 236.560 7.06038  12
  -3  -1  -6 236.128 10.7050  11
   3  -1   6 224.194 12.3298  10
  -3  -1  -6 233.121 10.7383  15
  -3   1  -6 231.713 10.7423   7
   3   1   6 234.835 6.63037  12
   3   1   6 222.998 11.2603  14
   3   1   6 238.230 9.21711   4
  -3   1  -6 222.834 10.0641  11
  -3   1  -6 209.986 9.21508   1
   5  -1   6 7.88852 2.70557   4
  -5  -1  -6 2.44111 2.92684  11
   5  -1   6 11.7939 3.75714  14
  -5  -1  -6 6.64051 2.96251   1
   5  -1   6 8.78954 2.30484  12
  -5   1  -6 7.03900 2.58240   1
   5   1   6 5.14558 1.87016  12
  -5   1  -6 4.61883 2.97361  11
   5   1   6 6.90479 3.00334   4
   5   1   6 7.65308 3.93106  14
  -7  -1  -6 112.718 10.0579  11
   7  -1   6 125.098 7.41223  12
   7  -1   6 145.829 9.58856   4
  -7  -1  -6 145.522 9.15655   1
   7   1   6 134.812 8.80666   4
   7   1   6 139.796 7.48845  12
  -7   1  -6 143.484 10.5534  11
  -7   1  -6 135.359 8.92620   1
 -12  -2   6 468.314 17.5548   8
 -12  -2   6 456.904 18.0805   5
  12  -2  -6 474.090 17.7063   4
 -12   2   6 473.076 17.7463   8
  12   2  -6 468.070 17.8011   4
 -12   2   6 449.186 20.3305  11
 -10  -2   6 728.214 26.7976  16
  10  -2  -6 749.911 22.8593   4
 -10  -2   6 737.990 22.5687   8
 -10  -2   6 723.981 23.7958  11
 -10  -2   6 737.343 23.6931   5
  10  -2  -6 787.713 22.5516   9
 -10   2   6 747.377 25.5066  11
 -10   2   6 775.052 23.2639   8
 -10   2   6 718.533 22.2987   5
 -10   2   6 728.828 25.4246  16
  10   2  -6 764.795 23.3974   4
  -8  -2   6 1265.14 33.2112   5
  -8  -2   6 1225.63 31.6808   8
  -8  -2   6 1197.26 32.4129  11
   8  -2  -6 1309.08 32.6905   9
   8  -2  -6 1228.44 31.8545   4
  -8  -2   6 1249.44 36.6201  16
   8   2  -6 1243.50 31.1504   9
   8   2  -6 1234.46 33.3359  14
  -8   2   6 1206.16 32.1654   5
  -8   2   6 1164.20 31.5863  13
   8   2  -6 1245.06 32.7109   4
  -8   2   6 1219.66 35.3687  16
  -8   2   6 1266.45 32.4699   8
   6  -2  -6 1804.19 44.5015  15
  -6  -2   6 1764.02 41.9511  12
  -6  -2   6 1803.20 42.9301   5
  -6  -2   6 1716.57 41.1100   8
   6  -2  -6 1731.30 41.3806   4
  -6  -2   6 1747.11 45.7473  16
  -6  -2   6 1667.11 41.2153  11
   6  -2  -6 1779.70 42.4888   9
  -6   2   6 1751.43 41.8340  12
  -6   2   6 1784.21 45.5769  16
  -6   2   6 1723.10 42.2304   5
  -6   2   6 1757.32 41.9794   8
   6   2  -6 1661.04 41.5042  15
   6   2  -6 1742.33 41.7105   9
   6   2  -6 1738.24 42.2426   4
   6   2  -6 1790.38 42.9664  14
  -6   2   6 1707.86 41.4488  13
   4  -2  -6 1364.06 35.1215  15
  -4  -2   6 1370.02 31.6420   8
   4  -2  -6 1396.45 34.0905   6
   4  -2  -6 1313.62 31.8590   4
  -4  -2   6 1358.65 33.2055   5
   4  -2  -6 1360.30 33.2498   9
  -4  -2   6 1382.32 35.7075  16
  -4  -2   6 1360.04 32.3084  12
   4  -2  -6 1263.38 31.3573   7
   4   2  -6 1352.86 33.8604   7
  -4   2   6 1387.70 32.1802  12
   4   2  -6 1352.85 33.6987  15
  -4   2   6 1360.78 32.6404  13
  -4   2   6 1362.63 36.2862  16
   4   2  -6 1380.30 33.1279   9
  -4   2   6 1395.13 32.8575   8
   2  -2  -6 1283.22 31.2030   9
  -2  -2   6 1316.10 29.6365  12
  -2  -2   6 1313.93 33.0369  16
  -2  -2   6 1368.24 31.0265   5
   2  -2  -6 1281.96 33.3631  15
   2  -2  -6 1246.65 32.3251   6
   2  -2  -6 1215.80 30.1457   7
  -2  -2   6 1351.62 29.4783   8
   2   2  -6 1296.41 31.5894   9
  -2   2   6 1256.04 29.9928   3
   2   2  -6 1291.47 32.8873  15
  -2   2   6 1237.18 29.0599  12
  -2   2   6 1292.55 29.0714  12
  -2   2   6 1277.16 31.5290  13
   2   2  -6 1340.37 32.4517   7
   0  -2  -6 607.481 16.3744   9
   0  -2  -6 601.937 16.8559   7
   0  -2  -6 606.756 18.9112  15
   0  -2   6 620.065 14.4121  12
   0  -2  -6 619.848 16.7582   1
   0  -2  -6 626.476 18.3264  11
   0  -2   6 615.984 17.5686  16
   0  -2  -6 631.500 18.0915   6
   0  -2   6 631.986 14.4327  12
   0  -2   6 631.462 21.0689  10
   0   2  -6 621.616 19.1588  15
   0   2  -6 614.555 16.5214   1
   0   2  -6 622.722 18.4192   7
   0   2  -6 626.897 17.2553   9
   0   2   6 645.660 19.1362  10
   2  -2   6 422.231 10.8568  12
  -2  -2  -6 451.352 15.3446  11
  -2  -2  -6 422.941 14.7954  15
  -2  -2  -6 433.731 13.6606   1
   2  -2   6 388.564 16.9789  10
   2  -2   6 387.852 13.1883   2
  -2  -2  -6 405.267 13.4874   6
  -2   2  -6 386.367 13.2075   1
   2   2   6 447.971 15.3681  14
   2   2   6 425.066 9.73611  12
  -2   2  -6 401.766 14.6322   7
   2   2   6 418.198 9.48814  12
  -2   2  -6 376.818 13.1527  11
  -4  -2  -6 460.638 15.9513   1
   4  -2   6 478.993 13.4945  12
  -4  -2  -6 443.356 17.6142  11
   4   2   6 450.728 18.2533  14
   4   2   6 444.962 12.7923  12
  -4   2  -6 473.418 17.7674   7
  -4   2  -6 447.706 16.5180  11
   4   2   6 465.735 14.8682   4
  -4   2  -6 445.808 15.8955   1
  -6  -2  -6 239.389 11.6403   1
  -6  -2  -6 265.344 14.3504  11
   6  -2   6 273.005 12.2838   4
   6  -2   6 249.884 10.4056  12
  -6   2  -6 244.989 12.2741   1
   6   2   6 244.257 9.67459  12
   6   2   6 248.593 11.1462   4
  -6   2  -6 230.643 12.6841  11
  11  -3  -6 59.8505 6.07902   4
  11  -3  -6 65.7327 6.18033   9
 -11  -3   6 70.9748 7.64794   5
 -11  -3   6 69.8979 6.81397   8
 -11   3   6 67.1932 6.80974   8
 -11   3   6 65.2114 8.29953  11
  11   3  -6 68.2553 6.32755   4
   9  -3  -6 16.8120 2.77633   4
  -9  -3   6 11.7192 3.19074   5
  -9  -3   6 12.1062 3.00477   8
  -9  -3   6 18.5396 4.35282  16
   9  -3  -6 15.8333 2.95869   9
   9   3  -6 15.9693 3.41127  14
  -9   3   6 18.2723 3.51449   5
  -9   3   6 15.4401 3.98358  16
  -9   3   6 26.2636 4.07764   8
   9   3  -6 12.2233 3.34912   4
   7  -3  -6 9.19278 2.12119   9
   7  -3  -6 10.6147 1.91833   4
  -7  -3   6 9.21972 2.98478  16
  -7  -3   6 8.46539 2.44266   5
  -7  -3   6 9.73522 2.13166  12
  -7  -3   6 9.35622 2.07548   8
  -7   3   6 7.49942 2.35605   5
   7   3  -6 8.45290 1.69645   9
  -7   3   6 7.66858 2.16455  13
  -7   3   6 5.96135 2.65928  16
   7   3  -6 8.89447 2.20468  14
  -7   3   6 6.80553 1.74390  12
  -7   3   6 7.78653 2.08963   8
   7   3  -6 10.0903 2.53367   4
   5  -3  -6 306.801 10.6040   9
   5  -3  -6 295.322 10.7130   6
   5  -3  -6 300.281 9.07835   4
  -5  -3   6 302.636 8.98704   8
   5  -3  -6 302.759 11.9731  15
  -5  -3   6 310.188 10.7395   5
  -5  -3   6 317.216 10.1418  12
  -5  -3   6 316.011 12.7973  16
  -5   3   6 293.233 10.1525  13
  -5   3   6 308.699 12.7884  16
   5   3  -6 299.140 10.2901   4
  -5   3   6 309.337 10.6385   5
  -5   3   6 315.392 10.2846   8
  -5   3   6 308.408 9.95816  12
   5   3  -6 299.732 11.2181   7
   5   3  -6 313.086 11.2676  14
   5   3  -6 301.768 9.95581   9
   5   3  -6 278.820 9.52402  15
   3  -3  -6 11.3040 2.45960  15
   3  -3  -6 11.5820 1.84896   9
  -3  -3   6 10.2866 2.36760  16
  -3  -3   6 15.0311 2.28975   5
   3  -3  -6 7.94007 1.84158   6
  -3  -3   6 13.0737 1.71694  12
   3   3  -6 12.8375 2.14205  15
  -3   3   6 14.4830 2.07411   8
  -3   3   6 17.8767 1.73567  12
   3   3  -6 11.7185 2.02072   9
  -3   3   6 15.2248 2.28766  13
   3   3  -6 13.1637 2.43915   7
  -1  -3   6 235.481 7.48669   5
   1  -3  -6 240.358 9.45029  11
   1  -3  -6 239.481 8.00675   9
   1  -3  -6 236.349 9.84604  15
   1  -3  -6 247.196 9.63261   6
  -1  -3   6 233.933 8.79055  16
  -1  -3   6 242.341 7.10855  12
  -1   3   6 242.181 6.31441  12
  -1   3   6 241.849 9.23510  13
  -1   3   6 240.803 6.32826  12
   1   3  -6 231.021 7.35938   1
   1   3  -6 240.027 9.52773   7
  -1   3   6 245.220 8.14966   3
   1   3  -6 248.309 9.85205  15
   1   3  -6 233.861 8.53641   9
  -1   3   6 235.809 7.96940  14
  -1  -3  -6 27.1080 3.69424  15
   1  -3   6 31.6821 2.25852  12
  -1  -3  -6 36.5301 2.45893   9
  -1  -3  -6 30.0150 3.23058   1
  -1  -3  -6 29.7847 4.02064  11
  -1  -3  -6 32.8722 3.96109   6
   1  -3   6 30.1969 4.92849  10
   1  -3   6 36.0463 4.04179   2
  -1   3  -6 31.7625 3.87434   7
   1   3   6 37.0495 1.44648  12
   1   3   6 33.4926 1.39759  12
  -1   3  -6 34.4326 3.10321   1
   1   3   6 32.0399 3.73243  14
  -3  -3  -6 0.87527 1.68457   6
   3  -3   6 0.50204 1.08382  12
  -3  -3  -6 3.65177 2.58214  11
   3  -3   6 0.92142 1.91906   2
  -3  -3  -6 1.04916 1.80171  15
  -3  -3  -6 0.33474 1.44623   1
   3   3   6 0.40167 0.86495  12
  -3   3  -6 1.80515 1.83573   1
  -3   3  -6 0.67506 2.42173   7
   3   3   6 -1.4564 1.28875  14
  -5  -3  -6 76.6513 8.20490  11
   5  -3   6 75.0239 6.32790   4
   5  -3   6 73.2663 5.15514  12
  -5  -3  -6 74.1598 6.21760   1
  -5   3  -6 75.4983 6.68308   1
   5   3   6 71.6316 7.21344  14
  -5   3  -6 74.8280 7.81903   7
   5   3   6 70.7566 4.80202  12
  -7  -3  -6 19.9877 4.74123   1
   7  -3   6 20.7684 5.00360   4
  -7  -3  -6 12.6697 4.84249  11
   7  -3   6 17.0213 3.57857  12
  -7   3  -6 23.7182 4.88654   1
   7   3   6 17.3556 3.46703  12
  12  -4  -6 453.953 17.3178   4
 -12  -4   6 495.619 19.3154   5
 -12   4   6 511.359 18.3145   8
  12   4  -6 487.561 18.3096   4
 -10  -4   6 43.3615 4.62435   8
 -10  -4   6 43.0210 6.27055   5
 -10  -4   6 40.0221 6.95271  16
  10  -4  -6 42.0155 5.31998   9
  10  -4  -6 31.8185 4.15541   4
 -10   4   6 46.7315 5.25604   8
  10   4  -6 46.9244 5.88569   4
  10   4  -6 39.7750 5.55823  14
  -8  -4   6 846.163 25.1810   5
  -8  -4   6 855.615 28.6190  16
   8  -4  -6 837.799 23.1729   4
  -8  -4   6 813.628 22.9867   8
   8  -4  -6 879.024 24.9453   9
  -8   4   6 845.695 23.7775   5
  -8   4   6 857.251 24.1426   8
   8   4  -6 834.405 24.4680   4
   8   4  -6 901.138 26.7516  14
  -8   4   6 872.489 26.8667  16
  -8   4   6 841.624 24.5319  13
  -6  -4   6 129.038 6.41425  12
   6  -4  -6 138.301 6.89492   6
   6  -4  -6 144.391 7.01331   9
  -6  -4   6 135.413 7.31134   5
  -6  -4   6 134.689 5.52694   8
  -6  -4   6 136.761 8.96067  16
   6  -4  -6 134.250 5.56407   4
  -6   4   6 139.589 6.48671  12
   6   4  -6 160.237 8.12748  14
  -6   4   6 141.502 6.82584  13
   6   4  -6 129.014 7.58462   7
  -6   4   6 144.705 6.90412   8
   6   4  -6 132.974 6.66951   4
   6   4  -6 144.021 6.18321   9
  -6   4   6 138.284 6.76804   5
  -6   4   6 137.235 8.41109  16
   4  -4  -6 2232.05 52.8524   9
   4  -4  -6 2186.84 53.6293   6
  -4  -4   6 2261.45 52.2866  12
  -4  -4   6 2315.36 55.5727  16
   4  -4  -6 2204.51 55.3687  15
  -4  -4   6 2302.49 52.7713   5
  -4   4   6 2173.37 53.0285  13
  -4   4   6 2244.79 52.0073  12
   4   4  -6 2334.71 54.4282   7
  -4   4   6 2253.61 57.0016  16
   4   4  -6 2207.73 52.3568   9
   4   4  -6 2204.18 52.3006  15
  -4   4   6 2206.15 52.5156   8
   2  -4  -6 667.778 20.2050  15
  -2  -4   6 673.098 17.3128  12
   2  -4  -6 667.082 19.5907   6
   2  -4  -6 642.004 17.6533   9
  -2  -4   6 631.023 18.8797  16
  -2  -4   6 664.353 17.3043   5
   2   4  -6 651.601 19.1181  15
   2   4  -6 664.732 19.6172   7
  -2   4   6 665.698 19.0337  13
  -2   4   6 648.949 17.3144   3
   2   4  -6 656.371 18.3481   9
  -2   4   6 684.215 16.7641  12
   0  -4   6 2833.54 72.1898  10
   0  -4  -6 2742.67 68.0652   6
   0  -4   6 2905.95 64.9024  12
   0  -4  -6 2941.05 68.7439  11
   0  -4   6 2979.01 68.0525   2
   0  -4  -6 2888.45 68.7956  15
   0   4   6 2895.02 68.4569  13
   0   4  -6 2757.57 65.4227   1
   0   4  -6 2967.48 68.7245   7
   0   4   6 2880.48 63.8410  12
   0   4   6 2886.01 66.7418   3
   0   4   6 2805.54 66.4545  14
   2  -4   6 472.379 15.8055   2
  -2  -4  -6 472.720 16.0336   6
  -2  -4  -6 462.252 16.0076  15
   2  -4   6 469.616 13.4812  12
  -2  -4  -6 450.953 14.9039   1
  -2  -4  -6 474.383 17.0772  11
   2  -4   6 459.898 19.8582  10
  -2   4  -6 454.317 14.8069   1
  -2   4  -6 496.863 17.1538   7
   2   4   6 471.022 16.4216  14
   2   4   6 463.489 12.4456  12
   4  -4   6 1482.96 38.0204  12
  -4  -4  -6 1621.74 40.8318   1
  -4  -4  -6 1617.17 43.8745  11
  -4   4  -6 1445.52 42.2033   7
   4   4   6 1510.09 42.7640  14
   4   4   6 1593.04 37.3312  12
  -4   4  -6 1455.87 40.0635   1
  -6  -4  -6 103.281 8.97682  11
   6  -4   6 87.6551 8.03707   4
   6  -4   6 95.1431 6.54822  12
  -6  -4  -6 89.8914 7.10899   1
   6   4   6 101.528 8.79175   3
  -6   4  -6 76.9952 6.78360   1
 -11  -5   6 45.5443 6.57201   5
  11  -5  -6 48.5019 5.52726   9
 -11   5   6 53.6456 8.11104  11
 -11   5   6 46.9738 5.45233   8
  11   5  -6 50.1387 6.32323   4
   9  -5  -6 5.09119 3.05093   9
  -9  -5   6 8.43192 3.73390   5
  -9  -5   6 8.47326 4.37539  16
  -9  -5   6 8.94640 2.70573   8
  -9   5   6 16.0083 3.30469  13
   9   5  -6 12.1654 2.99657   4
   9   5  -6 5.89346 2.91019  14
  -9   5   6 8.84919 2.69792   8
  -7  -5   6 3.69811 1.80703   2
  -7  -5   6 1.10391 1.39810   8
   7  -5  -6 0.28061 2.00288   9
  -7  -5   6 8.21291 3.25750   5
  -7  -5   6 8.31612 3.82209  16
   7  -5  -6 9.54450 2.43373   6
   7   5  -6 0.72103 2.31974   7
  -7   5   6 -0.2746 1.76118  16
   7   5  -6 1.47766 2.11243   4
   7   5  -6 1.31575 1.52312  14
  -7   5   6 1.03396 1.83985   5
  -7   5   6 2.27571 1.64041   8
  -7   5   6 1.06967 1.49433  12
  -7   5   6 1.18251 2.03425  13
  -5  -5   6 105.547 6.23300   5
   5  -5  -6 97.3192 5.79105   9
  -5  -5   6 98.8954 5.53477  12
   5  -5  -6 94.2904 5.92210   6
  -5  -5   6 110.498 7.76691  16
  -5   5   6 98.1637 5.74139  13
  -5   5   6 98.0454 7.27619  16
   5   5  -6 108.867 6.93749  14
  -5   5   6 88.8532 5.18899  12
   5   5  -6 105.230 5.13551   9
  -5   5   6 96.0073 5.58083   8
   5   5  -6 96.7829 6.48491   7
   3  -5  -6 41.2887 4.49717  15
   3  -5  -6 34.7594 4.21948   6
  -3  -5   6 33.9545 4.02131  16
   3  -5  -6 36.1216 3.05312   9
  -3  -5   6 35.3502 3.94969   2
  -3  -5   6 42.3727 3.34675  12
  -3  -5   6 37.9087 3.32122   5
   3   5  -6 35.1806 3.36510   9
   3   5  -6 41.1188 3.09510   3
  -3   5   6 31.8771 2.64388   3
  -3   5   6 35.3165 3.56956   8
  -3   5   6 35.1458 3.49673  13
   3   5  -6 34.2436 4.18284   7
  -3   5   6 34.6126 2.84144  12
   1  -5  -6 74.5104 5.34175  15
  -1  -5   6 79.4511 4.25432  12
  -1  -5   6 73.4677 6.41315  10
  -1  -5   6 69.9290 5.14319   2
   1  -5  -6 69.7757 3.86229   9
   1  -5  -6 82.8150 5.85874   6
   1   5  -6 67.9608 5.44494   7
  -1   5   6 76.2971 3.81466  12
  -1   5   6 75.5367 5.53224  13
  -1   5   6 67.8821 4.38823   3
  -1  -5  -6 9.38821 2.90651  11
   1  -5   6 14.7408 2.30250  12
   1  -5   6 9.25587 2.98638  10
  -1  -5  -6 6.70911 2.54806   6
  -1  -5  -6 13.0590 2.81493  15
   1  -5   6 7.59522 2.43539   2
   1   5   6 9.44268 2.31123  14
   1   5   6 8.49904 2.44580  13
  -1   5  -6 7.73883 3.03051   7
  -1   5  -6 6.56945 1.92233   1
   1   5   6 8.75524 2.26243   3
  -3  -5  -6 10.5709 3.05489   6
  -3  -5  -6 11.5926 3.99555  11
   3  -5   6 16.6587 3.84294   2
   3  -5   6 7.44612 2.10865  12
   3   5   6 8.41009 3.09212  14
  -3   5  -6 6.42150 2.42364   1
   3   5   6 7.80940 1.93651  12
  -3   5  -6 25.5577 4.90771   7
   3   5   6 7.66039 3.18893   3
   5  -5   6 78.8919 6.00672  12
   5  -5   6 92.6814 7.05168   4
  -5  -5  -6 89.2374 9.00886  11
  -5  -5  -6 90.9195 7.27089   1
   5   5   6 91.8751 8.26015   3
  -5   5  -6 96.6731 7.50869   1
  -5   5  -6 82.9104 7.71749   7
   5   5   6 87.5201 5.85772  12
   5   5   6 82.2420 8.18798  14
 -10  -6   6 1079.27 32.8727   5
  10   6  -6 1068.74 31.5495   4
 -10   6   6 1091.02 31.0878   8
   8  -6  -6 272.677 11.6752   9
  -8  -6   6 237.313 13.6955  16
  -8  -6   6 250.133 11.7634   5
  -8   6   6 253.293 11.0386   8
  -8   6   6 252.022 11.4809  13
   8   6  -6 260.440 13.0037  14
  -8   6   6 262.215 11.7264   5
   8   6  -6 261.782 11.2096   4
   8   6  -6 246.331 12.7282   7
  -6  -6   6 2062.10 50.4350   5
  -6  -6   6 2092.25 54.4572  16
  -6  -6   6 1965.94 49.5493   2
   6  -6  -6 2027.23 49.9183   6
   6  -6  -6 1992.72 50.2155   9
  -6  -6   6 2012.81 49.7145  12
   6   6  -6 2127.30 52.8887  14
   6   6  -6 2133.49 52.4634   7
  -6   6   6 1983.92 50.6506  13
  -6   6   6 1996.50 49.4828  12
  -6   6   6 1995.31 52.9928  16
  -6   6   6 1964.32 49.2827   5
   6   6  -6 1998.62 47.9341   9
  -6   6   6 2039.05 49.5949   8
   4  -6  -6 259.145 10.8284   6
  -4  -6   6 243.573 9.61851   5
  -4  -6   6 249.289 10.2936   2
   4  -6  -6 257.551 11.9912  15
  -4  -6   6 242.489 9.64872  12
   4  -6  -6 267.492 10.0685   9
  -4  -6   6 251.303 11.5743  16
   4   6  -6 246.307 11.0460   7
  -4   6   6 262.718 9.75360   8
  -4   6   6 257.985 9.31067  12
   4   6  -6 261.910 9.53141   9
   4   6  -6 242.766 9.10358   3
  -4   6   6 252.206 10.6692  13
   2  -6  -6 1678.86 40.9118   9
  -2  -6   6 1714.68 43.4635   2
  -2  -6   6 1644.59 46.8289  10
  -2  -6   6 1719.86 41.5132  12
   2  -6  -6 1686.27 44.1374  15
   2  -6  -6 1714.22 43.8715   6
  -2   6   6 1717.17 43.4053  13
   2   6  -6 1714.82 41.8321   3
   2   6  -6 1741.44 43.9412   7
  -2   6   6 1667.79 41.1002   3
  -2   6   6 1691.50 40.6046  12
   0  -6   6 76.1303 6.49122   2
   0  -6   6 71.1690 6.97693  10
   0  -6   6 69.4451 4.53618  12
   0  -6  -6 79.5869 6.09571  11
   0  -6  -6 70.4863 6.12347   6
   0  -6  -6 78.0837 5.81524  15
   0   6  -6 78.4017 5.99853   7
   0   6   6 75.1929 6.27534  13
   0   6   6 72.8642 4.16056  12
   0   6   6 78.5847 5.19549   3
   0   6  -6 74.0250 4.45816   1
  -2  -6  -6 953.877 28.5530   6
   2  -6   6 954.685 27.9638   2
  -2  -6  -6 875.759 27.0833  15
   2  -6   6 964.112 25.5978  12
  -2  -6  -6 967.836 29.5282  11
  -2   6  -6 959.258 29.0915   7
   2   6   6 930.227 29.0231  13
   2   6   6 980.831 27.7889   3
  -2   6  -6 909.802 26.0933   1
   2   6   6 943.333 24.5734  12
  -4  -6  -6 48.8951 7.22461  11
   4  -6   6 52.7983 6.03224   2
  -4  -6  -6 47.9274 5.82423   6
   4  -6   6 49.8266 4.92581  12
   4   6   6 45.0248 6.15701  13
  -4   6  -6 48.8986 5.35994   1
  -4   6  -6 54.3181 6.69176   7
   4   6   6 47.9080 6.26279  14
   4   6   6 43.2506 4.09559  12
   4   6   6 43.2712 6.16735   3
   6  -6   6 637.712 22.2634   4
  -6  -6  -6 636.091 25.3211  11
   6  -6   6 601.715 20.4852  12
   6   6   6 630.400 23.3539   3
   6   6   6 616.688 19.6585  12
  -6   6  -6 637.972 22.3239   1
  11   7  -6 173.492 12.0466   4
 -11   7   6 199.342 11.8388   8
  -9  -7   6 149.308 9.63438   5
   9  -7  -6 179.557 9.79931   9
  -9   7   6 165.331 9.38036   8
   9   7  -6 167.157 11.1423   7
   9   7  -6 142.800 10.4802  14
   9   7  -6 152.369 9.19065   4
  -9   7   6 132.015 9.36737  13
   7  -7  -6 218.519 10.2808   9
  -7  -7   6 219.843 13.3046  16
  -7  -7   6 216.584 10.8875   5
   7   7  -6 216.749 11.3362   7
  -7   7   6 198.723 9.55894   8
  -7   7   6 202.434 10.5203  13
  -7   7   6 198.133 8.79264   1
   7   7  -6 211.890 11.7005  14
  -7   7   6 197.695 8.90357   5
   5  -7  -6 541.663 17.6780   6
  -5  -7   6 520.713 19.6576  16
  -5  -7   6 522.904 17.5734   2
  -5  -7   6 526.765 17.1950   5
   5  -7  -6 539.342 17.2419   9
  -5  -7   6 520.417 17.0872  12
   5   7  -6 543.822 18.7985   7
  -5   7   6 544.189 16.9020   8
  -5   7   6 529.296 16.6986  12
  -5   7   6 540.055 20.4378  16
  -5   7   6 524.769 17.9808  13
   5   7  -6 532.062 19.1150  14
  -3  -7   6 191.368 7.97460   5
  -3  -7   6 200.836 8.76956  12
   3  -7  -6 189.704 10.2801  15
  -3  -7   6 185.132 10.9087  10
  -3  -7   6 189.748 9.44808   2
   3  -7  -6 202.603 8.36970   9
  -3  -7   6 178.543 9.19796  16
   3  -7  -6 199.344 10.0285   6
   3   7  -6 198.846 9.76599   7
   3   7  -6 191.591 8.50936   3
  -3   7   6 189.328 8.37957   8
  -3   7   6 193.100 9.42628  13
  -3   7   6 197.073 8.21426  12
  -3   7   6 200.713 8.22023   3
  -1  -7   6 502.431 15.5927  12
   1  -7  -6 483.095 17.5570   6
   1  -7  -6 472.668 17.1613  15
  -1  -7   6 501.129 17.6854   2
  -1  -7   6 471.930 19.9729  10
   1   7  -6 473.725 17.1838   7
   1   7  -6 497.583 16.5085   3
  -1   7   6 497.788 14.8667  12
  -1   7   6 500.942 17.5184  13
  -1   7   6 478.197 15.7842   3
  -1  -7  -6 205.497 9.87575  15
  -1  -7  -6 211.820 11.1861  11
  -1  -7  -6 198.346 10.8425   6
   1  -7   6 206.118 10.5549   2
   1  -7   6 207.651 9.03615  12
  -1   7  -6 211.541 9.08698   1
  -1   7  -6 208.543 11.0408   7
   1   7   6 216.185 11.1527  13
   1   7   6 200.870 8.40613  12
   1   7   6 211.159 10.2408   3
  -3  -7  -6 115.803 9.60631  11
  -3  -7  -6 107.818 8.41886   6
   3  -7   6 101.708 8.45689   2
   3  -7   6 108.170 6.91598  12
   3   7   6 114.461 6.65175  12
   3   7   6 115.256 8.65889   3
   3   7   6 105.086 8.70400  13
  -3   7  -6 112.217 9.07588   7
  -3   7  -6 99.2963 7.14758   1
   5  -7   6 158.288 9.07935  12
  -5  -7  -6 157.092 12.4838  11
   5  -7   6 155.118 9.94079   4
   5   7   6 168.873 8.56029  12
   5   7   6 168.414 10.5398   3
  -5   7  -6 167.449 11.6600   7
  -5   7  -6 148.621 9.58796   1
 -10  -8   6 197.763 12.5582   5
  10  -8  -6 220.484 11.5023   9
  10   8  -6 198.285 12.8271   7
 -10   8   6 210.639 10.4001   8
  10   8  -6 189.281 10.2173   4
  -8  -8   6 362.145 18.5532  16
   8  -8  -6 381.028 15.4124   9
  -8  -8   6 365.507 15.4898   5
  -8   8   6 372.126 14.3766   8
   8   8  -6 352.100 16.1751   7
   8   8  -6 353.385 16.7584  14
  -8   8   6 340.181 15.1316  13
  -8   8   6 371.520 13.9121   1
  -6  -8   6 337.045 13.7312   5
   6  -8  -6 348.975 13.5012   9
   6  -8  -6 333.497 13.0663   6
  -6  -8   6 323.735 16.0335  16
  -6  -8   6 331.228 13.1211   2
  -6   8   6 319.428 12.7408  12
   6   8  -6 326.340 15.0819  14
  -6   8   6 307.877 14.4586  16
  -6   8   6 341.904 14.4099  13
   6   8  -6 343.454 14.9501   7
  -6   8   6 340.741 12.9682   8
  -4  -8   6 643.234 24.0272  10
  -4  -8   6 668.136 20.9267  12
   4  -8  -6 733.639 24.4422  15
  -4  -8   6 677.073 21.8642   2
  -4  -8   6 681.613 20.3198   5
   4  -8  -6 718.178 22.4924   6
   4  -8  -6 693.311 20.6465   9
  -4   8   6 685.643 22.3039  13
   4   8  -6 702.703 22.7460   7
   4   8  -6 682.759 20.7988   3
  -4   8   6 707.844 20.6620  12
  -4   8   6 690.482 20.7538   8
   2  -8  -6 565.389 19.9068   6
   2  -8  -6 547.635 19.5962  15
  -2  -8   6 555.810 17.6897  12
  -2  -8   6 503.287 21.5216  10
   2  -8  -6 545.088 16.4106   9
  -2  -8   6 574.217 19.7005   2
   2   8  -6 566.338 18.4762   3
  -2   8   6 564.336 19.4888  13
  -2   8   6 571.207 17.9530   3
  -2   8   6 582.362 17.4840  12
   2   8  -6 546.526 19.1873   7
   0  -8   6 824.479 23.8639  12
   0  -8   6 816.903 26.0936   2
   0  -8  -6 820.050 26.4390   6
   0  -8  -6 828.143 25.1841  15
   0   8   6 824.286 23.0864  12
   0   8  -6 805.385 25.8940   7
   0   8   6 797.922 25.8778  13
   0   8   6 819.391 24.4055   3
   0   8  -6 785.790 22.5278   1
   2  -8   6 538.358 20.1576   2
  -2  -8  -6 504.886 20.3713  11
   2  -8   6 525.082 17.7901  12
  -2  -8  -6 516.214 19.9534   6
   2   8   6 530.506 20.7201  13
  -2   8  -6 529.332 17.7861   1
   2   8   6 531.600 17.0051  12
   2   8   6 541.495 19.4574   3
  -2   8  -6 522.500 20.2130   7
   4  -8   6 443.603 16.6244  12
  -4  -8  -6 430.531 18.2176   6
  -4  -8  -6 459.716 20.3146  11
   4  -8   6 470.804 18.3646   2
   4   8   6 458.464 18.2780   3
  -4   8  -6 426.529 16.7221   1
  -4   8  -6 458.406 19.0340   7
  -9  -9   6 17.7679 5.41908   5
   9  -9  -6 26.8201 4.54534   9
   9   9  -6 29.0759 5.37588   7
  -9   9   6 16.1857 3.79286   8
   7  -9  -6 48.4167 5.60146   9
  -7  -9   6 38.6999 6.61878  16
  -7  -9   6 49.2530 5.90250   5
  -7   9   6 46.4802 5.29145   8
   7   9  -6 49.9307 6.99505   7
  -7   9   6 38.4322 5.75682  13
   7   9  -6 43.7134 6.28259  14
  -5  -9   6 14.9609 3.72978   2
   5  -9  -6 16.2546 3.48185   9
   5  -9  -6 17.6161 3.79736   6
  -5  -9   6 15.3582 3.75855   5
  -5  -9   6 14.7217 4.44097  16
   5   9  -6 13.9130 4.14583   7
  -5   9   6 18.9876 4.49281  16
  -5   9   6 19.0949 4.30294  13
  -5   9   6 17.1234 3.55412   8
  -3  -9   6 73.6647 5.99970  12
   3  -9  -6 78.9190 6.74747   6
  -3  -9   6 69.0108 7.14295   2
   3  -9  -6 79.5374 7.28453  15
   3  -9  -6 81.7645 5.35288   9
  -3   9   6 72.4884 5.90012   3
  -3   9   6 70.4406 5.56535  12
   3   9  -6 76.9322 7.19673   7
  -3   9   6 78.2083 5.68091   8
   3   9  -6 73.8661 6.08227   3
  -3   9   6 75.4175 6.97609  13
  -1  -9   6 12.2123 2.75123  12
   1  -9  -6 12.1087 4.21405   6
   1  -9  -6 8.74630 2.68138  15
  -1  -9   6 10.8780 4.26152   2
  -1   9   6 16.2591 3.01965  12
   1   9  -6 11.6898 3.22998   3
   1   9  -6 15.5800 3.65659   7
  -1   9   6 15.3641 3.65740   3
  -1   9   6 9.68013 3.56440  13
   1  -9   6 27.9309 4.22217  12
   1  -9   6 34.4540 6.22588   2
  -1  -9  -6 27.4792 4.93544   6
   1   9   6 28.2172 4.97266   3
   1   9   6 32.7185 4.24196  12
  -1   9  -6 30.2038 5.55822   7
   1   9   6 36.6649 5.81306  13
  -1   9  -6 24.7027 3.74099   1
  -3  -9  -6 17.4507 4.81121   6
   3  -9   6 14.2970 3.01225  12
   3  -9   6 15.4675 4.25249   2
  -3  -9  -6 12.2128 4.88717  11
   3   9   6 12.1016 2.92020  12
   3   9   6 16.6682 4.83904   3
  -3   9  -6 11.8644 3.30358   1
  -3   9  -6 14.4918 4.86217   7
   8 -10  -6 1131.17 33.4756   9
  -8 -10   6 1107.05 33.9693   5
   8  10  -6 1102.44 35.0904   7
  -8  10   6 1110.72 31.5043   8
  -8  10   6 1137.62 31.8912   1
  -6 -10   6 17.7591 5.23729  16
   6 -10  -6 32.9240 4.87686   9
  -6 -10   6 21.4903 4.62010   5
  -6  10   6 21.5992 3.58467   8
   6  10  -6 23.4256 5.36185   7
   4 -10  -6 1517.69 39.7804   9
  -4 -10   6 1482.17 41.9432   2
   4 -10  -6 1515.36 43.9810  15
  -4  10   6 1515.26 39.8074   8
   4  10  -6 1521.86 40.8610   3
  -4  10   6 1472.10 42.2799  13
   4  10  -6 1527.30 42.6738   7
  -4  10   6 1552.02 40.6077  12
  -2 -10   6 18.9817 5.33294  12
   2 -10  -6 18.5574 4.88224   6
   2 -10  -6 9.42383 3.11424  15
  -2 -10   6 13.4003 4.90748   2
  -2  10   6 10.7621 3.51185   3
   2  10  -6 15.3813 4.34774   7
  -2  10   6 11.4728 3.42266  13
  -2  10   6 12.5545 3.06719  12
  -2  10   6 5.93131 2.82666   8
   2  10  -6 12.6341 3.18937   3
   0 -10   6 1153.36 33.7506  12
   0 -10   6 1223.17 37.0016   2
   0 -10  -6 1248.10 37.0851   6
   0  10   6 1135.03 35.5344  13
   0  10   6 1210.74 34.8862   3
   0  10   6 1228.21 33.4436  12
   0  10  -6 1225.16 36.1963   7
   2 -10   6 8.07339 2.62532  12
  -2 -10  -6 6.42559 3.97742   6
   2 -10   6 7.42084 4.74004   2
  -2  10  -6 7.84271 3.04725   1
  -2  10  -6 9.25029 3.51583   7
   2  10   6 10.9207 4.21113   3
  -7 -11   6 112.908 9.07633   5
   7 -11  -6 138.423 8.78993   9
  -7  11   6 133.088 8.35988   1
   7  11  -6 120.060 9.99157   7
  -7  11   6 130.358 7.64027   8
   5 -11  -6 128.864 10.4059  15
   5 -11  -6 123.096 8.13702   9
  -5  11   6 138.101 8.19820   8
   5  11  -6 130.763 9.79777   7
   3 -11  -6 192.846 11.8640   6
  -3 -11   6 193.444 11.2825   2
   3 -11  -6 205.362 11.9263  15
   3  11  -6 195.759 10.9168   3
   3  11  -6 197.848 11.3671   7
  -3  11   6 187.289 9.83874  12
  -3  11   6 196.102 9.90878   8
   1 -11  -6 123.735 10.4398   6
  -1 -11   6 141.623 10.8742   2
   1  11  -6 138.174 9.11294   3
  -1  11   6 126.129 9.29152   3
  -1  11   6 130.188 8.27100  12
   1  11  -6 131.593 9.76732   7
  -1 -11  -6 156.786 11.0639   6
   1 -11   6 155.575 11.0213   2
   1  11   6 169.290 10.8991   3
   1  11   6 158.936 9.02096  12
  -1  11  -6 160.839 11.0378   7
   6 -12  -6 306.189 18.6524   9
   4 -12  -6 286.255 15.1201  15
   4 -12  -6 365.157 21.7900   6
  -4 -12   6 294.284 14.8072   6
  -4 -12   6 273.425 13.7011   2
  -4  12   6 282.671 12.4338   8
   4  12  -6 291.684 14.7367   7
  -2 -12   6 309.267 15.7372   2
   2 -12  -6 333.211 16.2260   6
   2  12  -6 292.468 14.1367   3
  -2  12   6 240.576 13.8602   3
   2  12  -6 295.050 14.2938   7
  -2  12   6 303.703 12.8032   8
   0 -12   6 256.929 14.4552   2
   0 -12  -6 233.722 14.4634   6
   0  12   6 247.838 12.9449   3
   0  12   6 245.214 11.9639  12
   0  12   6 245.052 11.5890   8
   0  12  -6 256.016 13.7657   7
 -12   0   7 -0.5795 3.48307  11
 -12   0   7 0.13103 3.25583   8
  12   0  -7 -0.5485 1.80357   4
 -12   0   7 3.75815 3.00452   5
 -10   0   7 0.60746 2.78382  11
 -10   0   7 1.49734 3.10095  16
  10   0  -7 -0.0598 1.69206   4
 -10   0   7 0.63024 1.97507   8
  10   0  -7 1.40557 2.00379   9
 -10   0   7 -0.0150 2.86169   5
  -8   0   7 0.18157 1.96896   8
  -8   0   7 1.88103 2.74139  16
   8   0  -7 2.47922 2.01601   4
   8   0  -7 -2.0129 1.41166   9
  -8   0   7 0.89744 1.54815  12
  -8   0   7 0.54020 2.36649   5
   8   0  -7 1.70973 1.51878  15
  -6   0   7 0.53275 1.38886  16
   6   0  -7 -1.5568 1.08852   4
  -6   0   7 6.14764 1.91280   5
  -6   0   7 3.26921 1.52922   8
   6   0  -7 2.98509 1.24645   7
  -6   0   7 3.42656 1.45443  12
   6   0  -7 1.86669 1.46226   9
   6   0  -7 0.55109 1.20403  15
  -4   0   7 0.81122 1.47837   5
   4   0  -7 1.47403 1.10677   7
   4   0  -7 0.43739 1.27781  15
  -4   0   7 0.93699 1.83882  16
   4   0  -7 1.89920 1.34974   9
  -4   0   7 0.41145 0.74189  12
  -2   0   7 0.96090 0.43834  12
  -2   0   7 1.51595 1.72555  16
  -2   0   7 0.69925 0.65119   8
  -2   0   7 0.53079 0.40647  12
  -2   0   7 2.73255 0.98219  13
   2   0  -7 -0.5347 1.00512   9
   2   0  -7 -0.4612 1.25768  15
   2   0  -7 0.88870 1.02749   6
   2   0  -7 0.84880 1.17080   7
   0   0  -7 0.88801 1.69853  15
   0   0   7 3.58013 1.76519  10
   0   0  -7 0.65744 0.95129   6
   0   0  -7 0.63649 1.41322   7
   0   0  -7 3.30867 1.46004  11
   0   0  -7 1.46706 1.22793   9
   2   0   7 0.84647 0.39308  12
  -2   0  -7 0.34550 1.19226   1
  -2   0  -7 2.42375 1.85046  11
  -2   0  -7 0.60235 1.66725  15
   2   0   7 -1.7739 1.84140  10
  -2   0  -7 -0.7825 1.94373   7
   4   0   7 1.07366 2.60777   4
   4   0   7 0.79039 1.26534  12
   4   0   7 3.54758 3.39528  14
  -4   0  -7 0.62647 2.40786  11
  -4   0  -7 3.08554 2.51486   1
  -6   0  -7 0.51277 2.90802   1
   6   0   7 0.57202 3.06300   4
   6   0   7 0.48251 2.00404  12
  -6   0  -7 -0.9524 2.08677  11
 -11  -1   7 258.722 11.8311   8
 -11  -1   7 250.568 12.3033   5
 -11  -1   7 213.356 15.0783  16
  11  -1  -7 238.422 11.2370   4
 -11   1   7 259.483 14.5369  16
  11   1  -7 266.623 12.4231   4
 -11   1   7 267.374 12.2441   5
 -11   1   7 249.792 13.5700  11
 -11   1   7 250.197 11.6261   8
  -9  -1   7 754.048 23.9097  11
  -9  -1   7 814.333 23.1802   8
  -9  -1   7 805.761 24.4294   5
   9  -1  -7 812.352 23.4143   9
  -9  -1   7 845.946 28.3025  16
   9  -1  -7 794.361 23.4720   4
  -9   1   7 823.500 23.5665   8
  -9   1   7 826.359 27.6451  16
   9   1  -7 796.797 22.7505   9
  -9   1   7 781.692 23.9451   5
   9   1  -7 798.612 23.9196   4
   7  -1  -7 429.790 13.5652   4
  -7  -1   7 428.254 17.0091  16
   7  -1  -7 432.100 15.2999  15
   7  -1  -7 457.402 14.4389   9
  -7  -1   7 462.053 14.0394  12
  -7  -1   7 423.428 14.5695   5
  -7  -1   7 416.614 13.1907   8
   7   1  -7 423.025 13.9581   4
  -7   1   7 431.556 14.3902   5
  -7   1   7 413.328 13.6192  12
  -7   1   7 421.164 16.6107  16
  -7   1   7 452.245 14.0228   8
   7   1  -7 413.807 14.0268  15
   7   1  -7 429.382 13.9011   9
  -5  -1   7 2014.68 47.2385   8
   5  -1  -7 2091.00 50.6479  15
  -5  -1   7 2092.92 52.2296  16
   5  -1  -7 2002.18 47.6861   4
   5  -1  -7 2079.17 48.8249   9
   5  -1  -7 1944.32 47.4673   7
  -5  -1   7 2023.41 48.7520   5
   5   1  -7 2035.35 48.5971   9
  -5   1   7 2066.69 47.8623   8
   5   1  -7 1989.67 48.7540   7
  -5   1   7 2016.38 48.8912   5
   5   1  -7 2047.44 49.6798  15
  -5   1   7 2082.82 52.4087  16
   5   1  -7 2027.53 48.3173   4
  -5   1   7 2004.05 46.8149  13
  -5   1   7 2105.06 47.6321  12
  -3  -1   7 564.910 14.0996  12
   3  -1  -7 559.582 16.0048   9
   3  -1  -7 559.029 16.7908   6
  -3  -1   7 574.612 15.9364   5
   3  -1  -7 540.714 15.1444   7
   3  -1  -7 543.781 17.6685  15
  -3  -1   7 532.914 14.3047   8
  -3  -1   7 559.057 18.0263  16
  -3   1   7 550.782 15.1087   8
  -3   1   7 576.259 13.9813  12
   3   1  -7 558.088 16.2424   7
   3   1  -7 561.391 16.0278   9
   3   1  -7 555.854 17.3583  15
  -3   1   7 538.794 18.5231  16
  -3   1   7 548.165 14.8863  13
  -1  -1   7 2746.48 55.1032  12
   1  -1  -7 2502.88 59.9082   6
   1  -1  -7 2445.35 58.7791   7
   1  -1  -7 2421.90 58.4163   9
   1  -1  -7 2619.85 61.8431  15
  -1  -1   7 2566.59 55.2339  12
   1  -1  -7 2491.23 59.4193  11
  -1  -1   7 2541.72 60.9089  16
   1  -1  -7 2452.69 57.4531   1
   1   1  -7 2486.01 57.1883   1
   1   1  -7 2536.13 58.8850   9
   1   1  -7 2609.51 60.0995   7
  -1   1   7 2383.73 58.8108  13
   1   1  -7 2532.68 57.9824  11
   1   1  -7 2560.35 61.3862  15
  -1  -1  -7 306.115 11.6202  11
   1  -1   7 294.768 13.9227  10
  -1  -1  -7 298.043 12.4075  15
  -1  -1  -7 291.977 11.0835   7
  -1  -1  -7 291.361 10.2557   1
  -1  -1  -7 289.594 9.66415   9
  -1  -1  -7 307.151 10.9188   6
   1   1   7 299.613 12.9642  10
  -1   1  -7 287.887 12.4230  15
  -1   1  -7 268.867 9.96463   9
  -1   1  -7 281.607 11.5423   7
  -1   1  -7 275.971 10.0533   1
  -1   1  -7 263.850 10.1888  11
   3  -1   7 1236.22 29.0343  12
  -3  -1  -7 1230.29 34.9334  11
  -3  -1  -7 1245.54 35.3619  15
  -3  -1  -7 1222.39 33.1042   1
  -3   1  -7 1189.88 33.7664  11
   3   1   7 1266.31 28.5657  12
   3   1   7 1144.90 35.2659  14
  -3   1  -7 1222.39 32.9111   1
  -3   1  -7 1261.96 35.2199   7
   3   1   7 1277.55 32.1897   4
   5  -1   7 104.557 5.92805  12
   5  -1   7 99.3242 9.15402  14
   5  -1   7 114.325 8.35730   4
  -5  -1  -7 95.2457 8.76203  11
  -5  -1  -7 99.9132 7.79433   1
   5   1   7 104.019 6.87897   4
   5   1   7 105.654 9.67507  14
   5   1   7 105.758 5.61747  12
  -5   1  -7 111.667 8.58190  11
  -5   1  -7 101.195 7.85269   1
 -12  -2   7 133.140 8.91389   8
 -12  -2   7 126.480 9.31636   5
  12  -2  -7 124.392 7.96665   4
  12   2  -7 131.693 8.63813   4
 -12   2   7 129.674 8.60814   8
 -12   2   7 124.454 10.6929  11
  10  -2  -7 247.235 10.7627   9
 -10  -2   7 255.003 12.2145   5
 -10  -2   7 236.935 14.3530  16
 -10  -2   7 247.309 10.9382   8
  10  -2  -7 238.972 10.7855   4
  10   2  -7 259.472 11.5313   4
 -10   2   7 250.119 13.5382  16
 -10   2   7 245.649 11.2701   5
 -10   2   7 243.443 11.4519   8
  -8  -2   7 276.322 10.2061   8
  -8  -2   7 277.824 11.8141   5
   8  -2  -7 293.718 10.8092   4
   8  -2  -7 283.291 12.4389  15
  -8  -2   7 265.012 10.6439  12
   8  -2  -7 295.510 11.2645   9
  -8  -2   7 291.696 14.0732  16
  -8   2   7 279.945 10.7806  12
  -8   2   7 259.309 10.7299   8
   8   2  -7 283.783 10.2898   9
   8   2  -7 277.126 11.0611   4
  -8   2   7 257.101 11.0197   5
  -8   2   7 279.110 13.4572  16
  -6  -2   7 645.611 17.3992   8
  -6  -2   7 649.284 18.2661  12
  -6  -2   7 647.407 19.1695   5
  -6  -2   7 631.296 21.5993  16
   6  -2  -7 671.535 20.7787  15
   6  -2  -7 636.887 18.8234   9
   6  -2  -7 623.781 17.6139   4
   6   2  -7 648.097 18.7625   4
  -6   2   7 656.482 18.1659  12
   6   2  -7 654.331 19.5924   7
  -6   2   7 664.240 19.0217   5
   6   2  -7 633.252 18.6114  15
  -6   2   7 659.025 18.4282   8
   6   2  -7 654.865 18.9306  14
  -6   2   7 660.299 21.8751  16
   6   2  -7 645.363 18.4219   9
  -6   2   7 625.091 17.5695  13
   4  -2  -7 563.610 18.1939  15
  -4  -2   7 579.000 16.4485   5
  -4  -2   7 571.942 15.3263  12
   4  -2  -7 573.092 17.3446   6
  -4  -2   7 561.063 14.6501   8
   4  -2  -7 571.796 16.5156   9
  -4  -2   7 568.966 18.6936  16
  -4   2   7 569.301 15.1065  12
   4   2  -7 557.176 17.0020   7
  -4   2   7 576.338 19.5723  16
  -4   2   7 571.886 15.6658  13
   4   2  -7 565.548 16.4170   9
  -4   2   7 580.275 16.0415   8
   4   2  -7 551.243 17.2309  15
   2  -2  -7 694.297 18.7326   7
   2  -2  -7 693.742 19.4680   9
  -2  -2   7 723.050 21.3180  16
  -2  -2   7 743.781 17.7413  12
   2  -2  -7 728.602 21.0962   6
  -2  -2   7 763.383 19.3320   5
   2  -2  -7 737.465 22.1578  15
  -2   2   7 724.835 19.9431  13
   2   2  -7 731.374 20.0156   9
   2   2  -7 761.482 21.0337   7
  -2   2   7 743.756 17.1207  12
   2   2  -7 735.625 21.5994  15
   0  -2  -7 782.621 21.0623   6
   0  -2   7 664.053 19.9089  16
   0  -2  -7 700.525 20.7889  11
   0  -2   7 702.761 16.3883  12
   0  -2   7 696.075 23.9659  10
   0  -2  -7 671.178 19.2593   7
   0  -2  -7 708.505 21.9594  15
   0  -2  -7 654.554 18.4618   9
   0  -2  -7 675.681 18.8527   1
   0   2  -7 677.286 18.5603   1
   0   2  -7 704.427 21.0478   7
   0   2  -7 724.571 19.6954   9
   0   2   7 688.194 21.5436  10
   0   2  -7 750.428 22.3298  15
  -2  -2  -7 430.149 14.3937   1
   2  -2   7 393.760 18.2706  10
   2  -2   7 438.809 14.6592   2
  -2  -2  -7 431.217 14.5465   6
  -2  -2  -7 456.610 16.4082  11
   2  -2   7 443.768 11.5953  12
  -2  -2  -7 443.971 16.5304  15
  -2   2  -7 427.270 16.1684   7
  -2   2  -7 415.712 14.2566   1
   2   2   7 434.829 13.4908   4
   2   2   7 432.099 16.3486  14
   2   2   7 450.133 10.2741  12
  -4  -2  -7 384.655 16.7560  11
  -4  -2  -7 375.029 14.7680   1
   4  -2   7 383.595 14.6705   4
   4  -2   7 390.396 12.2063  12
  -4   2  -7 385.433 14.6631   1
  -4   2  -7 392.578 16.8048   7
   4   2   7 385.929 11.5102  12
   4   2   7 375.993 16.8636  14
   6  -2   7 200.993 9.45427  12
  -6  -2  -7 202.688 10.8668   1
  -6  -2  -7 200.137 12.8012  11
   6  -2   7 193.650 11.1591   4
  -6   2  -7 183.409 10.8041   1
  11  -3  -7 945.094 27.4597   9
  11  -3  -7 890.505 26.8672   4
 -11  -3   7 882.872 28.6359   5
 -11  -3   7 909.853 26.9632   8
  11   3  -7 924.533 28.2095   4
 -11   3   7 930.218 30.6522  11
 -11   3   7 925.296 27.8761   8
  -9  -3   7 231.018 9.72534   8
   9  -3  -7 213.671 9.27340   4
  -9  -3   7 228.797 11.0062   5
   9  -3  -7 235.563 12.1265  15
   9  -3  -7 225.988 10.5637   9
  -9  -3   7 242.316 13.5296  16
  -9   3   7 227.133 12.3568  16
  -9   3   7 215.784 10.1661   5
  -9   3   7 226.481 10.1820   8
   9   3  -7 225.093 10.3662   4
  -7  -3   7 1410.63 35.2553   8
   7  -3  -7 1469.50 39.6953  15
  -7  -3   7 1416.80 40.9797  16
   7  -3  -7 1450.49 35.5692   4
  -7  -3   7 1461.34 37.7522   5
  -7  -3   7 1406.42 36.5167  12
   7  -3  -7 1496.25 37.4805   9
   7   3  -7 1450.14 37.9855  14
  -7   3   7 1465.72 40.6504  16
   7   3  -7 1464.44 36.0837   9
   7   3  -7 1453.64 38.4769   7
  -7   3   7 1407.43 36.1428  13
  -7   3   7 1427.81 36.3875  12
   7   3  -7 1456.19 37.1834   4
  -7   3   7 1467.02 36.7846   8
  -7   3   7 1430.00 36.8938   5
  -5  -3   7 376.686 11.9469  12
  -5  -3   7 379.601 14.8973  16
  -5  -3   7 358.263 11.2619   8
  -5  -3   7 392.979 12.9086   5
   5  -3  -7 378.450 11.0803   4
   5  -3  -7 400.896 14.8603  15
   5  -3  -7 374.926 13.1233   6
   5  -3  -7 395.664 12.9371   9
  -5   3   7 398.707 15.6545  16
  -5   3   7 403.734 12.0904  12
  -5   3   7 387.465 12.4330   8
  -5   3   7 366.565 12.0028  13
   5   3  -7 399.459 12.5702   9
   5   3  -7 376.559 12.4650  15
   5   3  -7 365.790 13.2539   7
  -3  -3   7 1532.87 36.1106  12
  -3  -3   7 1637.69 37.2471   5
   3  -3  -7 1498.01 37.2859   9
   3  -3  -7 1502.38 38.8286   6
   3  -3  -7 1525.16 40.1730  15
  -3  -3   7 1538.09 39.4296  16
   3   3  -7 1544.98 37.5773   9
  -3   3   7 1477.53 37.0424   8
  -3   3   7 1495.07 37.5467  13
   3   3  -7 1499.13 38.4909  15
   3   3  -7 1586.85 38.9935   7
  -3   3   7 1512.41 35.6055  12
  -1  -3   7 426.179 17.4196  10
  -1  -3   7 399.954 11.7717   5
   1  -3  -7 403.239 12.4678   9
   1  -3  -7 412.380 14.3099  11
   1  -3  -7 447.108 14.8075   6
  -1  -3   7 419.400 11.2673  12
   1  -3  -7 427.439 15.3597  15
  -1  -3   7 406.779 13.5913  16
   1   3  -7 419.496 14.4275   7
  -1   3   7 418.206 12.6378   3
  -1   3   7 420.169 13.9970  13
   1   3  -7 422.964 13.4559   9
  -1   3   7 422.226 10.2850  12
   1   3  -7 432.488 15.0713  15
  -1  -3  -7 1057.15 30.0804  11
  -1  -3  -7 1059.90 29.0924   6
  -1  -3  -7 1063.12 30.1896  15
   1  -3   7 1063.83 28.6982   2
  -1  -3  -7 1007.37 27.4322   1
   1  -3   7 1038.19 33.5484  10
   1  -3   7 1086.62 25.2002  12
   1   3   7 1052.16 29.2210  14
  -1   3  -7 1018.40 27.3012   1
   1   3   7 1005.59 23.4342  12
  -1   3  -7 1070.51 30.0958   7
  -3  -3  -7 340.018 15.0075  11
   3  -3   7 312.814 10.4958  12
  -3  -3  -7 348.083 13.3433   1
  -3  -3  -7 326.445 13.8812  15
   3   3   7 351.255 9.78543  12
   3   3   7 335.760 14.7801  14
  -3   3  -7 321.817 12.7092   1
  -3   3  -7 306.942 14.3067   7
  -5  -3  -7 644.152 21.7791   1
  -5  -3  -7 612.289 23.7634  11
   5  -3   7 669.327 22.1138   4
   5  -3   7 641.092 19.0875  12
  -5   3  -7 627.971 21.4586   1
   5   3   7 603.431 17.9315  12
 -12   4   7 112.141 7.87126   8
 -12   4   7 95.4304 12.1198  11
  12   4  -7 87.0867 7.29995   4
  10  -4  -7 122.327 8.36294   9
 -10  -4   7 122.354 10.7574  16
  10  -4  -7 131.164 9.84578  15
  10  -4  -7 144.929 8.09729   4
 -10  -4   7 122.885 9.00368   5
 -10  -4   7 131.084 7.30614   8
 -10   4   7 133.224 8.50406   8
  10   4  -7 138.111 8.33982   4
 -10   4   7 118.733 7.65094   5
  -8  -4   7 45.8054 4.10050   8
   8  -4  -7 62.2102 5.64512   9
  -8  -4   7 44.6050 5.34567   5
   8  -4  -7 46.1003 6.23167  15
  -8  -4   7 47.0952 6.51036  16
   8   4  -7 46.7128 5.15795  14
   8   4  -7 45.5748 5.52096   7
  -8   4   7 48.3412 4.15594  12
   8   4  -7 49.3718 5.08466   4
  -8   4   7 47.5345 4.91435   5
  -8   4   7 43.4795 4.69968   8
  -8   4   7 49.2901 5.84247  16
  -8   4   7 46.0404 4.17580  13
  -6  -4   7 193.445 8.26376  12
  -6  -4   7 195.087 10.7323  16
   6  -4  -7 188.963 8.92123   6
   6  -4  -7 189.572 8.76910   9
   6  -4  -7 193.786 10.2208  15
  -6  -4   7 191.053 8.69876   5
   6   4  -7 199.674 9.55538  14
   6   4  -7 208.531 9.83680   7
  -6   4   7 188.081 8.21131   8
  -6   4   7 188.450 10.7246  16
   6   4  -7 187.346 7.79804   9
  -6   4   7 196.381 8.01576  12
  -6   4   7 192.719 8.69922   5
   6   4  -7 185.394 8.59656   4
  -6   4   7 191.053 8.38412  13
  -4  -4   7 30.3658 3.57648   5
   4  -4  -7 27.5973 4.20434  15
   4  -4  -7 30.7586 3.48743   9
  -4  -4   7 28.8772 4.22702  16
   4  -4  -7 29.0129 3.72559   6
  -4  -4   7 36.1142 3.12048  12
   4   4  -7 25.7956 3.75209   7
  -4   4   7 25.3796 3.31784  13
  -4   4   7 30.5527 2.78871  12
   4   4  -7 26.3454 3.14496  15
  -4   4   7 30.0031 4.95480  16
   4   4  -7 29.6516 3.27969   9
  -4   4   7 31.6044 3.56349   8
  -2  -4   7 47.5611 4.15403  16
   2  -4  -7 45.8425 4.80829  15
  -2  -4   7 48.3707 3.21827  12
  -2  -4   7 46.3117 3.32115   5
   2  -4  -7 49.9670 4.83665   6
   2  -4  -7 43.4870 3.23845   9
  -2   4   7 48.1633 2.81051  12
   2   4  -7 49.9608 4.42382   7
  -2   4   7 49.6478 4.09011  13
   2   4  -7 46.8815 3.86669   9
   2   4  -7 47.3210 4.47832  15
  -2   4   7 48.9137 3.80262   3
   0  -4   7 67.0748 3.83887  12
   0  -4   7 65.4176 5.67113   2
   0  -4  -7 64.9561 5.77776  11
   0  -4  -7 64.1242 5.66835  15
   0  -4   7 68.4128 7.20314  10
   0  -4  -7 70.7863 5.43311   6
   0  -4  -7 65.7605 3.81282   9
   0   4   7 62.5270 5.52119  13
   0   4  -7 64.4367 5.41103   7
   0   4  -7 68.7290 4.14671   1
   0   4   7 68.6100 4.89668   3
   0   4   7 67.1520 3.07403  12
  -2  -4  -7 2.16670 2.01623   6
  -2  -4  -7 1.38076 1.95291  15
  -2  -4  -7 1.32780 1.61651   1
   2  -4   7 2.30447 1.34868  12
  -2  -4  -7 -0.3872 2.43960  11
   2  -4   7 0.34185 1.77744   2
  -2   4  -7 0.77033 1.66784   1
   2   4   7 0.83634 0.94587  12
   2   4   7 0.67548 1.95130  14
  -2   4  -7 0.33262 1.80052   7
   2   4   7 1.62401 2.40609   3
   4  -4   7 42.7176 4.59244  12
  -4  -4  -7 44.4675 6.61826  11
  -4  -4  -7 49.6127 5.34901   1
  -4   4  -7 48.0216 6.68200   7
  -4   4  -7 39.0102 5.01791   1
   4   4   7 50.8637 6.71627  14
   4   4   7 52.2152 3.77371  12
   6  -4   7 -0.0052 2.07279  12
  -6  -4  -7 1.76486 4.00733  11
  -6  -4  -7 0.81935 2.86901   1
   6  -4   7 -1.1668 3.68821   4
   6   4   7 -0.5650 3.61457   3
   6   4   7 2.61725 2.23478  12
  -6   4  -7 -0.8904 2.62031   1
 -11  -5   7 106.463 8.46406   5
  11  -5  -7 101.214 9.37749  15
  11  -5  -7 105.979 7.69606   9
  11   5  -7 108.229 8.55367   4
 -11   5   7 111.200 7.75063   8
   9  -5  -7 564.575 19.1840   9
  -9  -5   7 552.243 20.0262   5
  -9  -5   7 553.781 23.4963  16
   9   5  -7 574.821 21.0419   7
  -9   5   7 611.068 19.0582   8
   9   5  -7 580.492 19.5061   4
  -9   5   7 522.203 18.6393  13
   9   5  -7 525.983 20.2530  14
  -7  -5   7 330.159 15.5732  16
  -7  -5   7 339.203 12.5689  12
   7  -5  -7 321.135 12.4973   6
   7  -5  -7 350.285 15.6947  15
   7  -5  -7 348.860 13.2527   9
  -7  -5   7 320.903 12.8997   5
   7   5  -7 322.360 12.7855   4
   7   5  -7 337.545 14.1090   7
  -7   5   7 341.362 12.5984   5
   7   5  -7 341.099 14.2345  14
  -7   5   7 335.303 15.0543  16
   7   5  -7 337.539 11.4843   9
  -7   5   7 331.055 12.5700   8
  -7   5   7 325.754 12.5620  13
  -7   5   7 355.356 12.5119  12
   5  -5  -7 1521.54 40.5090   6
  -5  -5   7 1586.06 39.3037  12
   5  -5  -7 1631.27 43.3172  15
  -5  -5   7 1593.39 42.9351  16
  -5  -5   7 1600.48 39.5776   5
   5  -5  -7 1550.50 39.7945   9
   5   5  -7 1589.92 41.4283   7
  -5   5   7 1596.25 38.9332  12
   5   5  -7 1600.70 39.0160   9
  -5   5   7 1515.36 39.2522   8
  -5   5   7 1571.44 43.9979  16
  -5   5   7 1518.32 39.7750  13
  -3  -5   7 695.903 19.1672  12
   3  -5  -7 709.240 22.6476  15
   3  -5  -7 692.334 19.5582   9
   3  -5  -7 706.501 21.7428   6
  -3  -5   7 658.495 21.1858  16
  -3  -5   7 696.646 19.0615   5
  -3  -5   7 722.900 21.2326   2
  -3   5   7 687.363 19.7378   8
   3   5  -7 703.566 20.0497   9
  -3   5   7 691.980 18.6003  12
  -3   5   7 691.010 20.6468  13
   3   5  -7 673.101 21.4221   7
  -1  -5   7 1653.19 42.6280   2
   1  -5  -7 1604.69 39.5326   9
   1  -5  -7 1680.76 43.5098   6
   1  -5  -7 1701.58 43.8289  15
  -1  -5   7 1644.80 39.6876  12
  -1  -5   7 1553.36 46.4662  10
  -1   5   7 1670.49 40.6920   3
   1   5  -7 1626.24 42.8793   7
  -1   5   7 1678.88 42.9081  13
  -1   5   7 1692.83 38.8366  12
   1  -5   7 451.598 16.2199   2
  -1  -5  -7 462.522 17.4319  11
  -1  -5  -7 453.649 16.7261   6
  -1  -5  -7 456.510 16.7206  15
   1  -5   7 468.681 13.9018  12
  -1   5  -7 444.996 17.0149   7
   1   5   7 456.013 15.8276   3
   1   5   7 437.876 12.6641  12
   1   5   7 438.121 16.8415  13
  -1   5  -7 436.464 14.3263   1
   3  -5   7 689.718 22.2763   2
  -3  -5  -7 611.617 22.0622   6
   3  -5   7 713.790 20.1954  12
  -3  -5  -7 698.858 24.9918  11
  -3   5  -7 671.486 23.8048   7
   3   5   7 711.327 19.1049  12
   3   5   7 685.063 24.2302  13
   3   5   7 720.959 23.2043   3
  -3   5  -7 702.841 21.7065   1
   5  -5   7 142.481 9.74860   4
  -5  -5  -7 164.561 11.3521  11
   5  -5   7 134.490 7.71293  12
  -5   5  -7 149.920 10.8599   7
   5   5   7 141.404 7.52586  12
   5   5   7 141.737 10.3168   3
  -5   5  -7 134.071 9.06205   1
 -10  -6   7 29.3566 5.78480   5
  10  -6  -7 19.0297 3.99367   9
  10   6  -7 21.6033 4.54225   4
  10   6  -7 16.3027 4.79942   7
 -10   6   7 28.4186 4.66566   8
  -8  -6   7 132.090 10.8135  16
  -8  -6   7 133.953 9.05883   5
   8  -6  -7 135.967 8.69955   9
   8   6  -7 136.093 8.41956   4
   8   6  -7 148.040 9.54394  14
  -8   6   7 115.506 7.22296   5
  -8   6   7 130.098 9.13574  16
   8   6  -7 141.881 9.68077   7
  -8   6   7 143.913 7.87533   8
  -8   6   7 122.326 7.99379  13
   6  -6  -7 2.36657 2.37291   6
  -6  -6   7 15.3683 4.33728  16
   6  -6  -7 0.53949 2.66893  15
  -6  -6   7 8.51524 2.37745   2
   6  -6  -7 1.66807 2.11655   9
  -6  -6   7 17.4294 3.89578   5
  -6  -6   7 2.80925 1.57631  12
   6   6  -7 -0.3877 1.84881  14
  -6   6   7 0.58684 1.21754  12
   6   6  -7 0.49211 1.65391   9
  -6   6   7 0.51523 1.54010  13
   6   6  -7 0.89799 2.33167   7
  -6   6   7 4.91171 2.82933  16
   4  -6  -7 71.7894 6.69572  15
  -4  -6   7 77.6131 6.08429   2
   4  -6  -7 68.7644 5.62108   6
  -4  -6   7 78.0859 4.99355  12
   4  -6  -7 76.2651 5.03777   9
  -4  -6   7 98.6689 7.14175  16
  -4  -6   7 78.5464 5.31848   5
  -4   6   7 73.6387 4.77123  12
   4   6  -7 63.0509 5.93909   7
  -4   6   7 66.5001 5.67930  13
   4   6  -7 68.1894 5.12541   9
  -4   6   7 69.1543 5.00225   8
   2  -6  -7 8.44438 3.16036   6
   2  -6  -7 8.66646 1.78300   9
   2  -6  -7 9.84243 3.05902  15
  -2  -6   7 13.1154 2.45482  12
  -2  -6   7 13.9816 3.61523   2
  -2  -6   7 9.22153 3.24089  10
   2   6  -7 9.47519 2.75887   7
  -2   6   7 10.9022 2.31754   3
  -2   6   7 9.83776 1.91817  12
  -2   6   7 9.07328 2.46690  13
   0  -6   7 2.58484 1.55926  12
   0  -6   7 2.60812 2.23959   2
   0  -6  -7 0.50759 1.83264  15
   0  -6  -7 2.52952 2.56925   6
   0  -6  -7 4.70426 2.79692  11
   0   6   7 0.24697 1.02736  12
   0   6  -7 0.01496 2.47057   7
   0   6   7 0.73120 2.26950  13
   0   6   7 2.25194 2.27081   3
  -2  -6  -7 29.4010 4.63978   6
   2  -6   7 35.7842 5.49427   2
   2  -6   7 34.1468 3.95360  12
  -2  -6  -7 50.2419 6.84963  11
   2   6   7 36.6618 3.40624  12
  -2   6  -7 43.1699 4.58483   1
   2   6   7 45.1041 5.33813   3
   2   6   7 32.3397 5.59631  13
  -2   6  -7 58.0648 6.07473   7
   4  -6   7 6.93851 2.59269  12
  -4  -6  -7 5.70615 3.44005  11
   4   6   7 5.18628 2.19068  12
  -4   6  -7 8.97429 4.34965   7
  -4   6  -7 5.70291 3.00836   1
   4   6   7 15.8793 3.91547   3
  -9  -7   7 818.348 27.3947   5
   9  -7  -7 897.396 27.3226   9
   9   7  -7 789.688 25.5496   4
  -9   7   7 873.185 25.8742   8
   9   7  -7 839.757 28.5914   7
   7  -7  -7 256.906 11.9143   9
   7  -7  -7 272.588 14.7848  15
  -7  -7   7 274.122 14.6794  16
   7  -7  -7 248.843 11.2080   6
  -7  -7   7 271.620 12.4056   5
   7   7  -7 263.074 13.1843   7
  -7   7   7 257.886 11.0853   8
  -7   7   7 264.636 11.1323  12
  -7   7   7 238.362 11.6646  13
  -7   7   7 247.809 10.8196   5
   7   7  -7 276.981 13.4885  14
  -7   7   7 245.398 13.1279  16
  -5  -7   7 791.514 24.0801   2
   5  -7  -7 783.260 24.2122   6
  -5  -7   7 730.709 25.6095  16
  -5  -7   7 785.583 23.0455   5
   5  -7  -7 841.530 27.2713  15
  -5  -7   7 785.720 23.1154  12
   5  -7  -7 760.307 23.0933   9
  -5   7   7 773.076 23.0078   8
  -5   7   7 771.572 22.6353  12
   5   7  -7 769.486 25.1363   7
  -5   7   7 824.362 28.0761  16
  -5   7   7 784.515 24.0848  13
  -3  -7   7 183.344 9.96378   2
  -3  -7   7 177.316 8.46493  12
   3  -7  -7 179.586 10.4134  15
   3  -7  -7 177.961 10.0793   6
   3  -7  -7 177.733 8.08519   9
   3   7  -7 177.075 8.29024   3
  -3   7   7 169.951 9.15262  13
   3   7  -7 160.568 9.37789   7
  -3   7   7 193.094 8.74141   8
  -3   7   7 196.982 8.25237  12
  -1  -7   7 549.751 17.3833  12
   1  -7  -7 580.549 20.1766  15
  -1  -7   7 573.708 20.1118   2
   1  -7  -7 569.728 20.3733   6
  -1   7   7 570.088 19.8751  13
  -1   7   7 548.063 17.7529   3
  -1   7   7 552.397 16.6977  12
   1   7  -7 554.136 19.8715   7
  -1  -7  -7 211.745 11.7588   6
  -1  -7  -7 195.908 11.2873  11
   1  -7   7 200.556 8.99261  12
  -1  -7  -7 206.347 10.5416  15
   1  -7   7 207.211 11.5790   2
   1   7   7 207.137 11.7914  13
   1   7   7 207.770 10.5395   3
  -1   7  -7 210.407 11.3068   7
   1   7   7 202.115 8.44900  12
  -3  -7  -7 491.887 19.5034   6
  -3  -7  -7 540.943 21.8374  11
   3  -7   7 506.104 17.3713  12
   3  -7   7 498.505 19.4771   2
   3   7   7 509.928 16.4915  12
  -3   7  -7 513.944 18.1659   1
   3   7   7 534.110 19.9558   3
  -3   7  -7 518.659 20.9422   7
   5  -7   7 303.539 14.6336  12
   5  -7   7 270.803 14.9946   4
  -5   7  -7 291.065 13.6723   1
 -10  -8   7 59.8637 8.07049   5
  10  -8  -7 54.6662 6.48614   9
 -10   8   7 60.6189 6.31776   8
  10   8  -7 71.8020 8.48724   7
  -8  -8   7 363.069 15.5615   5
   8  -8  -7 347.119 14.6797   9
   8   8  -7 344.858 16.3994   7
  -8   8   7 315.596 16.6800  13
  -8   8   7 340.764 13.6298   8
  -6  -8   7 90.1888 7.51441   5
   6  -8  -7 97.8969 7.41238   6
  -6  -8   7 92.6823 7.14604   2
   6  -8  -7 114.780 7.70603   9
  -6  -8   7 103.703 9.15453  16
   6  -8  -7 98.1984 9.10754  15
  -6   8   7 102.468 8.53277  16
  -6   8   7 87.4239 7.40601  13
   6   8  -7 94.4656 8.34951   7
  -6   8   7 109.472 6.68120  12
  -6   8   7 102.077 7.12992   8
   4  -8  -7 522.904 16.6571   9
   4  -8  -7 507.299 19.8924  15
   4  -8  -7 513.045 18.5919   6
  -4  -8   7 459.187 17.8122   2
  -4  -8   7 461.839 16.3574  12
  -4   8   7 473.531 17.7957  13
  -4   8   7 484.465 16.4709   8
   4   8  -7 472.830 18.3590   7
  -4   8   7 476.332 15.9506  12
  -2  -8   7 340.839 14.8915   2
  -2  -8   7 321.565 12.6372  12
   2  -8  -7 327.360 14.6588  15
   2  -8  -7 340.277 15.2407   6
  -2   8   7 352.936 13.3224   8
  -2   8   7 322.243 12.1522  12
   2   8  -7 334.741 14.7853   7
  -2   8   7 324.125 14.0817  13
  -2   8   7 323.587 14.1639   3
   2   8  -7 336.528 13.3615   3
   0  -8   7 206.917 11.2613   2
   0  -8  -7 208.016 11.9459   6
   0  -8   7 197.531 9.56074  12
   0  -8  -7 188.706 10.4862  15
   0   8  -7 198.743 11.5889   7
   0   8   7 206.981 11.5334  13
   0   8   7 199.797 10.3211   3
   0   8   7 202.795 8.89093  12
  -2  -8  -7 435.044 19.0694  11
  -2  -8  -7 445.153 18.5965   6
   2  -8   7 452.390 18.5759   2
   2  -8   7 441.123 16.0428  12
  -2   8  -7 440.036 16.2447   1
  -2   8  -7 446.224 18.4564   7
   2   8   7 461.192 17.6945   3
   2   8   7 425.114 14.9179  12
   4  -8   7 65.5071 6.10619  12
  -4  -8  -7 71.4459 8.86192  11
  -4  -8  -7 73.0392 7.60577   6
   4   8   7 77.7443 8.53487   3
  -4   8  -7 63.9891 6.74854   1
   4   8   7 72.4298 5.68068  12
  -4   8  -7 76.2438 8.72674   7
  -9  -9   7 18.2405 5.35905   5
   9   9  -7 23.2545 5.69250   7
  -9   9   7 15.9212 3.31872   8
   7  -9  -7 963.803 29.1034   9
   7  -9  -7 977.490 33.5953  15
  -7  -9   7 947.320 38.4826  16
  -7  -9   7 924.394 28.8890   5
   7   9  -7 951.277 31.0258   7
  -7   9   7 941.180 27.8792   8
   5  -9  -7 107.871 7.33129   9
   5  -9  -7 104.350 9.25799  15
  -5  -9   7 93.4734 7.30910   2
   5  -9  -7 109.049 8.26062   6
  -5   9   7 97.5735 8.03178  13
  -5   9   7 99.6269 7.11204   8
  -5   9   7 106.263 7.06845  12
  -5   9   7 106.873 9.33507  16
   5   9  -7 94.0389 8.35124   7
  -3  -9   7 1792.70 48.3663   2
   3  -9  -7 1530.68 46.3770   9
   3  -9  -7 1832.67 48.8288   6
  -3  -9   7 1788.32 46.1720  12
   3  -9  -7 1869.49 49.7761  15
  -3   9   7 1827.90 46.1459   8
  -3   9   7 1802.00 45.6117  12
   3   9  -7 1760.50 48.2433   7
  -3   9   7 1810.41 48.1394  13
  -1  -9   7 102.659 7.19632  12
  -1  -9   7 118.953 8.81256   2
   1  -9  -7 112.353 8.25018  15
   1  -9  -7 108.006 8.63814   6
   1   9  -7 102.048 8.08867   7
  -1   9   7 108.722 6.76578  12
  -1   9   7 105.957 7.26984   3
  -1   9   7 119.325 8.49836  13
   1  -9   7 1331.14 37.2516  12
   1  -9   7 1345.69 40.1306   2
  -1  -9  -7 1390.20 41.0001   6
  -1   9  -7 1344.07 40.0290   7
   1   9   7 1349.81 36.3228  12
   1   9   7 1425.05 39.0316   3
  -3  -9  -7 19.6048 4.98383   6
   3  -9   7 16.5264 4.31730   2
   3  -9   7 14.0950 3.44839  12
  -3   9  -7 12.6614 4.13595   7
   3   9   7 15.3407 3.08301  12
  -8 -10   7 31.6173 6.00046   5
   8 -10  -7 43.7626 6.00846   9
   8 -10  -7 27.1785 6.21786  15
   8  10  -7 42.9933 7.28754   7
  -8  10   7 30.0204 4.31842   8
   6 -10  -7 17.6134 4.44366  15
   6 -10  -7 23.8354 4.29838   9
  -6  10   7 19.0380 3.52790   8
   6  10  -7 21.8229 5.21563   7
  -4 -10   7 17.7792 4.73859   2
   4 -10  -7 28.3300 5.67782  15
   4 -10  -7 22.7081 4.91599   6
   4 -10  -7 19.3307 3.66005   9
  -4  10   7 23.7057 3.87725   8
   4  10  -7 16.7416 4.80505   7
  -4  10   7 20.0555 3.89347  12
  -2 -10   7 4.60509 4.14174   2
  -2 -10   7 0.61691 2.33186  12
   2 -10  -7 1.72636 2.39004  15
   2 -10  -7 0.64148 3.52790   6
   2  10  -7 1.31400 3.40826   7
  -2  10   7 0.36873 1.79226   8
  -2  10   7 0.93626 1.91775  12
   2  10  -7 0.94901 1.84591   3
   0 -10   7 2.14835 2.54806  12
   0 -10   7 5.36918 3.66349   2
   0 -10  -7 6.70207 4.27177   6
   0  10  -7 8.59568 4.36891   7
   0  10   7 6.71898 3.81457   3
   0  10   7 8.33694 2.71167  12
   2 -10   7 39.8643 7.51625   2
   2 -10   7 31.6517 4.84504  12
  -2 -10  -7 28.6568 5.89508   6
   2  10   7 27.2531 5.71114   3
  -2  10  -7 33.9501 6.42735   7
   2  10   7 25.9816 3.82012  12
   7 -11  -7 330.779 18.2157  15
   7 -11  -7 323.784 14.1995   9
   7  11  -7 309.971 16.2272   7
   5 -11  -7 204.759 10.3791   9
   5 -11  -7 210.172 13.2642  15
  -5 -11   7 185.470 11.5310   2
   5 -11  -7 173.330 11.6123   6
   5  11  -7 198.077 12.5001   7
  -5  11   7 216.403 10.6955   8
   3 -11  -7 231.158 13.5732   6
   3 -11  -7 219.540 12.6793  15
  -3 -11   7 231.684 13.5576   2
  -3  11   7 231.052 11.1106  12
   3  11  -7 231.548 12.7505   7
  -3  11   7 224.778 11.1508   8
  -1 -11   7 95.6772 8.75090   2
   1 -11  -7 95.6774 9.81472   6
  -1  11   7 95.9352 7.51183   8
  -1  11   7 151.085 15.0075   3
  -1  11   7 107.833 7.55399  12
   1  11  -7 96.4472 9.12308   7
  -1 -11  -7 256.446 14.5835   6
   1 -11   7 186.295 12.9831  12
  -1  11  -7 258.899 13.6714   7
   1  11   7 244.145 13.1514   3
   1  11   7 236.660 11.3029  12
   4 -12  -7 14.4839 4.15180  15
   4 -12  -7 10.1235 4.63325   6
  -4 -12   7 4.77624 3.84107   2
   4  12  -7 9.32016 3.54269   7
  -4  12   7 6.84840 3.04980   8
   2 -12  -7 89.9928 9.77544   6
  -2 -12   7 68.7327 7.80109   2
  -2  12   7 65.5654 6.14841  12
  -2  12   7 66.7876 5.90255   8
 -12   0   8 425.244 16.4722   8
 -12   0   8 390.799 16.3927   5
  12   0  -8 420.113 16.5476   4
  10   0  -8 112.421 7.18968   4
 -10   0   8 128.471 8.07387   8
 -10   0   8 100.159 9.67795  16
 -10   0   8 123.260 8.62823   5
  10   0  -8 125.576 7.20113   9
  -8   0   8 1708.25 44.3954   5
  -8   0   8 1748.56 48.5540  16
  -8   0   8 1730.75 42.9187   8
   8   0  -8 1785.83 43.8971   9
   8   0  -8 1679.85 43.7110   7
   8   0  -8 1750.77 44.9302  15
  -8   0   8 1731.56 43.3704  12
   8   0  -8 1719.85 43.5411   4
  -6   0   8 507.017 14.5775   8
  -6   0   8 506.102 15.8719   5
   6   0  -8 479.016 15.5207   9
   6   0  -8 442.656 14.6688   7
   6   0  -8 464.757 14.7100   4
   6   0  -8 489.974 16.6959  15
  -6   0   8 490.589 18.5997  16
  -6   0   8 471.582 14.4709  12
  -4   0   8 3571.29 79.1976  12
  -4   0   8 3571.77 81.6198   5
   4   0  -8 3480.61 81.2663   9
   4   0  -8 3586.59 83.7803  15
  -4   0   8 3505.77 85.2530  16
  -4   0   8 3471.99 79.7341   8
   2   0  -8 261.136 10.0597   7
   2   0  -8 289.555 10.9841   6
   2   0  -8 298.406 12.2148  15
  -2   0   8 282.164 9.07070   8
  -2   0   8 271.263 12.2585  16
  -2   0   8 289.245 7.31110  12
   2   0  -8 279.579 10.1676   9
   0   0   8 2528.27 64.6613  10
   0   0  -8 2529.20 60.7099   7
   0   0  -8 2468.96 59.0489   9
   0   0  -8 2560.47 60.0575   6
   0   0   8 2444.03 62.6124  16
   0   0  -8 2536.71 62.9290  15
  -2   0  -8 7.55457 3.31072  15
  -2   0  -8 7.45112 2.66186  11
  -2   0  -8 16.8401 3.74788   7
   2   0   8 7.35924 0.94124  12
  -2   0  -8 6.23420 2.31721   1
   4   0   8 987.951 27.7728   4
  -4   0  -8 947.686 29.7412  11
   4   0   8 943.015 23.7184  12
   4   0   8 862.414 30.8550  14
  -4   0  -8 926.781 27.8766   1
  11  -1  -8 1.84698 2.43059   9
 -11  -1   8 -0.9415 3.00243   5
  11  -1  -8 1.29782 1.70307   4
 -11  -1   8 0.58396 2.82201   8
 -11   1   8 2.30917 3.52582  11
  11   1  -8 -3.5341 2.34745   4
 -11   1   8 1.05931 3.16485   8
 -11   1   8 3.56356 3.25185   5
  -9  -1   8 194.074 12.3473  16
   9  -1  -8 192.414 9.23488   4
  -9  -1   8 172.330 9.79422   5
   9  -1  -8 209.475 9.51190   9
  -9  -1   8 191.055 9.09624   8
   9   1  -8 208.129 9.55103   4
   9   1  -8 191.755 9.76490   7
  -9   1   8 201.305 10.1800   5
  -9   1   8 185.596 11.8982  16
   9   1  -8 197.999 9.16898   9
  -9   1   8 199.922 9.65331   8
  -7  -1   8 8.95098 3.54901  16
   7  -1  -8 5.63258 2.33529   9
  -7  -1   8 9.00068 3.02738   5
  -7  -1   8 5.55499 1.86836  12
  -7  -1   8 8.55907 2.30509   8
   7  -1  -8 4.11111 2.20670  15
   7  -1  -8 4.68758 1.90422   4
  -7   1   8 8.37165 2.95136  16
   7   1  -8 7.02316 2.38331   7
  -7   1   8 5.41122 2.34295   8
   7   1  -8 7.29396 1.96538   9
   7   1  -8 3.10099 1.72633  15
   7   1  -8 4.85269 2.08944   4
  -7   1   8 5.81253 2.62547   5
  -7   1   8 8.07460 2.13445  12
  -5  -1   8 95.9373 7.14929  16
  -5  -1   8 87.7136 5.49330   5
  -5  -1   8 95.6384 4.57240   8
   5  -1  -8 98.8359 5.86038   9
   5  -1  -8 91.8291 6.31113  15
  -5   1   8 96.0550 7.59009  16
  -5   1   8 91.8820 6.00651   5
  -5   1   8 106.892 4.96188  12
   5   1  -8 99.2108 6.28764  15
   5   1  -8 101.541 5.67643   9
   5   1  -8 87.7569 5.28487   7
  -5   1   8 99.1118 5.22243   8
  -3  -1   8 240.285 7.25244  12
   3  -1  -8 237.738 10.8479  15
   3  -1  -8 233.290 9.92507   6
  -3  -1   8 225.571 10.7761  16
   3  -1  -8 215.066 8.22671   7
  -3  -1   8 238.069 9.04277   5
   3  -1  -8 234.282 9.06440   9
  -3  -1   8 221.825 7.45190   8
  -3   1   8 237.318 7.01170  12
   3   1  -8 226.010 9.20018   7
   3   1  -8 236.040 9.17220   9
   3   1  -8 232.212 10.3305  15
  -3   1   8 231.251 11.4371  16
  -3   1   8 241.090 8.41687   8
   1  -1  -8 2.76191 1.71723  15
  -1  -1   8 1.83739 1.95113  16
   1  -1  -8 11.0412 2.43350   6
   1  -1  -8 7.48139 1.60175   1
  -1  -1   8 3.84678 0.58511  12
   1  -1  -8 4.47271 1.85073  11
  -1  -1   8 5.81581 1.84841   5
   1  -1  -8 6.35889 1.88778   7
  -1  -1   8 6.42908 2.76158  10
   1  -1  -8 2.49313 1.23621   9
   1   1  -8 3.42576 1.66528   7
  -1   1   8 1.74591 1.53336  13
   1   1  -8 4.82758 1.91430   9
   1   1  -8 3.57411 2.26628  15
   1  -1   8 270.991 14.1022  10
  -1  -1  -8 304.164 13.3293  15
  -1  -1  -8 278.308 11.0361   6
  -1  -1  -8 298.455 12.2238  11
   1  -1   8 277.535 6.96297  12
  -1  -1  -8 274.634 11.4058   7
  -1  -1  -8 298.704 10.2473   9
  -1  -1  -8 273.234 10.4071   1
  -1   1  -8 293.527 12.3104   7
  -1   1  -8 269.227 10.3691   1
  -1   1  -8 285.999 13.1471  15
  -3  -1  -8 20.7237 4.34718  11
   3  -1   8 18.5852 2.17202  12
  -3  -1  -8 15.7601 3.13459   1
  -3   1  -8 15.1504 3.64783   7
   3   1   8 19.0225 3.21244   4
   3   1   8 20.7591 4.87452  14
   3   1   8 19.1633 1.95942  12
  -3   1  -8 18.0344 3.51452   1
   5  -1   8 44.5453 4.29017  12
  -5  -1  -8 39.0864 5.70928  11
  -5  -1  -8 38.9970 5.04048   1
   5  -1   8 37.2853 5.48225   4
  -5   1  -8 34.9941 5.23591   1
   5   1   8 44.3611 3.70209  12
 -12  -2   8 155.398 10.2995   5
 -12  -2   8 155.835 8.93658   8
  12  -2  -8 151.916 8.89390   4
 -12   2   8 161.358 10.1406   8
  12   2  -8 150.201 9.81597   4
 -10  -2   8 976.551 29.6634   5
  10  -2  -8 971.356 28.0406   4
 -10  -2   8 964.125 27.4949   8
  10  -2  -8 1002.06 28.5869   9
 -10  -2   8 961.132 33.6129  16
 -10   2   8 989.915 32.7278  16
  10   2  -8 961.556 28.6024   4
 -10   2   8 990.751 28.9156   5
 -10   2   8 979.489 28.3721   8
  -8  -2   8 96.2756 6.14227  12
  -8  -2   8 83.5232 5.54161   8
  -8  -2   8 88.0858 7.00368   5
   8  -2  -8 95.8529 6.29299   9
  -8  -2   8 97.0145 8.77195  16
   8  -2  -8 94.7368 7.42676  15
   8  -2  -8 92.3445 5.48646   4
   8   2  -8 92.4242 6.47365   4
  -8   2   8 96.8667 6.46039   8
  -8   2   8 94.6776 6.75111   5
  -8   2   8 96.6301 5.84919  12
   8   2  -8 92.7401 6.02503   9
   8   2  -8 93.6448 6.85467   7
  -8   2   8 97.0689 8.25870  16
   6  -2  -8 922.815 25.2293   4
   6  -2  -8 983.315 27.0422   9
  -6  -2   8 972.394 25.9620  12
  -6  -2   8 1043.47 27.4646   5
  -6  -2   8 1001.74 30.4634  16
  -6  -2   8 926.301 24.7440   8
   6  -2  -8 1028.22 29.4089  15
  -6   2   8 1017.17 25.9732  12
  -6   2   8 1004.13 30.7894  16
  -6   2   8 1012.78 26.3805   8
   6   2  -8 966.190 27.1332  15
   6   2  -8 957.300 27.3619   7
   6   2  -8 1002.03 26.7554   9
  -6   2   8 1000.57 27.2960   5
  -4  -2   8 141.194 5.83092  12
  -4  -2   8 145.557 8.40930  16
   4  -2  -8 153.701 7.18914   9
   4  -2  -8 152.664 8.63180  15
  -4  -2   8 141.945 6.66368   5
   4  -2  -8 147.339 7.81676   6
  -4   2   8 148.217 6.23588  13
  -4   2   8 140.175 5.67800  12
   4   2  -8 140.628 7.28552   7
  -4   2   8 151.842 6.53058   8
   4   2  -8 133.536 6.67009   9
  -4   2   8 140.575 8.84877  16
   4   2  -8 136.272 7.43052  15
  -2  -2   8 1077.63 30.3874  16
  -2  -2   8 1106.23 25.9475  12
   2  -2  -8 1055.93 29.9436   6
   2  -2  -8 1081.51 28.2698   9
  -2  -2   8 1126.79 27.9063   5
   2  -2  -8 1102.61 31.4657  15
  -2   2   8 1129.51 25.2654  12
   2   2  -8 1098.81 28.8677   9
  -2   2   8 1042.59 28.4376  13
   2   2  -8 1110.14 29.7967   7
   2   2  -8 1136.56 31.0039  15
   0  -2  -8 460.027 17.0200  15
   0  -2  -8 426.453 13.3908   9
   0  -2  -8 456.089 15.7932  11
   0  -2  -8 449.134 15.5255   6
   0  -2  -8 472.010 13.9684   1
   0  -2  -8 433.958 14.2102   7
   0  -2   8 452.243 11.1934  12
   0  -2   8 444.185 18.7617  10
   0   2  -8 457.062 16.1309   7
   0   2  -8 448.224 16.9500  15
   0   2  -8 427.343 13.1820   1
   0   2   8 366.196 14.9143  14
   0   2  -8 468.305 14.7860   9
   0   2   8 438.397 15.3993  13
  -2  -2  -8 964.793 29.9961  15
  -2  -2  -8 993.238 27.6796   1
  -2  -2  -8 1058.49 30.3856  11
   2  -2   8 965.058 23.7452  12
  -2   2  -8 895.963 26.8127   1
   2   2   8 1008.37 30.4010  14
  -2   2  -8 941.659 29.3796   7
   2   2   8 1023.07 22.4690  12
  -4  -2  -8 519.342 20.5438  11
  -4  -2  -8 495.798 18.2162   1
   4  -2   8 530.770 18.3635   4
   4  -2   8 512.018 15.1138  12
   4   2   8 507.092 14.2810  12
  -4   2  -8 486.277 17.8761   1
   4   2   8 479.217 20.6271  14
 -11  -3   8 -2.1684 3.23495   5
 -11  -3   8 0.59386 1.95623   8
  11  -3  -8 -0.3234 2.77841   9
  11  -3  -8 1.91239 2.25008   4
 -11   3   8 2.89369 2.59303   8
 -11   3   8 -1.7024 2.32053   5
  11   3  -8 2.37775 3.02843   4
 -11   3   8 0.90963 3.70128  11
  11   3  -8 -1.2261 2.80108   7
  -9  -3   8 136.619 7.29094   8
   9  -3  -8 127.082 6.99381   4
  -9  -3   8 131.723 8.90409   5
  -9  -3   8 144.022 11.1791  16
   9  -3  -8 139.522 8.02496   9
   9  -3  -8 126.565 8.84318  15
   9   3  -8 142.670 8.51510   4
   9   3  -8 125.822 8.42486   7
  -9   3   8 128.249 8.08953   8
  -9   3   8 123.008 9.44940  16
  -9   3   8 135.036 8.23542   5
   9   3  -8 119.096 7.08333   9
  -7  -3   8 -0.5039 0.88999   8
  -7  -3   8 1.30020 2.91862  16
  -7  -3   8 -1.2125 2.55775   5
   7  -3  -8 0.52234 2.03288   9
   7  -3  -8 3.84740 1.55465   4
  -7  -3   8 1.70669 1.38161  12
   7  -3  -8 3.22281 2.67700  15
  -7   3   8 -0.2416 1.32713  12
   7   3  -8 -1.0472 1.80470   4
  -7   3   8 -0.3559 2.25371  16
  -7   3   8 1.31391 2.27056   5
   7   3  -8 3.12730 2.01092   7
   7   3  -8 3.72565 1.87198  14
   7   3  -8 0.63613 1.82533   9
  -7   3   8 1.21003 1.65914   8
   5  -3  -8 28.3111 4.30753  15
  -5  -3   8 22.5137 3.57297   5
  -5  -3   8 20.2056 2.64471  12
   5  -3  -8 19.6968 3.67876   6
  -5  -3   8 22.3257 4.33814  16
   5  -3  -8 24.3936 3.21996   9
  -5   3   8 22.9175 3.03161   8
  -5   3   8 21.5703 2.68412  12
  -5   3   8 22.6860 3.00924  13
   5   3  -8 21.5403 3.15389  15
  -5   3   8 23.9872 4.65127  16
   5   3  -8 40.1313 4.68966   7
   5   3  -8 25.8981 3.25655   9
  -3  -3   8 61.0494 4.27242   5
   3  -3  -8 53.8945 3.99609   9
  -3  -3   8 57.0921 3.47379  12
  -3  -3   8 56.6058 5.18887  16
   3  -3  -8 56.0659 5.61777  15
   3  -3  -8 60.5801 5.37362   6
  -3   3   8 57.4445 4.18089  13
   3   3  -8 58.1602 5.00871   7
   3   3  -8 54.9574 4.62740   9
   3   3  -8 50.2789 4.47114  15
  -3   3   8 56.1688 3.13681  12
  -3   3   8 54.3545 4.02168   8
   1  -3  -8 39.3974 3.43385   9
   1  -3  -8 50.5144 5.46393   6
   1  -3  -8 49.3878 5.34575  15
  -1  -3   8 43.6754 6.08611  10
  -1  -3   8 40.4977 2.62928  12
  -1   3   8 42.4591 2.06880  12
   1   3  -8 37.7648 5.08337  15
  -1   3   8 38.7296 4.24395  13
   1   3  -8 44.4490 4.52687   7
   1   3  -8 47.2046 4.06233   9
   1  -3   8 43.8655 3.09405  12
  -1  -3  -8 42.4055 4.38311   1
   1  -3   8 37.5581 4.87437   2
  -1  -3  -8 33.2900 4.93626  15
  -1  -3  -8 42.6370 5.63842  11
   1   3   8 38.4704 4.93387  13
  -1   3  -8 47.7184 5.06659   7
   1   3   8 36.8169 1.81460  12
  -1   3  -8 41.5050 4.14901   1
   3  -3   8 33.8881 3.47262  12
  -3  -3  -8 34.1517 4.81101  15
  -3  -3  -8 43.3244 6.26901  11
  -3  -3  -8 36.7483 4.54200   1
   3   3   8 32.4651 5.41667  14
  -3   3  -8 23.9088 5.01092   7
   3   3   8 39.2740 2.84541  12
  -3   3  -8 30.4363 3.98768   1
   5  -3   8 2.66227 2.45413  12
  -5  -3  -8 -0.3956 3.24539  11
   5  -3   8 2.67061 3.62287   4
  -5  -3  -8 -0.5790 2.68648   1
   5   3   8 1.72956 1.61456  12
  -5   3  -8 2.88433 2.81684   1
  10  -4  -8 1098.20 31.2332   9
 -10  -4   8 1003.81 31.3909   5
  10  -4  -8 1083.36 33.7931  15
 -10   4   8 1044.22 30.3068   8
 -10   4   8 1001.38 29.8217   5
  10   4  -8 1062.41 32.8400   7
  10   4  -8 1040.75 31.1059   4
  -8  -4   8 119.262 10.1469  16
   8  -4  -8 148.644 10.1255  15
  -8  -4   8 130.068 7.48697  12
  -8  -4   8 134.060 8.77250   5
   8  -4  -8 122.437 8.05144   9
  -8   4   8 133.047 7.36913  12
   8   4  -8 146.483 8.69272  14
  -8   4   8 124.691 7.75637   8
   8   4  -8 145.048 7.13795   9
   8   4  -8 129.351 8.83285   7
  -8   4   8 131.118 9.65266  16
  -8   4   8 132.028 7.91939   5
   8   4  -8 128.716 7.69914   4
  -6  -4   8 2321.28 56.1860  12
   6  -4  -8 2362.64 57.8433   6
  -6  -4   8 2338.29 57.1129   5
  -6  -4   8 2278.01 60.5724  16
   6  -4  -8 2432.89 60.8420  15
   6  -4  -8 2401.57 57.3614   9
   6   4  -8 2347.56 58.6016   7
  -6   4   8 2336.89 55.8926  12
  -6   4   8 2345.68 56.4587   8
  -6   4   8 2285.33 56.1295  13
   6   4  -8 2310.29 56.1339   9
  -6   4   8 2400.45 62.0231  16
  -6   4   8 2308.71 57.1230   5
   4  -4  -8 390.830 15.6585  15
  -4  -4   8 397.789 15.4048  16
  -4  -4   8 414.281 13.3283   5
  -4  -4   8 410.582 12.7193  12
   4  -4  -8 387.067 13.3728   9
   4  -4  -8 406.765 15.0704   6
   4   4  -8 386.038 13.8923  15
  -4   4   8 399.414 13.4330   8
  -4   4   8 420.137 17.9212  16
  -4   4   8 392.078 12.2536  12
  -4   4   8 382.694 13.4492  13
   4   4  -8 397.283 13.4762   9
   4   4  -8 400.688 14.6449   7
   2  -4  -8 2125.73 54.1502   6
   2  -4  -8 2137.02 51.3133   9
   2  -4  -8 2226.41 55.6626  15
   2   4  -8 2144.89 54.1922  15
   2   4  -8 2163.01 52.4735   9
  -2   4   8 2122.56 49.2839  12
  -2   4   8 2145.76 53.0462  13
   2   4  -8 2195.63 54.4198   7
   0  -4   8 174.971 6.73631  12
   0  -4   8 194.976 9.43691   2
   0  -4  -8 171.332 9.80121  15
   0  -4  -8 164.519 9.11690   6
   0  -4  -8 168.598 9.70639  11
   0   4   8 161.217 9.13973  13
   0   4   8 165.669 5.59124  12
   0   4   8 167.256 8.28312   3
   0   4  -8 174.165 9.53705   7
  -2  -4  -8 828.912 26.1585   6
  -2  -4  -8 879.093 28.2728  11
   2  -4   8 861.534 25.9842   2
   2  -4   8 856.733 22.6110  12
  -2  -4  -8 862.773 27.2834  15
  -2   4  -8 831.362 24.5041   1
  -2   4  -8 884.516 28.1456   7
   2   4   8 873.210 26.1994   3
   2   4   8 813.602 27.3339  13
   2   4   8 834.627 21.1957  12
  -4  -4  -8 53.3602 6.15945   1
   4  -4   8 36.1697 4.21284  12
  -4  -4  -8 31.8926 5.60711  11
   4  -4   8 40.8865 5.84972   4
   4   4   8 31.6030 5.58126   3
  -4   4  -8 33.3434 5.01174   1
  -4   4  -8 31.4804 6.08622   7
   4   4   8 38.4526 3.54418  12
 -11  -5   8 307.895 15.0165   5
  11  -5  -8 298.060 13.6099   9
  11  -5  -8 303.446 15.9173  15
  11   5  -8 289.447 13.9136   4
  11   5  -8 308.447 15.5891   7
 -11   5   8 298.681 13.6440   8
  -9  -5   8 76.6080 9.09626  16
  -9  -5   8 88.5110 8.53108   5
   9  -5  -8 87.1224 8.11437  15
   9  -5  -8 89.5026 7.52004   9
   9   5  -8 86.8081 7.52199   7
  -9   5   8 85.5472 6.59254   5
  -9   5   8 101.390 7.34657   8
   9   5  -8 88.2774 7.44381   4
  -7  -5   8 397.485 15.1751   5
   7  -5  -8 384.809 14.5950   6
   7  -5  -8 399.217 17.4302  15
  -7  -5   8 378.822 17.4958  16
   7  -5  -8 420.866 15.0524   9
  -7  -5   8 369.684 13.7562  12
  -7   5   8 370.122 14.1738   5
  -7   5   8 376.696 14.1431   8
  -7   5   8 377.241 17.1213  16
  -7   5   8 377.555 13.8554  13
   7   5  -8 381.356 13.0648   9
   7   5  -8 392.937 15.9634   7
   7   5  -8 387.655 15.6508  14
  -7   5   8 383.582 13.7691  12
   5  -5  -8 219.701 10.7796   6
   5  -5  -8 222.185 12.0008  15
  -5  -5   8 229.282 11.7683  16
  -5  -5   8 210.258 9.09714  12
  -5  -5   8 237.092 9.88927   5
   5  -5  -8 202.016 9.29608   9
  -5   5   8 214.295 8.85617  12
  -5   5   8 211.196 12.4401  16
  -5   5   8 214.418 9.61234   8
   5   5  -8 233.325 10.8936   7
   5   5  -8 226.079 9.54146   9
  -5   5   8 211.983 9.63688  13
  -3  -5   8 99.1697 5.60445   5
  -3  -5   8 109.221 5.67653  12
   3  -5  -8 111.085 7.67852   6
   3  -5  -8 102.471 7.44730  15
  -3  -5   8 108.845 7.30047   2
   3  -5  -8 96.8349 5.58707   9
  -3  -5   8 80.5395 6.34896  16
   3   5  -8 108.598 7.06407   7
  -3   5   8 98.4386 6.56436  13
  -3   5   8 105.512 5.23205  12
  -3   5   8 103.242 6.41048   8
   3   5  -8 95.8013 6.37465   9
  -1  -5   8 273.922 12.2861   2
  -1  -5   8 261.866 9.54984  12
   1  -5  -8 267.188 12.1810   6
   1  -5  -8 261.506 12.5712  15
  -1   5   8 256.601 11.6616  13
  -1   5   8 279.037 8.82854  12
   1   5  -8 261.169 12.3840   7
  -1  -5  -8 7.40486 2.87022  15
   1  -5   8 11.4387 2.38339  12
  -1  -5  -8 11.4306 3.47920  11
  -1  -5  -8 13.6721 3.64315   6
   1  -5   8 8.14250 3.68772   2
   1   5   8 15.6249 3.60085   3
   1   5   8 11.3547 1.91844  12
   1   5   8 8.14083 2.86778  13
  -1   5  -8 21.1233 4.56903   7
   3  -5   8 68.7378 5.53051  12
  -3  -5  -8 71.2069 8.46483  11
   3   5   8 60.8499 4.21409  12
  -3   5  -8 67.5335 6.45609   1
   3   5   8 67.2425 7.26066   3
  -3   5  -8 68.4268 7.94243   7
 -10  -6   8 48.3208 7.17144   5
  10  -6  -8 49.6959 7.34217  15
  10  -6  -8 60.6471 7.00295   9
  10   6  -8 63.6954 8.00996   7
 -10   6   8 68.8894 6.83053   8
  10   6  -8 52.6415 6.05301   4
  -8  -6   8 1008.26 34.6016  16
   8  -6  -8 1086.80 34.6072  15
   8  -6  -8 1107.44 31.2374   9
  -8  -6   8 1066.95 30.9723   5
  -8   6   8 1046.42 29.7124  12
   8   6  -8 1046.01 32.3278  14
  -8   6   8 1004.65 33.3035  16
   8   6  -8 1054.71 32.7283   7
  -8   6   8 1033.70 29.5577   5
  -8   6   8 1071.42 30.2925   8
   6  -6  -8 13.1450 3.61611   6
  -6  -6   8 19.8876 3.37627  12
  -6  -6   8 12.0084 3.61927   5
  -6  -6   8 15.9627 3.70696   2
   6  -6  -8 16.2508 3.59188   9
  -6  -6   8 14.8541 4.36463  16
   6  -6  -8 21.3335 4.90406  15
  -6   6   8 17.8790 3.61755   8
   6   6  -8 16.9210 3.71079   7
   6   6  -8 20.1042 3.34451   9
  -6   6   8 25.4543 3.97026  13
  -6   6   8 21.5840 4.49026  16
  -6   6   8 17.4049 3.15065  12
  -4  -6   8 1229.91 32.4039  12
   4  -6  -8 1302.54 37.1252  15
   4  -6  -8 1273.78 32.9517   9
  -4  -6   8 1245.18 32.2180   5
  -4  -6   8 1109.20 34.3628  16
  -4  -6   8 1225.70 34.4082   2
   4  -6  -8 1246.60 35.0268   6
  -4   6   8 1239.56 33.9472  13
  -4   6   8 1237.15 32.9576   8
   4   6  -8 1198.36 35.0197   7
  -4   6   8 1244.38 31.8332  12
   4   6  -8 1278.99 33.0994   9
   2  -6  -8 31.5142 3.43132   9
   2  -6  -8 40.9853 5.32171   6
   2  -6  -8 33.7344 5.24126  15
  -2  -6   8 38.1487 3.75225  12
  -2  -6   8 34.6600 5.29922   2
   2   6  -8 42.9915 5.40788   7
  -2   6   8 36.4413 4.73684  13
  -2   6   8 39.3792 3.49797  12
   0  -6   8 1267.69 32.5177  12
   0  -6  -8 1264.02 36.2349  15
   0  -6   8 1273.60 36.0191   2
   0  -6  -8 1277.25 36.7359   6
   0   6   8 1216.39 33.6887   3
   0   6  -8 1237.83 36.3955   7
   0   6   8 1249.04 31.2167  12
   0   6   8 1229.54 36.0721  13
   2  -6   8 119.088 6.79089  12
   2  -6   8 115.984 8.84122   2
  -2  -6  -8 102.631 9.50347  11
  -2  -6  -8 114.768 8.73547   6
   2   6   8 105.956 8.21875   3
   2   6   8 109.124 8.94543  13
   2   6   8 108.044 5.85984  12
  -2   6  -8 109.896 9.35071   7
   4  -6   8 918.207 28.5114   4
  -4  -6  -8 874.301 30.6814  11
  -4   6  -8 888.705 30.5138   7
   4   6   8 868.567 24.3621  12
   4   6   8 882.830 28.5853   3
  -4   6  -8 833.283 26.8564   1
   9  -7  -8 -1.8850 3.60619  15
   9  -7  -8 -2.9145 3.08267   9
  -9  -7   8 3.22549 4.33280   5
  -9   7   8 0.67356 2.06389   8
   9   7  -8 3.68231 3.61522   7
   7  -7  -8 76.0354 6.68376   6
  -7  -7   8 72.7438 8.37334  16
   7  -7  -8 75.5283 8.61908  15
   7  -7  -8 74.2796 6.67465   9
  -7  -7   8 84.4384 7.40685   5
  -7  -7   8 73.6285 6.39817   2
  -7   7   8 75.3935 5.91336  12
  -7   7   8 63.3251 5.92346   5
  -7   7   8 65.9468 5.76874   8
   7   7  -8 71.9858 7.35500   7
  -7   7   8 79.8416 7.91599  16
  -7   7   8 72.2640 6.50377  13
   5  -7  -8 56.3850 5.74307   9
   5  -7  -8 57.5925 6.23282   6
  -5  -7   8 40.8455 4.99290   5
  -5  -7   8 47.1125 5.85387   2
   5  -7  -8 46.2450 6.40389  15
  -5  -7   8 51.1965 4.63939  12
  -5   7   8 48.1086 5.62683  13
   5   7  -8 54.9946 6.78782   7
   5   7  -8 46.7490 4.80699   9
  -5   7   8 53.3076 5.48136   8
  -5   7   8 52.9959 6.67584  16
  -5   7   8 56.7135 4.87564  12
  -3  -7   8 56.9935 4.69376  12
   3  -7  -8 49.7695 4.43603   9
   3  -7  -8 50.8359 6.41438   6
  -3  -7   8 51.8429 5.98485   2
   3  -7  -8 48.8585 6.41142  15
  -3   7   8 56.9751 4.61243  12
   3   7  -8 51.2800 5.63894   7
  -3   7   8 55.2007 6.24959  13
  -3   7   8 50.3050 5.18541   8
  -1  -7   8 192.637 8.87909  12
  -1  -7   8 197.464 11.2958   2
   1  -7  -8 190.679 10.9287  15
   1  -7  -8 179.150 11.0771   6
  -1   7   8 183.300 10.6382  13
   1   7  -8 184.917 10.7165   7
  -1   7   8 183.375 8.05473  12
   1  -7   8 40.0475 4.55246  12
   1  -7   8 38.5164 5.74314   2
  -1  -7  -8 36.1751 5.99236   6
   1   7   8 37.4819 5.33147   3
   1   7   8 35.0358 5.70520  13
   1   7   8 39.9321 3.82558  12
  -1   7  -8 39.1992 5.93335   7
  -3  -7  -8 138.709 10.0149   6
  -3  -7  -8 159.327 12.0081  11
   3  -7   8 158.067 8.62555  12
   3   7   8 154.124 10.6206   3
  -3   7  -8 146.957 10.5741   7
   3   7   8 152.431 7.90580  12
   8  -8  -8 751.568 28.2681  15
  -8  -8   8 758.933 24.9089   5
   8  -8  -8 715.217 24.2279   9
  -8   8   8 733.872 23.6922   8
   8   8  -8 723.863 26.1882   7
   6  -8  -8 345.552 17.1241  15
  -6  -8   8 308.261 13.9154   2
   6  -8  -8 326.228 13.4771   9
  -6  -8   8 308.297 15.8845  16
   6  -8  -8 341.013 14.7639   6
  -6  -8   8 317.023 13.4888   5
  -6   8   8 315.372 16.3485  16
  -6   8   8 324.929 14.4309  13
  -6   8   8 338.992 13.1280  12
   6   8  -8 309.450 15.1661   7
  -6   8   8 348.337 13.8787   8
   4  -8  -8 912.198 25.9627   9
  -4  -8   8 887.729 28.2439   2
   4  -8  -8 929.132 28.7049   6
  -4  -8   8 857.004 26.1301  12
   4  -8  -8 923.050 30.2355  15
  -4   8   8 873.655 25.5579  12
  -4   8   8 925.791 26.6228   8
  -4   8   8 870.297 27.8623  13
   4   8  -8 866.149 28.6673   7
   2  -8  -8 375.267 16.6567  15
  -2  -8   8 390.823 16.4535   2
   2  -8  -8 392.633 17.3016   6
  -2  -8   8 379.383 14.3178  12
   2   8  -8 376.274 16.2546   7
  -2   8   8 372.306 15.8795  13
  -2   8   8 395.010 14.9751   8
  -2   8   8 397.899 13.8853  12
   0  -8   8 502.768 19.9384   2
   0  -8  -8 572.634 21.8516   6
   0  -8   8 535.402 18.0019  12
   0   8  -8 532.944 21.0356   7
   0   8   8 510.839 20.2136  13
   0   8   8 517.203 16.8026  12
  -2  -8  -8 241.461 13.7000   6
   2  -8   8 236.886 13.4176   2
   2  -8   8 232.549 11.0331  12
  -2   8  -8 224.735 13.6910   7
   2   8   8 249.399 12.9421   3
   2   8   8 230.547 10.1557  12
  -9  -9   8 2.56622 4.89871   5
   9  -9  -8 5.57182 2.75542   9
  -9   9   8 10.7164 3.52398   8
   9   9  -8 6.54435 4.85612   7
  -7  -9   8 -0.0275 3.35735   5
   7  -9  -8 -2.3414 3.27642  15
   7  -9  -8 0.58037 1.88762   9
   7   9  -8 -3.4812 3.12841   7
   5  -9  -8 8.24227 2.89129   9
   5  -9  -8 10.1022 4.11096  15
   5  -9  -8 5.16107 3.62028   6
  -5  -9   8 2.68455 2.52954   2
   5   9  -8 4.24518 3.04773   7
  -5   9   8 6.25086 2.06085  12
  -5   9   8 6.61183 2.59972   8
  -5   9   8 9.70315 3.75457  13
  -5   9   8 9.52967 4.29661  16
  -3  -9   8 20.1946 3.79823  12
   3  -9  -8 17.3185 3.94696  15
   3  -9  -8 22.1658 4.57793   6
  -3  -9   8 5.57295 3.84123   2
  -3   9   8 13.9381 3.02406  12
  -3   9   8 17.6223 3.85413   8
   3   9  -8 18.2312 5.03630   7
  -3   9   8 16.9593 4.44152  13
  -1  -9   8 4.26483 2.53862  12
   1  -9  -8 -0.7597 2.17027  15
  -1  -9   8 5.06946 4.19712   2
   1  -9  -8 0.67974 3.36495   6
   1   9  -8 3.39386 2.81255   7
  -1   9   8 6.73467 2.47742  12
   1  -9   8 33.2871 6.40771   2
  -1  -9  -8 33.2303 6.17252   6
   1  -9   8 40.2254 5.16875  12
   1   9   8 38.1945 5.87469   3
   1   9   8 29.3354 3.90506  12
  -1   9  -8 27.1861 5.95127   7
  -8 -10   8 82.7325 9.96102   5
  -8  10   8 126.578 9.44336   8
   6 -10  -8 546.256 19.4193   9
   6 -10  -8 545.883 23.1829  15
   6 -10  -8 535.364 20.1293   6
  -6  10   8 543.226 19.0233   8
   6  10  -8 548.088 21.6022   7
   4 -10  -8 69.9683 7.94225  15
  -4 -10   8 95.0929 8.01260   2
   4 -10  -8 87.0443 8.79019   6
  -4  10   8 84.2407 7.09379   8
  -4  10   8 76.0107 6.39401  12
   4  10  -8 76.6738 7.57788   7
  -2 -10   8 672.127 25.1770   2
   2 -10  -8 680.777 24.6624  15
  -2 -10   8 657.098 22.4419  12
   2 -10  -8 688.502 25.7270   6
  -2  10   8 710.342 22.9558   8
   2  10  -8 675.098 24.9363   7
   0 -10   8 43.8595 7.22097   2
   0 -10   8 52.1546 5.97922  12
   0 -10  -8 48.6744 7.56393   6
   0  10  -8 51.3409 7.22875   7
   0  10   8 47.6097 5.39252  12
   5 -11  -8 97.5280 9.27654  15
   5 -11  -8 89.4920 8.64453   6
  -5 -11   8 91.3990 7.93489   2
  -5  11   8 97.0551 7.19378   8
   5  11  -8 87.7290 8.21575   7
  -3 -11   8 76.8811 8.75467   2
   3 -11  -8 69.1186 8.56834   6
  -3  11   8 83.0990 6.69836  12
  -3  11   8 73.8539 6.41609   8
   3  11  -8 74.3282 7.50583   7
  -1 -11   8 61.2835 7.88249   2
   1 -11  -8 69.7864 8.21366   6
  -1  11   8 70.9573 6.16841  12
  -1  11   8 86.6528 8.02988   8
   1  11  -8 73.8469 7.52878   7
  12   0  -9 7.24725 2.93175   4
 -12   0   9 3.59597 3.52846   5
 -12   0   9 -1.5911 2.68831   8
  10   0  -9 0.12480 2.31428   4
 -10   0   9 -0.3937 3.14936  16
 -10   0   9 3.96630 2.96120   8
 -10   0   9 3.06553 3.27527   5
  10   0  -9 0.06500 1.60944   9
  -8   0   9 4.25802 3.16696   5
  -8   0   9 0.19867 2.17376   8
   8   0  -9 1.63133 1.72353   9
   8   0  -9 -1.1579 1.81161  15
  -8   0   9 -0.7717 1.46225  12
  -8   0   9 1.01041 2.83721  16
   8   0  -9 3.40235 2.12652   4
   6   0  -9 2.40648 1.65704   9
   6   0  -9 0.11060 0.96260   7
   6   0  -9 0.97576 1.53654  15
  -6   0   9 0.91048 2.40099   5
  -6   0   9 -0.6087 2.41312  16
  -6   0   9 6.83653 2.11777   8
  -6   0   9 4.23171 1.65801  12
  -4   0   9 0.88798 2.35942  16
  -4   0   9 1.23618 0.97060  12
   4   0  -9 5.57990 2.62233  15
  -4   0   9 0.00591 1.26580   8
  -4   0   9 2.95209 2.25455   5
   4   0  -9 -0.6807 1.00425   9
   4   0  -9 2.28615 1.50271   7
  -2   0   9 0.04732 0.84597   8
   2   0  -9 6.31122 2.07529   7
  -2   0   9 7.58560 2.98688  16
  -2   0   9 1.66424 0.62250  12
   2   0  -9 3.23822 1.83441   9
   2   0  -9 1.62402 2.14569  15
  -2   0   9 1.16328 2.00508   5
   0   0  -9 2.17522 2.59436  15
   0   0  -9 1.61921 1.70424   6
   0   0  -9 0.66001 1.95933   7
   0   0  -9 1.92652 1.71083   9
  -2   0  -9 19.2709 4.70094  15
  -2   0  -9 43.6537 5.63475   7
   4   0   9 -0.1455 1.26171  12
  -4   0  -9 1.32623 2.50001   1
   4   0   9 -0.9887 1.94833   4
 -11  -1   9 296.425 12.9261   8
 -11  -1   9 309.024 14.4767   5
  11  -1  -9 295.450 12.9414   9
  11  -1  -9 296.019 12.9462   4
 -11   1   9 291.398 13.1262   8
  11   1  -9 299.612 13.5889   4
 -11   1   9 291.117 13.3115   5
   9  -1  -9 610.060 19.5206   4
  -9  -1   9 605.138 20.5647   5
  -9  -1   9 576.840 23.5677  16
  -9  -1   9 607.534 19.6093  12
   9  -1  -9 626.059 20.1527   9
  -9  -1   9 617.678 19.0287   8
  -9   1   9 612.879 19.5403  12
   9   1  -9 595.420 19.9244   4
   9   1  -9 617.734 19.6108   9
  -9   1   9 592.630 23.7625  16
  -9   1   9 623.717 19.5303   8
   9   1  -9 596.414 20.2763   7
  -9   1   9 607.319 20.5470   5
  -7  -1   9 537.172 16.8300  12
  -7  -1   9 523.878 18.0470   5
  -7  -1   9 541.009 16.2048   8
  -7  -1   9 517.937 20.7699  16
   7  -1  -9 536.680 19.2558  15
   7  -1  -9 547.640 17.9970   9
   7   1  -9 538.225 17.7689   7
  -7   1   9 540.183 21.4939  16
  -7   1   9 582.315 17.1348   8
  -7   1   9 538.389 16.7798  12
   7   1  -9 550.567 17.6982   9
  -7   1   9 520.354 17.9166   5
  -5  -1   9 949.822 30.1831  16
  -5  -1   9 998.326 24.8090   8
  -5  -1   9 978.361 26.9574   5
   5  -1  -9 1047.20 29.7257  15
   5  -1  -9 978.754 26.9262   9
  -5   1   9 942.601 30.5412  16
   5   1  -9 944.528 26.7373   7
  -5   1   9 964.983 27.1760   5
   5   1  -9 969.057 26.7710   9
   5   1  -9 985.285 28.5374  15
  -5   1   9 957.349 25.4644   8
  -5   1   9 938.667 24.8300  12
   3  -1  -9 656.832 20.4680   6
   3  -1  -9 644.902 19.2301   9
  -3  -1   9 635.508 21.8272  16
  -3  -1   9 655.784 19.1637   5
  -3  -1   9 664.259 16.7775  12
   3  -1  -9 666.880 22.2485  15
  -3   1   9 638.426 22.7756  16
   3   1  -9 680.806 21.9515  15
  -3   1   9 639.679 18.1317   8
   3   1  -9 628.494 19.6029   7
  -3   1   9 638.751 16.3470  12
   3   1  -9 634.115 19.2886   9
  -1  -1   9 753.976 29.7855  10
  -1  -1   9 733.452 20.1472   5
   1  -1  -9 680.273 20.1913   9
   1  -1  -9 678.068 21.6481   6
  -1  -1   9 703.721 22.9807  16
   1  -1  -9 695.348 20.8811   7
   1  -1  -9 698.108 23.7048  15
  -1   1   9 702.103 24.7810  16
   1   1  -9 725.418 20.9091   9
  -1   1   9 676.587 24.4630  10
   1   1  -9 730.570 23.9686  15
   1   1  -9 718.187 22.0364   7
  -1  -1  -9 471.558 17.4191  11
  -1  -1  -9 517.383 17.7199   7
  -1  -1  -9 503.712 16.3553   1
   1  -1   9 510.298 12.3098  12
  -1  -1  -9 515.490 19.8661  15
   1  -1   9 489.176 16.8993   2
  -1   1  -9 487.020 18.0101   7
   1   1   9 527.692 19.3792  14
  -1   1  -9 495.275 19.6490  15
   3  -1   9 331.043 13.4327   4
   3  -1   9 318.434 9.78443  12
  -3  -1  -9 319.613 13.3469   1
  -3  -1  -9 317.140 14.8092  11
   3   1   9 306.923 9.10753  12
  -3   1  -9 289.888 12.5771   1
 -12  -2   9 100.162 8.91103   5
 -12  -2   9 113.597 7.94911   8
  12  -2  -9 116.743 8.99787   4
 -12   2   9 116.130 8.92313   8
  12   2  -9 117.114 8.34323   4
 -12   2   9 98.9791 8.13228   5
  10  -2  -9 101.799 7.62645   9
  10  -2  -9 93.2026 6.38549   4
 -10  -2   9 99.7074 10.1553  16
 -10  -2   9 93.7477 8.25426   5
 -10  -2   9 93.1439 6.82918   8
 -10   2   9 88.5391 6.74003   8
  10   2  -9 102.567 7.58219   7
 -10   2   9 101.042 7.88125   5
 -10   2   9 90.3898 9.07608  16
  10   2  -9 87.6140 6.85394   4
  10   2  -9 89.2204 6.48253   9
  -8  -2   9 149.219 11.1576  16
  -8  -2   9 155.091 9.23926   5
   8  -2  -9 148.120 8.59803   9
  -8  -2   9 151.203 7.31013   8
  -8  -2   9 156.417 8.12156  12
   8  -2  -9 151.797 7.60944   4
   8  -2  -9 149.030 9.61179  15
   8   2  -9 159.427 8.38259   4
  -8   2   9 149.555 10.7016  16
   8   2  -9 151.682 8.81473   7
  -8   2   9 152.775 8.88259   5
  -8   2   9 147.503 8.24432   8
  -8   2   9 153.020 7.94191  12
   8   2  -9 148.204 8.11711   9
  -6  -2   9 220.530 9.74494   5
   6  -2  -9 209.940 11.2340  15
   6  -2  -9 213.068 9.73367   9
  -6  -2   9 203.896 11.4071  16
  -6  -2   9 209.202 8.70286  12
   6   2  -9 202.374 9.58151   7
   6   2  -9 220.012 9.74165   9
  -6   2   9 210.268 8.86173   8
  -6   2   9 207.967 8.48808  12
   6   2  -9 201.129 9.83699  15
  -6   2   9 212.494 12.2973  16
  -6   2   9 224.827 10.2683   5
   4  -2  -9 140.999 9.05205  15
   4  -2  -9 139.561 7.28659   9
  -4  -2   9 146.217 7.08871   5
   4  -2  -9 137.669 7.87741   6
  -4  -2   9 142.062 8.78233  16
  -4  -2   9 142.022 6.05461  12
   4   2  -9 149.171 7.45675   9
  -4   2   9 140.517 6.89548   8
   4   2  -9 137.912 8.06066  15
   4   2  -9 133.949 7.54041   7
  -4   2   9 138.977 5.79821  12
  -4   2   9 132.177 9.21589  16
  -2  -2   9 249.129 7.66693  12
  -2  -2   9 242.848 11.3304  16
  -2  -2   9 259.090 9.55524   5
   2  -2  -9 240.790 11.0453   6
   2  -2  -9 254.039 12.3133  15
   2  -2  -9 230.392 9.41781   9
   2   2  -9 238.492 10.0875   9
   2   2  -9 239.532 10.7186   7
   2   2  -9 257.672 12.1267  15
  -2   2   9 239.894 6.89685  12
  -2   2   9 229.378 12.9640  16
  -2   2   9 227.650 9.22361   8
   0  -2  -9 157.129 7.17425   9
   0  -2  -9 140.587 8.42569   6
   0  -2  -9 165.327 10.1601  15
   0  -2  -9 149.983 8.75848  11
   0  -2   9 147.941 5.11319  12
   0  -2  -9 131.354 6.73273   1
   0   2  -9 186.586 9.79420   7
   0   2  -9 154.266 7.79126   9
   0   2   9 139.236 8.23917  13
   0   2  -9 143.397 9.82192  15
  -2  -2  -9 138.123 9.44771  11
   2  -2   9 141.940 5.60306  12
  -2  -2  -9 135.048 9.72277  15
  -2  -2  -9 134.799 7.95966   1
   2   2   9 141.319 4.43483  12
  -2   2  -9 132.065 9.51784   7
  -2   2  -9 132.592 7.56396   1
   4  -2   9 126.457 6.27602  12
  -4  -2  -9 123.811 9.81020  11
  -4  -2  -9 124.341 8.51393   1
   4  -2   9 142.105 9.48795   4
   4   2   9 122.166 5.57752  12
  -4   2  -9 110.235 7.91597   1
 -11  -3   9 33.7402 6.07315   5
  11  -3  -9 32.2886 5.03097   9
 -11   3   9 31.4038 5.06225   5
  11   3  -9 31.1616 5.25418   7
 -11   3   9 27.5015 4.55718   8
  11   3  -9 41.4289 5.82962   4
   9  -3  -9 1102.18 30.8160   9
  -9  -3   9 1016.39 30.9738   5
   9  -3  -9 1060.88 32.9897  15
  -9  -3   9 1018.91 35.1756  16
   9   3  -9 1054.79 28.9732   9
  -9   3   9 1044.70 29.5915   8
  -9   3   9 1073.40 29.8122  12
  -9   3   9 1034.89 30.2639   5
  -9   3   9 1015.92 34.0009  16
   9   3  -9 1022.55 30.4024   4
   9   3  -9 1013.83 31.4362   7
   7  -3  -9 37.2753 4.81684   9
   7  -3  -9 37.3918 5.49917  15
  -7  -3   9 28.5009 3.78698  12
  -7  -3   9 34.1449 4.69874   5
  -7  -3   9 34.5204 5.74177  16
  -7   3   9 34.7055 3.97978  12
  -7   3   9 29.0903 5.50070  16
   7   3  -9 38.1790 4.88941   7
  -7   3   9 34.3794 4.77299   5
  -7   3   9 31.2238 4.27984   8
   7   3  -9 30.6901 3.86220   9
  -5  -3   9 1625.87 40.8768  12
   5  -3  -9 1664.58 42.4912   9
  -5  -3   9 1636.52 45.5987  16
  -5  -3   9 1709.51 42.3374   5
   5  -3  -9 1704.99 45.8944  15
   5  -3  -9 1664.52 43.8699   6
   5   3  -9 1671.97 42.3904   9
  -5   3   9 1696.51 41.6977   8
  -5   3   9 1682.03 40.7301  12
  -5   3   9 1700.39 43.4033   5
   5   3  -9 1613.03 43.3635   7
  -5   3   9 1728.98 48.0209  16
   5   3  -9 1632.98 43.0909  15
  -3  -3   9 110.134 7.54091  16
   3  -3  -9 116.011 8.42399  15
   3  -3  -9 117.048 7.58498   6
   3  -3  -9 109.724 6.31376   9
  -3  -3   9 122.229 6.47129   5
  -3  -3   9 122.940 5.62565  12
   3   3  -9 117.455 6.66721   9
  -3   3   9 119.452 6.62770  13
  -3   3   9 112.734 4.84115  12
  -3   3   9 116.045 6.54890   8
   3   3  -9 117.772 7.54786   7
  -3   3   9 115.750 9.46500  16
   3   3  -9 116.020 7.82407  15
   1  -3  -9 1682.17 45.2102  15
  -1  -3   9 1653.92 38.3320  12
   1  -3  -9 1576.50 40.1384   9
   1  -3  -9 1607.33 43.2915   6
  -1   3   9 1644.33 36.9059  12
   1   3  -9 1596.28 41.6786   9
   1   3  -9 1654.16 43.6874   7
  -1   3   9 1598.75 42.5382  13
   1   3  -9 1652.17 44.7838  15
   1  -3   9 160.032 9.28666   2
  -1  -3  -9 153.363 8.77841   6
   1  -3   9 166.652 6.31561  12
  -1  -3  -9 161.457 9.90998  15
  -1  -3  -9 169.505 10.3780  11
  -1   3  -9 158.861 9.70009   7
   1   3   9 146.613 8.99993  13
   1   3   9 167.909 9.03316   3
   1   3   9 154.476 4.83034  12
   3  -3   9 907.160 23.9829  12
  -3  -3  -9 917.447 27.3568   1
  -3  -3  -9 914.481 30.1058  11
  -3   3  -9 852.414 29.4791   7
   3   3   9 919.430 22.5733  12
  10  -4  -9 138.633 10.1471  15
 -10  -4   9 140.564 10.1585   5
  10  -4  -9 146.254 9.67378   9
  10   4  -9 150.765 9.59925   4
 -10   4   9 147.870 9.12465   5
  10   4  -9 157.647 10.4348   7
 -10   4   9 143.738 9.36641   8
  -8  -4   9 269.810 11.5064  12
   8  -4  -9 272.503 12.4121   9
  -8  -4   9 275.853 12.7648   5
  -8  -4   9 263.494 15.0790  16
   8  -4  -9 287.282 14.5596  15
  -8   4   9 270.002 11.3245  12
  -8   4   9 250.023 14.2337  16
  -8   4   9 280.460 11.7704   8
   8   4  -9 260.038 10.9155   9
   8   4  -9 275.597 12.9900   7
  -8   4   9 272.700 12.1797   5
  -6  -4   9 401.671 14.2169  12
   6  -4  -9 460.582 18.5374  15
   6  -4  -9 434.033 15.5147   9
  -6  -4   9 445.116 15.5397   5
   6  -4  -9 412.956 16.0839   6
  -6  -4   9 404.122 17.6590  16
  -6   4   9 433.772 19.1348  16
   6   4  -9 412.533 16.1257   7
  -6   4   9 437.654 14.2733  12
  -6   4   9 419.904 14.8987   8
   6   4  -9 432.855 14.9096   9
  -6   4   9 427.693 15.6532   5
  -4  -4   9 213.293 11.1899  16
   4  -4  -9 228.940 9.89680   9
  -4  -4   9 226.669 9.56604   5
  -4  -4   9 229.954 8.88971  12
   4  -4  -9 230.252 12.2888  15
   4  -4  -9 227.938 11.1291   6
   4   4  -9 225.711 10.0812   9
   4   4  -9 232.023 10.7459  15
  -4   4   9 234.922 9.95103   8
   4   4  -9 238.632 11.1741   7
  -4   4   9 216.004 9.63713  13
  -4   4   9 231.166 13.6474  16
  -4   4   9 221.150 8.43249  12
  -2  -4   9 404.811 12.8530  12
   2  -4  -9 405.543 13.8732   9
   2  -4  -9 434.644 16.5426   6
   2  -4  -9 438.933 17.6097  15
  -2   4   9 414.768 15.3017  13
   2   4  -9 440.981 16.9128  15
   2   4  -9 448.236 15.3872   9
  -2   4   9 442.648 12.2949  12
   2   4  -9 425.101 16.2668   7
   0  -4  -9 169.460 10.2919  11
   0  -4  -9 180.146 10.7314  15
   0  -4   9 168.703 9.58619   2
   0  -4  -9 168.414 9.52969   6
   0  -4   9 170.539 7.03895  12
   0   4   9 153.520 9.25993  13
   0   4  -9 189.513 10.8117   7
   0   4   9 163.642 5.78080  12
  -2  -4  -9 134.535 10.1170  11
  -2  -4  -9 133.586 9.43281  15
   2  -4   9 137.529 6.54559  12
   2   4   9 135.405 8.52297   3
   2   4   9 131.442 5.33364  12
  -2   4  -9 144.843 10.3003   7
   2   4   9 103.078 8.67399  13
   4  -4   9 106.040 6.43603  12
   4  -4   9 117.987 8.56541   4
  -4  -4  -9 108.998 9.80485  11
   4   4   9 107.346 5.58138  12
   4   4   9 115.935 8.63007   3
  -4   4  -9 107.913 9.95568   7
  -4   4  -9 90.3894 10.2405   1
 -11  -5   9 488.776 20.0259   5
  11  -5  -9 509.421 19.3475   9
  11  -5  -9 503.078 21.6409  15
  11   5  -9 490.326 18.8373   4
  11   5  -9 487.317 20.5548   7
 -11   5   9 516.623 19.0656   8
   9  -5  -9 394.174 16.1454   9
   9  -5  -9 407.283 18.7733  15
  -9  -5   9 406.199 16.3104   5
  -9   5   9 368.159 14.9789   5
   9   5  -9 373.556 16.9641   7
  -9   5   9 392.829 15.5138   8
  -7  -5   9 938.940 27.1042  12
   7  -5  -9 983.600 28.1741   9
  -7  -5   9 931.825 27.9459   5
   7  -5  -9 992.239 31.6229  15
   7  -5  -9 876.231 27.6740   6
  -7  -5   9 915.348 31.4918  16
   7   5  -9 956.221 29.6177   7
   7   5  -9 907.459 26.3114   9
  -7   5   9 930.211 27.8212   5
  -7   5   9 983.234 32.4779  16
  -7   5   9 924.561 27.0992   8
   5  -5  -9 477.994 16.3290   9
   5  -5  -9 472.971 17.8659   6
  -5  -5   9 485.059 15.6831  12
  -5  -5   9 486.197 16.0213   5
   5  -5  -9 462.210 19.1702  15
  -5  -5   9 487.348 18.9517  16
  -5   5   9 434.826 15.9070  13
  -5   5   9 454.003 14.9281  12
  -5   5   9 470.320 16.1653   8
  -5   5   9 452.903 20.0137  16
   5   5  -9 470.480 16.0490   9
   5   5  -9 464.619 17.7506   7
   3  -5  -9 845.163 26.6296   6
  -3  -5   9 849.960 26.1524   2
   3  -5  -9 881.275 28.1567  15
  -3  -5   9 820.331 22.9177  12
   3  -5  -9 825.143 23.6322   9
   3   5  -9 845.972 24.8650   9
  -3   5   9 837.949 24.3031   8
  -3   5   9 845.260 22.3261  12
  -3   5   9 799.291 24.7643  13
   3   5  -9 781.540 25.8429   7
  -1  -5   9 209.953 11.1565   2
  -1  -5   9 217.297 8.85921  12
   1  -5  -9 208.688 11.8215  15
   1  -5  -9 252.405 12.3653   6
  -1   5   9 214.989 10.8587  13
   1   5  -9 223.348 11.9329   7
  -1   5   9 216.246 7.74593  12
  -1  -5  -9 475.061 19.2336  11
   1  -5   9 444.503 14.4442  12
  -1  -5  -9 455.380 17.8968   6
   1  -5   9 454.405 17.8536   2
  -1  -5  -9 457.464 18.4021  15
   1   5   9 459.600 16.8313   3
   1   5   9 450.856 13.0926  12
   1   5   9 426.192 17.9309  13
  -1   5  -9 432.615 18.4137   7
   3  -5   9 114.044 6.74108  12
  -3  -5  -9 114.268 10.0585  11
   3   5   9 117.625 9.17397   3
  -3   5  -9 113.207 9.94486   7
   3   5   9 110.110 5.66972  12
 -10  -6   9 194.649 12.2934   5
  10  -6  -9 216.098 14.0673  15
  10  -6  -9 216.142 11.9812   9
  10   6  -9 206.048 12.3724   7
 -10   6   9 211.281 11.3248   8
   8  -6  -9 196.081 10.6310   9
  -8  -6   9 182.214 10.7283   5
  -8  -6   9 138.177 9.17326   2
  -8  -6   9 165.451 11.8074  16
   8  -6  -9 188.964 12.8939  15
  -8   6   9 177.341 11.6434  16
  -8   6   9 172.286 9.13596  12
  -8   6   9 169.571 9.80254   8
  -8   6   9 173.864 9.59070   5
   8   6  -9 175.043 11.2441   7
   6  -6  -9 149.911 9.57562   6
   6  -6  -9 158.123 8.98982   9
  -6  -6   9 150.439 9.37239   2
  -6  -6   9 157.015 10.7819  16
  -6  -6   9 149.968 8.26394  12
  -6  -6   9 143.572 8.64579   5
   6  -6  -9 156.199 11.2382  15
  -6   6   9 141.239 10.8746  16
  -6   6   9 152.952 8.46735   8
   6   6  -9 147.586 8.17926   9
  -6   6   9 145.141 7.95110  12
   6   6  -9 156.463 9.64823   7
  -6   6   9 148.363 8.62627  13
  -4  -6   9 383.911 15.6563   2
   4  -6  -9 393.732 17.2166  15
  -4  -6   9 382.353 13.8147  12
   4  -6  -9 394.053 16.5554   6
   4  -6  -9 389.631 14.0503   9
  -4   6   9 415.048 13.5756  12
  -4   6   9 394.931 14.7523   8
  -4   6   9 392.719 19.3779  16
   4   6  -9 383.148 14.3141   9
   4   6  -9 371.009 15.7751   7
  -4   6   9 395.545 15.2464  13
   2  -6  -9 87.7989 7.93816  15
   2  -6  -9 86.8660 7.87100   6
  -2  -6   9 85.6667 7.84304   2
  -2  -6   9 88.8885 5.75758  12
   2   6  -9 80.5933 7.53848   7
  -2   6   9 79.4430 6.99808  13
  -2   6   9 89.0155 5.34325  12
   0  -6  -9 192.265 11.6671   6
   0  -6   9 187.807 11.3606   2
   0  -6   9 189.844 8.72387  12
   0  -6  -9 195.963 11.1472  15
   0   6  -9 187.015 11.4825   7
   0   6   9 202.119 7.94619  12
   0   6   9 181.317 11.0790  13
   2  -6   9 97.8179 8.62442   2
   2  -6   9 86.6597 6.20651  12
  -2  -6  -9 111.067 9.80832  11
  -2  -6  -9 102.763 8.27728   6
   2   6   9 96.8034 5.43521  12
  -2   6  -9 106.718 9.64109   7
   2   6   9 104.436 8.47332   3
  -9  -7   9 36.4859 6.39665   5
   9  -7  -9 33.5397 5.08406   9
   9  -7  -9 38.6052 7.34609  15
   9   7  -9 46.1302 7.09517   7
  -9   7   9 45.8654 5.47592   8
  -9   7   9 27.7008 4.62659   5
   7  -7  -9 647.060 21.6381   9
   7  -7  -9 632.534 21.8877   6
  -7  -7   9 637.376 21.3666   5
  -7  -7   9 627.425 21.5257   2
   7  -7  -9 668.645 25.5329  15
  -7  -7   9 625.288 24.5608  16
  -7   7   9 642.459 25.3370  16
   7   7  -9 627.275 23.3567   7
  -7   7   9 597.228 21.2093  13
  -7   7   9 611.696 21.0538   5
  -7   7   9 615.091 20.9366   8
  -7   7   9 611.648 20.3711  12
   5  -7  -9 80.4697 7.89639   6
   5  -7  -9 74.5365 8.11734  15
   5  -7  -9 71.1275 6.06874   9
  -5  -7   9 77.6636 7.47411   2
  -5  -7   9 69.3451 5.86891  12
  -5   7   9 69.8683 5.57458  12
  -5   7   9 71.9434 8.45030  16
  -5   7   9 74.9932 6.77949   8
  -5   7   9 72.7183 6.18995  13
   5   7  -9 70.9660 7.98810   7
   3  -7  -9 962.789 27.2613   9
  -3  -7   9 974.510 27.7962  12
   3  -7  -9 1035.09 32.6627  15
   3  -7  -9 996.548 31.3484   6
  -3  -7   9 989.652 30.6450   2
  -3   7   9 961.326 29.6129  13
   3   7  -9 954.138 30.9359   7
  -3   7   9 991.721 27.0844  12
  -3   7   9 989.581 28.9078   8
   1  -7  -9 199.023 12.1336   6
  -1  -7   9 202.525 9.41523  12
  -1  -7   9 197.239 11.4138   2
   1  -7  -9 191.924 11.4846  15
  -1   7   9 177.532 10.9708  13
   1   7  -9 199.662 11.9107   7
  -1   7   9 201.971 8.49090  12
  -1  -7  -9 956.443 30.8371   6
   1  -7   9 952.678 30.1130   2
   1  -7   9 908.146 26.4646  12
   1   7   9 891.823 24.9487  12
  -1   7  -9 895.167 30.2796   7
  -8  -8   9 48.9251 6.62395   5
   8  -8  -9 48.3349 6.17186   9
   8  -8  -9 52.3902 8.27244  15
  -8   8   9 47.4549 5.57803   8
   8   8  -9 47.0371 6.66679   7
  -8   8   9 54.8283 6.13974   5
   6  -8  -9 22.4394 5.02056   6
  -6  -8   9 24.8743 3.92111  12
   6  -8  -9 29.1316 6.25691  15
  -6  -8   9 23.7516 4.81993   2
   6  -8  -9 20.6264 4.34090   9
  -6   8   9 23.2984 3.91296  12
  -6   8   9 16.9413 4.09464   8
  -6   8   9 24.3723 5.08502  13
   6   8  -9 18.3926 4.22280   7
   4  -8  -9 168.374 8.89774   9
  -4  -8   9 174.759 10.6412   2
   4  -8  -9 174.563 11.4501   6
  -4  -8   9 167.117 9.25588  12
   4  -8  -9 190.679 12.3432  15
   4   8  -9 166.355 11.1286   7
  -4   8   9 173.661 10.5853  13
  -4   8   9 184.690 9.10731  12
  -4   8   9 181.362 9.59345   8
   2  -8  -9 20.5693 4.69973   6
  -2  -8   9 18.6538 4.53405   2
  -2  -8   9 13.3063 2.80490  12
   2  -8  -9 9.88836 3.82641  15
   2   8  -9 12.3348 4.65293   7
  -2   8   9 15.3398 4.03043   8
  -2   8   9 15.1755 3.11816  12
  -2   8   9 13.7156 4.72652  13
   0  -8  -9 122.697 9.48598   6
   0  -8   9 111.787 9.97750   2
   0  -8   9 115.492 7.56734  12
   0   8  -9 121.874 9.43254   7
   0   8   9 122.781 6.98617  12
  -2  -8  -9 72.7966 9.40237   6
   7  -9  -9 335.210 14.7683   6
   7  -9  -9 329.820 14.6210   9
   7  -9  -9 343.450 18.1835  15
  -7   9   9 343.593 14.2267   8
   7   9  -9 316.083 16.3947   7
  -7   9   9 307.072 13.5353   5
  -5  -9   9 708.219 25.2167   2
   5  -9  -9 730.023 22.9651   9
   5  -9  -9 782.102 28.1551  15
  -5  -9   9 672.248 23.6419  12
   5  -9  -9 752.183 25.9880   6
  -5   9   9 727.503 23.5530   8
  -5   9   9 707.938 22.9958  12
   5   9  -9 693.112 25.7254   7
   3  -9  -9 168.979 11.2836   6
  -3  -9   9 183.592 9.88749  12
   3  -9  -9 181.897 11.9097  15
  -3  -9   9 169.704 11.5588   2
  -3   9   9 183.665 9.99303   8
  -3   9   9 166.084 8.92838  12
   3   9  -9 180.734 11.2583   7
  -1  -9   9 411.212 17.9725   2
   1  -9  -9 407.811 18.2684   6
  -1  -9   9 377.278 15.1980  12
   1   9  -9 363.512 17.2032   7
  -1   9   9 382.801 14.4485  12
  -1   9   9 396.357 16.1671   8
   6 -10  -9 4.52621 3.53092  15
  -6 -10   9 1.10970 3.20998   2
   6 -10  -9 0.60192 2.17631   9
   6 -10  -9 -0.1777 2.38867   6
   6  10  -9 1.62013 3.81233   7
  -6  10   9 -1.1369 1.88560  12
  -6  10   9 3.57017 3.00184   8
   4 -10  -9 48.5424 7.09719  15
   4 -10  -9 49.1207 7.22759   6
  -4 -10   9 44.7444 6.66654   2
   4  10  -9 59.8248 8.03359   7
  -4  10   9 46.7744 5.30179  12
  -4  10   9 56.7952 6.24713   8
  -2 -10   9 12.0833 3.30646  12
  -2 -10   9 13.6447 4.23288   2
   2 -10  -9 12.0963 4.17053   6
  -2  10   9 13.0682 3.34133   8
   2  10  -9 13.0920 4.16353   7
  -2  10   9 6.91885 2.60274  12
  10   0 -10 1498.50 39.9162   9
  10   0 -10 1449.87 39.9157   4
 -10   0  10 1466.19 39.1363   8
 -10   0  10 1481.92 41.3697   5
   8   0 -10 145.988 9.32062  15
  -8   0  10 143.296 9.09649   5
  -8   0  10 161.336 8.06759   8
   8   0 -10 149.941 8.78645   9
  -8   0  10 151.473 11.3303  16
  -8   0  10 151.901 8.05759  12
  -6   0  10 1429.74 38.0775   5
  -6   0  10 1416.09 35.9447  12
  -6   0  10 1375.77 35.4240   8
   6   0 -10 1421.45 39.8567  15
   6   0 -10 1479.56 38.0838   9
  -6   0  10 1397.88 42.2212  16
   4   0 -10 85.6954 6.08503   9
  -4   0  10 74.2337 4.30329  12
  -4   0  10 70.5807 7.27960  16
   4   0 -10 75.8546 7.12277  15
  -4   0  10 80.4670 6.27435   5
  -2   0  10 792.352 18.9415  12
  -2   0  10 756.371 26.3611  16
   2   0 -10 782.484 23.0052   9
   2   0 -10 792.146 26.3629  15
  -2   0  10 787.871 22.9747   5
   2   0 -10 787.158 23.4025   7
   0   0 -10 41.7479 4.43155   9
   0   0 -10 46.9152 6.22402  15
   0   0 -10 44.9065 4.78348   7
   2   0  10 570.115 14.2143  12
  11  -1 -10 38.2112 4.60632   4
 -11  -1  10 48.1538 6.73597   5
 -11  -1  10 36.6941 5.17181   8
  11  -1 -10 44.9463 5.74128   9
 -11   1  10 43.3839 6.19537   5
  11   1 -10 38.8545 5.35272   4
 -11   1  10 41.3025 5.48430   8
   9  -1 -10 119.090 7.26008   4
  -9  -1  10 105.532 8.67167   5
  -9  -1  10 120.294 7.56807  12
  -9  -1  10 114.265 6.74161   8
   9  -1 -10 127.266 8.50297   9
  -9  -1  10 109.516 10.3698  16
  -9   1  10 113.331 10.2317  16
  -9   1  10 119.558 7.73846   8
  -9   1  10 118.757 7.39694  12
  -9   1  10 115.249 8.44722   5
   9   1 -10 118.194 8.00446   9
   7  -1 -10 2.81938 2.12541  15
  -7  -1  10 1.51605 1.63912  12
  -7  -1  10 -0.6498 2.95991   5
   7  -1 -10 2.20767 1.90886   9
  -7  -1  10 0.65092 3.09079  16
  -7   1  10 3.00570 3.55117  16
  -7   1  10 3.19296 1.85285   8
  -7   1  10 1.91922 1.34438  12
   7   1 -10 0.06274 2.26009   9
   7   1 -10 6.97257 2.92346  15
  -7   1  10 1.70875 3.03102   5
  -5  -1  10 209.462 10.0002   5
   5  -1 -10 210.033 11.6336  15
   5  -1 -10 216.862 10.0197   9
  -5  -1  10 219.452 8.41698  12
  -5  -1  10 200.047 12.1551  16
   5   1 -10 222.174 10.1445   9
  -5   1  10 205.379 12.4365  16
  -5   1  10 227.036 10.5717   5
   5   1 -10 218.946 11.3104  15
   5   1 -10 188.216 9.11795   7
  -5   1  10 204.567 8.08740  12
  -5   1  10 207.073 8.57977   8
   3  -1 -10 11.8244 3.44192   6
   3  -1 -10 17.9063 3.93674  15
   3  -1 -10 22.2517 3.52115   9
   3   1 -10 12.3183 3.78088  15
  -3   1  10 11.1287 1.65975  12
   3   1 -10 9.73830 2.71816   7
   3   1 -10 18.6382 3.35271   9
  -3   1  10 8.24730 1.98662   8
  -3   1  10 8.36634 3.29431   5
  -3   1  10 6.31270 3.58545  16
  -1  -1  10 39.8449 2.27735  12
   1  -1 -10 56.6969 5.53402   6
   1  -1 -10 38.5323 4.23749   9
   1  -1 -10 44.6006 6.25733  15
   1   1 -10 46.4272 4.94252   9
   1   1 -10 43.3990 5.21123   7
   1   1 -10 42.5300 6.12727  15
  -1   1  10 36.9015 1.62833  12
   1  -1  10 86.8753 3.56301  12
  -1  -1 -10 80.4544 8.17708  15
  -1   1 -10 84.6165 7.06737   7
   3  -1  10 0.69609 1.34574  12
  -3  -1 -10 1.12925 2.44185   1
   3  -1  10 1.57794 3.11108   4
   3   1  10 2.37574 1.10391  12
  10  -2 -10 67.3508 6.24773   9
 -10  -2  10 75.7333 7.84318   5
 -10   2  10 52.9641 6.14962   8
 -10   2  10 68.3081 7.37014   5
  10   2 -10 68.6925 7.30103   7
  10   2 -10 63.2500 5.50444   9
  10   2 -10 66.7828 6.68536   4
  -8  -2  10 617.425 24.6104  16
   8  -2 -10 642.184 23.1662  15
   8  -2 -10 655.309 21.4529   9
  -8  -2  10 612.958 21.0605   5
  -8  -2  10 639.408 20.1592  12
  -8   2  10 631.598 20.0933   8
   8   2 -10 639.821 20.6277   9
  -8   2  10 632.180 19.9088  12
  -8   2  10 631.286 24.9383  16
  -8   2  10 630.917 21.1552   5
  -6  -2  10 216.810 8.99308  12
  -6  -2  10 202.905 11.8562  16
  -6  -2  10 206.560 10.2394   5
   6  -2 -10 213.164 10.1893   9
   6  -2 -10 210.777 11.8851  15
  -6   2  10 215.383 8.76963  12
   6   2 -10 199.175 10.0605   7
  -6   2  10 199.911 9.22469   8
   6   2 -10 205.305 9.93636   9
  -6   2  10 177.598 9.87344   5
  -6   2  10 201.939 12.6916  16
   6   2 -10 205.667 10.5685  15
   4  -2 -10 1503.09 39.2859   9
   4  -2 -10 1543.79 41.2423   6
  -4  -2  10 1513.60 36.9255  12
   4  -2 -10 1530.35 43.0072  15
  -4  -2  10 1473.24 42.4570  16
  -4  -2  10 1533.04 38.9844   5
  -4   2  10 1496.47 44.6442  16
  -4   2  10 1524.88 38.3053   8
   4   2 -10 1485.55 39.2496   9
  -4   2  10 1572.51 40.4320   5
  -4   2  10 1519.40 36.4601  12
   4   2 -10 1535.20 41.8264  15
   4   2 -10 1446.56 39.9196   7
   2  -2 -10 361.106 15.8798  15
  -2  -2  10 368.571 10.7579  12
   2  -2 -10 384.393 15.2494   6
   2  -2 -10 375.722 13.1670   9
   2   2 -10 393.134 16.3341  15
  -2   2  10 356.733 12.8127   8
  -2   2  10 342.151 16.9162  16
   2   2 -10 374.995 14.7021   7
  -2   2  10 354.275 9.88929  12
   2   2 -10 368.613 13.6621   9
   0  -2 -10 1324.20 39.2571  15
   0  -2 -10 1296.72 36.6048   6
   0  -2  10 1360.92 31.2371  12
   0   2 -10 1294.96 37.6010   7
   0   2 -10 1350.52 39.8775  15
   2  -2  10 176.503 6.75599  12
  -2  -2 -10 172.734 8.96383   1
  -2  -2 -10 187.650 11.8738  15
  -2   2 -10 175.841 11.2386   7
   2   2  10 177.439 5.40969  12
  11  -3 -10 0.64451 2.13032   9
 -11  -3  10 0.23955 3.51408   5
 -11   3  10 1.22920 3.13778   5
  11   3 -10 1.88524 2.68741   7
  11   3 -10 2.64233 2.81159   4
 -11   3  10 14.3711 3.49978   8
   9  -3 -10 20.8093 4.53520   9
  -9  -3  10 27.7313 5.66348   5
  -9  -3  10 23.6725 3.91882  12
   9  -3 -10 20.8269 4.95478  15
  -9  -3  10 21.3026 7.04065  16
   9   3 -10 23.0670 3.97107   9
  -9   3  10 26.7189 4.79731   5
  -9   3  10 30.6689 5.49325  16
  -9   3  10 23.6197 3.84240  12
  -9   3  10 30.1396 4.71111   8
   9   3 -10 19.4496 4.20723   7
   7  -3 -10 14.9325 3.53587   9
   7  -3 -10 12.4579 4.38712  15
  -7  -3  10 12.2065 4.64121  16
  -7  -3  10 15.8097 3.13842  12
  -7  -3  10 18.0055 4.40414   5
   7   3 -10 13.9945 3.23284   7
   7   3 -10 10.3334 3.09201   9
  -7   3  10 14.6769 3.18127   8
  -7   3  10 14.4407 3.81861   5
  -7   3  10 12.2467 4.32723  16
  -7   3  10 12.5456 2.74993  12
  -5  -3  10 105.030 7.04207   5
   5  -3 -10 104.947 8.81576  15
   5  -3 -10 99.2863 7.40523   6
  -5  -3  10 109.707 8.70644  16
   5  -3 -10 106.526 6.99954   9
  -5  -3  10 102.203 5.89527  12
  -5   3  10 109.172 9.72084  16
  -5   3  10 94.9929 7.34255   5
  -5   3  10 97.9789 5.52462  12
   5   3 -10 102.088 7.04270   7
   5   3 -10 100.497 7.35451  15
   5   3 -10 107.041 7.20528   9
  -5   3  10 103.811 6.27132   8
   3  -3 -10 1.10208 1.29051   9
   3  -3 -10 3.02164 2.13426   6
  -3  -3  10 -0.1191 1.11942  12
   3  -3 -10 0.49512 2.47828  15
   3   3 -10 -1.3734 1.24506   7
  -3   3  10 4.12660 2.43556   8
  -3   3  10 0.73817 1.15530  12
  -3   3  10 1.88223 3.13214  16
   3   3 -10 1.39541 2.67035  15
   3   3 -10 0.76337 2.12483   9
  -1  -3  10 26.5446 4.46098   2
   1  -3 -10 25.9045 4.54583   6
   1  -3 -10 25.9275 5.12237  15
  -1  -3  10 22.0786 2.57133  12
   1   3 -10 29.6135 4.16220   9
  -1   3  10 25.6892 1.99424  12
   1   3 -10 23.3011 5.01824  15
   1   3 -10 26.2761 4.63187   7
   1  -3  10 54.3067 6.49182   2
  -1  -3 -10 51.4920 6.48628  11
   1  -3  10 58.1327 3.89888  12
  -1  -3 -10 50.8108 6.84429  15
  -1   3 -10 50.8960 6.71668   7
   1   3  10 54.2441 2.62715  12
   3  -3  10 0.54460 3.35075   4
   3  -3  10 -0.4912 1.53930  12
  -3  -3 -10 -1.0063 4.49696  11
   3   3  10 1.19963 1.08573  12
  -3   3 -10 -0.8640 3.14852   7
   3   3  10 1.49483 2.56509   3
  10  -4 -10 156.397 10.9634  15
 -10  -4  10 154.804 10.0496   5
  10  -4 -10 171.904 9.94381   9
  10   4 -10 133.512 9.82983   7
 -10   4  10 170.571 9.64695   8
 -10   4  10 153.005 9.67921   5
  -8  -4  10 1296.21 41.5890  16
  -8  -4  10 1317.38 36.3830  12
   8  -4 -10 1403.00 41.1306  15
   8  -4 -10 1372.70 37.8285   9
  -8  -4  10 1380.61 37.8073   5
  -8   4  10 1358.52 37.5495   5
  -8   4  10 1327.21 36.0980  12
  -8   4  10 1309.54 41.8922  16
   8   4 -10 1297.19 35.7317   9
   8   4 -10 1363.18 39.1147   7
  -8   4  10 1360.22 36.6891   8
   6  -4 -10 68.5281 7.10513   6
  -6  -4  10 63.1596 5.15843  12
   6  -4 -10 76.8008 6.47364   9
   6  -4 -10 65.8912 7.77828  15
  -6  -4  10 75.0202 6.58134   5
  -6  -4  10 74.4685 7.72318  16
  -6   4  10 76.5123 6.80240   5
  -6   4  10 59.7937 5.84769   8
  -6   4  10 64.6483 7.82362  16
  -6   4  10 69.1491 5.15276  12
   6   4 -10 62.7880 6.48848   7
   6   4 -10 65.8397 6.00865   9
   4  -4 -10 1175.12 32.8324   9
   4  -4 -10 1214.37 35.4377   6
  -4  -4  10 1236.10 32.4422   5
   4  -4 -10 1259.30 37.6803  15
  -4  -4  10 1255.34 31.7094  12
  -4   4  10 1226.51 32.9893   8
   4   4 -10 1235.86 33.5328   9
  -4   4  10 1171.37 38.8987  16
  -4   4  10 1214.08 30.9772  12
   4   4 -10 1211.22 34.7888  15
   4   4 -10 1225.46 35.1409   7
   2  -4 -10 14.3440 4.10552  15
   2  -4 -10 7.13647 3.38982   6
   2  -4 -10 11.5389 2.64280   9
  -2  -4  10 8.94677 3.77289   2
  -2  -4  10 10.2794 2.06625  12
  -2   4  10 8.47628 2.96349   8
   2   4 -10 7.99226 3.66280  15
  -2   4  10 15.3467 2.08134  12
   2   4 -10 21.4727 4.03329   9
   2   4 -10 11.0944 3.19093   7
   0  -4  10 834.072 26.0107   2
   0  -4 -10 789.266 27.1022  15
   0  -4  10 801.029 21.1508  12
   0  -4 -10 800.561 26.0686   6
   0   4 -10 792.738 26.4691   7
   0   4  10 670.926 25.2519  13
   0   4  10 756.736 19.2972  12
  -2  -4 -10 14.9105 3.71643  15
  -2  -4 -10 14.8518 4.72600  11
   2  -4  10 17.9114 3.00265  12
   2   4  10 21.3939 2.34378  12
  -2   4 -10 21.0794 5.34002   7
   9  -5 -10 51.6890 7.93917  15
   9  -5 -10 59.2370 6.42330   9
  -9  -5  10 57.9000 7.28099   5
  -9   5  10 51.7654 5.87901   5
  -9   5  10 57.3057 5.57805  12
   9   5 -10 54.2738 7.16456   7
  -9   5  10 49.0803 5.70859   8
   7  -5 -10 274.630 12.7414   9
   7  -5 -10 266.616 13.2076   6
  -7  -5  10 259.674 14.9568  16
  -7  -5  10 274.999 12.7879   5
   7  -5 -10 295.860 15.7391  15
  -7  -5  10 267.061 11.6845  12
   7   5 -10 285.758 13.9356   7
  -7   5  10 279.009 11.7014  12
   7   5 -10 277.581 11.9922   9
  -7   5  10 290.045 13.1669   5
  -7   5  10 282.413 12.5391   8
  -7   5  10 280.926 15.9671  16
  -5  -5  10 80.0730 5.79948  12
  -5  -5  10 78.9153 6.39243   5
   5  -5 -10 88.7132 6.62878   9
   5  -5 -10 69.3472 8.17699  15
   5  -5 -10 76.0152 6.93283   6
   5   5 -10 72.3481 7.07642   7
  -5   5  10 81.0749 8.31703  16
   5   5 -10 82.7521 6.73469   9
  -5   5  10 79.6618 6.13421   8
  -5   5  10 89.7819 5.63928  12
   3  -5 -10 320.216 14.6582   6
   3  -5 -10 298.448 11.9007   9
  -3  -5  10 308.690 14.0284   2
   3  -5 -10 334.129 15.9349  15
  -3  -5  10 296.022 11.2355  12
   3   5 -10 290.641 12.8519   9
  -3   5  10 313.764 12.7723   8
  -3   5  10 297.297 17.2086  16
   3   5 -10 302.688 14.0342   7
  -3   5  10 310.914 10.8185  12
  -1  -5  10 182.576 10.6785   2
  -1  -5  10 196.215 8.33269  12
   1  -5 -10 179.510 11.3620  15
   1  -5 -10 189.869 11.3632   6
  -1   5  10 160.427 9.94520  13
   1   5 -10 181.715 10.7922   7
  -1   5  10 184.318 7.07916  12
  -1  -5 -10 96.9678 8.48040  15
   1  -5  10 95.1531 8.51505   2
   1  -5  10 100.385 5.95414  12
   1   5  10 89.9612 4.64715  12
  -1   5 -10 89.2669 8.74715   7
  10  -6 -10 516.334 19.8210   9
  10  -6 -10 529.409 22.8540  15
 -10  -6  10 502.103 20.0991   5
 -10   6  10 510.133 18.5984   8
  10   6 -10 502.769 20.9072   7
 -10   6  10 471.168 18.0341   5
   8  -6 -10 45.9152 5.84509   9
  -8  -6  10 41.3039 5.25250   2
   8  -6 -10 41.4412 7.46746  15
  -8  -6  10 36.9770 6.04916   5
   8   6 -10 35.9187 5.60176   7
   8   6 -10 36.2682 5.09138   9
  -8   6  10 49.1566 6.15962   8
  -8   6  10 36.3765 4.99294   5
  -6  -6  10 1053.79 30.0645  12
   6  -6 -10 1099.65 35.6206  15
   6  -6 -10 1045.41 32.2904   6
  -6  -6  10 1077.24 32.2529   2
   6  -6 -10 1051.60 30.8840   9
   6   6 -10 1065.40 30.2944   9
  -6   6  10 1074.19 30.7030   8
  -6   6  10 1045.80 29.6879  12
  -6   6  10 1015.69 36.1079  16
   6   6 -10 1054.61 33.2397   7
  -6   6  10 1049.23 31.6044   5
   4  -6 -10 138.706 9.64811   6
  -4  -6  10 116.808 7.12249  12
  -4  -6  10 128.238 9.31161   2
   4  -6 -10 129.241 10.2595  15
   4  -6 -10 127.252 7.39199   9
   4   6 -10 124.475 7.82703   9
  -4   6  10 127.827 8.38199   8
  -4   6  10 122.971 6.80183  12
   4   6 -10 114.379 8.58395   7
  -4   6  10 111.875 10.5359  16
   2  -6 -10 1296.99 39.0107  15
  -2  -6  10 1238.13 37.2727   2
   2  -6 -10 1257.43 37.9454   6
  -2  -6  10 1276.73 33.4188  12
  -2   6  10 1257.01 35.2287   8
   2   6 -10 1266.42 38.1094   7
  -2   6  10 1242.48 32.0368  12
  -2   6  10 1247.00 36.4021  13
   0  -6  10 128.536 9.99911   2
   0  -6 -10 127.805 9.54147  15
   0  -6 -10 127.289 9.58752   6
   0  -6  10 127.170 7.25515  12
   0   6 -10 124.461 9.44740   7
   0   6  10 123.165 6.11059  12
  -9  -7  10 13.5209 4.77641   5
   9  -7 -10 15.9082 4.25105   9
   9  -7 -10 15.4904 5.75256  15
  -9   7  10 12.0064 3.30495   5
  -9   7  10 20.4060 4.53410   8
   9   7 -10 7.97970 4.19671   7
   7  -7 -10 74.7538 7.87292   6
  -7  -7  10 70.7417 7.15090   5
   7  -7 -10 81.1703 6.74513   9
  -7  -7  10 81.0764 7.52350   2
  -7  -7  10 75.5005 6.50937  12
   7  -7 -10 75.1437 9.56513  15
   7   7 -10 70.7041 5.77112   9
  -7   7  10 74.9232 7.83508   5
  -7   7  10 77.4553 6.66596   8
  -7   7  10 69.8707 6.03241  12
   7   7 -10 79.9336 8.14407   7
   5  -7 -10 -2.1844 2.16514   6
   5  -7 -10 1.96138 3.16162  15
  -5  -7  10 -4.8801 2.66007   2
  -5  -7  10 0.75329 2.07598  12
   5  -7 -10 2.66523 1.78793   9
   5   7 -10 -1.3503 2.80575   7
  -5   7  10 0.10153 2.06127   8
  -5   7  10 0.65084 1.84276  13
  -5   7  10 3.09499 2.10194  12
   3  -7 -10 41.8639 5.99766   6
   3  -7 -10 38.8217 6.72146  15
  -3  -7  10 30.2555 4.12301  12
  -3  -7  10 46.6589 6.99727   2
  -3   7  10 42.4046 5.91720   8
  -3   7  10 40.8792 4.56114  12
   3   7 -10 31.5212 5.67482   7
  -3   7  10 38.0281 5.59632  13
  -1  -7  10 8.78027 4.68682   2
  -1  -7  10 5.05134 2.65908  12
   1  -7 -10 12.3108 4.44092   6
   1  -7 -10 6.62044 3.12397  15
  -1   7  10 7.43553 2.17754  12
   1   7 -10 4.64199 3.70447   7
  -1  -7 -10 3.22945 3.18679   6
   1  -7  10 3.24349 4.05979   2
   1  -7  10 4.30680 2.63196  12
  -1   7 -10 3.90348 2.85577   7
   1   7  10 1.48099 1.71272  12
  -8  -8  10 272.501 13.4690   5
   8  -8 -10 290.098 17.0568  15
   8  -8 -10 281.441 13.2889   9
  -8   8  10 255.754 12.7190   8
   8   8 -10 269.164 14.5651   7
  -8   8  10 257.591 12.5761   5
   6  -8 -10 504.701 18.5988   9
  -6  -8  10 545.112 20.7819   2
   6  -8 -10 557.296 23.6282  15
  -6  -8  10 520.933 18.8631  12
   6  -8 -10 525.428 20.7284   6
  -6   8  10 515.959 18.4590  12
  -6   8  10 505.391 19.0205   8
   6   8 -10 495.467 20.6520   7
  -4  -8  10 168.543 11.2252   2
  -4  -8  10 157.526 8.84218  12
   4  -8 -10 161.374 11.6951  15
   4  -8 -10 158.204 11.5188   6
  -4   8  10 159.464 9.93206   8
  -4   8  10 161.643 8.63436  12
   4   8 -10 150.997 10.5713   7
  -2  -8  10 441.898 19.3309   2
   2  -8 -10 429.233 19.0763  15
  -2  -8  10 426.132 16.0361  12
   2  -8 -10 441.494 19.3590   6
   2   8 -10 414.077 18.8342   7
  -2   8  10 423.796 15.0481  12
  -2   8  10 427.984 17.0152   8
   0  -8 -10 68.1897 8.00209   6
   0  -8  10 70.1356 6.04618  12
   0  -8  10 82.0245 8.20171   2
   0   8 -10 79.6433 8.20688   7
   0   8  10 81.6491 5.73665  12
   7  -9 -10 5.90023 2.99006   9
  -7  -9  10 0.79649 3.04192   2
   7  -9 -10 6.28756 3.89583   6
  -7   9  10 10.2853 4.03866   8
  -7   9  10 2.45664 2.26892  12
  -7   9  10 9.34993 3.53181   5
   7   9 -10 2.49120 2.99588   7
   5  -9 -10 3.65836 3.41079  15
  -5  -9  10 3.86944 2.45784  12
   5  -9 -10 7.89416 4.55774   6
  -5  -9  10 5.71408 4.22182   2
   5   9 -10 -0.8513 3.28107   7
  -5   9  10 4.12405 2.27842   8
  -5   9  10 5.63278 2.58964  12
   3  -9 -10 5.29118 4.36847   6
   3  -9 -10 5.45961 3.45358  15
  -3  -9  10 6.32061 4.35823   2
  -3  -9  10 4.63253 2.54164  12
  -3   9  10 7.08073 2.43791  12
   3   9 -10 8.53932 4.68282   7
  -3   9  10 3.64123 2.66076   8
  10   0 -11 2.97253 2.35623   9
 -10   0  11 1.18991 2.79070   8
 -10   0  11 5.17445 3.92953   5
   8   0 -11 -0.8436 2.43691  15
  -8   0  11 2.09714 1.86829  12
  -8   0  11 2.01899 3.43628   5
   8   0 -11 5.07464 3.17558   9
  -8   0  11 -1.6831 3.10925  16
  -8   0  11 -1.3546 2.19454   8
   6   0 -11 8.11012 2.61410   9
   6   0 -11 0.80490 2.71425  15
  -6   0  11 2.71762 3.24849   5
  -6   0  11 0.91686 3.19556  16
   4   0 -11 1.82487 2.93025  15
  -4   0  11 3.65395 1.49184  12
   4   0 -11 1.70526 1.72180   9
  -4   0  11 0.38467 2.77952   5
  -4   0  11 0.65588 2.81024  16
  -2   0  11 1.44372 2.87259   5
   2   0 -11 1.37627 3.02097  15
   2   0 -11 0.08007 2.04931   9
   0   0 -11 2.05840 2.52260  15
 -11  -1  11 99.6388 8.11578   5
  11  -1 -11 99.4614 7.96010   9
 -11   1  11 102.072 7.93616   5
 -11   1  11 84.7178 7.38691   8
  -9  -1  11 755.720 23.5164  12
   9  -1 -11 768.764 24.4536   9
  -9  -1  11 742.273 24.6329   5
  -9   1  11 725.637 22.8147   8
   9   1 -11 739.464 23.8320   9
  -9   1  11 734.604 24.7320   5
  -9   1  11 711.419 22.9238  12
   7  -1 -11 190.121 11.2699  15
  -7  -1  11 176.261 12.2659  16
  -7  -1  11 187.058 10.5329   5
  -7  -1  11 194.473 9.01690  12
   7  -1 -11 185.117 10.1792   9
  -7   1  11 169.286 8.40192   8
  -7   1  11 172.395 12.5287  16
   7   1 -11 176.689 9.95300   9
   7   1 -11 182.530 10.4131  15
  -7   1  11 163.687 10.1711   5
  -7   1  11 176.634 8.63492  12
   5  -1 -11 781.812 26.6373  15
  -5  -1  11 745.982 27.0918  16
  -5  -1  11 743.729 23.2444   5
   5  -1 -11 751.975 23.2858   9
  -5  -1  11 763.833 21.1585  12
   5   1 -11 755.179 25.6951  15
  -5   1  11 746.215 23.5552   5
   5   1 -11 735.188 23.1922   9
  -5   1  11 774.402 21.0384  12
  -5   1  11 726.635 27.2565  16
  -3  -1  11 227.653 19.4510  16
   3  -1 -11 276.652 11.5802   9
  -3  -1  11 280.088 9.18629  12
  -3  -1  11 290.756 11.8334   5
   3  -1 -11 296.684 14.9628  15
  -3   1  11 270.501 8.80365  12
   3   1 -11 285.436 12.1166   9
   3   1 -11 296.555 14.5350  15
  -3   1  11 286.335 12.3698   5
  -3   1  11 285.575 15.3100  16
  -1  -1  11 542.406 13.5603  12
   1  -1 -11 497.106 16.9994   9
   1  -1 -11 523.972 21.4671  15
   1   1 -11 524.811 19.0506   7
  -1   1  11 501.366 12.6183  12
   1   1 -11 531.072 17.9670   9
   1   1 -11 541.416 21.2565  15
  -1  -1 -11 326.592 16.4459  15
   1  -1  11 308.068 8.85614  12
 -10  -2  11 204.510 12.0737   5
  10  -2 -11 194.199 11.2694   9
 -10   2  11 207.364 11.6392   5
  -8  -2  11 331.652 13.1016  12
   8  -2 -11 328.781 15.6137  15
  -8  -2  11 299.929 16.8006  16
  -8  -2  11 334.103 14.6304   5
   8  -2 -11 315.237 13.6754   9
  -8   2  11 306.074 12.8226   8
  -8   2  11 311.971 19.8488  16
  -8   2  11 297.415 13.8656   5
  -8   2  11 306.502 12.6522  12
   8   2 -11 320.307 13.5976   9
  -6  -2  11 247.015 11.8728   5
   6  -2 -11 258.971 11.8339   9
  -6  -2  11 237.060 13.8771  16
  -6  -2  11 256.429 10.4126  12
   6  -2 -11 257.408 14.0241  15
  -6   2  11 249.621 12.2003   5
  -6   2  11 253.644 10.0542  12
   6   2 -11 263.172 11.9378   9
  -6   2  11 258.583 10.9860   8
  -6   2  11 245.377 14.8136  16
   6   2 -11 252.586 12.2407  15
   6   2 -11 231.189 11.3477   7
  -4  -2  11 223.063 12.6318  16
   4  -2 -11 231.359 13.3657  15
  -4  -2  11 236.042 10.7418   5
   4  -2 -11 239.269 10.9116   9
  -4  -2  11 234.752 9.04799  12
   4   2 -11 239.058 12.3426  15
   4   2 -11 222.256 10.9023   7
  -4   2  11 239.905 11.5728   5
  -4   2  11 230.150 14.2599  16
   4   2 -11 236.900 10.8571   9
  -4   2  11 231.789 8.48222  12
  -4   2  11 240.790 10.2330   8
   2  -2 -11 253.588 13.8018  15
  -2  -2  11 237.347 8.00521  12
   2  -2 -11 231.465 11.8688   6
   2  -2 -11 230.049 10.1103   9
   2   2 -11 237.951 11.9039   7
  -2   2  11 214.223 13.4777  16
  -2   2  11 228.635 7.23736  12
   2   2 -11 238.334 10.8198   9
   2   2 -11 231.805 13.1164  15
   0  -2  11 103.204 4.56909  12
   0  -2 -11 107.068 9.47836  15
   0  -2  11 99.1004 8.19985   2
   0   2 -11 96.4009 8.11831   7
   2  -2  11 109.716 5.73591  12
  -2   2 -11 117.635 9.90676   7
   9  -3 -11 177.603 10.3055   9
   9  -3 -11 179.446 12.1548  15
  -9  -3  11 180.186 11.2473   5
  -9  -3  11 192.232 9.97555  12
  -9   3  11 200.146 10.4356   8
   9   3 -11 176.626 9.77627   9
  -9   3  11 179.896 9.63473  12
   9   3 -11 174.011 10.5862   7
  -9   3  11 188.399 10.8652   5
  -7  -3  11 846.124 30.4496  16
  -7  -3  11 866.136 25.3692  12
   7  -3 -11 919.475 27.2563   9
  -7  -3  11 876.966 26.8736   5
   7  -3 -11 874.431 30.0183  15
  -7   3  11 851.411 24.9182  12
   7   3 -11 810.500 26.8937   7
  -7   3  11 916.806 25.7787   8
  -7   3  11 827.815 31.0058  16
   7   3 -11 868.763 26.2356   9
  -7   3  11 829.321 26.7134   5
  -5  -3  11 213.617 12.6861  16
   5  -3 -11 244.864 13.5068  15
  -5  -3  11 238.525 9.68673  12
   5  -3 -11 228.296 12.1785   6
  -5  -3  11 239.876 11.0522   5
   5  -3 -11 224.255 10.7336   9
   5   3 -11 225.944 11.6172   7
  -5   3  11 236.278 10.6468   8
  -5   3  11 226.729 14.6212  16
  -5   3  11 226.170 9.25314  12
   5   3 -11 235.944 11.3318   9
  -5   3  11 248.244 12.0968   5
   5   3 -11 240.077 12.4429  15
   3  -3 -11 1029.35 31.7931   6
   3  -3 -11 1095.17 34.4727  15
  -3  -3  11 1067.56 27.1352  12
   3  -3 -11 1002.80 29.0398   9
   3   3 -11 1076.42 30.4649   9
   3   3 -11 1052.38 31.6309   7
  -3   3  11 1071.89 29.2666   8
   3   3 -11 1048.48 32.7599  15
  -3   3  11 939.909 34.4469  16
  -3   3  11 1058.81 26.2446  12
  -1  -3  11 134.322 9.55720   2
   1  -3 -11 139.927 10.0401  15
   1  -3 -11 132.568 9.11525   6
  -1  -3  11 135.105 5.86564  12
  -1   3  11 116.546 10.3228  16
  -1   3  11 122.785 7.83190   8
   1   3 -11 126.156 8.65468   7
  -1   3  11 123.927 4.66330  12
   1  -3  11 647.577 17.6517  12
  -1  -3 -11 626.745 24.1795  15
 -10  -4  11 -1.1512 3.91382   5
  10  -4 -11 -0.6976 3.24061   9
  10  -4 -11 -1.8593 3.26926  15
  10   4 -11 -0.0577 1.82043   7
 -10   4  11 3.73543 3.49243   8
 -10   4  11 0.35551 3.17841   5
  -8  -4  11 62.9927 7.14017   5
   8  -4 -11 70.6351 8.48310  15
   8  -4 -11 62.7379 6.90060   9
  -8  -4  11 64.8885 5.90017  12
   8   4 -11 63.7703 6.60078   9
   8   4 -11 66.4310 6.92072   7
  -8   4  11 69.4318 5.77069  12
  -8   4  11 62.4762 6.60494   8
  -8   4  11 59.2556 6.85567   5
  -6  -4  11 29.9690 4.48978   5
   6  -4 -11 26.4886 5.44470   6
   6  -4 -11 24.7382 5.63399  15
  -6  -4  11 28.1769 3.89104  12
  -6  -4  11 21.1233 4.71570  16
   6  -4 -11 29.7904 4.63032   9
  -6   4  11 26.8574 5.30490   5
  -6   4  11 22.5372 6.04465  16
   6   4 -11 23.5195 4.42822   9
   6   4 -11 21.1370 4.60198   7
  -6   4  11 22.1031 3.84978   8
  -6   4  11 17.3077 2.91779  12
   4  -4 -11 61.6272 7.14889   6
   4  -4 -11 60.3540 6.90599  15
   4  -4 -11 53.8456 5.49277   9
  -4  -4  11 60.3093 4.80340  12
  -4   4  11 57.5902 8.56875  16
  -4   4  11 54.4982 4.13952  12
   4   4 -11 58.2741 6.37818   9
   4   4 -11 66.4466 6.70370   7
  -4   4  11 60.6258 5.80849   8
   4   4 -11 42.7920 5.74286  15
  -2  -4  11 111.372 9.19748   2
   2  -4 -11 116.412 9.11434  15
   2  -4 -11 98.8604 8.39580   6
  -2   4  11 116.088 7.31706   8
   2   4 -11 109.325 8.78980   7
  -2   4  11 102.634 4.98133  12
  -2   4  11 92.6883 12.8035  16
   0  -4 -11 35.1010 6.01805  15
   0  -4  11 47.2565 6.64666   2
   0  -4 -11 43.1063 5.71216   6
   0  -4  11 42.2911 3.94043  12
   0   4 -11 37.6667 6.10880   7
   0   4  11 34.1406 2.52640  12
   9  -5 -11 475.811 18.0621   9
  -9  -5  11 410.657 17.3136   2
  -9  -5  11 449.801 17.8717   5
   9  -5 -11 482.093 21.5163  15
  -9   5  11 437.353 17.3047   8
   9   5 -11 451.631 18.9212   7
  -9   5  11 447.232 17.6740   5
  -9   5  11 440.366 16.6253  12
  -7  -5  11 181.797 9.56448  12
   7  -5 -11 175.911 10.3082   9
  -7  -5  11 169.828 10.1809   5
   7  -5 -11 191.336 13.1977  15
   7   5 -11 164.518 10.5283   7
  -7   5  11 181.249 10.2738   8
  -7   5  11 175.084 9.03772  12
   7   5 -11 183.311 9.52425   9
  -7   5  11 160.464 9.85374   5
   5  -5 -11 437.532 18.5203   6
   5  -5 -11 435.387 20.0844  15
   5  -5 -11 418.779 16.0107   9
  -5  -5  11 449.888 15.3855  12
  -5  -5  11 427.285 17.8217   2
  -5   5  11 407.906 16.0083   8
   5   5 -11 424.110 16.1471   9
   5   5 -11 430.163 17.8051   7
  -5   5  11 430.837 14.7609  12
  -3  -5  11 168.833 11.1673   2
  -3  -5  11 163.485 8.05451  12
   3  -5 -11 164.175 10.6240   6
   3  -5 -11 188.910 12.2988  15
  -3   5  11 167.060 7.48683  12
  -3   5  11 180.122 9.55870   8
   3   5 -11 163.077 10.4690   7
  -1  -5  11 418.053 13.8067  12
   1  -5 -11 413.086 18.6595  15
  -1  -5  11 411.582 17.4289   2
   1  -5 -11 413.349 17.9412   6
   1   5 -11 400.783 17.9749   7
  -1   5  11 382.639 12.1444  12
  -1   5  11 379.798 15.3804   8
  -8  -6  11 0.20520 2.28719  12
   8  -6 -11 4.53789 4.35266  15
   8  -6 -11 -0.6184 2.61063   9
  -8  -6  11 0.43599 3.59035   5
  -8  -6  11 0.97560 2.65184   2
  -8   6  11 -2.5258 2.79250   5
  -8   6  11 0.38348 3.24146   8
   8   6 -11 0.41144 2.59508   9
   8   6 -11 3.82774 3.40677   7
  -8   6  11 -0.9384 1.75316  12
   6  -6 -11 50.6173 7.11558   6
   6  -6 -11 50.0051 5.58171   9
   6  -6 -11 46.1098 7.72611  15
  -6  -6  11 43.2720 5.97013   2
  -6  -6  11 56.9901 5.60955  12
  -6   6  11 52.8646 5.00060  12
   6   6 -11 57.6679 7.36484   7
  -6   6  11 42.5893 5.85714   8
   6   6 -11 49.4016 5.98153   9
  -6   6  11 47.6837 6.38870   5
   4  -6 -11 37.9002 4.64854   9
   4  -6 -11 46.4457 7.17767  15
  -4  -6  11 41.3184 6.74054   2
  -4  -6  11 39.0952 4.54808  12
   4  -6 -11 46.5828 6.37983   6
   4   6 -11 43.6059 5.99086   7
  -4   6  11 44.3683 5.75369   8
  -4   6  11 49.3763 4.62219  12
  -2  -6  11 14.3721 2.91294  12
  -2  -6  11 16.9607 5.54340   2
   2  -6 -11 16.7198 4.67156  15
   2  -6 -11 17.3682 4.83178   6
   2   6 -11 21.9962 4.76952   7
  -2   6  11 13.5521 2.52184  12
  -2   6  11 17.4646 3.67569   8
   0  -6 -11 112.025 9.26476   6
   0  -6 -11 108.230 9.15239  15
   0  -6  11 110.514 7.16589  12
   0   6 -11 125.224 10.0719   7
   0   6  11 121.765 5.90455  12
   7  -7 -11 320.474 15.4943   6
  -7  -7  11 298.959 13.2751  12
   7  -7 -11 318.641 17.8683  15
   7  -7 -11 326.992 14.3590   9
  -7  -7  11 318.195 15.2092   2
  -7   7  11 307.591 13.8182   8
  -7   7  11 292.535 14.1028   5
  -7   7  11 318.631 13.3643  12
   7   7 -11 305.979 15.4036   7
   5  -7 -11 694.540 25.2637   6
  -5  -7  11 675.439 24.6878   2
   5  -7 -11 700.107 27.1124  15
  -5  -7  11 664.233 22.0396  12
  -5   7  11 674.575 22.8636   8
   5   7 -11 640.405 24.8267   7
  -5   7  11 694.750 21.4846  12
  -3  -7  11 306.074 15.8666   2
   3  -7 -11 312.739 16.1282   6
   3  -7 -11 322.905 16.7043  15
  -3  -7  11 314.637 12.9432  12
   3   7 -11 290.135 15.2231   7
  -3   7  11 305.027 11.8432  12
  -3   7  11 310.639 14.1319   8
   1  -7 -11 511.316 20.8707  15
  -1  -7  11 462.992 16.8073  12
   1  -7 -11 475.899 20.7243   6
  -1  -7  11 505.156 20.7972   2
  -1   7  11 433.444 15.0508  12
  -1   7  11 478.390 18.3443   8
   1   7 -11 518.972 21.0505   7
   6  -8 -11 177.893 12.6250  15
  -6  -8  11 163.237 9.58430  12
   6  -8 -11 169.603 11.1676   6
   6  -8 -11 158.843 9.58376   9
  -6  -8  11 170.870 11.4879   2
   6   8 -11 160.174 11.4192   7
  -6   8  11 156.990 10.2024   8
  -6   8  11 158.642 9.10206  12
  -6   8  11 159.624 10.6322   5
  -4  -8  11 109.249 9.62058   2
   4  -8 -11 112.957 9.71005  15
   4  -8 -11 104.714 10.2363   6
  -4  -8  11 102.697 7.63184  12
  -4   8  11 97.6993 8.23424   8
   4   8 -11 100.752 9.19616   7
  10   0 -12 28.9302 4.98391   9
 -10   0  12 29.3605 5.93025   5
 -10   0  12 28.8792 4.30193  12
   8   0 -12 1122.58 32.9292   9
  -8   0  12 1127.52 31.5913  12
   8   0 -12 1090.27 36.1973  15
  -8   0  12 1135.82 33.7095   5
  -6   0  12 44.6769 6.89159  16
  -6   0  12 54.0168 6.06920   5
   6   0 -12 45.3861 5.61963   9
   6   0 -12 40.6346 6.39536  15
  -6   0  12 42.3935 4.32221  12
   4   0 -12 1347.94 36.6306   9
   4   0 -12 1324.47 40.2461  15
  -4   0  12 1308.69 32.8022  12
  -4   0  12 1290.38 40.9558  16
  -4   0  12 1324.07 36.5196   5
   2   0 -12 10.3185 3.03179   9
  -2   0  12 7.90887 1.50672  12
   2   0 -12 4.92833 3.20629  15
   0   0 -12 1329.04 41.3814  15
  -9  -1  12 23.6334 4.76964   5
   9  -1 -12 33.8933 5.33084   9
  -9  -1  12 21.4868 3.72193  12
  -9   1  12 24.9113 5.65650   5
   9   1 -12 36.9483 5.62671   9
  -9   1  12 30.1927 4.13569  12
   7  -1 -12 67.8085 7.98728  15
  -7  -1  12 70.4123 7.15640   5
  -7  -1  12 72.0186 5.64342  12
   7  -1 -12 78.5246 7.00788   9
   7   1 -12 67.9571 7.49569  15
  -7   1  12 75.8376 6.78750   5
   7   1 -12 69.5283 6.30519   9
   5  -1 -12 155.840 9.17661   9
  -5  -1  12 135.603 10.6960  16
  -5  -1  12 160.213 7.62241  12
  -5  -1  12 148.603 9.30388   5
   5  -1 -12 159.814 11.2600  15
  -5   1  12 159.751 9.78274   5
   5   1 -12 157.674 9.21906   9
  -5   1  12 128.074 11.2387  16
  -5   1  12 162.276 7.33639  12
   5   1 -12 149.670 10.2643  15
   3  -1 -12 7.56635 2.84313   9
  -3  -1  12 10.1724 2.06303  12
   3  -1 -12 10.5998 3.76874  15
   3   1 -12 6.30284 2.97178   9
   3   1 -12 9.60123 4.31869  15
  -3   1  12 6.19900 1.54552  12
  -3   1  12 6.97788 3.35928   5
  -3   1  12 5.44131 3.74377  16
  -1  -1  12 143.445 5.32215  12
   1  -1 -12 135.174 10.8869  15
  -1  -1  12 148.654 9.67155   2
   1   1 -12 152.649 11.0009  15
  10  -2 -12 397.073 16.5376   9
 -10  -2  12 348.830 16.5338   5
 -10   2  12 380.977 15.2171  12
  10   2 -12 384.301 15.6063   9
 -10   2  12 396.158 16.8414   5
  -8  -2  12 598.561 20.3366  12
  -8  -2  12 616.133 21.7558   5
   8  -2 -12 646.608 24.3441  15
   8  -2 -12 633.613 22.1002   9
  -8   2  12 624.413 22.2979   5
   8   2 -12 622.434 21.4620   9
  -8   2  12 592.252 20.0665   8
  -6  -2  12 594.869 18.7881  12
   6  -2 -12 623.970 24.1648  15
   6  -2 -12 596.177 20.6769   9
  -6  -2  12 603.754 20.7067   5
  -6   2  12 577.256 21.0155   5
   6   2 -12 586.795 20.6200   9
  -6   2  12 616.388 18.6891  12
   6   2 -12 589.403 22.1795  15
  -6   2  12 591.279 19.2401   8
   4  -2 -12 491.377 21.0224  15
  -4  -2  12 497.580 15.3927  12
   4  -2 -12 491.985 17.6857   9
   4   2 -12 498.727 18.0323   9
  -4   2  12 506.906 14.8818  12
  -4   2  12 499.136 18.7852   5
   4   2 -12 497.704 20.2723  15
  -2  -2  12 384.824 11.6483  12
   2  -2 -12 385.660 17.8631  15
   2  -2 -12 353.235 13.8100   9
  -2   2  12 367.002 15.1707   5
   2   2 -12 385.227 15.1577   9
  -2   2  12 360.106 10.5233  12
   2   2 -12 377.927 18.5922   7
   2   2 -12 415.671 18.7404  15
   0  -2 -12 147.669 11.2834  15
   0  -2  12 166.987 6.22120  12
  -9  -3  12 54.4312 5.57541  12
  -9  -3  12 58.1311 7.04243   5
   9  -3 -12 44.1624 6.09057   9
   9   3 -12 46.6024 5.39352   9
  -9   3  12 47.4272 6.40334   5
  -9   3  12 55.6677 6.29419   8
   7  -3 -12 25.3328 5.95344  15
  -7  -3  12 27.0325 4.11773  12
  -7  -3  12 27.3842 5.36600   5
   7  -3 -12 25.2304 4.66513   9
  -7   3  12 23.9813 3.58210  12
  -7   3  12 24.9291 4.68079   5
   7   3 -12 22.9338 4.61040   9
  -7   3  12 27.3000 4.65731   8
  -5  -3  12 2.36513 1.86206  12
   5  -3 -12 4.63099 3.97326  15
   5  -3 -12 2.61708 1.88585   9
   5   3 -12 2.89286 2.62275   7
   5   3 -12 0.56923 2.85811  15
  -5   3  12 2.94757 2.87760   8
   5   3 -12 3.76318 3.07692   9
  -5   3  12 -0.3399 1.59203  12
  -5   3  12 1.06943 3.44261   5
   3  -3 -12 74.3077 8.43773  15
   3  -3 -12 68.2221 7.16918   6
   3  -3 -12 73.5438 5.98382   9
  -3  -3  12 72.1643 4.93632  12
   3   3 -12 82.7487 7.19082   9
  -3   3  12 65.8969 4.10922  12
   3   3 -12 83.2073 7.85356  15
  -3   3  12 74.8470 6.85524   5
   3   3 -12 76.2437 7.15271   7
  -1  -3  12 5.81741 3.89793   2
   1  -3 -12 5.71789 3.63525  15
  -1  -3  12 2.55426 1.63773  12
   1  -3 -12 2.93377 2.66074   6
  -1   3  12 1.71862 0.91965  12
   8  -4 -12 47.8665 7.73908  15
  -8  -4  12 42.9726 6.35082   5
   8  -4 -12 37.9519 5.66504   9
  -8  -4  12 41.0395 5.21299  12
   8   4 -12 36.6203 4.93009   9
  -8   4  12 39.6915 5.61598   8
  -8   4  12 34.6163 4.53809  12
  -8   4  12 55.1823 7.21045   5
   8   4 -12 35.0744 5.51117   7
   6  -4 -12 519.085 22.2373  15
   6  -4 -12 523.383 18.8980   9
   6   4 -12 488.477 19.5864   7
  -6   4  12 508.627 19.8766   5
  -6   4  12 518.131 18.2836   8
  -6   4  12 500.217 16.8406  12
   6   4 -12 520.119 18.6665   9
   4  -4 -12 59.3849 7.81245  15
   4  -4 -12 62.4817 7.51255   6
  -4  -4  12 66.2781 7.65811   2
   4  -4 -12 53.0248 5.64174   9
  -4   4  12 75.8763 7.08660   5
   4   4 -12 71.1093 6.38286   9
   4   4 -12 66.1966 7.71008  15
  -4   4  12 89.9767 5.31391  12
   4   4 -12 64.9037 7.11096   7
  -4   4  12 55.7514 6.11602   8
  -2  -4  12 716.557 25.0121   2
   2  -4 -12 687.923 26.0159  15
   2  -4 -12 682.246 24.6044   6
  -2  -4  12 680.349 19.6994  12
   2   4 -12 681.123 24.6336   7
  -2   4  12 682.954 21.9964   8
  -2   4  12 649.188 18.0799  12
   9   5 -12 12.4975 4.68895   7
  -9   5  12 4.95009 2.69789  12
  -7  -5  12 0.99188 2.09616  12
   7  -5 -12 3.20316 4.35261  15
  -7  -5  12 1.59170 3.82074   5
  -7  -5  12 8.50548 3.86564   2
   7  -5 -12 2.00233 2.93734   9
  -7   5  12 1.97281 2.43658   8
  -7   5  12 1.94464 1.84571  12
   7   5 -12 0.30043 2.74821   7
   7   5 -12 0.44737 2.86884   9
  -7   5  12 3.28309 3.44678   5
   5  -5 -12 0.32509 3.29989   6
   5  -5 -12 2.05130 2.35877   9
  -5  -5  12 2.07651 2.33411  12
   5  -5 -12 4.51800 3.07082  15
  -5  -5  12 2.19429 2.60732   2
   5   5 -12 2.28326 3.04987   7
   5   5 -12 3.61372 3.23689   9
  -5   5  12 8.25132 4.08678   5
  -5   5  12 0.62090 2.00088  12
  -5   5  12 -0.9395 2.87429   8
   3  -5 -12 42.9577 7.05264  15
   3  -5 -12 36.8920 6.13639   6
  -3  -5  12 45.1676 7.32514   2
  -3   5  12 35.8951 5.15298   8
  -3   5  12 34.5108 3.40156  12
   3   5 -12 45.8878 6.09205   7
   1  -5 -12 1.75047 2.28134   6
  -8  -6  12 666.256 26.2350  12
   6  -6 -12 178.631 13.5404  15
   6  -6 -12 177.935 10.1015   9
   6  -6 -12 164.536 11.5229   6
  -6  -6  12 188.033 11.8714   2
  -6  -6  12 177.863 9.61399  12
  -6   6  12 171.233 10.5540   5
   6   6 -12 164.559 10.1117   9
  -6   6  12 178.735 10.5776   8
  -6   6  12 183.299 9.18609  12
   6   6 -12 177.336 11.7929   7
   4  -6 -12 760.821 27.0673   6
   4  -6 -12 798.000 29.1943  15
  -4  -6  12 769.934 27.3246   2
  -4  -6  12 730.693 22.9753  12
   4   6 -12 704.952 26.3588   7
  -4   6  12 721.823 21.8299  12
  -4   6  12 771.194 24.5370   8
   8   0 -13 2.53958 3.25497   9
  -8   0  13 1.71932 3.81453   5
  -8   0  13 1.57081 1.86274  12
  -6   0  13 2.66593 1.86064  12
   6   0 -13 2.97581 3.54848  15
   6   0 -13 0.36609 1.94692   9
  -6   0  13 -0.5645 3.39344   5
  -4   0  13 0.29688 1.38184  12
   4   0 -13 1.60106 2.63492  15
   4   0 -13 1.96373 2.45936   9
   2   0 -13 4.06384 3.71213  15
  -2   0  13 1.34213 1.06743  12
   2   0 -13 0.60339 1.61184   9
  -9  -1  13 113.686 7.79041  12
   9  -1 -13 114.717 9.61499   9
  -9   1  13 107.429 8.62670  12
  -7  -1  13 609.386 21.8620   5
   7  -1 -13 615.172 24.1218  15
   7  -1 -13 618.437 21.4632   9
  -7  -1  13 616.204 19.8642  12
  -7   1  13 583.780 21.8624   5
  -7   1  13 603.097 19.4138  12
   7   1 -13 621.947 21.6873   9
  -5  -1  13 116.306 8.62619   5
   5  -1 -13 116.820 8.17254   9
   5  -1 -13 121.391 10.5713  15
  -5  -1  13 116.085 6.45208  12
   5   1 -13 113.296 10.0025  15
   5   1 -13 115.297 8.37255   9
  -5   1  13 114.857 8.82758   5
  -3  -1  13 622.402 17.5921  12
   3  -1 -13 659.317 21.4197   9
   3  -1 -13 658.518 25.7349  15
   3   1 -13 648.678 21.7320   9
  -3   1  13 640.211 17.2024  12
  -8  -2  13 200.901 11.9840   5
   8  -2 -13 214.630 11.6306   9
  -8  -2  13 204.868 10.2488  12
   8  -2 -13 197.998 13.1360  15
  -8   2  13 203.912 10.0373  12
  -8   2  13 193.606 11.8971   5
   8   2 -13 195.345 11.1616   9
   6  -2 -13 154.348 11.9049  15
  -6  -2  13 169.514 8.49044  12
   6  -2 -13 160.339 9.75673   9
  -6  -2  13 154.511 9.87567   5
   6   2 -13 149.207 11.0627  15
  -6   2  13 158.807 8.05144  12
   6   2 -13 161.308 9.97418   9
  -6   2  13 163.270 10.5754   5
  -4  -2  13 228.852 9.13873  12
   4  -2 -13 238.019 11.3091   9
   4  -2 -13 230.953 13.8867  15
   4   2 -13 221.244 11.5944   9
   4   2 -13 221.727 13.1162  15
  -4   2  13 226.575 8.61755  12
  -4   2  13 229.458 12.2037   5
   7  -3 -13 205.941 13.8253  15
  -7  -3  13 196.260 11.3466   5
  -7  -3  13 200.239 9.91300  12
   7  -3 -13 202.449 11.2057   9
  -7   3  13 200.111 12.0177   5
   7   3 -13 188.017 11.0424   9
  -7   3  13 197.391 9.52509  12
   5  -3 -13 431.566 16.7304   9
  -5  -3  13 435.947 15.0337  12
  -5   3  13 462.003 18.4712   5
   5   3 -13 436.309 18.8211  15
   5   3 -13 457.869 17.6308   9
  -5   3  13 419.710 14.2507  12
  -3  -3  13 153.560 10.9278   2
  -3  -3  13 155.333 7.33273  12
   3  -3 -13 152.361 11.1353  15
  -3   3  13 150.447 9.90303   5
  -3   3  13 146.289 6.26667  12
   3   3 -13 139.040 9.18736   9
  -6  -4  13 2.67398 2.02857  12
   6  -4 -13 3.32048 3.15240  15
   6  -4 -13 3.93073 2.15476   9
   6   4 -13 0.97393 3.20478   9
  -6   4  13 3.94244 3.23486   8
  -6   4  13 2.18016 1.90883  12
  -6   4  13 2.18595 3.70452   5
  -4  -4  13 21.5323 6.42451   2
   4  -4 -13 17.4411 4.89705  15
  -4  -4  13 26.8075 4.31386  12
  -4   4  13 18.9380 4.70324   5
  -4   4  13 22.9838 3.49222  12
   4   4 -13 23.6164 4.17595   9
   4   4 -13 33.1100 7.91783   7
   0   0   0    0.00    0.00   0

 _exptl_absorpt_process_details
)
 SADABS 2016/2: Krause, L., Herbst-Irmer, R., Sheldrick G.M. & Stalke D.,
 J. Appl. Cryst. 48 (2015) 3-10
)
 _exptl_absorpt_correction_type   multi-scan
 _exptl_absorpt_correction_T_max  0.7482
 _exptl_absorpt_correction_T_min  0.6574
 _exptl_special_details
)
 The following wavelength and cell were deduced by SADABS from the
 direction cosines etc. They are given here for emergency use only:
 CELL 0.71071    6.793    7.605    7.383   89.991  116.991   90.002
)

;
_shelx_hkl_checksum              94235
loop_
_space_group_symop_operation_xyz
'x, y, z'
'-x, y, -z+1/2'
'x+1/2, y+1/2, z'
'-x+1/2, y+1/2, -z+1/2'
'-x, -y, -z'
'x, -y, z-1/2'
'-x+1/2, -y+1/2, -z'
'x+1/2, -y+1/2, z-1/2'
loop_
_atom_site_label
_atom_site_type_symbol
_atom_site_fract_x
_atom_site_fract_y
_atom_site_fract_z
_atom_site_U_iso_or_equiv
_atom_site_adp_type
_atom_site_occupancy
_atom_site_site_symmetry_order
_atom_site_calc_flag
_atom_site_refinement_flags_posn
_atom_site_refinement_flags_adp
_atom_site_refinement_flags_occupancy
_atom_site_disorder_assembly
_atom_site_disorder_group
Ni Ni 0.000000 0.500000 0.000000 0.00357(5) Uani 1 2 d S . P . .
S S 0.000000 0.15750(3) 0.250000 0.00344(5) Uani 1 2 d S T P . .
O1 O 0.17263(10) 0.04756(9) 0.40448(9) 0.00712(10) Uani 1 1 d . . . . .
O2 O 0.10474(10) 0.27084(8) 0.15537(9) 0.00604(9) Uani 1 1 d . . . . .
O3 O 0.000000 0.63067(11) 0.250000 0.00555(12) Uani 1 2 d S T P . .
H H 0.109(3) 0.695(3) 0.294(3) 0.018(5) Uiso 1 1 d . . . . .
loop_
_atom_site_aniso_label
_atom_site_aniso_U_11
_atom_site_aniso_U_22
_atom_site_aniso_U_33
_atom_site_aniso_U_23
_atom_site_aniso_U_13
_atom_site_aniso_U_12
Ni 0.00321(6) 0.00392(7) 0.00349(6) 0.00013(3) 0.00146(4) -0.00011(3)
S 0.00269(9) 0.00365(9) 0.00388(9) 0.000 0.00144(7) 0.000
O1 0.0044(2) 0.0084(2) 0.0080(2) 0.00384(17) 0.00232(17) 0.00214(17)
O2 0.0058(2) 0.0057(2) 0.0079(2) 0.00231(16) 0.00435(17) 0.00046(16)
O3 0.0050(3) 0.0062(3) 0.0054(3) 0.000 0.0024(2) 0.000
loop_
_atom_type_symbol
_atom_type_description
_atom_type_scat_dispersion_real
_atom_type_scat_dispersion_imag
_atom_type_scat_source
O O 0.0106 0.0060 'International Tables Vol C Tables 4.2.6.8 and 6.1.1.4'
H H 0.0000 0.0000 'International Tables Vol C Tables 4.2.6.8 and 6.1.1.4'
S S 0.1246 0.1234 'International Tables Vol C Tables 4.2.6.8 and 6.1.1.4'
Ni Ni 0.3393 1.1124 'International Tables Vol C Tables 4.2.6.8 and 6.1.1.4'
loop_
_geom_angle_atom_site_label_1
_geom_angle_atom_site_label_2
_geom_angle_atom_site_label_3
_geom_angle
_geom_angle_site_symmetry_1
_geom_angle_site_symmetry_3
_geom_angle_publ_flag
O2 Ni O2 180.0 5_565 . ?
O2 Ni O1 85.14(3) 5_565 8_455 ?
O2 Ni O1 94.86(3) . 8_455 ?
O2 Ni O1 94.86(3) 5_565 4 ?
O2 Ni O1 85.14(3) . 4 ?
O1 Ni O1 180.0 8_455 4 ?
O2 Ni O3 92.69(3) 5_565 5_565 ?
O2 Ni O3 87.31(3) . 5_565 ?
O1 Ni O3 93.18(2) 8_455 5_565 ?
O1 Ni O3 86.82(2) 4 5_565 ?
O2 Ni O3 87.31(3) 5_565 . ?
O2 Ni O3 92.69(3) . . ?
O1 Ni O3 86.82(2) 8_455 . ?
O1 Ni O3 93.18(2) 4 . ?
O3 Ni O3 180.0 5_565 . ?
O2 Ni O2 98.324(15) 5_565 8_455 ?
O2 Ni O2 81.676(14) . 8_455 ?
O1 Ni O2 43.59(2) 8_455 8_455 ?
O1 Ni O2 136.41(2) 4 8_455 ?
O3 Ni O2 51.336(16) 5_565 8_455 ?
O3 Ni O2 128.665(16) . 8_455 ?
O2 Ni O2 81.675(14) 5_565 4 ?
O2 Ni O2 98.324(14) . 4 ?
O1 Ni O2 136.41(2) 8_455 4 ?
O1 Ni O2 43.59(2) 4 4 ?
O3 Ni O2 128.664(16) 5_565 4 ?
O3 Ni O2 51.336(16) . 4 ?
O2 Ni O2 180.0 8_455 4 ?
O2 Ni O2 43.86(2) 5_565 6_565 ?
O2 Ni O2 136.14(2) . 6_565 ?
O1 Ni O2 113.71(2) 8_455 6_565 ?
O1 Ni O2 66.29(2) 4 6_565 ?
O3 Ni O2 59.81(2) 5_565 6_565 ?
O3 Ni O2 120.19(2) . 6_565 ?
O2 Ni O2 96.315(18) 8_455 6_565 ?
O2 Ni O2 83.685(18) 4 6_565 ?
O2 Ni O2 136.14(2) 5_565 2 ?
O2 Ni O2 43.86(2) . 2 ?
O1 Ni O2 66.29(2) 8_455 2 ?
O1 Ni O2 113.71(2) 4 2 ?
O3 Ni O2 120.19(2) 5_565 2 ?
O3 Ni O2 59.81(2) . 2 ?
O2 Ni O2 83.685(18) 8_455 2 ?
O2 Ni O2 96.315(18) 4 2 ?
O2 Ni O2 180.000(12) 6_565 2 ?
O1 S O1 110.39(6) 2 . ?
O1 S O2 110.24(4) 2 . ?
O1 S O2 108.44(3) . . ?
O1 S O2 108.44(3) 2 2 ?
O1 S O2 110.24(4) . 2 ?
O2 S O2 109.09(5) . 2 ?
S O1 Ni 136.55(4) . 4_545 ?
S O1 O2 36.08(2) . . ?
Ni O1 O2 100.61(3) 4_545 . ?
S O1 O1 34.81(3) . 2 ?
Ni O1 O1 139.49(4) 4_545 2 ?
O2 O1 O1 60.58(3) . 2 ?
S O1 O2 35.17(2) . 2 ?
Ni O1 O2 145.43(4) 4_545 2 ?
O2 O1 O2 60.37(3) . 2 ?
O1 O1 O2 59.47(2) 2 2 ?
S O1 O2 127.75(4) . 4_545 ?
Ni O1 O2 47.399(19) 4_545 4_545 ?
O2 O1 O2 109.98(3) . 4_545 ?
O1 O1 O2 102.29(3) 2 4_545 ?
O2 O1 O2 161.57(4) 2 4_545 ?
S O1 O3 170.85(4) . 7_556 ?
Ni O1 O3 47.701(15) 4_545 7_556 ?
O2 O1 O3 145.69(3) . 7_556 ?
O1 O1 O3 150.58(2) 2 7_556 ?
O2 O1 O3 135.84(3) 2 7_556 ?
O2 O1 O3 61.40(2) 4_545 7_556 ?
S O1 O2 115.09(4) . 8_556 ?
Ni O1 O2 42.541(19) 4_545 8_556 ?
O2 O1 O2 86.34(2) . 8_556 ?
O1 O1 O2 146.88(3) 2 8_556 ?
O2 O1 O2 104.31(3) 2 8_556 ?
O2 O1 O2 89.94(3) 4_545 8_556 ?
O3 O1 O2 61.66(2) 7_556 8_556 ?
S O1 O3 92.69(3) . 3_545 ?
Ni O1 O3 44.405(16) 4_545 3_545 ?
O2 O1 O3 57.81(2) . 3_545 ?
O1 O1 O3 101.73(4) 2 3_545 ?
O2 O1 O3 115.71(3) 2 3_545 ?
O2 O1 O3 62.50(3) 4_545 3_545 ?
O3 O1 O3 92.11(2) 7_556 3_545 ?
O2 O1 O3 56.88(2) 8_556 3_545 ?
S O1 O2 112.40(4) . 7_556 ?
Ni O1 O2 78.31(2) 4_545 7_556 ?
O2 O1 O2 108.27(3) . 7_556 ?
O1 O1 O2 139.75(3) 2 7_556 ?
O2 O1 O2 81.07(2) 2 7_556 ?
O2 O1 O2 117.36(3) 4_545 7_556 ?
O3 O1 O2 58.87(2) 7_556 7_556 ?
O2 O1 O2 45.79(2) 8_556 7_556 ?
O3 O1 O2 102.44(2) 3_545 7_556 ?
S O1 O2 127.29(4) . 6_556 ?
Ni O1 O2 95.25(2) 4_545 6_556 ?
O2 O1 O2 162.54(4) . 6_556 ?
O1 O1 O2 102.39(3) 2 6_556 ?
O2 O1 O2 109.02(3) 2 6_556 ?
O2 O1 O2 75.80(3) 4_545 6_556 ?
O3 O1 O2 51.717(19) 7_556 6_556 ?
O2 O1 O2 110.47(3) 8_556 6_556 ?
O3 O1 O2 135.22(3) 3_545 6_556 ?
O2 O1 O2 81.953(19) 7_556 6_556 ?
S O1 O1 89.49(3) . 5_556 ?
Ni O1 O1 133.29(4) 4_545 5_556 ?
O2 O1 O1 124.13(4) . 5_556 ?
O1 O1 O1 80.70(3) 2 5_556 ?
O2 O1 O1 65.71(3) 2 5_556 ?
O2 O1 O1 116.86(3) 4_545 5_556 ?
O3 O1 O1 85.59(3) 7_556 5_556 ?
O2 O1 O1 121.10(3) 8_556 5_556 ?
O3 O1 O1 177.56(3) 3_545 5_556 ?
O2 O1 O1 75.67(3) 7_556 5_556 ?
O2 O1 O1 43.305(19) 6_556 5_556 ?
S O2 Ni 130.45(4) . . ?
S O2 O1 35.48(2) . . ?
Ni O2 O1 160.13(4) . . ?
S O2 O1 34.60(2) . 2 ?
Ni O2 O1 117.38(3) . 2 ?
O1 O2 O1 59.95(3) . 2 ?
S O2 O2 35.46(3) . 2 ?
Ni O2 O2 100.65(2) . 2 ?
O1 O2 O2 60.36(2) . 2 ?
O1 O2 O2 59.27(2) 2 2 ?
S O2 O3 106.78(3) . 3_545 ?
Ni O2 O3 122.62(3) . 3_545 ?
O1 O2 O3 72.69(3) . 3_545 ?
O1 O2 O3 111.85(3) 2 3_545 ?
O2 O2 O3 129.74(3) 2 3_545 ?
S O2 O1 160.39(4) . 4 ?
Ni O2 O1 47.46(2) . 4 ?
O1 O2 O1 138.20(3) . 4 ?
O1 O2 O1 161.57(4) 2 4 ?
O2 O2 O1 127.64(2) 2 4 ?
O3 O2 O1 77.60(3) 3_545 4 ?
S O2 O3 135.34(4) . 5_565 ?
Ni O2 O3 47.48(2) . 5_565 ?
O1 O2 O3 150.02(4) . 5_565 ?
O1 O2 O3 101.41(3) 2 5_565 ?
O2 O2 O3 133.35(4) 2 5_565 ?
O3 O2 O3 96.40(2) 3_545 5_565 ?
O1 O2 O3 60.99(2) 4 5_565 ?
S O2 O1 90.87(3) . 8_455 ?
Ni O2 O1 42.596(17) . 8_455 ?
O1 O2 O1 126.27(3) . 8_455 ?
O1 O2 O1 75.69(3) 2 8_455 ?
O2 O2 O1 71.93(3) 2 8_455 ?
O3 O2 O1 158.24(3) 3_545 8_455 ?
O1 O2 O1 90.06(3) 4 8_455 ?
O3 O2 O1 61.85(2) 5_565 8_455 ?
S O2 O3 101.60(3) . . ?
Ni O2 O3 44.688(15) . . ?
O1 O2 O3 116.66(3) . . ?
O1 O2 O3 115.77(3) 2 . ?
O2 O2 O3 66.140(14) 2 . ?
O3 O2 O3 128.64(3) 3_545 . ?
O1 O2 O3 63.01(2) 4 . ?
O3 O2 O3 92.16(2) 5_565 . ?
O1 O2 O3 56.772(17) 8_455 . ?
S O2 O1 82.57(3) . 7_556 ?
Ni O2 O1 94.91(3) . 7_556 ?
O1 O2 O1 71.73(3) . 7_556 ?
O1 O2 O1 116.64(3) 2 7_556 ?
O2 O2 O1 62.28(3) 2 7_556 ?
O3 O2 O1 87.79(2) 3_545 7_556 ?
O1 O2 O1 78.47(2) 4 7_556 ?
O3 O2 O1 136.99(3) 5_565 7_556 ?
O1 O2 O1 107.45(3) 8_455 7_556 ?
O3 O2 O1 54.440(16) . 7_556 ?
S O2 O1 93.80(3) . 6 ?
Ni O2 O1 115.07(3) . 6 ?
O1 O2 O1 83.46(2) . 6 ?
O1 O2 O1 70.98(3) 2 6 ?
O2 O2 O1 128.13(2) 2 6 ?
O3 O2 O1 56.90(2) 3_545 6 ?
O1 O2 O1 104.20(3) 4 6 ?
O3 O2 O1 67.59(3) 5_565 6 ?
O1 O2 O1 110.47(3) 8_455 6 ?
O3 O2 O1 159.75(3) . 6 ?
O1 O2 O1 141.96(2) 7_556 6 ?
Ni O3 Ni 123.71(4) . 2 ?
Ni O3 O2 111.589(16) . 3_455 ?
Ni O3 O2 90.545(16) 2 3_455 ?
Ni O3 O2 90.545(16) . 4 ?
Ni O3 O2 111.589(17) 2 4 ?
O2 O3 O2 132.84(4) 3_455 4 ?
Ni O3 O1 45.478(17) . 8_455 ?
Ni O3 O1 104.56(3) 2 8_455 ?
O2 O3 O1 71.38(2) 3_455 8_455 ?
O2 O3 O1 134.48(2) 4 8_455 ?
Ni O3 O1 104.56(3) . 7_556 ?
Ni O3 O1 45.478(17) 2 7_556 ?
O2 O3 O1 134.48(2) 3_455 7_556 ?
O2 O3 O1 71.38(2) 4 7_556 ?
O1 O3 O1 123.07(4) 8_455 7_556 ?
Ni O3 O2 162.17(3) . 6_566 ?
Ni O3 O2 45.211(15) 2 6_566 ?
O2 O3 O2 84.35(2) 3_455 6_566 ?
O2 O3 O2 83.60(2) 4 6_566 ?
O1 O3 O2 141.79(2) 8_455 6_566 ?
O1 O3 O2 57.61(2) 7_556 6_566 ?
Ni O3 O2 45.211(15) . 5_565 ?
Ni O3 O2 162.17(3) 2 5_565 ?
O2 O3 O2 83.60(2) 3_455 5_565 ?
O2 O3 O2 84.35(2) 4 5_565 ?
O1 O3 O2 57.61(2) 8_455 5_565 ?
O1 O3 O2 141.79(2) 7_556 5_565 ?
O2 O3 O2 149.58(4) 6_566 5_565 ?
Ni O3 O2 42.625(19) . . ?
Ni O3 O2 82.70(3) 2 . ?
O2 O3 O2 128.64(3) 3_455 . ?
O2 O3 O2 96.158(17) 4 . ?
O1 O3 O2 61.57(2) 8_455 . ?
O1 O3 O2 66.69(3) 7_556 . ?
O2 O3 O2 121.17(3) 6_566 . ?
O2 O3 O2 87.84(2) 5_565 . ?
Ni O3 O2 82.70(3) . 2 ?
Ni O3 O2 42.625(19) 2 2 ?
O2 O3 O2 96.157(17) 3_455 2 ?
O2 O3 O2 128.64(3) 4 2 ?
O1 O3 O2 66.69(3) 8_455 2 ?
O1 O3 O2 61.57(2) 7_556 2 ?
O2 O3 O2 87.84(2) 6_566 2 ?
O2 O3 O2 121.17(3) 5_565 2 ?
O2 O3 O2 47.72(3) . 2 ?
Ni O3 O1 122.68(3) . 3_455 ?
Ni O3 O1 42.416(14) 2 3_455 ?
O2 O3 O1 49.494(18) 3_455 3_455 ?
O2 O3 O1 144.86(2) 4 3_455 ?
O1 O3 O1 80.58(2) 8_455 3_455 ?
O1 O3 O1 87.89(2) 7_556 3_455 ?
O2 O3 O1 61.271(19) 6_566 3_455 ?
O2 O3 O1 126.227(19) 5_565 3_455 ?
O2 O3 O1 101.32(3) . 3_455 ?
O2 O3 O1 54.490(19) 2 3_455 ?
Ni O3 O1 42.416(14) . 4 ?
Ni O3 O1 122.68(3) 2 4 ?
O2 O3 O1 144.86(2) 3_455 4 ?
O2 O3 O1 49.494(18) 4 4 ?
O1 O3 O1 87.89(2) 8_455 4 ?
O1 O3 O1 80.58(2) 7_556 4 ?
O2 O3 O1 126.227(19) 6_566 4 ?
O2 O3 O1 61.271(19) 5_565 4 ?
O2 O3 O1 54.490(19) . 4 ?
O2 O3 O1 101.32(3) 2 4 ?
O1 O3 O1 155.72(4) 3_455 4 ?
Ni O3 H 105.2(14) . . ?
Ni O3 H 107.5(14) 2 . ?
O2 O3 H 118.8(14) 3_455 . ?
O2 O3 H 16.3(14) 4 . ?
O1 O3 H 146.0(14) 8_455 . ?
O1 O3 H 75.0(14) 7_556 . ?
O2 O3 H 71.7(14) 6_566 . ?
O2 O3 H 90.0(14) 5_565 . ?
O2 O3 H 111.7(14) . . ?
O2 O3 H 136.3(14) 2 . ?
O1 O3 H 131.9(14) 3_455 . ?
O1 O3 H 65.4(14) 4 . ?
Ni O3 H 107.5(14) . 2 ?
Ni O3 H 105.2(14) 2 2 ?
O2 O3 H 16.3(14) 3_455 2 ?
O2 O3 H 118.8(14) 4 2 ?
O1 O3 H 75.0(14) 8_455 2 ?
O1 O3 H 146.0(14) 7_556 2 ?
O2 O3 H 90.0(14) 6_566 2 ?
O2 O3 H 71.7(14) 5_565 2 ?
O2 O3 H 136.3(14) . 2 ?
O2 O3 H 111.7(14) 2 2 ?
O1 O3 H 65.4(14) 3_455 2 ?
O1 O3 H 131.9(14) 4 2 ?
H O3 H 107(3) . 2 ?
loop_
_geom_bond_atom_site_label_1
_geom_bond_atom_site_label_2
_geom_bond_distance
_geom_bond_site_symmetry_2
_geom_bond_publ_flag
Ni O2 2.0313(6) 5_565 ?
Ni O2 2.0313(6) . ?
Ni O1 2.0334(7) 8_455 ?
Ni O1 2.0334(7) 4 ?
Ni O3 2.1094(5) 5_565 ?
Ni O3 2.1094(5) . ?
Ni O2 3.4170(7) 8_455 ?
Ni O2 3.4170(7) 4 ?
Ni O2 3.4382(7) 6_565 ?
Ni O2 3.4382(7) 2 ?
S O1 1.4668(6) 2 ?
S O1 1.4668(6) . ?
S O2 1.4879(6) . ?
S O2 1.4880(6) 2 ?
O1 O2 2.3971(9) . ?
O1 O1 2.4087(13) 2 ?
O1 O2 2.4239(9) 2 ?
O1 O2 2.7496(9) 4_545 ?
O1 O3 2.8476(8) 7_556 ?
O1 O2 2.9935(10) 8_556 ?
O1 O3 3.0100(7) 3_545 ?
O1 O2 3.2148(10) 7_556 ?
O1 O2 3.2212(9) 6_556 ?
O1 O1 3.3411(13) 5_556 ?
O2 O2 2.4241(12) 2 ?
O2 O3 2.6682(8) 3_545 ?
O2 O3 2.8590(7) 5_565 ?
O2 O3 2.9962(11) . ?
O3 H 0.821(19) . ?
O3 H 0.821(19) 2 ?
loop_
_geom_hbond_atom_site_label_D
_geom_hbond_atom_site_label_H
_geom_hbond_atom_site_label_A
_geom_hbond_distance_DH
_geom_hbond_distance_HA
_geom_hbond_distance_DA
_geom_hbond_angle_DHA
_geom_hbond_site_symmetry_A
_geom_hbond_publ_flag
O3 H O2 0.821(19) 1.894(19) 2.6681(8) 157(2) 4 yes
