#------------------------------------------------------------------------------
#$Date: 2022-03-06 06:37:54 +0200 (Sun, 06 Mar 2022) $
#$Revision: 273468 $
#$URL: file:///home/coder/svn-repositories/cod/cif/1/56/59/1565953.cif $
#------------------------------------------------------------------------------
#
# This file is available in the Crystallography Open Database (COD),
# http://www.crystallography.net/
#
# All data on this site have been placed in the public domain by the
# contributors.
#
data_1565953
loop_
_publ_author_name
'Wildner, Manfred'
'Zakharov, Boris A.'
'Bogdanov, Nikita E.'
'Talla, Dominik'
'Boldyreva, Elena V.'
'Miletich, Ronald'
_publ_section_title
;
 Crystallography relevant to Mars and Galilean icy moons: crystal behavior
 of kieserite-type monohydrate sulfates at extraterrestrial conditions
 down to 15 K
;
_journal_issue                   2
_journal_name_full               IUCrJ
_journal_page_first              194
_journal_page_last               203
_journal_paper_doi               10.1107/S2052252521012720
_journal_volume                  9
_journal_year                    2022
_chemical_formula_sum            'Co H2 O5 S'
_chemical_formula_weight         173.01
_space_group_crystal_system      monoclinic
_space_group_IT_number           15
_space_group_name_Hall           '-C 2yc'
_space_group_name_H-M_alt        'C 1 2/c 1'
_atom_sites_solution_hydrogens   difmap
_audit_creation_method           SHELXL-2017/1
_cell_angle_alpha                90
_cell_angle_beta                 118.381(10)
_cell_angle_gamma                90
_cell_formula_units_Z            4
_cell_length_a                   6.9295(10)
_cell_length_b                   7.6205(10)
_cell_length_c                   7.5982(10)
_cell_measurement_temperature    113(2)
_cell_volume                     353.01(9)
_computing_structure_refinement  'SHELXL-2017/1 (Sheldrick, 2017)'
_diffrn_ambient_temperature      113(2)
_diffrn_measured_fraction_theta_full 0.991
_diffrn_measured_fraction_theta_max 0.997
_diffrn_radiation_type           MoK\a
_diffrn_radiation_wavelength     0.71073
_diffrn_reflns_av_R_equivalents  0.0185
_diffrn_reflns_av_unetI/netI     0.0086
_diffrn_reflns_Laue_measured_fraction_full 0.991
_diffrn_reflns_Laue_measured_fraction_max 0.997
_diffrn_reflns_limit_h_max       12
_diffrn_reflns_limit_h_min       -12
_diffrn_reflns_limit_k_max       13
_diffrn_reflns_limit_k_min       -13
_diffrn_reflns_limit_l_max       13
_diffrn_reflns_limit_l_min       -13
_diffrn_reflns_number            10503
_diffrn_reflns_point_group_measured_fraction_full 0.991
_diffrn_reflns_point_group_measured_fraction_max 0.997
_diffrn_reflns_theta_full        25.242
_diffrn_reflns_theta_max         39.980
_diffrn_reflns_theta_min         4.235
_exptl_absorpt_coefficient_mu    5.332
_exptl_crystal_density_diffrn    3.255
_exptl_crystal_F_000             340
_refine_diff_density_max         0.502
_refine_diff_density_min         -0.434
_refine_diff_density_rms         0.076
_refine_ls_extinction_coef       0.0218(8)
_refine_ls_extinction_expression Fc^*^=kFc[1+0.001xFc^2^\l^3^/sin(2\q)]^-1/4^
_refine_ls_extinction_method     'SHELXL-2017/1 (Sheldrick 2017)'
_refine_ls_goodness_of_fit_ref   1.147
_refine_ls_hydrogen_treatment    refall
_refine_ls_matrix_type           full
_refine_ls_number_parameters     40
_refine_ls_number_reflns         1095
_refine_ls_number_restraints     0
_refine_ls_restrained_S_all      1.147
_refine_ls_R_factor_all          0.0118
_refine_ls_R_factor_gt           0.0116
_refine_ls_shift/su_max          0.000
_refine_ls_shift/su_mean         0.000
_refine_ls_structure_factor_coef Fsqd
_refine_ls_weighting_details
'w=1/[\s^2^(Fo^2^)+(0.0100P)^2^+0.3200P] where P=(Fo^2^+2Fc^2^)/3'
_refine_ls_weighting_scheme      calc
_refine_ls_wR_factor_gt          0.0284
_refine_ls_wR_factor_ref         0.0284
_reflns_Friedel_coverage         0.000
_reflns_number_gt                1086
_reflns_number_total             1095
_reflns_threshold_expression     'I > 2\s(I)'
_cod_data_source_file            lt5044.cif
_cod_data_source_block           CoSO4H2O_N2_113K
_cod_depositor_comments
'Adding full bibliography for 1565934--1565967.cif.'
_cod_original_sg_symbol_H-M      'C 2/c'
_cod_database_code               1565953
_shelx_shelxl_version_number     2017/1
_shelx_space_group_comment
;
The symmetry employed for this shelxl refinement is uniquely defined
by the following loop, which should always be used as a source of
symmetry information in preference to the above space-group names.
They are only intended as comments.
;
_shelx_res_file
;
TITL 217a03 113K Apex in C2/c kieserite cell
    latt_corr_for_Nonius20C_217a03_113_0m.res
    created by SHELXL-2017/1 at 21:32:43 on 10-Feb-2021
REM meas. mon  6.9158(1) 7.6081(1) 7.4499(1)   90  116.4189(4)   90
REM trans. cryscomp  6.9158 7.6081 7.5817    90 118.358 90
REM meas.trcl  6.9160(1) 7.6081(1) 7.4499(1) 89.9811(5) 116.4198(4) 89.9981(5)
REM CELL 0.71073   6.9158 7.6081 7.5817    90 118.358 90
REM latt corr for Nonius20C +0.0137 +0.0124 +0.0165    +0.0226
CELL 0.71073   6.9295 7.6205 7.5982 90 118.3806 90.0
ZERR    4.00   0.001   0.001   0.001   0.00   0.01   0.00
LATT  7
SYMM -X, Y, .5-Z
SFAC O H S CO
UNIT 20 8 4 4
SHEL 20 0.55285
OMIT -2 2 2
OMIT -3 1 1
OMIT 1 3 1
REM DAMP 10000
L.S. 10
CONN 12 1.8 $O
EQIV $9 -x+1/2, y+1/2, -z+1/2
BOND $H
FMAP 2
PLAN 20
ACTA
HTAB O3 O2_$9
HTAB
WGHT    0.010000    0.320000
EXTI    0.021815
FVAR       0.23012
CO    4    0.000000    0.500000    0.000000    10.50000    0.00299    0.00348 =
         0.00344    0.00024    0.00161   -0.00003
S     3    0.000000    0.155318    0.250000    10.50000    0.00255    0.00322 =
         0.00371    0.00000    0.00155    0.00000
O1    1    0.172067    0.044802    0.401926    11.00000    0.00425    0.00740 =
         0.00727    0.00341    0.00220    0.00203
O2    1    0.099826    0.268181    0.155271    11.00000    0.00567    0.00528 =
         0.00750    0.00230    0.00437    0.00047
O3    1    0.000000    0.637768    0.250000    10.50000    0.00510    0.00573 =
         0.00549    0.00000    0.00273    0.00000
H     2    0.109908    0.703930    0.293983    11.00000    0.02164
HKLF 4 1  1 0 0 0 -1 0 -1 0 -1




REM  217a03 113K Apex in C2/c kieserite cell
REM R1 =  0.0116 for    1086 Fo > 4sig(Fo)  and  0.0118 for all    1095 data
REM     40 parameters refined using      0 restraints

END

WGHT      0.0098      0.3254

REM Instructions for potential hydrogen bonds
EQIV $5 x+1/2, y+1/2, z
HTAB O3 S_$5
HTAB O3 O2_$9

REM Highest difference peak  0.502,  deepest hole -0.434,  1-sigma level  0.076
Q1    1   0.0649  0.4489  0.0010  11.00000  0.05    0.50
Q2    1   0.0436  0.2291  0.1992  11.00000  0.05    0.45
Q3    1   0.1001  0.1030  0.3355  11.00000  0.05    0.37
Q4    1  -0.0159  0.4709  0.0585  11.00000  0.05    0.35
Q5    1   0.0575  0.5553  0.0513  11.00000  0.05    0.29
Q6    1   0.0056  0.5770  0.2016  11.00000  0.05    0.26
Q7    1   0.0389  0.3134  0.0983  11.00000  0.05    0.24
Q8    1   0.0902  0.3686  0.1724  11.00000  0.05    0.24
Q9    1   0.0242  0.3917  0.0847  11.00000  0.05    0.23
Q10   1   0.0000  0.4555  0.2500  10.50000  0.05    0.22
Q11   1   0.1573 -0.0163  0.3487  11.00000  0.05    0.20
Q12   1   0.2451  0.0304  0.3602  11.00000  0.05    0.16
Q13   1   0.1693  0.0979  0.4548  11.00000  0.05    0.15
Q14   1   0.0000 -0.0767  0.2500  10.50000  0.05    0.15
Q15   1   0.2535 -0.1371  0.4673  11.00000  0.05    0.15
Q16   1   0.1282  0.3934  0.2927  11.00000  0.05    0.15
Q17   1   0.0809  0.6728  0.1501  11.00000  0.05    0.14
Q18   1  -0.1412  0.2449 -0.0317  11.00000  0.05    0.14
Q19   1   0.1008 -0.0291  0.1511  11.00000  0.05    0.14
Q20   1   0.1816  0.4077  0.0620  11.00000  0.05    0.14
;
_shelx_res_checksum              30218
_shelx_hkl_file
;
   2   0   0    2.17    0.12
   2   0   0    2.08    0.17
   2   0   0    1.76    0.09
  -2   0   0    1.69    0.11
  -2   0   0    1.85    0.10
   4   0   0  969.91   16.63
  -4   0   0  989.95   19.00
  -4   0   0  991.39   17.14
  -4   0   0  976.18   17.77
   4   0   0  944.50   16.92
  -4   0   0  946.92   16.74
   4   0   0  954.45   17.57
  -4   0   0 1000.00   17.51
   4   0   0  949.42   17.15
  -4   0   0  981.48   17.20
   6   0   0    4.30    0.26
  -6   0   0    4.24    0.33
  -6   0   0    4.02    0.31
   6   0   0    4.25    0.29
  -6   0   0    4.36    0.34
   6   0   0    4.40    0.34
  -6   0   0    4.63    0.25
  -6   0   0    3.92    0.23
   8   0   0  176.97    3.42
  -8   0   0  184.87    3.74
  -8   0   0  184.46    3.66
  -8   0   0  178.36    3.78
   8   0   0  174.85    3.54
   8   0   0  180.93    3.73
 -10   0   0    2.77    0.46
  10   0   0    2.47    0.39
  10   0   0    2.38    0.38
 -10   0   0    2.05    0.40
 -10   0   0    2.12    0.41
  -1  -1   0  145.18    2.88
  -1  -1   0  149.98    3.04
   1  -1   0  151.84    3.26
   1   1   0  155.67    3.12
  -1   1   0  137.49    2.87
  -1   1   0  158.79    3.23
  -3  -1   0    2.13    0.13
  -3  -1   0    2.17    0.14
   3  -1   0    2.19    0.15
  -3  -1   0    2.02    0.19
  -3  -1   0    2.01    0.14
  -3  -1   0    2.19    0.15
  -3  -1   0    2.03    0.16
   3  -1   0    2.38    0.22
   3  -1   0    2.12    0.16
   3  -1   0    2.11    0.12
  -3   1   0    2.34    0.24
   3   1   0    2.21    0.13
   3   1   0    2.12    0.13
  -3   1   0    2.25    0.15
  -3   1   0    2.30    0.14
  -3   1   0    2.14    0.10
   3   1   0    1.98    0.10
  -3   1   0    2.18    0.16
   3   1   0    2.41    0.17
   3   1   0    2.67    0.17
   3   1   0    2.51    0.22
  -5  -1   0   99.95    2.03
  -5  -1   0  100.14    2.04
   5  -1   0   99.32    1.96
   5  -1   0  101.48    2.03
   5  -1   0   98.70    1.89
   5  -1   0   97.71    1.75
  -5  -1   0   98.56    1.89
  -5  -1   0   97.21    2.36
  -5  -1   0   99.89    1.94
  -5  -1   0   98.79    1.97
  -5   1   0   95.14    1.78
   5   1   0   98.73    2.06
   5   1   0   98.34    1.77
  -5   1   0   99.54    2.01
   5   1   0   99.70    1.92
  -5   1   0   98.22    2.00
  -5   1   0   99.75    1.80
   5   1   0  102.63    2.00
  -5   1   0   99.30    2.12
  -7  -1   0    4.19    0.28
   7  -1   0    3.14    0.35
   7  -1   0    3.46    0.29
  -7  -1   0    3.68    0.33
  -7  -1   0    3.63    0.27
  -7  -1   0    3.28    0.33
   7  -1   0    4.00    0.29
  -7  -1   0    4.77    0.39
   7   1   0    3.43    0.32
  -7   1   0    4.15    0.41
   7   1   0    3.87    0.31
  -7   1   0    3.73    0.35
   7   1   0    3.70    0.29
   7   1   0    3.51    0.37
  -7   1   0    3.47    0.33
  -9  -1   0    9.17    0.64
  -9  -1   0    9.10    0.63
   9  -1   0    9.25    0.57
   9  -1   0    9.25    0.49
   9  -1   0    8.93    0.64
  -9  -1   0    8.47    0.57
   9   1   0    9.38    0.67
   9   1   0   10.79    0.61
   9   1   0    8.87    0.49
  -9   1   0    9.42    0.70
  -9   1   0    9.00    0.64
  -9   1   0    9.18    0.61
  11  -1   0   12.67    0.75
 -11  -1   0   11.98    0.87
  11  -1   0   11.46    0.77
 -11  -1   0   11.00    0.76
  11   1   0   11.95    0.83
  11   1   0   11.91    0.71
 -11   1   0   11.73    0.80
 -11   1   0   11.65    0.77
 -11   1   0   11.59    0.86
   0  -2   0  182.28    3.22
   0  -2   0  175.90    3.52
   0  -2   0  164.40    3.21
   0   2   0  176.44    3.12
   0   2   0  176.50    3.16
   0   2   0  179.94    2.96
   2  -2   0   61.89    1.19
  -2  -2   0   61.02    1.18
  -2  -2   0   61.08    1.25
  -2  -2   0   61.21    1.11
   2  -2   0   61.69    1.14
   2  -2   0   60.42    1.19
   2  -2   0   62.17    1.34
  -2  -2   0   61.93    1.23
  -2  -2   0   62.10    1.20
   2   2   0   62.26    1.18
  -2   2   0   62.41    1.18
   2   2   0   64.02    1.25
   2   2   0   62.44    1.10
  -2   2   0   61.51    1.07
  -2   2   0   61.53    1.18
   2   2   0   63.71    1.23
  -2   2   0   63.96    1.40
   2   2   0   61.51    1.17
  -2   2   0   61.12    1.19
  -4  -2   0  218.82    3.84
   4  -2   0  220.29    3.86
  -4  -2   0  219.67    3.83
  -4  -2   0  216.84    3.93
  -4  -2   0  220.99    3.85
   4  -2   0  216.88    3.73
  -4  -2   0  223.69    4.19
  -4  -2   0  221.10    3.91
   4  -2   0  222.97    3.92
  -4   2   0  221.11    3.84
  -4   2   0  223.34    3.90
   4   2   0  218.04    3.97
  -4   2   0  218.29    4.03
  -4   2   0  214.04    3.83
   4   2   0  217.41    3.88
  -4   2   0  222.59    4.33
   4   2   0  220.77    3.69
   4   2   0  219.58    3.84
  -4   2   0  220.73    3.85
  -4   2   0  223.14    3.90
  -6  -2   0  163.32    3.22
  -6  -2   0  159.67    3.03
  -6  -2   0  165.32    3.11
   6  -2   0  161.30    3.00
  -6  -2   0  163.14    3.15
  -6  -2   0  163.97    3.11
   6  -2   0  164.89    3.18
   6  -2   0  162.03    3.09
  -6   2   0  165.25    3.35
  -6   2   0  164.49    3.19
   6   2   0  164.78    3.12
   6   2   0  159.16    3.05
  -6   2   0  161.85    3.14
   6   2   0  162.12    3.26
  -8  -2   0  100.22    2.40
  -8  -2   0   98.39    2.28
   8  -2   0   96.02    2.05
   8  -2   0   96.91    2.19
   8  -2   0   99.42    2.32
  -8  -2   0   96.09    2.09
  -8  -2   0   96.63    2.23
   8   2   0   98.08    2.22
  -8   2   0   97.39    2.29
  -8   2   0   99.19    2.51
   8   2   0   97.53    2.39
  -8   2   0   98.31    2.33
   8   2   0   97.29    2.13
 -10  -2   0   93.06    2.53
  10  -2   0   94.91    2.46
 -10  -2   0   89.16    2.32
  10  -2   0   91.52    2.26
 -10   2   0   90.86    2.42
  10   2   0   89.28    2.26
  10   2   0   91.61    2.50
 -10   2   0   94.80    2.65
  -1  -3   0   17.53    0.42
  -1  -3   0   16.94    0.50
  -1  -3   0   17.35    0.45
   1  -3   0   17.17    0.45
   1  -3   0   17.19    0.43
   1  -3   0   17.20    0.47
   1  -3   0   16.95    0.45
   1   3   0   18.22    0.45
  -1   3   0   16.98    0.44
  -1   3   0   17.43    0.44
   1   3   0   17.10    0.41
  -1   3   0   17.66    0.45
   1   3   0   18.06    0.45
  -1   3   0   17.92    0.38
   1   3   0   17.00    0.44
  -1   3   0   17.63    0.45
  -1   3   0   19.12    0.41
   3  -3   0  116.58    2.19
  -3  -3   0  122.15    2.09
  -3  -3   0  116.94    2.26
   3  -3   0  115.31    2.10
  -3  -3   0  116.60    2.21
  -3  -3   0  115.80    2.08
  -3  -3   0  116.80    2.18
   3  -3   0  116.14    2.19
   3  -3   0  125.54    2.02
  -3  -3   0  116.81    2.30
  -3   3   0  116.91    2.21
   3   3   0  117.43    2.17
   3   3   0  118.94    2.05
   3   3   0  118.01    2.27
  -3   3   0  115.07    2.08
   3   3   0  118.36    2.28
   3   3   0  117.85    2.19
  -3   3   0  117.04    2.18
  -3   3   0  117.34    2.17
  -3   3   0  112.68    1.96
  -5  -3   0    1.83    0.22
  -5  -3   0    1.86    0.25
   5  -3   0    1.55    0.21
  -5  -3   0    1.64    0.20
  -5  -3   0    1.37    0.15
   5  -3   0    1.59    0.14
   5  -3   0    1.47    0.17
  -5  -3   0    1.68    0.19
   5  -3   0    1.56    0.20
  -5   3   0    2.03    0.24
  -5   3   0    1.48    0.24
  -5   3   0    1.48    0.21
  -5   3   0    1.50    0.19
   5   3   0    1.59    0.12
  -5   3   0    1.74    0.19
   5   3   0    2.04    0.20
   5   3   0    1.29    0.22
   7  -3   0   14.92    0.63
  -7  -3   0   15.22    0.63
  -7  -3   0   14.89    0.65
  -7  -3   0   14.92    0.62
   7  -3   0   16.00    0.71
  -7  -3   0   15.70    0.75
   7  -3   0   14.97    0.57
  -7   3   0   15.37    0.70
   7   3   0   16.07    0.68
   7   3   0   14.52    0.60
  -7   3   0   14.54    0.78
  -7   3   0   15.59    0.66
   7   3   0   16.32    0.77
   9  -3   0    0.84    0.19
   9  -3   0    0.96    0.23
   9  -3   0    1.02    0.30
  -9  -3   0    2.09    0.41
  -9  -3   0    0.93    0.26
   9   3   0    1.16    0.25
  -9   3   0    0.60    0.27
   9   3   0    0.96    0.27
   9   3   0    0.92    0.22
  -9   3   0    1.70    0.36
 -11  -3   0    1.06    0.38
 -11   3   0    0.30    0.26
   0  -4   0  302.18    5.96
   0  -4   0  313.78    5.39
   0  -4   0  303.01    5.62
   0  -4   0  302.54    5.59
   0   4   0  321.94    5.48
   0   4   0  319.00    5.54
   0   4   0  314.27    5.81
   0   4   0  311.90    5.54
   0   4   0  311.38    5.49
  -2  -4   0  639.88   11.92
   2  -4   0  649.48   12.70
  -2  -4   0  671.52   12.51
  -2  -4   0  660.10   11.70
   2  -4   0  650.23   11.78
   2  -4   0  666.87   11.92
   2  -4   0  670.56   11.96
  -2   4   0  641.38   11.63
   2   4   0  684.56   11.54
   2   4   0  655.15   11.58
  -2   4   0  639.67   10.99
   2   4   0  639.73   11.91
  -2   4   0  641.74   11.72
  -2   4   0  669.47   12.50
   2   4   0  673.26   12.01
  -2   4   0  658.68   11.95
  -4  -4   0   64.87    1.50
   4  -4   0   64.36    1.42
  -4  -4   0   65.04    1.44
   4  -4   0   64.63    1.41
  -4  -4   0   64.22    1.40
   4  -4   0   63.21    1.29
  -4  -4   0   60.66    1.26
   4   4   0   63.47    1.42
  -4   4   0   61.23    1.37
  -4   4   0   64.30    1.41
   4   4   0   63.29    1.22
  -4   4   0   60.85    1.25
  -4   4   0   62.78    1.44
   4   4   0   62.73    1.39
   4   4   0   61.14    1.50
  -4   4   0   63.48    1.56
   6  -4   0  177.62    3.40
  -6  -4   0  180.40    3.55
   6  -4   0  180.79    3.48
   6  -4   0  172.90    3.29
  -6  -4   0  179.13    3.41
  -6  -4   0  180.07    3.54
   6   4   0  174.10    3.45
  -6   4   0  178.71    3.40
   6   4   0  177.68    3.65
  -6   4   0  175.18    3.49
   6   4   0  180.68    3.44
  -6   4   0  178.92    3.73
   8  -4   0    2.02    0.34
  -8  -4   0    2.05    0.36
  -8  -4   0    3.33    0.39
   8  -4   0    2.20    0.33
   8  -4   0    2.40    0.27
  -8  -4   0    2.01    0.30
  -8  -4   0    2.32    0.35
   8   4   0    2.31    0.34
   8   4   0    1.89    0.27
   8   4   0    4.16    0.45
  -8   4   0    2.31    0.43
  -8   4   0    2.13    0.33
  10  -4   0   58.03    1.83
 -10  -4   0   61.03    1.98
  10  -4   0   60.48    1.69
 -10   4   0   59.90    2.10
  10   4   0   59.42    1.97
  10   4   0   58.15    1.74
 -10   4   0   60.08    1.89
   1  -5   0   11.22    0.42
  -1  -5   0   11.03    0.35
   1  -5   0   10.46    0.40
   1  -5   0   11.05    0.41
  -1  -5   0   11.22    0.41
   1  -5   0   11.25    0.35
  -1  -5   0   11.54    0.45
  -1  -5   0   11.27    0.47
   1  -5   0   10.86    0.36
  -1   5   0   12.12    0.31
  -1   5   0   11.25    0.42
   1   5   0   11.53    0.32
  -1   5   0   11.23    0.42
  -1   5   0   11.74    0.42
   1   5   0   11.60    0.38
  -1   5   0   11.77    0.40
   1   5   0   12.65    0.43
   1   5   0   11.07    0.41
   3  -5   0   13.89    0.53
   3  -5   0   12.72    0.49
  -3  -5   0   13.91    0.51
  -3  -5   0   13.46    0.49
   3  -5   0   12.86    0.47
   3  -5   0   13.12    0.36
  -3  -5   0   14.15    0.59
  -3   5   0   13.25    0.56
   3   5   0   13.65    0.51
  -3   5   0   12.79    0.51
   3   5   0   13.30    0.48
   3   5   0   13.73    0.51
   3   5   0   13.48    0.42
   3   5   0   12.93    0.41
  -3   5   0   13.72    0.47
  -3   5   0   13.17    0.50
  -5  -5   0    2.65    0.30
   5  -5   0    2.23    0.21
  -5  -5   0    2.67    0.27
  -5  -5   0    3.14    0.33
   5  -5   0    2.54    0.28
   5  -5   0    2.57    0.30
   5   5   0    2.97    0.27
   5   5   0    2.89    0.36
  -5   5   0    3.22    0.36
   5   5   0    2.51    0.28
  -5   5   0    2.55    0.30
  -5   5   0    2.47    0.24
  -5   5   0    2.43    0.24
   7  -5   0   12.33    0.55
  -7  -5   0   13.04    0.68
  -7  -5   0   13.55    0.71
   7  -5   0   13.04    0.69
   7  -5   0   13.39    0.65
  -7  -5   0   13.14    0.63
   7   5   0   12.97    0.66
   7   5   0   12.85    0.73
  -7   5   0   12.07    0.67
  -7   5   0   12.66    0.62
   7   5   0   12.19    0.64
  -7   5   0   12.41    0.79
  -9  -5   0    3.71    0.39
   9  -5   0    3.74    0.44
  -9  -5   0    3.80    0.56
   9  -5   0    3.49    0.44
   9   5   0    3.77    0.44
   9   5   0    3.73    0.53
   9   5   0    4.36    0.40
  -9   5   0    3.41    0.47
  -9   5   0    3.71    0.55
   0  -6   0  256.19    4.63
   0  -6   0  255.55    4.48
   0  -6   0  251.41    4.59
   0   6   0  259.26    4.58
   0   6   0  259.58    4.44
   0   6   0  255.83    4.54
   0   6   0  260.53    4.50
   0   6   0  255.81    4.38
   2  -6   0    9.58    0.44
  -2  -6   0    9.44    0.38
   2  -6   0    9.33    0.41
  -2  -6   0   10.01    0.44
   2  -6   0   10.29    0.35
   2  -6   0    9.57    0.45
   2  -6   0   10.07    0.39
  -2  -6   0    9.97    0.50
   2   6   0    9.82    0.43
  -2   6   0    9.65    0.43
   2   6   0    9.37    0.43
   2   6   0    9.43    0.42
  -2   6   0   10.24    0.47
   2   6   0    9.17    0.37
  -2   6   0    9.60    0.34
  -2   6   0    9.51    0.44
  -4  -6   0  258.80    4.79
   4  -6   0  252.61    4.61
  -4  -6   0  249.75    4.60
   4  -6   0  244.70    4.48
  -4  -6   0  255.16    4.63
   4  -6   0  251.91    4.61
  -4   6   0  254.53    4.59
   4   6   0  251.38    4.38
   4   6   0  246.83    4.56
  -4   6   0  253.21    4.67
   4   6   0  249.90    4.64
   4   6   0  246.88    4.62
  -4   6   0  256.45    4.85
  -4   6   0  248.93    4.55
  -6  -6   0   20.32    0.82
  -6  -6   0   21.19    0.89
   6  -6   0   20.95    0.83
  -6  -6   0   21.10    0.88
   6  -6   0   20.16    0.83
  -6   6   0   21.06    0.81
  -6   6   0   21.17    0.84
   6   6   0   20.36    0.75
   6   6   0   21.41    0.85
  -6   6   0   20.81    0.97
   6   6   0   19.68    0.80
   8  -6   0  168.60    3.57
   8  -6   0  164.16    3.44
  -8  -6   0  160.95    3.60
  -8  -6   0  163.97    3.48
  -8  -6   0  164.09    3.67
  -8   6   0  162.40    3.87
   8   6   0  163.10    3.50
   8   6   0  162.50    3.52
  -8   6   0  167.97    3.61
  10  -6   0   16.68    0.95
  10  -6   0   17.56    0.87
 -10  -6   0   17.11    0.88
 -10  -6   0   15.37    0.95
  10   6   0   16.40    0.89
 -10   6   0   16.60    1.13
  -1  -7   0   41.21    1.20
  -1  -7   0   41.30    1.07
   1  -7   0   42.23    1.13
  -1  -7   0   42.87    1.16
   1  -7   0   41.65    1.11
   1  -7   0   41.40    0.97
   1  -7   0   40.35    1.09
  -1   7   0   40.55    1.07
   1   7   0   40.63    1.10
  -1   7   0   41.21    1.10
   1   7   0   41.06    1.03
   1   7   0   42.43    1.09
  -1   7   0   40.95    1.04
  -1   7   0   39.50    1.02
  -3  -7   0   77.25    1.90
  -3  -7   0   76.66    1.76
  -3  -7   0   76.86    1.80
   3  -7   0   74.00    1.69
   3  -7   0   74.02    1.73
  -3  -7   0   73.52    1.66
  -3   7   0   72.05    1.82
   3   7   0   74.69    1.75
  -3   7   0   77.50    1.77
  -3   7   0   77.13    1.77
   3   7   0   74.24    1.75
   3   7   0   73.09    1.71
   3   7   0   74.82    1.59
  -5  -7   0    9.29    0.55
  -5  -7   0    9.98    0.56
  -5  -7   0    9.10    0.62
   5  -7   0    9.57    0.57
   5  -7   0    9.27    0.56
  -5  -7   0    9.52    0.57
   5   7   0    9.30    0.54
   5   7   0    8.95    0.50
  -5   7   0    8.56    0.49
  -5   7   0    8.72    0.63
  -5   7   0   10.09    0.56
   5   7   0    8.99    0.55
  -7  -7   0   27.59    1.00
   7  -7   0   28.78    1.08
  -7  -7   0   27.81    1.16
   7  -7   0   27.85    1.03
  -7  -7   0   27.48    1.05
  -7  -7   0   28.33    1.12
  -7   7   0   28.21    1.08
   7   7   0   27.51    1.09
   7   7   0   27.63    1.07
  -7   7   0   26.56    1.25
  -7   7   0   26.63    1.01
  -9  -7   0    6.31    0.61
   9  -7   0    6.78    0.53
   9  -7   0    6.20    0.60
  -9  -7   0    5.12    0.59
  -9   7   0    8.03    0.80
   9   7   0    6.28    0.55
   0  -8   0  145.38    2.95
   0  -8   0  140.46    2.77
   0  -8   0  140.56    2.96
   0   8   0  140.69    2.84
   0   8   0  141.06    2.89
   2  -8   0  140.07    2.87
  -2  -8   0  137.39    3.03
   2  -8   0  134.29    2.74
  -2  -8   0  138.79    2.84
   2  -8   0  138.92    2.84
  -2  -8   0  145.72    2.97
   2   8   0  141.32    2.87
  -2   8   0  139.72    2.84
   2   8   0  140.98    2.86
   2   8   0  139.35    2.73
  -2   8   0  133.96    2.83
  -2   8   0  137.12    2.87
   4  -8   0   81.20    1.94
   4  -8   0   80.37    1.96
   4  -8   0   79.07    1.85
  -4  -8   0   81.74    1.99
  -4  -8   0   79.69    1.88
  -4  -8   0   84.59    1.98
  -4  -8   0   82.54    2.15
  -4   8   0   80.60    1.96
   4   8   0   76.63    1.97
   4   8   0   81.75    1.99
  -4   8   0   79.62    2.10
   4   8   0   79.16    1.93
  -6  -8   0   44.34    1.37
  -6  -8   0   43.79    1.41
   6  -8   0   47.08    1.41
  -6  -8   0   45.21    1.42
  -6  -8   0   45.98    1.56
   6  -8   0   43.92    1.39
   6   8   0   42.33    1.41
  -6   8   0   42.94    1.57
  -6   8   0   43.53    1.32
   6   8   0   42.49    1.31
  -6   8   0   45.43    1.39
   6   8   0   44.60    1.43
   8  -8   0   30.25    1.21
  -8  -8   0   30.14    1.21
   8  -8   0   28.02    0.99
   8  -8   0   28.89    1.13
  -8  -8   0   28.22    1.24
  -8   8   0   30.01    1.19
   8   8   0   27.57    1.15
   8   8   0   28.53    1.18
  -8   8   0   28.58    1.41
  -1  -9   0   16.63    0.79
   1  -9   0   13.88    0.67
   1  -9   0   15.52    0.70
  -1  -9   0   15.64    0.77
  -1  -9   0   16.45    0.70
   1  -9   0   16.06    0.76
   1   9   0   16.35    0.72
   1   9   0   15.58    0.69
  -1   9   0   15.54    0.71
  -1   9   0   14.99    0.69
   3  -9   0    3.77    0.41
  -3  -9   0    2.96    0.43
   3  -9   0    3.63    0.41
  -3  -9   0    3.81    0.45
  -3  -9   0    5.07    0.42
   3   9   0    2.89    0.37
  -3   9   0    3.21    0.40
  -3   9   0    3.19    0.34
   3   9   0    3.38    0.31
   3   9   0    3.80    0.42
  -5  -9   0   14.59    0.87
   5  -9   0   13.82    0.78
   5  -9   0   14.13    0.75
  -5  -9   0   15.15    0.79
  -5  -9   0   13.73    0.73
  -5  -9   0   14.32    0.75
  -5   9   0   13.64    0.72
  -5   9   0   14.30    0.87
   5   9   0   13.90    0.73
   5   9   0   14.25    0.78
   7  -9   0    1.05    0.33
  -7  -9   0    1.10    0.34
   7  -9   0    1.09    0.34
  -7  -9   0    1.45    0.37
  -7  -9   0    1.43    0.34
  -7   9   0    1.78    0.42
  -7   9   0    1.21    0.32
   7   9   0    1.54    0.34
   7   9   0    1.09    0.32
   0 -10   0    2.90    0.38
   0 -10   0    2.35    0.36
   0 -10   0    1.77    0.45
   0 -10   0    2.81    0.41
   0  10   0    1.97    0.31
   0  10   0    2.05    0.33
  -2 -10   0  217.69    4.37
  -2 -10   0  207.39    4.17
   2 -10   0  204.68    4.23
  -2 -10   0  210.83    4.45
   2 -10   0  210.26    4.23
   2  10   0  205.13    4.23
   2  10   0  206.95    4.21
  -2  10   0  210.24    4.24
  -4 -10   0    0.46    0.26
  -4 -10   0    0.60    0.23
   4 -10   0    0.47    0.25
   4 -10   0    1.31    0.30
   4 -10   0    1.00    0.27
  -4 -10   0    0.75    0.30
  -4  10   0    2.07    0.34
   4  10   0    0.61    0.22
  -6 -10   0  154.33    3.50
   6 -10   0  152.70    3.40
  -6 -10   0  154.86    3.45
   6 -10   0  146.72    3.35
   6  10   0  149.82    3.45
  -6  10   0  151.46    3.76
  -6  10   0  154.90    3.44
  -1 -11   0   17.99    0.86
   1 -11   0   18.29    0.91
  -1 -11   0   18.53    0.93
  -1 -11   0   17.70    0.93
   1 -11   0   18.66    0.96
  -1 -11   0   18.38    0.84
   1  11   0   18.66    0.92
   1  11   0   17.31    0.86
  -1  11   0   17.81    0.89
  -3 -11   0   10.21    0.79
   3 -11   0   10.78    0.71
  -3 -11   0   11.84    0.79
  -3 -11   0   10.98    0.73
   3 -11   0   10.17    0.74
  -3  11   0   10.58    0.72
   3  11   0    9.77    0.70
   3  11   0   10.68    0.70
  -5 -11   0   18.35    0.98
  -5 -11   0   19.68    1.01
   5 -11   0   16.51    0.93
   5 -11   0   16.87    0.90
   5  11   0   17.06    0.90
   5  11   0   16.62    0.92
  -5  11   0   16.08    0.90
   0 -12   0   48.79    1.61
   0 -12   0   48.43    1.71
   0  12   0   49.30    1.64
  -2 -12   0   45.99    1.66
   2 -12   0   45.53    1.58
  -2 -12   0   44.33    1.53
  -2 -12   0   44.65    1.50
   2  12   0   43.99    1.54
  -2  12   0   45.83    1.59
   2  12   0   44.42    1.57
  -4 -12   0   41.27    1.50
  -4 -12   0   40.86    1.56
   4 -12   0   41.23    1.51
   4 -12   0   40.46    1.42
  -4  12   0   40.78    1.51
   4  12   0   39.51    1.50
   4  12   0   37.66    1.43
   1 -13   0    0.35    0.33
  -1 -13   0    0.35    0.30
   1 -13   0    0.21    0.23
  -1 -13   0    1.01    0.41
  -1  13   0    0.28    0.27
   1  13   0    0.39    0.28
   3 -13   0    0.11    0.32
   3 -13   0    0.18    0.28
  -3 -13   0    0.16    0.31
  -3 -13   0   -0.01    0.26
  -3 -13   0    0.31    0.28
   3  13   0    0.41    0.29
  -3  13   0    0.53    0.24
   3  13   0    0.07    0.17
  10   0  -1    0.15    0.16
 -10   0   1    0.16    0.16
 -10   0   1    0.12    0.22
  10   0  -1    0.17    0.17
 -10   0   1    0.09    0.24
  -8   0   1    0.22    0.17
  -8   0   1    0.22    0.18
   8   0  -1    0.18    0.17
   8   0  -1    0.21    0.11
  -8   0   1    0.03    0.10
   8   0  -1    0.24    0.17
   6   0  -1    0.16    0.07
  -6   0   1   -0.05    0.06
   6   0  -1    0.09    0.10
  -6   0   1    0.03    0.09
   6   0  -1   -0.01    0.04
   6   0  -1    0.22    0.10
  -6   0   1    0.45    0.14
  -6   0   1    0.17    0.08
  -6   0   1    0.12    0.11
  -4   0   1    0.05    0.06
   4   0  -1    0.24    0.08
  -4   0   1    0.46    0.13
   4   0  -1    0.12    0.07
   4   0  -1    0.27    0.06
  -2   0   1    0.23    0.06
  -2   0   1    0.06    0.03
   2   0  -1    0.06    0.04
   2   0  -1    0.01    0.03
  -2   0   1    0.12    0.03
   0   0   1    0.28    0.04
  -2   0  -1    0.30    0.05
   2   0   1    0.04    0.06
  -2   0  -1    0.11    0.04
  -2   0  -1    0.26    0.07
  -2   0  -1    0.17    0.06
   2   0   1    0.06    0.05
  -2   0  -1    0.09    0.04
   2   0   1    0.10    0.04
   4   0   1    0.16    0.08
   4   0   1    0.07    0.05
  -4   0  -1    0.15    0.07
  -4   0  -1    0.06    0.09
   4   0   1    0.05    0.06
  -4   0  -1    0.24    0.07
   6   0   1   -0.01    0.08
  -6   0  -1    0.17    0.10
  -6   0  -1    0.53    0.16
  -6   0  -1    0.05    0.08
   6   0   1    0.09    0.12
   6   0   1    0.08    0.08
   8   0   1    0.46    0.18
  -8   0  -1    0.22    0.20
  -8   0  -1    0.37    0.22
   8   0   1    0.29    0.16
  -8   0  -1    0.19    0.22
   8   0   1   -0.16    0.16
 -10   0  -1    0.57    0.31
  10   0   1    0.29    0.22
  10   0   1    0.65    0.32
 -10   0  -1    0.08    0.18
 -10   0  -1    0.13    0.25
  11  -1  -1   35.43    1.28
 -11  -1   1   34.38    1.30
  11  -1  -1   33.04    1.32
 -11  -1   1   35.74    1.42
 -11   1   1   33.57    1.43
 -11   1   1   32.40    1.31
 -11   1   1   35.02    1.38
  11   1  -1   34.24    1.38
  11   1  -1   33.59    1.25
   9  -1  -1   47.84    1.50
  -9  -1   1   47.61    1.51
  -9  -1   1   47.23    1.49
   9  -1  -1   50.14    1.42
  -9  -1   1   47.73    1.43
   9   1  -1   48.91    1.41
  -9   1   1   46.66    1.45
  -9   1   1   47.85    1.44
   9   1  -1   48.14    1.53
  -9   1   1   48.58    1.59
   7  -1  -1  127.04    2.61
   7  -1  -1  130.23    2.70
  -7  -1   1  129.15    2.70
  -7  -1   1  128.25    2.53
  -7  -1   1  125.22    2.46
   7  -1  -1  125.75    2.44
  -7  -1   1  129.88    2.61
  -7  -1   1  123.26    3.10
  -7  -1   1  132.35    2.70
  -7   1   1  127.88    3.19
   7   1  -1  133.22    2.67
   7   1  -1  134.88    2.64
  -7   1   1  132.69    2.66
  -7   1   1  130.13    2.80
   7   1  -1  127.85    2.43
  -7   1   1  130.30    2.65
   7   1  -1  132.70    2.76
   7   1  -1  125.60    2.47
   5  -1  -1  140.45    2.63
   5  -1  -1  137.81    2.49
  -5  -1   1  138.33    2.95
  -5  -1   1  143.44    2.65
  -5  -1   1  142.15    2.59
  -5  -1   1  137.59    2.53
   5  -1  -1  139.79    2.65
   5  -1  -1  141.69    2.46
  -5  -1   1  140.92    2.49
  -5  -1   1  138.30    2.59
   5   1  -1  140.26    2.53
  -5   1   1  139.80    3.02
   5   1  -1  139.56    2.52
  -5   1   1  140.34    2.58
   5   1  -1  144.18    2.68
  -5   1   1  140.83    2.61
   5   1  -1  141.62    2.72
   5   1  -1  134.59    2.36
  -5   1   1  141.06    2.62
  -3  -1   1  497.16    8.64
  -3  -1   1  503.33   10.17
   3  -1  -1  494.21    9.12
  -3  -1   1  510.42    8.79
   3  -1  -1  511.88    8.86
   3  -1  -1  519.80    8.86
   3  -1  -1  515.63   10.06
   3  -1  -1  493.64    9.14
  -3  -1   1  499.82    8.94
   3   1  -1  514.45    9.48
   3   1  -1  517.85    9.82
   3   1  -1  506.72    8.88
  -3   1   1  520.60   10.58
  -3   1   1  513.17    8.95
  -3   1   1  510.83    9.10
   3   1  -1  476.49    8.41
  -3   1   1  505.82    8.56
   3   1  -1  516.88    9.12
  -3   1   1  511.38    9.11
   1  -1  -1  214.07    4.39
   1  -1  -1  209.90    4.14
  -1  -1   1  229.58    4.39
   1   1  -1  225.14    4.38
  -1   1   1  217.88    4.41
   1  -1   1  743.76   13.27
  -1  -1  -1  788.81   13.43
  -1  -1  -1  806.76   13.67
  -1  -1  -1  793.50   13.75
  -1  -1  -1  813.49   13.65
  -1   1  -1  824.81   13.52
  -1   1  -1  756.75   13.25
   1   1   1  722.03   13.06
   1   1   1  761.98   13.20
   1   1   1  732.56   13.29
  -1   1  -1  778.92   13.87
  -3  -1  -1   57.18    1.18
   3  -1   1   57.52    1.15
  -3  -1  -1   57.39    1.26
   3  -1   1   58.03    1.14
  -3  -1  -1   60.58    1.21
   3  -1   1   58.28    1.21
  -3  -1  -1   58.81    1.24
  -3  -1  -1   57.81    1.16
   3   1   1   57.56    1.17
   3   1   1   58.92    1.16
  -3   1  -1   56.61    1.06
  -3   1  -1   57.92    1.23
  -3   1  -1   56.24    1.19
   3   1   1   57.60    1.10
   3   1   1   57.37    1.23
  -3   1  -1   58.78    1.05
  -3   1  -1   57.66    1.31
  -3   1  -1   58.43    1.23
  -5  -1  -1  306.82    5.36
  -5  -1  -1  302.42    5.31
   5  -1   1  312.89    5.48
  -5  -1  -1  307.16    5.52
  -5  -1  -1  310.78    5.45
   5  -1   1  313.36    5.35
  -5  -1  -1  309.86    5.55
   5  -1   1  311.76    5.35
  -5   1  -1  306.26    5.50
  -5   1  -1  313.73    5.65
   5   1   1  304.90    5.22
   5   1   1  309.75    5.37
   5   1   1  316.40    5.38
   5   1   1  309.83    5.52
  -5   1  -1  303.82    5.18
  -5   1  -1  310.56    5.50
  -5   1  -1  305.60    5.20
  -7  -1  -1   15.46    0.69
   7  -1   1   14.44    0.70
   7  -1   1   14.51    0.59
   7  -1   1   15.39    0.60
  -7  -1  -1   14.00    0.70
  -7  -1  -1   14.19    0.72
  -7   1  -1   15.52    0.72
   7   1   1   14.01    0.59
   7   1   1   14.57    0.62
   7   1   1   16.49    0.75
  -7   1  -1   14.33    0.71
  -7   1  -1   14.47    0.77
  -9  -1  -1  105.94    2.71
   9  -1   1  107.65    2.65
  -9  -1  -1  106.50    2.58
   9  -1   1  107.01    2.36
  -9   1  -1  107.98    2.65
   9   1   1  105.92    2.44
   9   1   1  105.18    2.39
  -9   1  -1  111.83    2.70
  -9   1  -1  107.59    2.81
   9   1   1  107.89    2.68
  10  -2  -1   16.51    0.89
 -10  -2   1   14.92    0.89
 -10  -2   1   16.05    0.82
  10  -2  -1   15.77    0.78
 -10   2   1   15.11    0.91
 -10   2   1   15.38    0.83
 -10   2   1   14.88    0.81
  10   2  -1   15.82    0.78
  10   2  -1   16.62    0.93
   8  -2  -1   37.99    1.01
  -8  -2   1   40.24    1.18
  -8  -2   1   39.13    1.14
  -8  -2   1   40.44    1.09
  -8  -2   1   40.93    1.22
  -8  -2   1   41.76    1.28
   8  -2  -1   40.01    1.25
   8  -2  -1   40.07    1.19
  -8   2   1   39.31    1.34
   8   2  -1   40.47    1.09
  -8   2   1   39.38    1.23
   8   2  -1   43.81    1.36
  -8   2   1   40.95    1.21
   8   2  -1   42.25    1.22
  -6  -2   1   44.99    1.07
  -6  -2   1   45.55    1.10
  -6  -2   1   45.66    1.14
  -6  -2   1   45.97    1.15
  -6  -2   1   45.83    1.20
   6  -2  -1   46.26    1.18
   6  -2  -1   45.04    1.02
  -6  -2   1   46.13    1.45
   6  -2  -1   46.05    1.15
  -6   2   1   44.80    1.06
   6   2  -1   45.62    1.16
   6   2  -1   46.01    1.07
   6   2  -1   46.24    1.26
   6   2  -1   46.57    1.08
  -6   2   1   45.09    1.12
  -6   2   1   46.15    1.17
  -6   2   1   45.39    1.54
  -6   2   1   43.96    1.00
  -6   2   1   47.02    1.15
   4  -2  -1  134.54    2.51
  -4  -2   1  135.89    2.69
  -4  -2   1  135.15    2.42
   4  -2  -1  133.58    2.50
  -4  -2   1  136.97    2.52
   4  -2  -1  138.65    2.34
  -4  -2   1  138.05    2.54
   4  -2  -1  135.56    2.43
  -4  -2   1  136.12    2.46
   4   2  -1  134.88    2.46
   4   2  -1  129.62    2.56
  -4   2   1  141.94    2.42
  -4   2   1  138.38    2.48
   4   2  -1  133.85    2.51
   4   2  -1  135.34    2.42
  -4   2   1  136.48    2.81
  -4   2   1  133.83    2.47
  -4   2   1  132.42    2.41
  -2  -2   1  285.99    5.10
   2  -2  -1  290.21    5.32
   2  -2  -1  285.42    5.22
   2  -2  -1  286.26    5.80
  -2  -2   1  295.48    5.67
  -2  -2   1  289.36    5.39
  -2  -2   1  280.22    5.10
   2  -2  -1  285.26    5.18
   2   2  -1  290.89    5.19
   2   2  -1  284.68    5.18
  -2   2   1  274.80    5.92
  -2   2   1  280.36    5.18
   2   2  -1  289.42    5.80
   2   2  -1  293.09    5.28
   2   2  -1  281.80    5.17
  -2   2   1  294.04    5.06
   2   2  -1  285.39    5.17
  -2   2   1  296.33    5.23
  -2   2   1  283.80    5.24
   0  -2   1  289.08    5.60
   0  -2  -1  292.96    5.51
   0  -2  -1  302.66    5.84
   0  -2  -1  290.83    5.51
   0   2  -1  306.10    5.45
   0   2   1  312.44    5.59
   0   2  -1  308.59    5.35
   0   2   1  305.62    5.55
   0   2  -1  309.49    5.43
   0   2  -1  304.32    5.92
   0   2   1  303.45    5.49
   0   2   1  295.87    5.49
  -2  -2  -1  340.72    6.30
  -2  -2  -1  328.40    5.58
   2  -2   1  340.63    6.11
  -2  -2  -1  333.54    6.01
  -2  -2  -1  329.21    6.30
   2  -2   1  333.08    5.63
   2  -2   1  357.64    6.42
  -2  -2  -1  327.77    6.10
  -2   2  -1  333.12    5.92
   2   2   1  330.46    5.99
  -2   2  -1  339.07    6.18
   2   2   1  321.09    6.06
   2   2   1  356.02    6.95
  -2   2  -1  335.82    5.78
  -2   2  -1  332.78    5.89
   2   2   1  335.93    5.75
  -2   2  -1  327.25    6.17
   2   2   1  324.81    6.09
   4  -2   1  123.94    2.30
  -4  -2  -1  125.93    2.39
  -4  -2  -1  121.99    2.33
   4  -2   1  124.99    2.30
  -4  -2  -1  122.12    2.34
   4  -2   1  124.99    2.40
  -4  -2  -1  123.37    2.38
  -4  -2  -1  123.48    2.47
  -4   2  -1  125.88    2.56
  -4   2  -1  123.23    2.39
  -4   2  -1  123.40    2.37
   4   2   1  122.62    2.21
  -4   2  -1  121.42    2.41
   4   2   1  124.76    2.33
   4   2   1  125.87    2.46
   4   2   1  124.27    2.34
  -6  -2  -1   79.10    1.77
   6  -2   1   80.96    1.83
   6  -2   1   79.31    1.71
  -6  -2  -1   79.25    1.91
  -6  -2  -1   78.74    1.78
   6  -2   1   81.36    1.70
  -6  -2  -1   77.97    1.70
  -6  -2  -1   78.61    1.83
   6   2   1   77.83    1.74
  -6   2  -1   78.74    1.84
  -6   2  -1   78.62    2.01
  -6   2  -1   79.03    1.86
   6   2   1   78.80    1.73
   6   2   1   79.03    1.88
  -8  -2  -1   55.26    1.55
   8  -2   1   55.36    1.42
  -8  -2  -1   57.05    1.72
   8  -2   1   55.47    1.44
   8  -2   1   55.97    1.62
  -8   2  -1   56.12    1.78
   8   2   1   55.96    1.66
  -8   2  -1   53.30    1.60
  -8   2  -1   56.07    1.63
   8   2   1   53.55    1.45
   8   2   1   54.98    1.48
 -10  -2  -1   21.88    1.01
 -10  -2  -1   22.91    1.13
  10  -2   1   22.58    1.09
  10   2   1   21.29    1.06
 -10   2  -1   22.98    1.22
  10   2   1   23.26    0.97
 -10   2  -1   21.62    1.06
 -11  -3   1   12.11    0.87
  11  -3  -1   12.24    0.76
 -11  -3   1   11.21    0.72
  11  -3  -1   11.73    0.81
  11   3  -1   10.85    0.72
 -11   3   1   11.80    0.92
  11   3  -1   11.78    0.85
 -11   3   1   12.17    0.83
  -9  -3   1  139.12    3.04
  -9  -3   1  144.34    2.99
   9  -3  -1  147.98    3.21
  -9  -3   1  144.70    3.30
   9  -3  -1  145.47    3.10
  -9   3   1  148.28    3.23
  -9   3   1  146.74    3.46
   9   3  -1  148.10    3.15
   9   3  -1  142.64    3.32
  -7  -3   1   22.31    0.81
   7  -3  -1   22.60    0.83
   7  -3  -1   21.97    0.67
  -7  -3   1   23.60    0.87
  -7  -3   1   22.73    0.75
  -7  -3   1   22.53    0.75
   7  -3  -1   23.22    0.81
  -7   3   1   22.11    0.81
   7   3  -1   22.40    0.74
  -7   3   1   21.98    0.92
  -7   3   1   22.33    0.76
  -7   3   1   22.59    0.73
  -7   3   1   23.52    0.84
   7   3  -1   23.42    0.83
   7   3  -1   21.92    0.89
   5  -3  -1  262.34    4.60
  -5  -3   1  261.07    4.47
  -5  -3   1  262.61    4.65
   5  -3  -1  251.81    4.47
  -5  -3   1  260.30    4.55
   5  -3  -1  259.18    4.61
  -5  -3   1  252.06    4.46
  -5  -3   1  256.81    4.62
  -5  -3   1  249.39    4.81
  -5   3   1  259.18    4.58
  -5   3   1  260.48    4.50
   5   3  -1  256.61    4.52
  -5   3   1  261.05    5.09
   5   3  -1  259.94    4.73
  -5   3   1  249.30    4.47
   5   3  -1  258.34    4.55
  -5   3   1  265.73    4.61
   5   3  -1  260.94    4.62
  -3  -3   1  102.65    1.96
   3  -3  -1   98.23    1.76
   3  -3  -1  100.46    1.87
   3  -3  -1  100.19    1.91
   3  -3  -1   97.06    2.03
   3  -3  -1   98.60    1.87
  -3  -3   1   99.58    1.87
  -3  -3   1   98.39    1.75
  -3  -3   1   98.89    1.87
  -3  -3   1  101.26    1.94
   3   3  -1   97.73    1.89
   3   3  -1  100.87    1.84
   3   3  -1  100.03    1.90
  -3   3   1  102.38    2.11
  -3   3   1  101.09    1.84
   3   3  -1   98.82    1.94
  -3   3   1  100.68    1.89
  -3   3   1   97.20    1.73
  -3   3   1  100.57    1.84
   3   3  -1  102.24    1.96
   3   3  -1   98.90    1.71
   1  -3  -1  300.62    5.40
  -1  -3   1  318.17    5.68
   1  -3  -1  295.20    5.55
  -1  -3   1  302.20    5.64
  -1  -3   1  295.39    5.35
   1  -3  -1  284.33    5.40
   1  -3  -1  301.36    5.78
   1  -3  -1  297.00    5.77
   1   3  -1  294.26    5.42
  -1   3   1  301.89    5.42
   1   3  -1  292.89    5.24
   1   3  -1  296.71    4.97
  -1   3   1  306.29    5.66
  -1   3   1  299.27    5.33
  -1   3   1  295.93    5.53
   1   3  -1  300.52    5.61
  -1   3   1  301.23    5.00
   1  -3   1  277.41    5.14
   1  -3   1  268.88    4.86
   1  -3   1  269.72    4.91
  -1  -3  -1  265.57    5.49
  -1  -3  -1  271.06    4.94
   1  -3   1  279.71    5.26
  -1  -3  -1  270.59    4.98
  -1  -3  -1  272.43    4.68
   1   3   1  281.50    4.95
   1   3   1  287.68    5.27
  -1   3  -1  277.58    4.84
  -1   3  -1  281.05    5.39
   1   3   1  285.82    4.64
   1   3   1  270.25    4.95
  -1   3  -1  278.49    4.95
  -1   3  -1  280.32    4.96
  -3  -3  -1  283.56    4.97
   3  -3   1  279.81    4.84
  -3  -3  -1  283.15    4.79
  -3  -3  -1  285.17    4.98
  -3  -3  -1  280.24    4.80
   3  -3   1  267.03    4.81
  -3  -3  -1  282.45    4.90
   3  -3   1  284.69    4.90
   3   3   1  282.75    4.89
  -3   3  -1  278.85    4.89
   3   3   1  282.28    4.76
   3   3   1  280.60    4.96
  -3   3  -1  286.06    4.92
  -3   3  -1  286.39    4.82
   3   3   1  286.73    5.03
  -3   3  -1  281.73    5.07
   3   3   1  283.01    4.86
  -3   3  -1  282.45    4.69
  -5  -3  -1  109.17    2.22
  -5  -3  -1  108.70    2.35
   5  -3   1  110.36    2.16
  -5  -3  -1  108.63    2.19
  -5  -3  -1  106.33    2.20
  -5  -3  -1  113.19    2.31
   5  -3   1  110.63    2.17
   5  -3   1  111.62    2.28
  -5   3  -1  110.07    2.49
   5   3   1  109.42    2.37
   5   3   1  108.17    2.21
   5   3   1  110.00    2.04
   5   3   1  109.69    2.23
  -5   3  -1  110.61    2.25
  -5   3  -1  111.26    2.32
  -5   3  -1  110.87    2.25
   7  -3   1  131.79    2.82
  -7  -3  -1  126.48    2.66
  -7  -3  -1  128.47    2.72
   7  -3   1  127.79    2.61
  -7  -3  -1  131.85    2.93
  -7  -3  -1  129.21    2.75
   7  -3   1  130.76    2.66
  -7   3  -1  131.54    2.89
   7   3   1  129.46    2.71
  -7   3  -1  132.09    2.80
  -7   3  -1  132.99    3.07
   7   3   1  133.38    2.73
   7   3   1  127.78    2.92
  -9  -3  -1   32.00    1.30
  -9  -3  -1   30.56    1.11
   9  -3   1   31.52    1.04
   9  -3   1   31.20    1.20
   9   3   1   30.89    1.12
   9   3   1   29.60    1.23
  -9   3  -1   31.26    1.22
  -9   3  -1   30.86    1.39
   9   3   1   31.69    1.10
  10  -4  -1   13.04    0.77
  10  -4  -1   13.15    0.76
 -10  -4   1   11.57    0.83
  10   4  -1   11.90    0.74
 -10   4   1   12.93    0.92
  10   4  -1   12.88    0.84
 -10   4   1   13.19    0.83
   8  -4  -1   35.38    1.18
   8  -4  -1   36.06    1.15
  -8  -4   1   35.71    1.10
   8  -4  -1   34.31    0.97
  -8  -4   1   36.10    1.18
  -8  -4   1   37.18    1.26
  -8  -4   1   33.98    1.05
   8   4  -1   35.12    1.16
   8   4  -1   35.10    1.29
   8   4  -1   34.13    1.07
  -8   4   1   35.55    1.20
  -8   4   1   36.57    1.36
   6  -4  -1   11.77    0.55
  -6  -4   1   12.09    0.58
   6  -4  -1   11.29    0.44
  -6  -4   1   10.82    0.62
  -6  -4   1   10.80    0.44
  -6  -4   1   11.94    0.56
   6  -4  -1   12.06    0.55
  -6  -4   1   11.15    0.50
  -6   4   1   11.51    0.49
   6   4  -1   12.75    0.57
   6   4  -1   11.56    0.50
  -6   4   1   11.82    0.55
  -6   4   1   12.65    0.65
  -6   4   1   11.32    0.52
   6   4  -1   11.70    0.60
   4  -4  -1   36.45    0.92
   4  -4  -1   36.63    0.89
  -4  -4   1   35.51    0.98
  -4  -4   1   36.53    0.99
  -4  -4   1   37.52    0.93
   4  -4  -1   36.34    0.77
  -4  -4   1   34.89    0.78
  -4  -4   1   36.54    0.92
   4  -4  -1   37.59    0.96
   4   4  -1   36.15    0.73
  -4   4   1   36.38    0.89
  -4   4   1   36.99    0.93
   4   4  -1   36.62    0.95
   4   4  -1   37.43    1.03
   4   4  -1   37.69    0.91
  -4   4   1   37.56    1.20
  -4   4   1   35.67    0.89
   4   4  -1   35.82    0.98
  -4   4   1   35.49    0.77
   2  -4  -1   29.92    0.75
   2  -4  -1   28.59    0.74
  -2  -4   1   29.30    0.68
   2  -4  -1   29.03    0.74
   2  -4  -1   30.21    0.64
   2  -4  -1   29.35    0.71
  -2  -4   1   30.19    0.65
  -2  -4   1   29.09    0.72
  -2  -4   1   29.81    0.79
  -2   4   1   29.67    0.71
  -2   4   1   30.81    0.82
   2   4  -1   30.34    0.74
  -2   4   1   30.02    0.65
  -2   4   1   29.97    0.73
   2   4  -1   30.34    0.72
  -2   4   1   30.29    0.72
   2   4  -1   29.35    0.70
   2   4  -1   29.83    0.65
   0  -4   1    0.25    0.07
   0  -4   1    0.26    0.06
   0  -4   1    0.28    0.07
   0  -4  -1    0.39    0.10
   0  -4  -1    0.24    0.10
   0  -4  -1    0.36    0.07
   0  -4  -1    0.22    0.08
   0   4  -1    0.40    0.08
   0   4  -1    0.37    0.08
   0   4   1    0.52    0.07
   0   4  -1    0.54    0.09
   0   4   1    0.16    0.05
   0   4   1    0.30    0.07
   0   4   1    0.49    0.09
   2  -4   1   25.27    0.52
   2  -4   1   25.64    0.68
  -2  -4  -1   25.80    0.78
  -2  -4  -1   28.64    0.73
  -2  -4  -1   25.60    0.71
   2  -4   1   25.62    0.62
  -2  -4  -1   24.71    0.69
   2   4   1   25.29    0.69
   2   4   1   26.00    0.67
   2   4   1   26.58    0.64
   2   4   1   26.19    0.63
  -2   4  -1   25.13    0.55
  -2   4  -1   25.92    0.67
  -2   4  -1   26.11    0.70
  -2   4  -1   24.93    0.77
  -4  -4  -1    0.05    0.11
  -4  -4  -1    0.40    0.13
   4  -4   1    0.18    0.12
  -4  -4  -1    0.18    0.08
  -4  -4  -1    0.26    0.13
   4  -4   1    0.10    0.12
  -4   4  -1   -0.04    0.10
  -4   4  -1    0.21    0.11
   4   4   1    0.43    0.12
   4   4   1    0.08    0.06
   4   4   1    0.25    0.11
  -4   4  -1    0.11    0.06
  -4   4  -1    0.08    0.07
  -4   4  -1    0.14    0.10
   4   4   1    0.18    0.10
   6  -4   1    2.65    0.32
   6  -4   1    3.00    0.30
  -6  -4  -1    2.88    0.39
   6  -4   1    2.87    0.28
  -6  -4  -1    3.13    0.32
  -6  -4  -1    2.96    0.28
  -6  -4  -1    3.52    0.31
  -6   4  -1    3.10    0.32
  -6   4  -1    3.04    0.37
   6   4   1    3.00    0.30
   6   4   1    2.94    0.32
   6   4   1    3.17    0.40
  -6   4  -1    2.71    0.34
   8  -4   1    3.69    0.38
  -8  -4  -1    4.59    0.40
  -8  -4  -1    4.52    0.57
  -8  -4  -1    4.39    0.43
   8  -4   1    4.26    0.47
   8  -4   1    4.95    0.40
  -8   4  -1    4.77    0.53
   8   4   1    3.83    0.37
  -8   4  -1    4.17    0.51
   8   4   1    3.87    0.37
   8   4   1    4.89    0.49
  10  -4   1    0.02    0.17
 -10  -4  -1    0.19    0.23
 -10   4  -1    0.28    0.33
  10   4   1    0.10    0.20
 -10   4  -1    0.18    0.27
  10   4   1   -0.03    0.14
   9  -5  -1   25.91    1.04
   9  -5  -1   27.03    1.10
  -9  -5   1   27.66    1.04
  -9  -5   1   26.67    1.17
   9   5  -1   27.68    1.10
   9   5  -1   28.60    1.24
  -9   5   1   28.25    1.32
  -9   5   1   26.36    1.11
  -7  -5   1   98.79    2.20
  -7  -5   1   98.18    2.32
  -7  -5   1  100.10    2.33
   7  -5  -1   98.47    2.04
   7  -5  -1   99.19    2.22
   7  -5  -1  101.08    2.28
   7   5  -1   97.13    2.44
   7   5  -1   99.53    2.30
  -7   5   1  100.35    2.28
  -7   5   1   95.34    2.47
  -7   5   1   99.60    2.14
  -7   5   1   98.90    2.31
   7   5  -1   97.51    2.20
   5  -5  -1  115.90    2.37
  -5  -5   1  108.43    2.42
  -5  -5   1  114.80    2.47
  -5  -5   1  109.49    2.12
   5  -5  -1  116.85    2.36
  -5  -5   1  118.52    2.35
   5  -5  -1  114.74    2.25
  -5  -5   1  114.85    2.36
  -5   5   1  114.66    2.55
   5   5  -1  115.07    2.33
   5   5  -1  112.24    2.23
  -5   5   1  113.73    2.31
  -5   5   1  117.61    2.30
   5   5  -1  114.33    2.40
  -5   5   1  115.99    2.39
  -3  -5   1  324.84    5.62
   3  -5  -1  325.07    5.69
   3  -5  -1  311.28    5.51
  -3  -5   1  326.23    6.32
  -3  -5   1  312.01    5.54
  -3  -5   1  329.20    5.68
   3  -5  -1  322.43    6.07
   3  -5  -1  334.12    5.73
  -3  -5   1  334.13    5.83
   3   5  -1  327.94    5.51
  -3   5   1  325.74    5.69
  -3   5   1  340.69    5.69
   3   5  -1  309.98    6.03
   3   5  -1  337.79    5.68
   3   5  -1  327.74    5.63
  -3   5   1  337.17    5.59
   3   5  -1  335.93    5.73
  -3   5   1  345.08    5.98
   1  -5  -1  215.24    3.90
   1  -5  -1  202.29    4.00
  -1  -5   1  216.41    3.80
  -1  -5   1  215.92    3.68
  -1  -5   1  224.00    3.94
   1  -5  -1  219.68    3.85
   1  -5  -1  216.87    3.79
  -1  -5   1  222.89    3.98
   1  -5  -1  225.34    3.92
  -1   5   1  215.66    3.77
  -1   5   1  218.31    3.82
  -1   5   1  219.10    3.82
   1   5  -1  216.99    3.71
   1   5  -1  214.89    3.84
  -1   5   1  221.14    3.87
   1   5  -1  220.50    3.85
   1  -5   1  315.37    5.56
  -1  -5  -1  311.56    5.39
   1  -5   1  304.89    5.37
   1  -5   1  307.68    5.28
  -1  -5  -1  308.67    5.48
   1  -5   1  302.15    5.29
  -1  -5  -1  302.08    5.25
  -1  -5  -1  306.75    5.34
   1  -5   1  303.65    5.26
  -1   5  -1  307.51    5.15
   1   5   1  306.15    5.28
  -1   5  -1  310.28    5.39
  -1   5  -1  316.21    5.31
   1   5   1  308.64    5.26
  -1   5  -1  308.08    5.34
   1   5   1  311.46    5.33
   1   5   1  308.20    5.33
   1   5   1  304.36    5.35
   3  -5   1   76.43    1.66
  -3  -5  -1   77.18    1.68
  -3  -5  -1   77.33    1.68
   3  -5   1   72.61    1.51
  -3  -5  -1   78.42    1.67
   3  -5   1   76.47    1.63
  -3  -5  -1   78.74    1.80
  -3   5  -1   77.76    1.63
   3   5   1   76.47    1.64
   3   5   1   70.38    1.80
   3   5   1   78.47    1.54
   3   5   1   77.71    1.68
  -3   5  -1   74.84    1.81
  -3   5  -1   77.21    1.67
  -5  -5  -1  100.20    2.12
  -5  -5  -1  103.20    2.21
   5  -5   1  100.91    2.22
  -5  -5  -1  103.85    2.34
   5  -5   1  103.89    2.16
  -5  -5  -1  100.48    2.29
  -5   5  -1  100.32    2.20
   5   5   1  103.76    2.24
  -5   5  -1   99.36    2.23
   5   5   1   99.71    2.18
  -5   5  -1  102.33    2.47
   5   5   1  100.80    2.36
   7  -5   1   22.49    0.93
  -7  -5  -1   23.38    1.02
  -7  -5  -1   22.52    0.95
  -7  -5  -1   21.70    0.87
   7  -5   1   22.38    0.79
   7  -5   1   22.10    0.82
  -7   5  -1   21.93    0.88
   7   5   1   21.42    1.00
  -7   5  -1   23.06    1.11
   7   5   1   22.48    0.90
  -7   5  -1   23.46    0.97
   7   5   1   22.01    0.87
   9  -5   1   50.50    1.62
  -9  -5  -1   49.74    1.75
   9  -5   1   50.67    1.40
  -9  -5  -1   48.10    1.50
   9   5   1   48.06    1.73
   9   5   1   47.44    1.51
  -9   5  -1   49.45    1.88
  -9   5  -1   48.51    1.64
   9   5   1   49.92    1.53
 -10  -6   1   16.38    0.95
 -10  -6   1   16.90    0.86
  10  -6  -1   18.79    0.93
  10  -6  -1   17.69    0.94
 -10   6   1   17.31    1.12
 -10   6   1   17.36    0.95
  10   6  -1   16.34    0.90
   8  -6  -1    6.29    0.50
   8  -6  -1    5.34    0.38
   8  -6  -1    5.97    0.47
  -8  -6   1    6.21    0.54
  -8  -6   1    5.83    0.53
  -8  -6   1    7.38    0.56
   8   6  -1    5.45    0.51
  -8   6   1    5.50    0.50
   8   6  -1    5.05    0.45
  -8   6   1    5.79    0.62
  -6  -6   1   36.71    1.16
  -6  -6   1   37.10    1.11
   6  -6  -1   37.03    1.13
   6  -6  -1   35.94    1.12
   6  -6  -1   40.17    1.12
  -6  -6   1   36.50    1.22
  -6   6   1   37.52    1.09
  -6   6   1   38.03    1.19
   6   6  -1   36.64    1.18
  -6   6   1   36.92    1.31
   6   6  -1   36.72    1.13
   6   6  -1   39.93    1.17
  -6   6   1   35.27    1.10
   4  -6  -1    8.92    0.44
  -4  -6   1    9.87    0.47
   4  -6  -1    9.25    0.45
  -4  -6   1    9.17    0.44
  -4  -6   1    9.23    0.53
   4  -6  -1   10.36    0.50
  -4   6   1   10.93    0.48
   4   6  -1    9.38    0.34
   4   6  -1    8.95    0.42
   4   6  -1    8.65    0.47
   4   6  -1    9.53    0.45
  -4   6   1    8.89    0.41
  -4   6   1    9.14    0.48
  -4   6   1    8.51    0.49
   2  -6  -1    5.77    0.36
  -2  -6   1    5.95    0.27
   2  -6  -1    5.96    0.33
   2  -6  -1    5.62    0.28
  -2  -6   1    5.82    0.32
   2  -6  -1    5.92    0.27
   2   6  -1    6.20    0.35
  -2   6   1    6.13    0.24
   2   6  -1    5.62    0.32
  -2   6   1    6.15    0.35
  -2   6   1    5.87    0.31
  -2   6   1    5.65    0.32
   0  -6  -1   22.59    0.68
   0  -6   1   22.14    0.69
   0  -6   1   20.99    0.53
   0  -6  -1   22.05    0.72
   0  -6  -1   21.90    0.76
   0  -6   1   21.23    0.68
   0  -6   1   21.39    0.59
   0   6  -1   22.87    0.63
   0   6   1   22.04    0.65
   0   6  -1   22.90    0.70
   0   6   1   21.71    0.66
   0   6   1   22.36    0.69
   0   6   1   22.74    0.58
   0   6   1   21.62    0.52
   0   6  -1   21.48    0.67
   2  -6   1    2.00    0.16
  -2  -6  -1    2.14    0.26
  -2  -6  -1    2.00    0.22
   2  -6   1    2.33    0.26
  -2  -6  -1    2.27    0.22
   2  -6   1    2.15    0.21
  -2  -6  -1    2.57    0.28
   2   6   1    2.56    0.24
  -2   6  -1    2.10    0.15
  -2   6  -1    2.25    0.24
  -2   6  -1    2.41    0.25
   2   6   1    2.11    0.19
   2   6   1    2.10    0.21
   2   6   1    2.24    0.22
  -4  -6  -1    5.64    0.41
   4  -6   1    8.49    0.48
  -4  -6  -1    6.91    0.45
   4  -6   1    6.80    0.43
  -4  -6  -1    6.99    0.41
  -4  -6  -1    5.77    0.44
  -4   6  -1    6.21    0.39
  -4   6  -1    6.15    0.48
   4   6   1    6.15    0.42
   4   6   1    7.01    0.41
  -4   6  -1    5.82    0.39
   4   6   1    6.26    0.32
   6  -6   1    1.05    0.25
   6  -6   1    0.99    0.27
  -6  -6  -1    1.15    0.30
  -6  -6  -1    1.02    0.27
  -6  -6  -1    0.90    0.21
  -6  -6  -1    0.97    0.26
   6   6   1    0.88    0.21
  -6   6  -1    0.53    0.21
   6   6   1    1.61    0.29
  -6   6  -1    0.90    0.28
  -6   6  -1    0.85    0.23
  -8  -6  -1    0.23    0.26
   8  -6   1    0.40    0.16
   8  -6   1    0.19    0.25
  -8  -6  -1    0.30    0.25
   8  -6   1    0.08    0.15
  -8  -6  -1    0.46    0.31
   8   6   1    0.22    0.20
  -8   6  -1    0.37    0.23
   8   6   1    0.19    0.21
  -8   6  -1    0.23    0.21
  -9  -7   1   24.46    1.13
   9  -7  -1   23.64    1.00
   9  -7  -1   24.18    1.07
  -9  -7   1   23.99    1.05
   9   7  -1   23.37    1.08
  -9   7   1   23.80    1.27
  -9   7   1   23.18    1.07
   7  -7  -1  107.27    2.50
  -7  -7   1  105.18    2.61
  -7  -7   1  104.83    2.54
   7  -7  -1  107.71    2.49
  -7  -7   1  109.35    2.50
  -7   7   1  109.52    2.82
   7   7  -1   99.86    2.44
   7   7  -1  103.92    2.54
  -7   7   1  110.58    2.51
  -7   7   1  106.74    2.41
  -5  -7   1   20.41    0.88
   5  -7  -1   19.23    0.77
   5  -7  -1   18.78    0.71
  -5  -7   1   18.60    0.74
   5  -7  -1   19.65    0.78
  -5  -7   1   19.43    0.78
  -5   7   1   19.22    0.71
  -5   7   1   19.83    0.88
   5   7  -1   19.68    0.77
  -5   7   1   19.41    0.74
   5   7  -1   19.30    0.81
  -5   7   1   19.09    0.80
   5   7  -1   20.14    0.73
   3  -7  -1  121.05    2.50
   3  -7  -1  117.02    2.34
  -3  -7   1  119.22    2.44
   3  -7  -1  121.66    2.50
  -3  -7   1  121.62    2.63
  -3  -7   1  115.48    2.33
  -3   7   1  121.20    2.48
  -3   7   1  116.33    2.53
   3   7  -1  121.97    2.51
  -3   7   1  120.31    2.47
   3   7  -1  119.80    2.44
   1  -7  -1   39.55    1.00
  -1  -7   1   39.67    1.01
   1  -7  -1   39.77    1.13
  -1  -7   1   40.36    1.10
   1  -7  -1   39.98    1.08
  -1  -7   1   40.27    1.13
   1  -7  -1   39.19    1.12
  -1   7   1   38.96    1.03
   1   7  -1   40.84    1.08
  -1   7   1   38.34    0.96
   1   7  -1   39.89    1.06
  -1   7   1   39.55    1.04
  -1   7   1   41.06    1.00
  -1   7   1   39.90    1.09
  -1  -7  -1  170.01    3.33
  -1  -7  -1  168.86    3.26
   1  -7   1  152.94    2.99
   1  -7   1  168.30    3.17
  -1  -7  -1  170.15    3.43
   1  -7   1  170.43    3.23
   1  -7   1  169.15    3.23
  -1   7  -1  169.10    3.21
   1   7   1  173.38    3.18
   1   7   1  169.22    3.21
   1   7   1  173.09    3.28
  -1   7  -1  169.44    3.24
  -1   7  -1  172.66    3.28
   3  -7   1   75.35    1.69
  -3  -7  -1   77.94    1.84
  -3  -7  -1   76.17    1.77
  -3  -7  -1   79.93    2.00
  -3  -7  -1   81.73    1.87
   3  -7   1   76.72    1.78
   3   7   1   77.27    1.67
   3   7   1   77.35    1.84
  -3   7  -1   79.03    1.82
  -3   7  -1   75.73    1.95
   3   7   1   75.86    1.78
   3   7   1   78.53    1.81
  -5  -7  -1  150.72    3.22
  -5  -7  -1  155.11    3.21
  -5  -7  -1  151.44    3.12
  -5  -7  -1  153.69    3.36
   5  -7   1  153.92    3.12
   5  -7   1  149.29    3.15
   5   7   1  150.34    3.13
   5   7   1  150.29    3.23
   5   7   1  150.16    3.15
  -5   7  -1  147.39    3.12
  -5   7  -1  154.36    3.51
  -5   7  -1  153.75    3.17
  -7  -7  -1   50.20    1.65
  -7  -7  -1   49.98    1.65
   7  -7   1   51.48    1.40
  -7  -7  -1   52.83    1.60
   7  -7   1   49.37    1.44
   7  -7   1   51.83    1.56
  -7   7  -1   51.29    1.86
   7   7   1   49.60    1.58
   7   7   1   48.46    1.50
  -7   7  -1   49.97    1.58
  -7   7  -1   48.91    1.53
  -9  -7  -1   57.13    1.92
  -9  -7  -1   54.91    1.74
   9  -7   1   58.40    1.81
   9  -7   1   50.47    2.25
  -9   7  -1   58.40    2.17
   9   7   1   56.55    1.70
   9   7   1   59.27    1.81
  -8  -8   1    4.16    0.50
   8  -8  -1    4.47    0.46
  -8  -8   1    4.77    0.47
   8  -8  -1    4.64    0.47
  -8  -8   1    3.75    0.50
  -8   8   1    3.92    0.45
   8   8  -1    3.86    0.45
  -8   8   1    5.10    0.63
   8   8  -1    4.82    0.54
  -6  -8   1   51.47    1.50
   6  -8  -1   50.84    1.47
  -6  -8   1   51.34    1.52
   6  -8  -1   50.00    1.48
  -6  -8   1   50.69    1.48
  -6  -8   1   50.37    1.64
  -6   8   1   49.34    1.45
   6   8  -1   49.48    1.51
   6   8  -1   49.39    1.54
  -6   8   1   52.33    1.73
  -6   8   1   50.91    1.57
  -4  -8   1   31.16    1.14
   4  -8  -1   30.11    1.05
   4  -8  -1   29.75    1.00
   4  -8  -1   29.39    0.98
  -4  -8   1   30.31    1.00
  -4  -8   1   30.68    1.07
  -4  -8   1   29.62    0.93
  -4   8   1   31.99    1.04
   4   8  -1   29.58    1.04
  -4   8   1   30.48    1.11
  -4   8   1   30.28    1.04
   4   8  -1   30.09    0.98
  -2  -8   1   49.51    1.43
  -2  -8   1   49.06    1.36
   2  -8  -1   47.68    1.30
   2  -8  -1   48.35    1.30
  -2  -8   1   47.99    1.27
   2  -8  -1   46.73    1.35
   2   8  -1   47.64    1.30
  -2   8   1   48.05    1.25
  -2   8   1   48.34    1.26
  -2   8   1   50.54    1.34
   2   8  -1   46.73    1.28
   0  -8  -1  114.43    2.57
   0  -8   1  114.46    2.45
   0  -8  -1  112.78    2.38
   0  -8  -1  114.69    2.52
   0  -8   1  112.47    2.27
   0  -8   1  113.79    2.45
   0   8  -1  114.62    2.41
   0   8  -1  118.29    2.47
   0   8   1  113.53    2.38
   0   8   1  116.85    2.46
   0   8   1  114.14    2.37
   0   8   1  116.71    2.27
   2  -8   1   33.83    1.02
   2  -8   1   33.82    1.03
  -2  -8  -1   34.99    1.09
  -2  -8  -1   33.50    1.20
  -2  -8  -1   34.67    1.13
  -2   8  -1   32.74    1.08
   2   8   1   34.72    0.99
   2   8   1   34.55    1.09
   2   8   1   32.93    1.03
  -2   8  -1   35.07    1.09
   4  -8   1   90.18    2.11
  -4  -8  -1   91.02    2.16
  -4  -8  -1   87.69    2.10
  -4  -8  -1   88.40    2.30
  -4  -8  -1   90.01    2.15
   4  -8   1   89.84    2.11
   4   8   1   87.08    2.17
   4   8   1   87.47    2.12
   4   8   1   89.77    2.12
  -4   8  -1   90.48    2.15
  -4   8  -1   85.51    2.31
   6  -8   1   44.42    1.43
  -6  -8  -1   44.18    1.46
  -6  -8  -1   43.77    1.34
  -6  -8  -1   43.59    1.56
  -6  -8  -1   45.88    1.48
   6  -8   1   43.71    1.38
   6   8   1   45.35    1.49
   6   8   1   42.36    1.35
  -6   8  -1   42.65    1.40
   6   8   1   44.02    1.41
  -6   8  -1   43.70    1.65
  -8  -8  -1   20.46    1.02
   8  -8   1   20.18    0.84
  -8  -8  -1   20.46    1.08
   8  -8   1   20.68    0.93
   8  -8   1   21.11    1.03
  -8   8  -1   19.29    1.17
   8   8   1   20.36    0.97
   8   8   1   20.96    1.03
  -8   8  -1   20.99    0.98
   7  -9  -1   15.27    0.81
  -7  -9   1   16.29    0.87
  -7  -9   1   15.81    0.85
  -7  -9   1   15.96    0.83
   7  -9  -1   15.94    0.80
  -7   9   1   15.71    0.98
  -7   9   1   15.47    0.80
   7   9  -1   15.21    0.86
  -5  -9   1  165.94    3.51
   5  -9  -1  160.77    3.44
  -5  -9   1  169.26    3.48
   5  -9  -1  160.60    3.34
  -5  -9   1  160.19    3.64
   5  -9  -1  161.35    3.38
  -5   9   1  160.53    3.66
   5   9  -1  157.53    3.37
  -5   9   1  160.96    3.52
   5   9  -1  161.90    3.52
  -5   9   1  160.82    3.39
  -3  -9   1   41.80    1.33
   3  -9  -1   38.40    1.26
  -3  -9   1   40.74    1.23
   3  -9  -1   41.53    1.29
  -3  -9   1   40.03    1.36
  -3   9   1   38.46    1.21
   3   9  -1   37.37    1.23
   3   9  -1   39.55    1.22
  -3   9   1   39.89    1.25
   1  -9  -1  280.71    5.10
  -1  -9   1  264.08    4.92
  -1  -9   1  263.43    5.16
   1  -9  -1  262.24    5.14
  -1  -9   1  269.82    5.13
   1  -9  -1  275.65    5.19
   1   9  -1  268.84    5.05
  -1   9   1  266.79    5.08
  -1   9   1  265.02    4.99
   1   9  -1  271.86    5.09
  -1   9   1  270.59    4.90
  -1  -9  -1   12.15    0.73
  -1  -9  -1   13.42    0.73
  -1  -9  -1   13.07    0.65
   1  -9   1   13.84    0.66
   1  -9   1   12.98    0.65
   1   9   1   11.84    0.59
   1   9   1   13.35    0.60
   1   9   1   12.75    0.66
  -1   9  -1   13.59    0.67
   3  -9   1  161.64    3.37
  -3  -9  -1  162.16    3.46
  -3  -9  -1  164.69    3.44
   3  -9   1  158.70    3.26
  -3  -9  -1  161.79    3.64
   3   9   1  165.38    3.22
   3   9   1  154.86    3.34
  -3   9  -1  161.62    3.41
   3   9   1  164.43    3.44
  -5  -9  -1    0.36    0.23
  -5  -9  -1    1.45    0.36
   5  -9   1    0.72    0.24
   5  -9   1    0.53    0.27
  -5  -9  -1    1.01    0.34
  -5  -9  -1    0.33    0.22
   5   9   1    0.38    0.22
   5   9   1    0.59    0.22
  -5   9  -1    0.55    0.26
   5   9   1    0.59    0.21
  -5   9  -1    0.47    0.20
   7  -9   1   75.60    1.95
   7  -9   1   77.68    2.17
  -7  -9  -1   79.58    2.21
   7  -9   1   78.06    2.07
  -7  -9  -1   76.85    2.21
   7   9   1   77.72    2.12
  -7   9  -1   81.03    2.56
  -7   9  -1   76.09    2.11
   7   9   1   75.32    2.20
   8 -10  -1    1.15    0.34
  -8 -10   1    1.77    0.36
   8 -10  -1    0.62    0.26
  -8 -10   1    1.00    0.37
  -8  10   1    0.99    0.37
   8  10  -1    0.94    0.35
   6 -10  -1    7.01    0.59
  -6 -10   1    7.13    0.64
   6 -10  -1    6.55    0.64
  -6 -10   1    7.09    0.62
  -6  10   1    6.81    0.63
   6  10  -1    6.18    0.56
  -6  10   1    6.18    0.56
   4 -10  -1    0.25    0.18
   4 -10  -1    0.56    0.20
  -4 -10   1    0.08    0.16
   4 -10  -1    0.46    0.23
  -4 -10   1    0.79    0.25
  -4 -10   1    0.18    0.17
   4  10  -1    0.46    0.20
   4  10  -1    0.19    0.20
  -4  10   1    0.84    0.24
   2 -10  -1    0.21    0.19
   2 -10  -1    0.34    0.25
  -2 -10   1    0.36    0.22
  -2 -10   1    0.10    0.17
  -2 -10   1    0.31    0.18
  -2  10   1    0.19    0.20
   2  10  -1    0.23    0.19
   2  10  -1    0.50    0.23
  -2  10   1    0.24    0.15
   0 -10   1    6.69    0.54
   0 -10  -1    4.75    0.48
   0 -10  -1    5.09    0.49
   0 -10  -1    4.78    0.47
   0 -10   1    4.49    0.43
   0 -10  -1    4.90    0.49
   0 -10   1    4.81    0.47
   0  10   1    5.11    0.48
   0  10  -1    5.62    0.48
   0  10  -1    4.70    0.46
   0  10   1    4.21    0.43
  -2 -10  -1    5.80    0.56
   2 -10   1    5.73    0.50
   2 -10   1    5.64    0.53
  -2 -10  -1    6.68    0.63
  -2 -10  -1    6.69    0.55
   2  10   1    5.85    0.47
   2  10   1    5.56    0.43
  -2  10  -1    6.01    0.53
   2  10   1    6.30    0.50
  -4 -10  -1    1.70    0.38
   4 -10   1    1.89    0.39
  -4 -10  -1    1.82    0.39
  -4 -10  -1    1.74    0.40
   4 -10   1    1.90    0.33
  -4  10  -1    1.62    0.31
   4  10   1    1.99    0.35
   4  10   1    1.92    0.34
   6 -10   1   -0.17    0.25
  -6 -10  -1    0.36    0.31
   6 -10   1    0.13    0.20
  -6 -10  -1    0.25    0.25
   6  10   1    0.08    0.21
  -6  10  -1    0.07    0.24
  -6  10  -1    0.06    0.23
   7 -11  -1   39.72    1.45
   7 -11  -1   40.09    1.40
  -7 -11   1   38.65    1.49
  -7 -11   1   37.29    1.41
   7  11  -1   36.66    1.48
   5 -11  -1   24.21    1.12
  -5 -11   1   22.85    1.09
  -5 -11   1   21.72    1.02
   5 -11  -1   21.90    0.97
   5  11  -1   21.56    1.04
  -5  11   1   21.99    1.01
   3 -11  -1   22.57    1.03
   3 -11  -1   18.61    0.96
  -3 -11   1   18.94    0.90
  -3 -11   1   19.30    0.99
  -3 -11   1   18.24    1.00
  -3  11   1   17.78    0.89
   3  11  -1   16.64    0.88
   3  11  -1   18.73    0.91
  -1 -11   1   38.35    1.38
  -1 -11   1   36.34    1.38
  -1 -11   1   39.47    1.34
   1 -11  -1   44.16    1.52
   1 -11  -1   40.06    1.38
  -1  11   1   38.75    1.38
   1  11  -1   37.18    1.33
   1  11  -1   39.36    1.35
  -1 -11  -1   26.88    1.21
  -1 -11  -1   27.62    1.09
   1 -11   1   27.12    1.12
  -1 -11  -1   26.42    1.22
  -1 -11  -1   27.40    1.11
   1 -11   1   25.79    1.09
   1  11   1   25.96    1.11
  -1  11  -1   26.38    1.11
   1  11   1   26.29    1.05
   3 -11   1   86.32    2.27
  -3 -11  -1   84.96    2.30
  -3 -11  -1   90.09    2.41
  -3 -11  -1   80.53    2.46
   3 -11   1   88.01    2.26
   3  11   1   84.81    2.32
  -3  11  -1   86.34    2.30
   3  11   1   84.51    2.25
   5 -11   1   40.67    1.46
   5 -11   1   40.46    1.43
  -5 -11  -1   39.73    1.47
  -5 -11  -1   38.40    1.49
   5  11   1   36.63    1.40
  -5  11  -1   39.50    1.46
   5  11   1   34.84    1.37
   4 -12  -1   19.19    0.93
  -4 -12   1   20.84    1.02
  -4 -12   1   20.92    1.06
   4 -12  -1   20.51    1.06
   4 -12  -1   18.62    0.98
   4  12  -1   18.64    0.98
  -4  12   1   19.68    1.01
   4  12  -1   21.29    1.08
   2 -12  -1   22.69    1.08
  -2 -12   1   19.92    1.03
   2 -12  -1   19.06    1.05
   2  12  -1   19.09    0.99
   2  12  -1   21.07    1.01
  -2  12   1   19.37    1.00
   0 -12  -1    5.27    0.59
   0 -12   1    5.12    0.52
   0 -12  -1    5.06    0.56
   0 -12   1    4.94    0.53
   0  12  -1    5.81    0.58
   0  12   1    5.57    0.63
  -2 -12  -1   38.65    1.40
  -2 -12  -1   37.04    1.37
   2 -12   1   38.21    1.42
   2 -12   1   37.74    1.38
  -2 -12  -1   38.19    1.51
   2  12   1   36.00    1.42
  -2  12  -1   36.70    1.39
   2  12   1   35.77    1.36
   4 -12   1    5.66    0.55
   4 -12   1    4.71    0.59
  -4 -12  -1    6.23    0.68
  -4 -12  -1    5.45    0.63
   4  12   1    6.28    0.60
  -4  12  -1    4.88    0.52
   3 -13  -1  102.52    2.76
   3 -13  -1  105.85    2.67
  -3 -13   1  104.97    2.84
  -3 -13   1  108.42    2.76
   3 -13  -1  109.93    2.84
  -3  13   1  107.24    2.82
   3  13  -1  100.81    2.74
   3  13  -1  103.23    2.77
   1 -13  -1   28.62    1.33
  -1 -13   1   26.20    1.27
  -1 -13   1   26.74    1.23
   1 -13  -1   27.04    1.24
  -1  13   1   25.54    1.18
   1  13  -1   26.78    1.23
   1 -13   1   71.11    2.11
   1 -13   1   67.17    2.08
  -1 -13  -1   72.62    2.13
  -1 -13  -1   66.35    2.18
  -1  13  -1   68.22    2.10
   1  13   1   70.08    2.17
   3 -13   1   10.70    0.78
   3 -13   1   10.05    0.82
  -3 -13  -1    9.46    0.77
  -3 -13  -1   10.48    0.76
  -3 -13  -1   10.73    0.82
   3  13   1    9.54    0.74
   3  13   1    8.90    0.73
  -3  13  -1   10.69    0.80
  10   0  -2  106.76    2.57
 -10   0   2  109.28    2.61
 -10   0   2  106.69    2.55
 -10   0   2  104.61    2.65
  10   0  -2  104.87    2.62
  10   0  -2  107.70    2.52
  -8   0   2   52.10    1.84
  -8   0   2   52.51    1.22
   8   0  -2   54.27    1.46
  -8   0   2   54.30    1.41
  -8   0   2   54.29    1.45
   8   0  -2   56.12    1.52
   6   0  -2  457.16    7.82
  -6   0   2  453.08    7.61
  -6   0   2  459.56    7.75
  -6   0   2  447.66    8.19
   6   0  -2  449.70    7.80
  -6   0   2  459.92    7.72
   6   0  -2  463.25    7.61
   6   0  -2  436.37    7.54
  -4   0   2  275.10    4.66
  -4   0   2  278.07    4.79
   4   0  -2  265.52    4.79
   4   0  -2  275.22    4.87
   4   0  -2  270.46    4.74
  -4   0   2  274.59    4.68
   4   0  -2  277.89    4.72
  -4   0   2  283.06    4.97
  -2   0   2  968.82   16.11
   2   0  -2  961.49   16.18
   2   0  -2  979.05   15.84
   2   0  -2  934.33   16.41
   2   0  -2  906.55   16.11
   2   0  -2  950.98   17.21
  -2   0   2  905.88   15.97
   0   0   2    6.50    0.20
   0   0  -2    6.70    0.23
   0   0  -2    7.48    0.25
   0   0  -2    6.91    0.26
   0   0  -2    7.04    0.22
  -2   0  -2  455.92    8.48
   2   0   2  478.07    8.46
   2   0   2  477.24    8.24
  -2   0  -2  454.39    8.12
  -2   0  -2  475.67    8.53
  -2   0  -2  459.99    8.70
  -2   0  -2  471.55    8.44
   2   0   2  457.90    8.54
   4   0   2    6.24    0.27
  -4   0  -2    5.99    0.35
  -4   0  -2    5.94    0.38
   4   0   2    5.93    0.31
  -4   0  -2    5.83    0.28
  -4   0  -2    5.90    0.36
   4   0   2    5.44    0.33
  -6   0  -2  255.20    4.90
  -6   0  -2  250.01    4.74
   6   0   2  247.91    4.42
   6   0   2  249.51    4.50
   6   0   2  251.77    4.72
  -6   0  -2  254.08    4.84
   6   0   2  252.69    4.58
   8   0   2    0.68    0.21
  -8   0  -2    0.71    0.24
  -8   0  -2    0.74    0.29
   8   0   2    0.63    0.22
   8   0   2    0.77    0.22
  -8   0  -2    1.59    0.32
  10   0   2  169.78    3.85
 -10   0  -2  168.40    3.93
  11  -1  -2   15.83    0.83
  11  -1  -2   14.71    0.84
 -11  -1   2   13.83    0.78
 -11  -1   2   14.41    0.84
  11  -1  -2   14.55    0.83
 -11   1   2   15.30    0.95
 -11   1   2   15.36    0.88
  11   1  -2   15.50    0.80
 -11   1   2   13.64    0.82
  11   1  -2   13.71    0.87
  -9  -1   2    0.37    0.22
  -9  -1   2    0.43    0.17
  -9  -1   2    0.57    0.22
   9  -1  -2    0.29    0.16
   9  -1  -2    0.12    0.14
  -9   1   2    0.12    0.14
  -9   1   2    0.55    0.22
  -9   1   2    1.08    0.26
   9   1  -2    0.26    0.18
   9   1  -2    0.27    0.20
  -7  -1   2   18.79    0.60
   7  -1  -2   19.38    0.56
   7  -1  -2   19.23    0.56
  -7  -1   2   19.19    0.58
  -7  -1   2   19.00    0.93
   7  -1  -2   19.86    0.73
  -7  -1   2   19.88    0.67
   7  -1  -2   20.37    0.74
  -7  -1   2   20.89    0.74
  -7  -1   2   20.87    0.69
   7   1  -2   19.47    0.58
  -7   1   2   18.44    0.95
  -7   1   2   19.12    0.63
  -7   1   2   19.46    0.70
   7   1  -2   20.15    0.62
   7   1  -2   19.81    0.76
   7   1  -2   20.10    0.71
  -7   1   2   19.61    0.69
   7   1  -2   19.37    0.73
   5  -1  -2   16.05    0.54
  -5  -1   2   15.98    0.52
  -5  -1   2   16.14    0.67
   5  -1  -2   16.24    0.53
  -5  -1   2   16.47    0.49
   5  -1  -2   15.67    0.44
  -5  -1   2   15.18    0.41
   5  -1  -2   15.56    0.40
  -5   1   2   15.23    0.40
  -5   1   2   15.35    0.49
  -5   1   2   16.28    0.71
   5   1  -2   15.76    0.56
   5   1  -2   15.74    0.42
   5   1  -2   15.87    0.56
  -5   1   2   15.60    0.48
  -5   1   2   15.44    0.50
   5   1  -2   15.88    0.48
   3  -1  -2   24.31    0.60
  -3  -1   2   24.75    0.56
  -3  -1   2   25.68    0.71
  -3  -1   2   24.75    0.51
   3  -1  -2   25.53    0.57
   3  -1  -2   24.90    0.57
   3  -1  -2   24.35    0.71
   3  -1  -2   24.70    0.61
  -3   1   2   24.28    0.57
   3   1  -2   26.23    0.55
  -3   1   2   25.52    0.73
   3   1  -2   25.19    0.71
  -3   1   2   25.02    0.57
  -3   1   2   24.43    0.51
   3   1  -2   25.25    0.64
   3   1  -2   24.80    0.59
   3   1  -2   29.22    0.63
   3   1  -2   25.49    0.59
   1  -1  -2  210.29    3.71
   1  -1  -2  210.74    3.84
   1  -1  -2  213.05    4.05
  -1   1   2  204.28    3.69
  -1   1   2  195.03    3.73
   1   1  -2  211.36    3.61
  -1   1   2  213.59    4.30
   1   1  -2  225.87    4.08
   1   1  -2  206.22    3.83
   1  -1   2   21.74    0.50
  -1  -1  -2   21.87    0.57
  -1  -1  -2   21.31    0.53
  -1  -1  -2   21.51    0.58
  -1  -1  -2   22.14    0.58
  -1   1  -2   23.05    0.51
  -1   1  -2   21.08    0.61
   1   1   2   20.85    0.51
   1   1   2   21.33    0.46
   1   1   2   21.83    0.51
  -1   1  -2   21.17    0.55
   1   1   2   22.26    0.51
  -1   1  -2   21.84    0.55
  -3  -1  -2   21.13    0.58
   3  -1   2   19.97    0.56
  -3  -1  -2   20.14    0.61
  -3  -1  -2   21.14    0.68
  -3  -1  -2   20.77    0.68
  -3  -1  -2   19.49    0.45
   3  -1   2   20.05    0.60
   3  -1   2   20.86    0.51
  -3  -1  -2   20.99    0.61
   3   1   2   21.19    0.54
  -3   1  -2   20.52    0.64
   3   1   2   20.35    0.61
  -3   1  -2   20.80    0.71
  -3   1  -2   21.34    0.48
   3   1   2   20.30    0.58
  -3   1  -2   21.16    0.51
  -3   1  -2   20.84    0.65
  -5  -1  -2   35.79    1.02
  -5  -1  -2   36.40    0.95
   5  -1   2   34.98    0.88
  -5  -1  -2   35.39    1.11
  -5  -1  -2   38.97    1.13
   5  -1   2   36.16    0.95
  -5  -1  -2   35.28    0.92
   5  -1   2   36.82    1.03
  -5   1  -2   36.06    1.08
   5   1   2   35.02    0.85
   5   1   2   36.72    0.97
   5   1   2   35.75    1.04
  -5   1  -2   35.41    1.06
  -5   1  -2   34.93    1.14
  -7  -1  -2    0.47    0.20
  -7  -1  -2    0.58    0.20
   7  -1   2    0.56    0.22
   7  -1   2    0.57    0.18
  -7  -1  -2    0.40    0.19
   7   1   2    0.42    0.17
   7   1   2    0.55    0.19
  -7   1  -2    0.68    0.26
  -7   1  -2    0.74    0.21
   7   1   2    0.59    0.18
  -7   1  -2    1.40    0.30
  -9  -1  -2   24.59    1.05
  -9  -1  -2   23.68    1.13
   9  -1   2   22.54    0.89
   9  -1   2   23.96    0.93
   9  -1   2   22.82    1.07
   9   1   2   23.66    0.93
   9   1   2   24.40    1.11
  -9   1  -2   24.26    1.10
   9   1   2   22.84    0.91
  -9   1  -2   24.83    1.13
  -9   1  -2   23.17    1.15
 -10  -2   2   10.26    0.65
  10  -2  -2   10.56    0.65
 -10  -2   2   11.41    0.76
  10  -2  -2   10.54    0.70
 -10   2   2   11.25    0.68
  10   2  -2   11.22    0.76
  10   2  -2   10.19    0.63
 -10   2   2   10.98    0.79
 -10   2   2   10.45    0.70
   8  -2  -2  135.57    2.79
   8  -2  -2  129.93    2.79
  -8  -2   2  137.93    2.63
  -8  -2   2  132.91    2.82
  -8  -2   2  125.12    3.23
  -8  -2   2  131.50    2.70
  -8  -2   2  129.11    2.74
  -8  -2   2  128.19    2.68
  -8   2   2  130.57    2.70
   8   2  -2  130.51    2.59
  -8   2   2  130.22    2.76
  -8   2   2  126.53    3.37
  -8   2   2  131.93    2.71
   8   2  -2  132.80    2.92
   8   2  -2  132.00    2.77
   6  -2  -2    4.08    0.21
  -6  -2   2    3.52    0.34
   6  -2  -2    3.55    0.20
  -6  -2   2    4.07    0.27
  -6  -2   2    4.23    0.29
   6  -2  -2    3.72    0.27
  -6  -2   2    3.55    0.29
   6  -2  -2    3.90    0.30
  -6   2   2    4.06    0.26
  -6   2   2    3.95    0.22
  -6   2   2    3.62    0.28
  -6   2   2    3.68    0.25
   6   2  -2    4.21    0.27
   6   2  -2    5.26    0.36
   6   2  -2    4.28    0.29
  -6   2   2    3.72    0.40
   6   2  -2    4.10    0.23
  -4  -2   2  295.63    5.25
  -4  -2   2  298.27    5.07
   4  -2  -2  293.13    5.05
   4  -2  -2  300.83    5.35
   4  -2  -2  294.19    5.06
   4  -2  -2  290.97    5.09
  -4  -2   2  297.29    4.98
  -4  -2   2  288.91    5.12
  -4   2   2  292.76    5.02
   4   2  -2  297.35    4.95
  -4   2   2  296.69    5.97
   4   2  -2  301.08    5.14
  -4   2   2  288.03    5.14
  -4   2   2  297.13    5.04
   4   2  -2  295.02    5.06
  -4   2   2  307.05    5.10
   4   2  -2  293.27    5.08
   2  -2  -2   45.77    0.92
   2  -2  -2   44.73    0.96
   2  -2  -2   44.46    1.00
   2  -2  -2   46.23    0.86
   2  -2  -2   46.17    0.90
  -2  -2   2   47.02    1.00
   2  -2  -2   46.44    0.97
   2   2  -2   46.64    0.87
   2   2  -2   45.02    0.93
   2   2  -2   44.34    0.99
  -2   2   2   47.01    1.02
  -2   2   2   45.27    0.87
  -2   2   2   44.24    0.90
  -2   2   2   45.79    0.88
   2   2  -2   46.00    0.91
   2   2  -2   46.20    0.89
  -2   2   2   45.21    0.87
   0  -2  -2  840.36   14.05
   0  -2  -2  769.89   13.88
   0  -2  -2  796.41   14.52
   0  -2  -2  765.25   13.89
   0  -2  -2  756.44   13.64
   0   2   2  771.20   13.55
   0   2  -2  751.61   13.46
   0   2   2  792.81   13.75
   0   2   2  775.44   13.69
   0   2  -2  839.09   13.74
   0   2  -2  790.92   13.58
   0   2  -2  777.06   13.75
   0   2  -2  827.15   14.54
  -2  -2  -2  320.39    5.86
  -2  -2  -2  327.91    5.66
  -2  -2  -2  312.75    5.91
  -2  -2  -2  328.18    5.58
   2  -2   2  318.56    5.63
  -2  -2  -2  320.94    5.64
   2  -2   2  311.01    5.54
   2   2   2  330.21    5.89
  -2   2  -2  334.23    5.76
  -2   2  -2  341.13    5.85
  -2   2  -2  328.31    5.60
   2   2   2  327.52    5.85
   2   2   2  322.61    5.74
  -2   2  -2  323.88    5.58
   2   2   2  357.89    5.84
   2   2   2  327.01    5.92
  -2   2  -2  330.48    5.46
  -4  -2  -2  337.91    6.02
  -4  -2  -2  350.63    6.07
  -4  -2  -2  328.37    5.81
   4  -2   2  350.39    6.05
   4  -2   2  346.07    5.89
  -4  -2  -2  351.84    6.20
  -4  -2  -2  345.64    6.01
  -4  -2  -2  348.64    6.11
   4  -2   2  343.98    5.95
   4   2   2  350.82    5.88
  -4   2  -2  350.37    6.08
  -4   2  -2  355.71    6.12
  -4   2  -2  342.97    6.12
   4   2   2  344.31    5.94
   4   2   2  345.48    6.10
   4   2   2  355.44    6.02
  -4   2  -2  350.44    6.30
   6  -2   2  103.19    2.27
  -6  -2  -2  101.58    2.32
   6  -2   2  102.19    2.09
   6  -2   2  101.62    2.14
  -6  -2  -2  104.42    2.42
  -6  -2  -2  104.39    2.21
  -6  -2  -2  100.82    2.15
  -6  -2  -2  100.61    2.24
  -6   2  -2  102.92    2.34
   6   2   2  104.42    2.16
   6   2   2  104.31    2.33
   6   2   2  101.70    2.18
   6   2   2  100.40    1.99
  -6   2  -2  103.66    2.51
  -6   2  -2  100.47    2.33
   8  -2   2   59.32    1.56
   8  -2   2   61.97    1.75
  -8  -2  -2   59.63    1.69
  -8  -2  -2   61.22    1.88
   8   2   2   57.87    1.76
  -8   2  -2   59.91    1.78
   8   2   2   59.17    1.57
   8   2   2   59.82    1.60
  -8   2  -2   60.65    1.97
  -8   2  -2   61.05    1.77
  10  -2   2   17.66    0.80
 -10  -2  -2   19.18    1.12
  10  -2   2   18.82    0.86
  10  -2   2   19.48    1.03
  10   2   2   18.90    0.86
 -10   2  -2   18.91    1.11
  10   2   2   18.91    0.87
  11  -3  -2   11.43    0.75
 -11  -3   2   12.04    0.84
  11  -3  -2   11.23    0.77
 -11  -3   2   11.72    0.72
  11   3  -2   11.16    0.78
  11   3  -2   10.42    0.72
 -11   3   2   11.12    0.88
 -11   3   2   10.70    0.77
  -9  -3   2    1.11    0.24
  -9  -3   2    0.90    0.21
   9  -3  -2    0.48    0.19
  -9  -3   2    0.60    0.26
   9  -3  -2    0.76    0.25
  -9  -3   2    0.76    0.21
  -9   3   2    0.76    0.21
   9   3  -2    0.75    0.23
   9   3  -2    0.86    0.25
  -9   3   2    0.80    0.25
   7  -3  -2   12.36    0.44
   7  -3  -2   12.46    0.58
   7  -3  -2   12.82    0.59
  -7  -3   2   11.99    0.71
  -7  -3   2   12.81    0.61
  -7  -3   2   12.56    0.52
  -7  -3   2   13.11    0.54
  -7  -3   2   12.77    0.57
   7   3  -2   12.18    0.49
  -7   3   2   11.87    0.50
   7   3  -2   12.16    0.51
   7   3  -2   12.37    0.64
   7   3  -2   12.26    0.59
  -7   3   2   12.64    0.57
  -7   3   2   12.96    0.82
  -7   3   2   13.37    0.59
  -5  -3   2   15.41    0.57
   5  -3  -2   15.81    0.57
  -5  -3   2   15.08    0.54
   5  -3  -2   15.03    0.53
   5  -3  -2   15.31    0.52
  -5  -3   2   14.87    0.63
   5  -3  -2   17.13    0.45
  -5  -3   2   15.64    0.47
   5   3  -2   15.47    0.48
   5   3  -2   14.69    0.40
   5   3  -2   15.68    0.60
  -5   3   2   14.59    0.45
   5   3  -2   15.79    0.54
  -5   3   2   15.39    0.46
   5   3  -2   15.87    0.56
  -5   3   2   15.36    0.73
  -5   3   2   14.92    0.52
  -5   3   2   14.98    0.53
  -3  -3   2    2.36    0.13
   3  -3  -2    2.38    0.19
  -3  -3   2    2.26    0.18
   3  -3  -2    2.31    0.20
   3  -3  -2    2.46    0.16
  -3  -3   2    2.61    0.16
   3  -3  -2    2.47    0.20
  -3   3   2    2.30    0.16
   3   3  -2    2.30    0.18
   3   3  -2    2.48    0.17
  -3   3   2    2.60    0.22
  -3   3   2    2.48    0.15
   3   3  -2    2.89    0.16
   3   3  -2    2.41    0.13
  -3   3   2    2.89    0.16
   3   3  -2    2.71    0.18
  -3   3   2    2.56    0.16
   1  -3  -2  148.21    2.68
   1  -3  -2  143.50    2.59
   1  -3  -2  143.90    2.63
   1  -3  -2  143.53    2.55
  -1   3   2  143.89    2.53
   1   3  -2  147.44    2.53
  -1   3   2  145.95    2.55
   1   3  -2  149.05    2.56
  -1   3   2  143.69    2.51
   1   3  -2  142.75    2.57
   1   3  -2  151.12    2.59
  -1   3   2  148.59    2.85
  -1   3   2  151.18    2.55
  -1   3   2  142.33    2.45
   1   3  -2  145.23    2.56
  -1  -3  -2   20.59    0.49
  -1  -3  -2   19.59    0.58
  -1  -3  -2   20.68    0.55
   1  -3   2   20.25    0.44
  -1  -3  -2   19.74    0.63
   1  -3   2   20.22    0.46
  -1  -3  -2   20.74    0.59
   1  -3   2   20.30    0.51
   1   3   2   21.00    0.56
   1   3   2   21.13    0.56
  -1   3  -2   20.30    0.48
  -1   3  -2   19.87    0.64
  -1   3  -2   20.62    0.56
   1   3   2   19.72    0.46
   1   3   2   20.58    0.49
  -3  -3  -2    0.30    0.13
  -3  -3  -2    0.20    0.08
   3  -3   2    0.47    0.11
   3  -3   2    0.20    0.10
  -3  -3  -2    0.16    0.08
  -3  -3  -2    0.41    0.10
  -3  -3  -2    0.21    0.09
  -3   3  -2    0.58    0.12
  -3   3  -2    0.33    0.11
   3   3   2    0.26    0.08
  -3   3  -2    0.14    0.09
   3   3   2    0.41    0.11
  -3   3  -2    0.25    0.07
   3   3   2    0.13    0.07
   3   3   2    0.13    0.07
  -3   3  -2    0.15    0.08
  -5  -3  -2    0.96    0.18
  -5  -3  -2    0.23    0.10
  -5  -3  -2    0.74    0.16
  -5  -3  -2    0.24    0.14
  -5  -3  -2    0.44    0.16
  -5  -3  -2    0.37    0.19
   5  -3   2    0.35    0.14
   5  -3   2    0.48    0.14
  -5   3  -2    0.31    0.14
  -5   3  -2    0.40    0.17
  -5   3  -2    0.36    0.16
  -5   3  -2    0.35    0.13
   5   3   2    0.22    0.15
   5   3   2    0.67    0.17
   5   3   2    0.29    0.09
   5   3   2    0.45    0.13
  -5   3  -2    0.20    0.09
   7  -3   2   13.75    0.60
  -7  -3  -2   13.12    0.64
   7  -3   2   12.90    0.58
   7  -3   2   12.18    0.68
  -7  -3  -2   13.50    0.79
  -7  -3  -2   12.38    0.64
   7   3   2   12.45    0.72
  -7   3  -2   13.50    0.82
   7   3   2   12.53    0.60
   7   3   2   12.75    0.62
  -7   3  -2   12.49    0.70
  -7   3  -2   13.43    0.71
   9  -3   2    0.58    0.22
   9  -3   2    0.30    0.27
  -9  -3  -2    1.08    0.38
   9   3   2    0.53    0.28
   9   3   2    0.43    0.18
  -9   3  -2    0.91    0.32
  -9   3  -2    1.04    0.30
   9   3   2    0.46    0.18
 -10  -4   2    4.29    0.55
  10  -4  -2    4.49    0.52
 -10  -4   2    2.99    0.39
  10  -4  -2    4.63    0.46
 -10  -4   2    4.87    0.45
  10   4  -2    3.78    0.48
  10   4  -2    5.22    0.64
 -10   4   2    4.40    0.53
 -10   4   2    5.85    0.60
  -8  -4   2  238.99    5.30
  -8  -4   2  257.52    4.75
   8  -4  -2  264.81    4.94
  -8  -4   2  262.68    5.02
  -8  -4   2  262.39    4.97
  -8  -4   2  262.43    4.84
   8  -4  -2  267.46    4.94
   8   4  -2  256.69    5.16
  -8   4   2  264.58    4.95
  -8   4   2  264.27    4.94
  -8   4   2  260.60    5.23
   8   4  -2  251.65    4.76
   8   4  -2  260.83    4.98
   6  -4  -2   38.29    1.06
  -6  -4   2   40.47    1.10
  -6  -4   2   37.89    1.21
  -6  -4   2   39.86    1.14
   6  -4  -2   40.13    1.11
   6  -4  -2   38.89    1.02
  -6  -4   2   39.33    1.04
  -6  -4   2   39.17    0.95
   6   4  -2   39.77    1.21
   6   4  -2   39.90    1.00
  -6   4   2   39.46    0.97
  -6   4   2   38.50    1.39
   6   4  -2   40.04    1.07
  -6   4   2   39.13    1.05
  -6   4   2   40.18    1.09
   6   4  -2   41.14    1.13
  -6   4   2   37.96    0.93
   4  -4  -2  669.15   11.86
  -4  -4   2  649.36   11.99
   4  -4  -2  653.66   11.96
   4  -4  -2  659.05   12.16
  -4  -4   2  673.87   11.21
  -4  -4   2  685.11   12.94
   4  -4  -2  672.27   11.96
  -4  -4   2  668.91   12.22
   4   4  -2  657.89   12.25
  -4   4   2  681.93   11.90
  -4   4   2  640.14   11.58
   4   4  -2  668.78   12.08
   4   4  -2  653.88   11.76
   4   4  -2  679.31   11.84
  -4   4   2  654.48   13.09
  -4   4   2  665.21   12.00
  -4   4   2  663.28   11.83
  -2  -4   2   50.62    1.04
   2  -4  -2   51.74    1.17
  -2  -4   2   52.99    1.17
   2  -4  -2   51.33    1.16
  -2  -4   2   51.31    0.95
   2  -4  -2   51.68    1.11
  -2  -4   2   53.01    1.08
   2  -4  -2   50.61    1.06
   2  -4  -2   50.04    1.11
  -2   4   2   51.56    1.10
   2   4  -2   51.90    1.00
  -2   4   2   50.58    1.08
   2   4  -2   50.08    1.12
   2   4  -2   52.07    1.07
  -2   4   2   51.64    0.98
   2   4  -2   49.97    1.05
   2   4  -2   52.09    1.11
  -2   4   2   51.25    1.08
  -2   4   2   51.98    1.15
   0  -4  -2  508.53    8.42
   0  -4  -2  489.20    9.53
   0  -4  -2  491.59    9.19
   0  -4  -2  517.65    9.29
   0  -4   2  497.50    9.56
   0   4  -2  503.30    9.30
   0   4   2  508.23    8.99
   0   4   2  512.47    9.31
   0   4  -2  506.54    9.10
   0   4   2  529.75    9.12
   0   4  -2  520.35    9.38
   0   4   2  505.78    9.25
   0   4  -2  506.63    8.87
   0   4   2  513.61    8.70
   2  -4   2    3.08    0.22
  -2  -4  -2    3.79    0.31
  -2  -4  -2    2.85    0.22
  -2  -4  -2    2.85    0.26
  -2  -4  -2    2.80    0.15
   2  -4   2    2.80    0.07
   2  -4   2    3.65    0.23
  -2  -4  -2    2.98    0.25
   2   4   2    3.18    0.20
  -2   4  -2    3.00    0.24
   2   4   2    3.27    0.24
   2   4   2    3.05    0.22
   2   4   2    2.58    0.18
  -2   4  -2    3.16    0.17
  -2   4  -2    2.85    0.26
   2   4   2    3.19    0.24
   4  -4   2  187.95    3.49
   4  -4   2  185.71    3.37
  -4  -4  -2  185.77    3.50
  -4  -4  -2  184.20    3.61
  -4  -4  -2  183.88    3.58
  -4  -4  -2  183.31    3.35
   4   4   2  185.59    3.31
  -4   4  -2  179.97    3.21
   4   4   2  182.12    3.40
  -4   4  -2  186.29    3.40
  -4   4  -2  182.53    3.75
  -4   4  -2  184.26    3.49
   4   4   2  177.07    3.57
  -4   4  -2  181.02    3.52
   4   4   2  183.60    3.49
  -6  -4  -2    5.66    0.39
  -6  -4  -2    5.56    0.43
  -6  -4  -2    5.45    0.51
  -6  -4  -2    5.89    0.45
   6  -4   2    5.48    0.43
   6  -4   2    5.41    0.35
   6  -4   2    5.23    0.38
   6   4   2    5.82    0.48
  -6   4  -2    5.01    0.44
  -6   4  -2    5.82    0.53
   6   4   2    5.17    0.41
   6   4   2    5.35    0.38
   8  -4   2  102.94    2.32
  -8  -4  -2  104.84    2.74
   8  -4   2  106.24    2.57
  -8   4  -2  105.62    2.92
   8   4   2  104.95    2.69
  -8   4  -2  102.31    2.62
   8   4   2  103.61    2.39
   8   4   2  103.86    2.47
  11  -5  -2    6.26    0.60
  11  -5  -2    6.18    0.61
 -11  -5   2    7.20    0.72
 -11   5   2    6.49    0.65
 -11   5   2    6.61    0.70
  11   5  -2    6.47    0.57
   9  -5  -2   54.88    1.58
  -9  -5   2   51.60    1.61
   9  -5  -2   53.25    1.59
  -9  -5   2   51.31    1.49
  -9  -5   2   54.97    1.66
   9   5  -2   53.97    1.64
  -9   5   2   53.00    1.61
   9   5  -2   52.45    1.79
  -9   5   2   54.19    1.84
   7  -5  -2   30.14    1.01
  -7  -5   2   29.81    0.84
  -7  -5   2   30.95    0.98
   7  -5  -2   31.00    1.00
  -7  -5   2   29.49    1.05
  -7  -5   2   29.96    1.03
   7  -5  -2   29.01    0.89
  -7   5   2   30.21    1.01
  -7   5   2   30.95    0.99
   7   5  -2   29.99    1.05
  -7   5   2   28.84    0.90
   7   5  -2   29.88    0.94
  -7   5   2   30.38    1.38
   7   5  -2   29.17    1.13
  -5  -5   2   46.14    0.99
   5  -5  -2   45.86    1.16
  -5  -5   2   50.25    1.20
  -5  -5   2   47.92    1.29
   5  -5  -2   45.88    1.01
   5  -5  -2   45.72    1.16
  -5  -5   2   46.27    1.16
   5  -5  -2   46.38    1.22
   5   5  -2   45.74    1.19
   5   5  -2   44.54    1.05
  -5   5   2   46.33    1.12
   5   5  -2   47.96    1.25
  -5   5   2   45.92    1.12
  -5   5   2   45.10    1.45
   5   5  -2   45.59    1.13
  -5   5   2   46.40    1.19
   3  -5  -2  128.18    2.46
  -3  -5   2  126.23    2.21
  -3  -5   2  131.51    2.58
   3  -5  -2  127.61    2.53
  -3  -5   2  129.44    2.44
   3  -5  -2  129.72    2.33
  -3  -5   2  131.02    2.39
  -3  -5   2  125.94    2.38
   3  -5  -2  129.23    2.50
  -3   5   2  130.31    2.45
  -3   5   2  130.16    2.33
  -3   5   2  128.60    2.45
   3   5  -2  127.02    2.39
   3   5  -2  129.81    2.49
   3   5  -2  124.08    2.48
  -3   5   2  131.92    2.62
  -3   5   2  129.16    2.43
  -1  -5   2    4.74    0.20
   1  -5  -2    4.95    0.34
   1  -5  -2    4.67    0.31
  -1  -5   2    4.48    0.23
   1  -5  -2    5.04    0.28
  -1  -5   2    4.73    0.27
  -1  -5   2    5.15    0.25
   1   5  -2    5.26    0.24
  -1   5   2    4.90    0.21
   1   5  -2    5.25    0.28
  -1   5   2    5.15    0.26
  -1   5   2    4.81    0.27
  -1   5   2    5.08    0.24
   1   5  -2    5.54    0.25
   1   5  -2    5.26    0.28
  -1   5   2    4.96    0.26
  -1  -5  -2   80.42    1.72
   1  -5   2   79.04    1.58
   1  -5   2   82.58    1.64
   1  -5   2   81.11    1.55
  -1  -5  -2   82.25    1.85
   1  -5   2   80.47    1.46
  -1  -5  -2   80.01    1.72
  -1  -5  -2   80.43    1.67
  -1   5  -2   82.51    1.71
   1   5   2   81.70    1.69
  -1   5  -2   82.69    1.81
   1   5   2   78.90    1.60
  -1   5  -2   82.25    1.66
   1   5   2   79.71    1.62
   1   5   2   84.97    1.49
   1   5   2   80.66    1.50
  -1   5  -2   79.90    1.53
   1   5   2   79.17    1.46
   3  -5   2   14.28    0.55
  -3  -5  -2   15.40    0.62
   3  -5   2   14.48    0.57
  -3  -5  -2   14.39    0.62
  -3  -5  -2   14.81    0.56
  -3  -5  -2   15.69    0.68
  -3   5  -2   15.06    0.58
  -3   5  -2   14.21    0.58
   3   5   2   14.69    0.51
   3   5   2   15.69    0.61
   3   5   2   14.15    0.53
  -3   5  -2   14.58    0.69
  -3   5  -2   14.12    0.42
   5  -5   2    2.75    0.27
  -5  -5  -2    2.56    0.34
  -5  -5  -2    2.76    0.26
   5  -5   2    2.71    0.34
  -5  -5  -2    3.50    0.43
  -5  -5  -2    3.31    0.38
  -5   5  -2    2.63    0.33
  -5   5  -2    3.01    0.43
   5   5   2    2.76    0.37
   5   5   2    2.63    0.22
  -5   5  -2    2.85    0.30
   5   5   2    2.88    0.29
   5   5   2    2.60    0.33
  -7  -5  -2   18.04    0.87
  -7  -5  -2   17.45    0.82
   7  -5   2   17.57    0.72
  -7  -5  -2   17.39    0.90
   7  -5   2   18.19    0.86
   7  -5   2   16.84    0.71
  -7   5  -2   17.59    0.88
   7   5   2   18.24    0.77
  -7   5  -2   16.84    1.01
   7   5   2   17.34    0.91
   7   5   2   16.75    0.81
   9  -5   2    0.57    0.30
   9  -5   2    0.48    0.22
  -9  -5  -2    0.69    0.37
  -9   5  -2    0.55    0.29
   9   5   2    1.15    0.32
   9   5   2    0.66    0.26
 -10  -6   2   99.58    2.65
 -10  -6   2   98.05    2.45
  10  -6  -2  100.36    2.52
  10  -6  -2   99.50    2.51
 -10   6   2  101.50    2.58
 -10   6   2  101.39    2.92
  10   6  -2   98.18    2.55
   8  -6  -2    1.44    0.27
   8  -6  -2    1.94    0.35
  -8  -6   2    1.29    0.29
  -8  -6   2    1.52    0.34
  -8  -6   2    1.87    0.32
   8   6  -2    1.23    0.29
  -8   6   2    1.70    0.39
  -8   6   2    2.13    0.34
  -8   6   2    1.35    0.32
   6  -6  -2  167.81    3.28
   6  -6  -2  163.26    3.22
  -6  -6   2  167.20    3.28
  -6  -6   2  164.54    3.29
   6  -6  -2  166.48    3.34
  -6  -6   2  162.97    3.43
  -6   6   2  162.23    3.22
   6   6  -2  160.69    3.23
  -6   6   2  165.20    3.34
   6   6  -2  166.23    3.39
  -6   6   2  163.51    3.18
  -4  -6   2    2.95    0.29
   4  -6  -2    2.70    0.30
   4  -6  -2    3.20    0.27
   4  -6  -2    3.40    0.34
  -4  -6   2    2.96    0.28
  -4  -6   2    2.96    0.25
  -4   6   2    3.24    0.27
  -4   6   2    2.92    0.33
  -4   6   2    2.79    0.22
  -4   6   2    3.45    0.28
   4   6  -2    3.10    0.24
   4   6  -2    2.69    0.28
  -2  -6   2  346.72    6.26
  -2  -6   2  339.34    5.84
   2  -6  -2  347.29    5.94
   2  -6  -2  343.48    6.10
   2  -6  -2  346.57    6.13
  -2  -6   2  350.98    6.14
   2  -6  -2  336.02    6.03
  -2  -6   2  341.43    5.96
   2   6  -2  340.00    5.99
  -2   6   2  354.90    6.05
  -2   6   2  357.45    6.02
   2   6  -2  348.97    6.04
  -2   6   2  347.66    5.97
  -2   6   2  350.37    6.61
   0  -6   2   40.21    1.06
   0  -6  -2   40.73    0.92
   0  -6  -2   43.18    1.19
   0  -6   2   38.35    0.99
   0  -6   2   40.95    1.01
   0  -6  -2   39.99    1.05
   0  -6  -2   40.90    1.10
   0  -6   2   39.46    0.90
   0   6  -2   40.50    1.02
   0   6   2   40.26    1.05
   0   6   2   40.62    0.98
   0   6   2   42.43    1.05
   0   6  -2   40.47    1.03
   0   6  -2   40.10    0.91
   0   6   2   40.34    1.00
   0   6  -2   41.88    1.05
   0   6   2   39.98    0.90
   2  -6   2  420.92    7.20
  -2  -6  -2  415.39    7.36
  -2  -6  -2  421.33    7.40
  -2  -6  -2  432.96    7.62
   2  -6   2  425.74    7.30
  -2  -6  -2  432.77    7.44
  -2   6  -2  414.01    7.55
   2   6   2  423.98    7.28
   2   6   2  426.77    7.41
   2   6   2  427.38    7.26
  -2   6  -2  421.54    7.09
  -2   6  -2  430.72    7.40
  -4  -6  -2   36.74    1.22
  -4  -6  -2   36.91    1.05
  -4  -6  -2   37.09    1.15
   4  -6   2   36.18    1.04
   4  -6   2   36.44    1.11
  -4  -6  -2   36.44    1.15
   4   6   2   36.25    0.96
  -4   6  -2   35.39    1.10
   4   6   2   35.44    1.04
  -4   6  -2   36.55    1.30
   4   6   2   36.05    1.13
   6  -6   2  198.49    3.97
  -6  -6  -2  193.57    4.10
   6  -6   2  191.13    3.77
  -6  -6  -2  195.26    3.96
  -6  -6  -2  194.26    4.09
   6   6   2  192.69    4.00
  -6   6  -2  192.08    4.35
  -6   6  -2  198.59    4.05
  -6   6  -2  194.36    3.96
   8  -6   2    6.93    0.52
   8  -6   2    7.65    0.64
  -8  -6  -2    6.62    0.67
  -8  -6  -2    8.35    0.64
  -8   6  -2    7.14    0.77
   8   6   2    6.50    0.53
   8   6   2    6.81    0.55
   9  -7  -2    4.49    0.55
   9  -7  -2    3.48    0.43
  -9  -7   2    5.18    0.57
  -9  -7   2    5.45    0.54
  -9   7   2    3.21    0.54
   9   7  -2    3.48    0.50
  -9   7   2    3.57    0.46
   7  -7  -2    0.33    0.20
  -7  -7   2    0.03    0.18
  -7  -7   2    0.19    0.16
  -7  -7   2    0.63    0.25
   7  -7  -2    0.02    0.18
   7   7  -2    0.32    0.21
  -7   7   2    0.16    0.16
  -7   7   2    0.13    0.15
  -7   7   2    0.17    0.14
  -7   7   2    0.24    0.16
   7   7  -2    0.08    0.10
   5  -7  -2    0.20    0.17
  -5  -7   2    0.07    0.12
  -5  -7   2    0.65    0.20
  -5  -7   2    1.02    0.21
   5  -7  -2    0.16    0.12
   5  -7  -2    0.26    0.17
  -5   7   2    0.05    0.14
   5   7  -2    0.43    0.14
  -5   7   2    0.04    0.10
   5   7  -2    0.52    0.19
  -5   7   2    0.30    0.15
   3  -7  -2   12.67    0.62
   3  -7  -2   12.54    0.60
  -3  -7   2   12.86    0.54
   3  -7  -2   11.81    0.54
  -3  -7   2   13.52    0.64
  -3  -7   2   13.19    0.48
  -3   7   2   12.20    0.53
   3   7  -2   13.05    0.59
  -3   7   2   12.75    0.54
   3   7  -2   12.30    0.52
  -3   7   2   13.17    0.56
  -1  -7   2    0.90    0.18
  -1  -7   2    0.60    0.13
   1  -7  -2    1.01    0.23
   1  -7  -2    0.81    0.22
  -1  -7   2    0.50    0.15
   1  -7  -2    1.41    0.23
   1  -7  -2    1.24    0.21
   1   7  -2    0.67    0.15
   1   7  -2    0.79    0.16
  -1   7   2    0.41    0.14
  -1   7   2    0.70    0.18
  -1   7   2    1.30    0.17
  -1   7   2    0.57    0.13
  -1  -7  -2   24.41    0.94
  -1  -7  -2   25.24    0.88
  -1  -7  -2   23.97    0.74
  -1  -7  -2   24.23    0.85
   1  -7   2   23.92    0.75
   1  -7   2   24.40    0.79
   1  -7   2   23.78    0.70
  -1   7  -2   24.90    0.83
  -1   7  -2   23.82    0.84
   1   7   2   24.39    0.76
  -1   7  -2   24.73    0.66
   1   7   2   24.35    0.77
   1   7   2   24.17    0.82
   1   7   2   25.21    0.84
   3  -7   2    8.14    0.48
  -3  -7  -2    8.02    0.53
  -3  -7  -2    9.02    0.59
   3  -7   2    8.21    0.46
  -3  -7  -2    7.78    0.49
  -3  -7  -2    7.72    0.47
   3   7   2    7.71    0.50
   3   7   2    8.23    0.46
  -3   7  -2    8.02    0.50
  -3   7  -2    8.18    0.55
   3   7   2    7.71    0.41
   5  -7   2    8.45    0.54
  -5  -7  -2    8.04    0.64
  -5  -7  -2    8.40    0.60
  -5  -7  -2    8.16    0.51
  -5  -7  -2    8.22    0.60
   5  -7   2    8.46    0.54
   5   7   2    8.06    0.55
  -5   7  -2    8.42    0.57
  -5   7  -2    7.83    0.67
   5   7   2    7.63    0.51
   7  -7   2   22.22    0.98
  -7  -7  -2   20.33    1.04
  -7  -7  -2   22.27    1.03
   7  -7   2   21.10    0.87
   7  -7   2   22.05    0.86
  -7  -7  -2   24.28    1.13
  -7   7  -2   21.83    0.97
  -7   7  -2   20.59    1.17
   7   7   2   21.75    0.99
   7   7   2   21.83    0.93
   8  -8  -2   28.42    1.14
  -8  -8   2   28.84    1.15
   8  -8  -2   30.61    1.15
   8   8  -2   28.27    1.20
  -8   8   2   30.33    1.38
  -6  -8   2  146.35    3.09
   6  -8  -2  148.28    3.10
  -6  -8   2  146.15    3.13
  -6  -8   2  150.61    3.36
   6  -8  -2  146.55    3.16
  -6   8   2  142.96    3.06
  -6   8   2  142.56    3.19
  -6   8   2  147.49    3.39
   6   8  -2  148.98    3.26
  -4  -8   2   58.89    1.65
   4  -8  -2   57.81    1.56
   4  -8  -2   56.52    1.45
   4  -8  -2   59.12    1.57
  -4  -8   2   54.87    1.38
  -4  -8   2   58.43    1.49
  -4   8   2   57.33    1.51
   4   8  -2   54.82    1.45
  -4   8   2   59.10    1.54
   4   8  -2   59.91    1.59
  -2  -8   2  174.97    3.56
   2  -8  -2  171.56    3.28
   2  -8  -2  171.40    3.44
   2  -8  -2  166.95    3.48
  -2  -8   2  171.74    3.33
   2  -8  -2  177.73    3.56
  -2  -8   2  178.45    3.52
   2   8  -2  175.67    3.45
  -2   8   2  177.14    3.47
  -2   8   2  176.45    3.40
   2   8  -2  177.76    3.44
  -2   8   2  175.32    3.34
   0  -8  -2   46.80    1.25
   0  -8  -2   46.17    1.28
   0  -8  -2   45.94    1.37
   0  -8  -2   45.75    1.43
   0  -8   2   47.06    1.26
   0  -8   2   44.86    1.23
   0   8  -2   45.38    1.27
   0   8   2   45.51    1.30
   0   8  -2   45.90    1.24
   0   8   2   45.94    1.22
   0   8   2   45.18    1.21
  -2  -8  -2   85.54    2.06
   2  -8   2   85.41    1.94
  -2  -8  -2   84.92    2.21
   2  -8   2   79.03    1.83
  -2  -8  -2   84.67    2.03
   2   8   2   83.48    2.02
   2   8   2   87.00    1.89
   2   8   2   83.56    2.02
   2   8   2   82.74    1.91
  -2   8  -2   82.10    1.98
  -2   8  -2   79.81    2.05
  -4  -8  -2   25.41    0.98
  -4  -8  -2   24.99    0.98
  -4  -8  -2   26.46    1.13
   4  -8   2   25.62    0.99
   4  -8   2   25.37    0.96
  -4  -8  -2   27.55    1.06
   4   8   2   26.82    1.02
  -4   8  -2   26.57    1.16
   4   8   2   26.03    1.04
   4   8   2   27.50    0.88
   4   8   2   24.49    0.93
  -4   8  -2   24.73    0.99
   6  -8   2   40.79    1.37
  -6  -8  -2   39.73    1.43
  -6  -8  -2   42.13    1.48
  -6  -8  -2   41.85    1.54
  -6  -8  -2   40.91    1.30
   6  -8   2   42.55    1.32
   6   8   2   43.13    1.40
   6   8   2   40.07    1.45
  -6   8  -2   41.23    1.41
   6   8   2   40.55    1.34
  -6   8  -2   41.54    1.70
   8  -8   2   28.49    1.21
  -8  -8  -2   27.03    1.21
  -8  -8  -2   28.23    1.31
   8   8   2   26.75    1.20
  -8   8  -2   26.40    1.41
   9  -9  -2    1.19    0.34
  -9  -9   2    1.22    0.32
  -9  -9   2    1.17    0.39
   9  -9  -2    0.69    0.27
  -9  -9   2    1.18    0.30
   9   9  -2    0.93    0.35
  -9   9   2    0.81    0.35
  -7  -9   2    1.14    0.27
   7  -9  -2    0.63    0.31
  -7  -9   2    1.08    0.32
   7  -9  -2    0.53    0.25
  -7  -9   2    1.10    0.31
  -7  -9   2    0.72    0.34
  -7   9   2    0.30    0.21
  -7   9   2    0.61    0.27
   7   9  -2    0.27    0.25
  -7   9   2    0.24    0.16
   5  -9  -2    0.53    0.20
  -5  -9   2    0.61    0.26
   5  -9  -2    0.63    0.24
  -5  -9   2    0.96    0.27
   5  -9  -2    0.49    0.28
  -5  -9   2    0.60    0.22
  -5   9   2    1.71    0.30
  -5   9   2    0.60    0.22
   5   9  -2    1.37    0.29
   5   9  -2    0.53    0.18
  -5   9   2    0.55    0.19
  -3  -9   2    0.33    0.18
  -3  -9   2    1.16    0.25
   3  -9  -2    0.38    0.25
  -3  -9   2    0.40    0.21
   3  -9  -2    0.42    0.24
   3   9  -2    0.06    0.16
   3   9  -2    0.68    0.20
  -3   9   2    0.43    0.17
  -3   9   2    0.67    0.22
   1  -9  -2    7.49    0.48
  -1  -9   2    6.88    0.41
  -1  -9   2    7.09    0.51
  -1  -9   2    6.68    0.49
   1  -9  -2    6.97    0.51
   1  -9  -2    6.52    0.57
   1  -9  -2    6.23    0.54
  -1   9   2    6.11    0.44
  -1   9   2    6.86    0.40
  -1   9   2    6.82    0.50
   1   9  -2    7.15    0.49
   1   9  -2    7.07    0.49
  -1   9   2    7.35    0.47
  -1  -9  -2    0.24    0.21
  -1  -9  -2    0.13    0.16
   1  -9   2    0.28    0.21
  -1  -9  -2    0.04    0.19
   1  -9   2    0.11    0.16
   1   9   2    0.54    0.16
   1   9   2    0.45    0.20
  -1   9  -2   -0.05    0.15
   1   9   2    0.28    0.16
  -3  -9  -2    4.32    0.49
  -3  -9  -2    4.40    0.51
   3  -9   2    4.71    0.43
   3  -9   2    4.18    0.45
  -3  -9  -2    4.29    0.48
  -3   9  -2    4.95    0.49
  -3   9  -2    4.22    0.41
   3   9   2    4.87    0.46
   3   9   2    4.20    0.37
   3   9   2    4.34    0.41
   3   9   2    4.10    0.42
  -5  -9  -2    5.79    0.63
  -5  -9  -2    6.16    0.56
   5  -9   2    5.46    0.48
  -5  -9  -2    5.50    0.60
   5  -9   2    5.47    0.50
  -5  -9  -2    5.43    0.52
   5   9   2    5.91    0.53
   5   9   2    4.79    0.47
  -5   9  -2    5.26    0.61
  -5   9  -2    5.91    0.52
   5   9   2    5.87    0.52
  -7  -9  -2    0.39    0.32
  -7  -9  -2    0.26    0.28
   7  -9   2    0.35    0.20
   7  -9   2    0.70    0.26
   7  -9   2    0.45    0.26
  -7   9  -2    0.31    0.30
   7   9   2    0.47    0.26
  -7   9  -2    0.32    0.27
  -8 -10   2   52.84    1.73
  -8 -10   2   54.51    1.72
   8 -10  -2   52.18    1.64
  -8  10   2   52.76    1.95
   8  10  -2   52.21    1.80
   6 -10  -2    8.69    0.69
  -6 -10   2   10.07    0.70
   6 -10  -2    8.86    0.59
  -6 -10   2    9.09    0.67
  -6  10   2    8.21    0.61
   6  10  -2    8.65    0.68
  -6  10   2    8.51    0.68
  -6  10   2    8.09    0.83
  -4 -10   2   99.46    2.48
  -4 -10   2   96.78    2.56
  -4 -10   2   94.26    2.33
   4 -10  -2  103.39    2.49
   4 -10  -2   98.45    2.32
   4 -10  -2  100.36    2.48
   4  10  -2   97.98    2.46
   4  10  -2   95.39    2.36
  -4  10   2   98.64    2.39
  -4  10   2  100.81    2.41
  -2 -10   2   12.31    0.72
   2 -10  -2   10.88    0.68
   2 -10  -2   11.87    0.72
   2 -10  -2   11.53    0.75
  -2 -10   2   12.49    0.62
  -2 -10   2   11.36    0.71
  -2  10   2   10.97    0.64
   2  10  -2   11.85    0.66
   2  10  -2   11.47    0.66
  -2  10   2   12.11    0.61
   0 -10   2  162.36    3.42
   0 -10  -2  165.72    3.64
   0 -10  -2  163.86    3.43
   0 -10  -2  161.14    3.42
   0 -10  -2  156.07    3.63
   0 -10   2  163.88    3.41
   0  10   2  163.66    3.37
   0  10   2  164.11    3.50
   0  10  -2  157.51    3.43
   0  10  -2  159.38    3.38
   0  10   2  158.61    3.34
  -2 -10  -2   11.62    0.74
   2 -10   2   12.33    0.66
  -2 -10  -2   10.96    0.77
  -2 -10  -2   11.44    0.72
   2 -10   2   11.23    0.66
   2  10   2   11.81    0.67
  -2  10  -2   11.83    0.71
   2  10   2   10.92    0.70
   2  10   2   11.36    0.62
   4 -10   2  153.31    3.37
  -4 -10  -2  156.74    3.49
   4 -10   2  162.17    3.49
  -4 -10  -2  159.56    3.56
  -4 -10  -2  149.34    3.70
   4  10   2  147.16    3.47
   4  10   2  154.81    3.38
  -4  10  -2  157.26    3.49
   6 -10   2    4.24    0.50
  -6 -10  -2    4.84    0.62
  -6 -10  -2    4.80    0.52
   6 -10   2    4.69    0.58
   6  10   2    5.74    0.64
  -6  10  -2    3.76    0.62
  -6  10  -2    4.70    0.51
   7 -11  -2   11.81    0.76
  -7 -11   2   10.59    0.74
   7 -11  -2   11.58    0.82
  -7 -11   2   12.78    0.80
  -7  11   2   10.81    0.73
   7  11  -2    9.77    0.80
   5 -11  -2   14.24    0.88
   5 -11  -2   14.40    0.84
   5 -11  -2   15.36    0.81
  -5 -11   2   15.56    0.82
  -5 -11   2   15.26    0.87
  -5  11   2   15.16    0.85
   5  11  -2   14.38    0.88
  -3 -11   2   10.28    0.75
  -3 -11   2   11.68    0.77
  -3 -11   2   12.04    0.69
   3 -11  -2   11.16    0.72
   3 -11  -2   10.33    0.77
   3  11  -2   10.03    0.66
  -3  11   2   11.33    0.67
  -3  11   2   10.98    0.72
   3  11  -2   11.96    0.76
   1 -11  -2   21.03    1.05
  -1 -11   2   22.19    0.98
   1 -11  -2   23.20    1.13
  -1 -11   2   21.89    0.99
   1 -11  -2   22.17    1.01
   1  11  -2   22.49    0.99
   1  11  -2   23.39    1.02
  -1  11   2   20.42    0.97
  -1 -11  -2    9.54    0.79
  -1 -11  -2   11.22    0.81
  -1 -11  -2   11.09    0.71
   1 -11   2    9.91    0.67
   1 -11   2    9.92    0.70
  -1 -11  -2   10.07    0.72
   1  11   2   10.57    0.65
  -1  11  -2   10.51    0.71
   1  11   2   10.58    0.73
   1  11   2   10.05    0.65
  -3 -11  -2   14.46    0.89
   3 -11   2   14.12    0.83
   3 -11   2   13.75    0.83
  -3 -11  -2   14.99    0.92
  -3  11  -2   13.72    0.84
   3  11   2   13.27    0.77
   3  11   2   13.92    0.83
  -5 -11  -2    9.29    0.80
  -5 -11  -2    9.05    0.73
   5 -11   2    9.10    0.67
   5 -11   2    8.64    0.70
   5  11   2    9.37    0.71
  -5  11  -2    9.49    0.71
   6 -12  -2   82.27    2.23
  -6 -12   2   84.22    2.38
  -6 -12   2   84.51    2.32
   6 -12  -2   84.32    2.33
  -6  12   2   81.40    2.28
   6  12  -2   78.77    2.37
   4 -12  -2   10.27    0.79
  -4 -12   2   11.78    0.76
   4 -12  -2   12.44    0.86
  -4 -12   2   11.66    0.83
   4  12  -2   10.46    0.71
   4  12  -2   10.94    0.80
  -4  12   2   10.81    0.77
  -2 -12   2   88.26    2.43
   2 -12  -2   85.72    2.50
   2 -12  -2   93.96    2.46
   2  12  -2   89.70    2.40
   2  12  -2   88.56    2.38
  -2  12   2   86.42    2.39
   0 -12  -2   15.11    0.87
   0 -12   2   15.58    0.85
   0 -12  -2   12.44    0.86
   0 -12  -2   16.05    1.02
   0 -12   2   14.30    0.86
   0  12  -2   14.45    0.86
   0  12   2   14.27    0.83
  -2 -12  -2   59.59    1.80
  -2 -12  -2   60.87    2.01
   2 -12   2   59.76    1.82
  -2 -12  -2   60.96    1.90
   2  12   2   58.66    1.79
   2  12   2   58.27    1.92
  -2  12  -2   58.52    1.88
   4 -12   2   16.89    0.95
   4 -12   2   16.79    0.91
  -4 -12  -2   17.64    0.98
  -4 -12  -2   16.52    1.00
  -4  12  -2   14.94    0.93
   4  12   2   15.60    0.92
  -3 -13   2    3.27    0.50
   3 -13  -2    2.42    0.44
   3 -13  -2    3.26    0.54
  -3  13   2    3.62    0.55
   3  13  -2    2.97    0.49
   3  13  -2    2.76    0.44
   1 -13  -2    3.87    0.56
  -1 -13   2    4.40    0.59
   1 -13  -2    4.85    0.71
  -1 -13   2    4.26    0.56
  -1  13   2    5.03    0.59
   1  13  -2    4.11    0.56
  -1 -13  -2    2.39    0.54
  -1 -13  -2    2.69    0.48
   1 -13   2    2.36    0.49
   1 -13   2    1.96    0.44
   1  13   2    1.85    0.40
  -1  13  -2    1.49    0.38
  12   0  -3    0.05    0.24
 -12   0   3    0.25    0.28
  12   0  -3    0.04    0.23
 -12   0   3    0.51    0.29
 -10   0   3    0.15    0.22
  10   0  -3    0.31    0.18
  10   0  -3    0.15    0.21
  10   0  -3    0.06    0.18
 -10   0   3    0.20    0.20
 -10   0   3    0.15    0.16
   8   0  -3    0.40    0.18
  -8   0   3    0.01    0.09
  -8   0   3    0.06    0.10
   8   0  -3    0.17    0.11
  -8   0   3    0.12    0.08
  -8   0   3    0.03    0.12
   8   0  -3    0.03    0.08
  -8   0   3    0.26    0.16
  -6   0   3    0.14    0.08
  -6   0   3    0.12    0.09
  -6   0   3    0.06    0.05
   6   0  -3    0.07    0.08
  -6   0   3    0.09    0.09
   6   0  -3   -0.01    0.04
   6   0  -3   -0.04    0.09
  -4   0   3    0.29    0.07
   4   0  -3    0.00    0.05
   4   0  -3    0.15    0.05
  -4   0   3    0.09    0.04
   4   0  -3    0.05    0.05
   4   0  -3    0.04    0.05
  -4   0   3    0.26    0.10
   2   0  -3    0.16    0.07
  -2   0   3    0.17    0.06
   2   0  -3    0.08    0.03
  -2   0   3    0.23    0.05
   2   0  -3    0.02    0.04
   2   0  -3    0.08    0.05
   2   0  -3    0.19    0.05
   0   0  -3    0.07    0.06
   0   0  -3    0.02    0.04
   0   0   3    0.16    0.04
   0   0  -3    0.13    0.05
   0   0  -3    0.04    0.03
   0   0   3    0.06    0.03
   2   0   3    0.00    0.04
  -2   0  -3    0.01    0.06
   2   0   3    0.07    0.03
  -2   0  -3    0.12    0.09
   2   0   3    0.38    0.08
  -2   0  -3   -0.03    0.06
  -2   0  -3   -0.03    0.07
  -4   0  -3    0.52    0.19
  -4   0  -3    0.47    0.17
  -4   0  -3    0.12    0.08
   4   0   3    0.24    0.07
  -4   0  -3    0.07    0.11
   4   0   3   -0.01    0.06
   4   0   3    0.07    0.07
  -4   0  -3    0.03    0.08
   6   0   3    0.25    0.12
   6   0   3   -0.07    0.08
   6   0   3    0.67    0.19
  -6   0  -3   -0.01    0.10
  -6   0  -3    0.20    0.17
  -6   0  -3    0.13    0.20
  -8   0  -3    0.03    0.15
   8   0   3    0.00    0.15
   8   0   3    0.14    0.17
   8   0   3    0.17    0.18
  -8   0  -3   -0.40    0.21
 -11  -1   3   38.35    1.38
  11  -1  -3   39.22    1.41
  11  -1  -3   35.86    1.28
  11  -1  -3   37.04    1.34
 -11  -1   3   36.67    1.31
 -11   1   3   37.62    1.46
 -11   1   3   37.80    1.36
  11   1  -3   36.89    1.30
 -11   1   3   37.04    1.36
  11   1  -3   36.39    1.39
   9  -1  -3   76.75    1.95
  -9  -1   3   75.93    1.83
  -9  -1   3   79.46    1.98
  -9  -1   3   74.26    1.90
   9  -1  -3   75.60    1.94
  -9  -1   3   72.30    1.66
   9   1  -3   75.41    1.98
  -9   1   3   74.06    1.85
   9   1  -3   76.10    1.98
  -9   1   3   75.27    1.87
   9   1  -3   76.06    1.88
  -9   1   3   71.02    1.73
  -7  -1   3  138.88    2.69
  -7  -1   3  138.41    2.76
   7  -1  -3  138.77    2.81
   7  -1  -3  136.17    2.78
   7  -1  -3  137.98    2.60
  -7  -1   3  140.70    3.18
  -7  -1   3  136.96    2.55
   7   1  -3  140.83    2.66
  -7   1   3  139.24    2.71
   7   1  -3  137.59    2.85
   7   1  -3  143.78    2.79
  -7   1   3  140.61    2.73
  -7   1   3  137.34    3.21
   7   1  -3  140.19    2.85
  -7   1   3  138.18    2.65
   5  -1  -3  127.96    2.23
  -5  -1   3  131.82    2.46
   5  -1  -3  131.93    2.46
   5  -1  -3  132.32    2.40
   5  -1  -3  131.17    2.51
  -5  -1   3  134.30    2.74
  -5  -1   3  132.87    2.41
   5   1  -3  130.43    2.47
  -5   1   3  130.67    2.42
  -5   1   3  132.69    2.43
   5   1  -3  131.52    2.50
   5   1  -3  129.13    2.56
   5   1  -3  131.60    2.44
   5   1  -3  128.67    2.25
  -5   1   3  132.36    2.41
  -5   1   3  132.35    2.77
   3  -1  -3  503.43   10.11
   3  -1  -3  502.86    9.30
   3  -1  -3  494.17    9.07
   3  -1  -3  497.21    9.24
   3  -1  -3  521.95    9.14
  -3  -1   3  521.73    9.09
  -3  -1   3  521.71    9.91
   3  -1  -3  528.93    8.76
  -3  -1   3  494.43    8.78
   3   1  -3  530.44    9.22
   3   1  -3  528.32    8.98
   3   1  -3  501.97    9.14
   3   1  -3  490.39    9.23
  -3   1   3  531.71   10.40
   3   1  -3  509.15    9.18
   3   1  -3  527.40    9.36
  -3   1   3  504.52    9.13
  -3   1   3  506.66    8.56
  -3   1   3  509.52    9.09
   1  -1  -3  108.86    1.99
   1  -1  -3  109.63    2.02
   1  -1  -3  112.55    2.08
   1  -1  -3  110.93    2.06
  -1   1   3  109.70    1.91
   1   1  -3  112.32    2.09
  -1   1   3  108.31    1.97
   1   1  -3  111.97    1.95
   1   1  -3  107.73    1.97
  -1   1   3  111.92    2.13
   1   1  -3  115.34    1.91
   1   1  -3  111.33    1.96
  -1   1   3  107.63    1.95
   1  -1   3  396.88    7.25
  -1  -1  -3  409.83    7.89
  -1  -1  -3  419.42    7.39
   1  -1   3  407.65    7.47
  -1  -1  -3  398.83    7.34
  -1  -1  -3  408.48    7.18
  -1  -1  -3  414.36    7.45
  -1   1  -3  412.93    7.37
   1   1   3  397.39    7.02
  -1   1  -3  391.19    7.02
  -1   1  -3  399.44    7.13
   1   1   3  415.56    7.76
  -1   1  -3  413.59    7.57
  -1   1  -3  432.45    7.64
   1   1   3  407.88    7.50
   1   1   3  410.51    7.31
  -3  -1  -3  124.64    2.41
   3  -1   3  125.11    2.23
  -3  -1  -3  125.15    2.58
   3  -1   3  129.02    2.39
   3  -1   3  125.49    2.40
  -3  -1  -3  122.70    2.57
  -3  -1  -3  130.02    2.47
   3   1   3  126.37    2.43
   3   1   3  126.22    2.34
  -3   1  -3  123.49    2.29
  -3   1  -3  127.38    2.56
  -3   1  -3  129.82    2.27
  -3   1  -3  127.08    2.67
  -3   1  -3  121.62    2.51
   3   1   3  129.20    2.42
  -5  -1  -3   93.38    2.22
   5  -1   3   96.03    2.07
  -5  -1  -3   95.06    1.97
  -5  -1  -3   92.92    2.11
  -5  -1  -3   93.60    2.21
   5  -1   3   94.96    1.99
  -5  -1  -3   90.64    2.00
  -5   1  -3   94.98    2.32
   5   1   3   92.45    2.08
  -5   1  -3   95.43    2.21
   5   1   3   91.99    1.90
   5   1   3   94.10    2.01
   5   1   3   90.51    1.87
  -5   1  -3   92.47    2.14
   7  -1   3   74.97    1.95
  -7  -1  -3   73.97    2.12
  -7  -1  -3   78.24    2.10
   7  -1   3   77.41    1.84
   7  -1   3   72.28    1.66
  -7   1  -3   77.38    2.11
   7   1   3   75.40    1.98
  -7   1  -3   77.72    2.05
  -7   1  -3   77.18    2.21
   7   1   3   73.73    1.83
   7   1   3   73.89    1.75
  -9  -1  -3   29.89    1.35
   9  -1   3   28.52    1.21
   9  -1   3   27.96    1.04
  -9   1  -3   29.57    1.36
  -9   1  -3   27.31    1.23
   9   1   3   28.17    1.05
   9   1   3   27.87    1.21
 -12  -2   3   10.93    0.83
 -12  -2   3   10.43    0.69
  12  -2  -3   11.04    0.78
  12  -2  -3   10.15    0.71
 -12   2   3   10.50    0.81
 -12   2   3   11.21    0.80
  12   2  -3   10.89    0.75
 -10  -2   3   25.40    1.04
 -10  -2   3   23.71    0.94
  10  -2  -3   23.10    1.00
  10  -2  -3   24.80    1.03
 -10  -2   3   22.75    0.84
 -10   2   3   23.05    0.99
 -10   2   3   22.45    0.93
  10   2  -3   23.16    0.96
 -10   2   3   25.03    1.12
  10   2  -3   23.47    1.04
  -8  -2   3   28.02    0.86
  -8  -2   3   29.30    0.91
  -8  -2   3   29.09    0.99
   8  -2  -3   31.28    1.03
   8  -2  -3   30.00    0.98
  -8  -2   3   30.05    0.96
  -8  -2   3   28.05    1.20
  -8   2   3   30.43    0.97
  -8   2   3   29.84    0.93
   8   2  -3   29.95    1.06
  -8   2   3   29.43    0.92
  -8   2   3   29.40    1.31
   8   2  -3   30.95    1.00
   8   2  -3   30.05    0.89
   6  -2  -3   28.57    0.65
  -6  -2   3   33.62    0.81
  -6  -2   3   32.27    1.06
   6  -2  -3   30.05    0.75
   6  -2  -3   28.40    0.85
   6  -2  -3   29.02    0.82
  -6  -2   3   29.83    0.85
   6  -2  -3   29.48    0.84
  -6  -2   3   27.97    0.66
   6   2  -3   28.36    0.88
   6   2  -3   29.17    0.82
   6   2  -3   29.16    0.86
  -6   2   3   28.75    0.77
  -6   2   3   29.98    0.82
  -6   2   3   29.43    0.80
   6   2  -3   28.73    0.68
  -6   2   3   29.49    1.09
   4  -2  -3   71.28    1.48
   4  -2  -3   73.31    1.43
  -4  -2   3   71.10    1.31
   4  -2  -3   70.76    1.50
   4  -2  -3   72.36    1.40
  -4  -2   3   74.12    1.64
  -4  -2   3   72.07    1.46
  -4  -2   3   71.16    1.39
   4   2  -3   71.12    1.46
   4   2  -3   70.60    1.47
  -4   2   3   73.53    1.33
   4   2  -3   73.88    1.49
  -4   2   3   71.82    1.36
  -4   2   3   74.66    1.70
  -4   2   3   71.28    1.44
  -4   2   3   71.77    1.42
   4   2  -3   73.62    1.32
   4   2  -3   75.02    1.41
   2  -2  -3   40.04    0.93
  -2  -2   3   42.13    1.01
   2  -2  -3   41.43    0.97
   2  -2  -3   42.44    0.91
   2  -2  -3   41.05    0.86
   2  -2  -3   41.58    0.79
   2  -2  -3   40.65    0.98
   2   2  -3   41.05    0.85
   2   2  -3   42.28    0.93
  -2   2   3   41.68    1.00
  -2   2   3   41.67    0.85
   2   2  -3   41.19    0.89
   2   2  -3   42.91    0.85
   2   2  -3   41.10    0.82
  -2   2   3   41.64    0.79
  -2   2   3   39.92    0.87
   0  -2  -3   72.09    1.45
   0  -2  -3   68.34    1.43
   0  -2  -3   71.41    1.50
   0  -2  -3   71.32    1.39
   0  -2  -3   71.24    1.43
   0   2   3   71.86    1.30
   0   2   3   67.33    1.34
   0   2  -3   72.21    1.53
   0   2  -3   70.13    1.30
   0   2  -3   72.81    1.31
   0   2   3   70.37    1.36
   0   2  -3   70.28    1.40
   0   2  -3   72.91    1.35
   0   2   3   69.57    1.35
  -2  -2  -3   64.85    1.28
   2  -2   3   64.53    1.35
  -2  -2  -3   67.36    1.48
   2  -2   3   62.85    1.23
  -2  -2  -3   65.93    1.42
   2  -2   3   64.39    1.34
  -2  -2  -3   64.81    1.46
  -2  -2  -3   62.44    1.49
  -2   2  -3   64.23    1.43
   2   2   3   64.91    1.37
  -2   2  -3   68.01    1.61
   2   2   3   65.80    1.25
  -2   2  -3   67.15    1.44
  -2   2  -3   65.52    1.31
   2   2   3   66.55    1.38
   2   2   3   65.84    1.33
  -4  -2  -3   27.04    0.84
   4  -2   3   28.07    0.85
  -4  -2  -3   28.34    0.92
  -4  -2  -3   27.93    0.97
  -4  -2  -3   28.81    0.89
   4  -2   3   28.51    0.81
   4  -2   3   27.65    0.70
  -4   2  -3   27.64    0.91
   4   2   3   27.45    0.87
   4   2   3   27.37    0.74
   4   2   3   27.97    0.75
  -4   2  -3   27.83    0.92
  -4   2  -3   32.00    1.09
   4   2   3   28.55    0.84
  -4   2  -3   28.31    0.77
  -6  -2  -3   36.74    1.22
  -6  -2  -3   37.73    1.10
  -6  -2  -3   38.25    1.32
   6  -2   3   38.29    1.09
   6  -2   3   38.66    1.18
  -6   2  -3   39.14    1.41
   6   2   3   38.21    1.13
   6   2   3   37.71    1.04
  -6   2  -3   36.84    1.24
   6   2   3   36.67    1.20
   6   2   3   37.29    0.98
  -6   2  -3   36.96    1.02
  -6   2  -3   38.56    1.27
  -8  -2  -3   18.29    1.03
   8  -2   3   16.58    0.76
   8  -2   3   17.80    0.89
   8   2   3   16.66    0.89
  -8   2  -3   16.51    0.90
   8   2   3   16.95    0.72
   8   2   3   16.54    0.79
  -8   2  -3   16.70    1.00
  11  -3  -3   82.47    2.26
 -11  -3   3   82.69    2.31
 -11  -3   3   79.84    2.10
  11  -3  -3   83.63    2.25
  11   3  -3   81.30    2.22
 -11   3   3   86.23    2.50
 -11   3   3   83.03    2.26
  11   3  -3   82.87    2.39
  -9  -3   3    6.11    0.46
  -9  -3   3    7.00    0.54
  -9  -3   3    5.62    0.42
   9  -3  -3    5.77    0.47
   9  -3  -3    6.62    0.53
  -9  -3   3    5.90    0.41
  -9   3   3    5.94    0.49
   9   3  -3    5.48    0.44
   9   3  -3    5.37    0.38
  -9   3   3    5.09    0.43
  -9   3   3    5.81    0.46
   9   3  -3    5.91    0.51
   7  -3  -3  223.95    4.18
  -7  -3   3  216.92    4.53
  -7  -3   3  229.55    4.24
   7  -3  -3  227.28    4.24
  -7  -3   3  226.31    4.26
  -7  -3   3  224.67    4.07
   7  -3  -3  223.05    3.96
  -7   3   3  227.75    4.17
  -7   3   3  218.15    4.04
  -7   3   3  229.24    4.18
   7   3  -3  228.19    4.26
   7   3  -3  229.32    4.38
  -7   3   3  219.94    4.71
   7   3  -3  224.35    4.15
  -5  -3   3   19.77    0.62
  -5  -3   3   19.64    0.73
  -5  -3   3   18.70    0.53
   5  -3  -3   19.58    0.65
   5  -3  -3   20.09    0.56
   5  -3  -3   19.47    0.63
   5  -3  -3   19.83    0.59
  -5   3   3   18.95    0.53
   5   3  -3   19.10    0.51
   5   3  -3   19.35    0.63
  -5   3   3   19.10    0.58
  -5   3   3   19.00    0.78
   5   3  -3   20.18    0.65
   5   3  -3   19.77    0.67
  -5   3   3   18.78    0.61
  -5   3   3   19.18    0.51
  -3  -3   3  639.81   12.05
  -3  -3   3  625.57   11.02
   3  -3  -3  594.93   11.27
   3  -3  -3  618.74   11.07
  -3  -3   3  608.40   10.63
   3  -3  -3  592.03   11.36
   3  -3  -3  628.74   10.74
  -3   3   3  632.78   11.01
  -3   3   3  622.29   10.94
   3   3  -3  617.48   10.93
  -3   3   3  643.13   12.61
   3   3  -3  624.65   11.00
   3   3  -3  624.97   11.45
   3   3  -3  634.82   11.37
  -3   3   3  618.85   11.04
  -3   3   3  617.16   11.28
   1  -3  -3   80.46    1.62
   1  -3  -3   80.18    1.63
   1  -3  -3   78.94    1.51
   1  -3  -3   83.55    1.72
  -1   3   3   83.81    1.53
   1   3  -3   80.18    1.54
   1   3  -3   81.14    1.53
  -1   3   3   78.29    1.55
   1   3  -3   85.45    1.66
   1   3  -3   84.18    1.53
  -1   3   3   82.57    1.64
  -1   3   3   79.09    1.53
   1   3  -3   82.15    1.57
   1  -3   3  597.28   10.48
  -1  -3  -3  592.87   11.88
  -1  -3  -3  589.47   10.82
   1  -3   3  588.64   11.00
   1  -3   3  601.29   10.40
  -1  -3  -3  588.22   10.14
  -1  -3  -3  596.29   11.11
  -1  -3  -3  610.40   10.97
  -1   3  -3  617.00   10.27
   1   3   3  590.55   10.63
   1   3   3  602.30   10.79
  -1   3  -3  577.00   10.22
   1   3   3  571.18   10.61
   1   3   3  604.24   10.25
  -1   3  -3  596.79   10.66
   1   3   3  579.58   10.82
  -1   3  -3  618.14   11.73
  -3  -3  -3   41.03    0.95
  -3  -3  -3   41.37    1.08
  -3  -3  -3   40.93    1.17
   3  -3   3   40.70    1.04
  -3  -3  -3   41.51    1.15
  -3  -3  -3   41.39    1.10
   3  -3   3   41.33    0.94
   3   3   3   41.42    1.09
   3   3   3   41.16    0.95
  -3   3  -3   43.82    1.13
  -3   3  -3   40.79    1.27
  -3   3  -3   42.72    0.96
   3   3   3   41.11    1.06
  -3   3  -3   42.52    1.09
   3   3   3   43.44    1.00
  -5  -3  -3  205.56    3.98
  -5  -3  -3  203.02    3.97
  -5  -3  -3  207.27    3.92
   5  -3   3  200.46    3.69
   5  -3   3  207.34    3.83
   5  -3   3  207.64    3.94
  -5  -3  -3  205.69    4.15
  -5   3  -3  202.06    4.01
   5   3   3  201.26    3.77
  -5   3  -3  207.60    4.08
   5   3   3  209.21    3.93
   5   3   3  201.85    3.72
  -5   3  -3  207.15    4.32
  -5   3  -3  206.29    3.73
   5   3   3  201.27    4.00
  -7  -3  -3    8.15    0.69
  -7  -3  -3    8.98    0.56
   7  -3   3    8.89    0.55
   7  -3   3    9.74    0.63
  -7   3  -3    9.50    0.76
   7   3   3    9.68    0.53
  -7   3  -3    9.72    0.66
   7   3   3    9.25    0.58
   7   3   3    9.25    0.61
  -9  -3  -3   63.60    2.08
   9  -3   3   58.03    1.63
   9  -3   3   60.02    1.84
   9   3   3   56.68    1.86
   9   3   3   56.85    1.70
  -9   3  -3   60.71    2.13
 -10  -4   3   24.99    0.93
 -10  -4   3   23.76    0.92
  10  -4  -3   24.43    1.05
 -10  -4   3   24.23    1.09
  10  -4  -3   25.55    1.05
 -10  -4   3   23.51    1.00
  10   4  -3   24.90    1.06
  10   4  -3   25.34    1.18
 -10   4   3   24.05    1.03
 -10   4   3   24.97    1.20
  -8  -4   3   37.26    1.19
  -8  -4   3   35.71    1.01
  -8  -4   3   33.34    1.32
  -8  -4   3   36.81    1.09
   8  -4  -3   35.38    1.16
   8  -4  -3   36.29    1.13
  -8  -4   3   35.94    1.16
  -8   4   3   36.85    1.14
  -8   4   3   36.35    1.78
   8   4  -3   37.91    1.11
   8   4  -3   35.78    1.26
   8   4  -3   36.14    1.17
  -8   4   3   35.75    1.14
   6  -4  -3   40.14    1.06
  -6  -4   3   41.36    1.11
   6  -4  -3   42.58    1.13
  -6  -4   3   40.35    0.96
  -6  -4   3   40.65    1.24
   6  -4  -3   41.34    0.96
   6  -4  -3   40.21    1.09
  -6  -4   3   40.71    1.17
   6   4  -3   40.24    0.98
  -6   4   3   40.16    0.96
   6   4  -3   40.81    1.10
   6   4  -3   41.71    1.22
  -6   4   3   40.29    1.38
  -6   4   3   38.47    0.93
   6   4  -3   41.30    1.14
  -6   4   3   40.34    1.05
  -6   4   3   41.53    1.10
   4  -4  -3  152.81    2.87
  -4  -4   3  150.24    2.66
  -4  -4   3  149.23    2.79
  -4  -4   3  154.80    2.93
   4  -4  -3  152.28    2.89
   4  -4  -3  151.40    2.77
   4  -4  -3  152.33    2.75
   4   4  -3  150.76    2.85
  -4   4   3  151.06    2.82
  -4   4   3  148.84    2.73
  -4   4   3  152.23    2.76
  -4   4   3  151.57    2.73
  -4   4   3  151.29    3.06
   4   4  -3  150.57    2.86
   2  -4  -3   96.33    1.93
   2  -4  -3  101.47    2.02
   2  -4  -3   95.25    1.89
  -2  -4   3  100.57    1.98
   2  -4  -3  102.29    1.93
   2  -4  -3  100.63    2.04
  -2   4   3   99.26    1.97
  -2   4   3   98.96    1.88
   2   4  -3  102.52    1.90
   2   4  -3   98.59    1.87
  -2   4   3   98.38    1.89
  -2   4   3   96.78    1.88
  -2   4   3   94.16    1.76
   2   4  -3   98.83    1.86
   2   4  -3  101.27    1.90
   2   4  -3   99.91    1.93
   0  -4  -3  148.88    2.96
   0  -4  -3  155.56    2.80
   0  -4  -3  148.54    2.85
   0  -4  -3  148.64    2.83
   0   4   3  149.96    2.68
   0   4  -3  148.50    2.68
   0   4   3  154.65    2.77
   0   4  -3  147.74    2.68
   0   4  -3  153.29    2.92
   0   4   3  151.85    2.76
   0   4  -3  152.11    2.80
   0   4  -3  154.40    2.73
   0   4   3  148.54    2.64
   0   4   3  153.42    2.77
  -2  -4  -3  101.42    2.13
  -2  -4  -3  100.12    2.02
  -2  -4  -3  103.03    2.19
  -2  -4  -3   99.14    1.95
   2  -4   3  103.69    2.05
   2  -4   3  103.44    1.96
  -2  -4  -3  101.30    2.22
  -2   4  -3  102.05    2.31
   2   4   3  105.65    2.10
  -2   4  -3  105.53    2.12
  -2   4  -3  104.37    1.93
   2   4   3   99.19    1.99
   2   4   3  103.30    1.95
   2   4   3  100.65    1.88
   2   4   3  101.54    2.09
  -4  -4  -3   29.71    0.96
   4  -4   3   30.17    0.94
  -4  -4  -3   29.09    0.82
   4  -4   3   30.55    0.88
  -4  -4  -3   30.77    1.06
   4  -4   3   31.35    0.83
  -4  -4  -3   28.80    1.01
  -4   4  -3   32.98    1.00
  -4   4  -3   30.27    0.79
   4   4   3   30.09    0.85
   4   4   3   28.68    0.82
  -4   4  -3   31.50    0.94
   4   4   3   29.87    0.95
   4   4   3   30.03    0.99
  -4   4  -3   28.71    1.13
   6  -4   3   36.01    1.08
  -6  -4  -3   34.20    1.14
  -6  -4  -3   33.63    1.18
  -6  -4  -3   35.26    1.28
   6  -4   3   35.55    1.17
   6   4   3   34.77    1.13
  -6   4  -3   34.22    1.41
   6   4   3   34.90    1.04
   6   4   3   32.88    1.20
  -8  -4  -3    9.98    0.76
   8  -4   3   10.35    0.62
   8  -4   3   10.41    0.72
   8   4   3   10.08    0.69
  -8   4  -3   10.22    0.87
   8   4   3    9.97    0.63
  11  -5  -3   33.91    1.32
 -11  -5   3   34.22    1.41
  11  -5  -3   33.84    1.30
 -11  -5   3   32.81    1.20
 -11   5   3   34.57    1.32
  11   5  -3   32.09    1.29
 -11   5   3   33.99    1.54
  -9  -5   3   93.29    2.18
  -9  -5   3   90.74    2.31
  -9  -5   3   91.67    2.31
   9  -5  -3   91.22    2.22
   9  -5  -3   92.20    2.27
  -9   5   3   87.90    2.21
  -9   5   3   88.10    2.24
   9   5  -3   88.87    2.29
  -9   5   3   90.67    2.52
   7  -5  -3   87.45    2.05
   7  -5  -3   90.95    2.02
  -7  -5   3   89.51    2.13
   7  -5  -3   87.51    1.97
  -7  -5   3   89.18    1.98
  -7  -5   3   90.58    2.06
  -7  -5   3   85.85    1.81
  -7   5   3   83.23    2.44
   7   5  -3   86.85    2.10
   7   5  -3   89.22    2.03
  -7   5   3   88.88    1.99
  -7   5   3   90.35    2.06
  -5  -5   3  168.85    3.07
   5  -5  -3  170.59    3.24
  -5  -5   3  178.71    3.45
  -5  -5   3  173.62    3.28
   5  -5  -3  171.36    3.16
   5  -5  -3  172.28    3.34
  -5  -5   3  172.27    3.37
   5  -5  -3  175.46    3.36
  -5   5   3  174.62    3.31
  -5   5   3  173.35    3.21
   5   5  -3  175.89    3.38
   5   5  -3  187.82    3.54
  -5   5   3  173.07    3.64
  -5   5   3  172.25    3.21
   5   5  -3  176.90    3.37
   3  -5  -3  111.03    2.24
  -3  -5   3  111.49    2.20
  -3  -5   3  113.47    2.31
   3  -5  -3  111.18    2.31
  -3  -5   3  113.80    2.14
  -3  -5   3  109.40    1.99
   3  -5  -3  113.26    2.15
   3  -5  -3  114.31    2.30
  -3   5   3  114.24    2.18
  -3   5   3  116.27    2.33
   3   5  -3  108.79    2.12
  -3   5   3  112.81    2.20
  -3   5   3  112.14    2.05
   3   5  -3  114.27    2.23
  -3   5   3  115.10    2.20
   3   5  -3  110.69    2.24
   1  -5  -3  153.52    2.85
   1  -5  -3  154.59    2.94
  -1  -5   3  152.71    2.89
   1  -5  -3  154.15    3.00
   1  -5  -3  157.71    3.09
  -1   5   3  155.76    2.91
  -1   5   3  152.63    2.64
   1   5  -3  156.00    2.81
  -1   5   3  155.68    2.87
  -1   5   3  155.12    2.81
   1   5  -3  152.62    2.86
   1   5  -3  158.68    2.92
  -1   5   3  158.70    2.80
  -1   5   3  158.23    2.81
   1   5  -3  153.87    2.86
  -1   5   3  162.20    2.88
   1   5  -3  156.10    2.90
  -1  -5  -3   77.63    1.86
   1  -5   3   78.70    1.59
  -1  -5  -3   76.62    1.70
  -1  -5  -3   76.77    1.69
   1  -5   3   78.44    1.52
  -1  -5  -3   76.00    1.74
   1  -5   3   77.97    1.48
   1   5   3   78.68    1.63
  -1   5  -3   85.79    1.74
  -1   5  -3   75.15    1.81
   1   5   3   76.13    1.54
   1   5   3   76.16    1.49
   1   5   3   78.55    1.69
  -1   5  -3   75.74    1.52
  -3  -5  -3  102.40    2.34
  -3  -5  -3  105.65    2.18
   3  -5   3  106.25    2.22
   3  -5   3  105.33    2.12
  -3  -5  -3  107.11    2.41
  -3  -5  -3  107.64    2.31
   3   5   3  104.81    2.11
  -3   5  -3  106.11    2.29
   3   5   3  106.00    2.28
   3   5   3  106.08    2.13
  -3   5  -3  104.17    2.01
  -3   5  -3  104.49    2.53
  -5  -5  -3   55.20    1.52
   5  -5   3   53.97    1.48
   5  -5   3   54.18    1.39
  -5  -5  -3   52.10    1.59
   5  -5   3   51.39    1.31
  -5  -5  -3   57.59    1.62
   5   5   3   53.80    1.30
  -5   5  -3   53.92    1.52
  -5   5  -3   52.74    1.77
   5   5   3   52.43    1.49
   5   5   3   53.16    1.56
   5   5   3   53.46    1.36
   7  -5   3   75.64    1.90
  -7  -5  -3   77.51    2.27
   7  -5   3   76.87    2.04
  -7  -5  -3   76.80    2.03
   7   5   3   77.80    2.18
   7   5   3   79.77    2.08
  -7   5  -3   77.17    2.44
  10  -6  -3    8.61    0.68
 -10  -6   3    7.62    0.68
  10  -6  -3    7.23    0.59
 -10  -6   3    7.87    0.60
 -10   6   3    7.42    0.75
 -10   6   3    7.51    0.58
  10   6  -3    7.80    0.62
  -8  -6   3   23.66    0.98
   8  -6  -3   24.83    0.93
  -8  -6   3   23.57    0.93
  -8  -6   3   22.79    0.99
   8  -6  -3   24.13    0.98
   8   6  -3   22.65    0.97
  -8   6   3   24.44    0.92
  -8   6   3   23.83    1.12
  -8   6   3   23.28    0.95
   6  -6  -3   64.57    1.57
  -6  -6   3   65.95    1.60
  -6  -6   3   66.22    1.60
  -6  -6   3   64.47    1.72
   6  -6  -3   66.76    1.67
   6  -6  -3   63.17    1.61
  -6   6   3   64.87    1.63
   6   6  -3   66.51    1.69
  -6   6   3   66.44    1.53
  -6   6   3   64.90    1.53
  -6   6   3   64.73    1.95
   4  -6  -3   31.86    0.80
  -4  -6   3   33.23    1.04
   4  -6  -3   32.07    0.88
  -4  -6   3   30.26    0.86
  -4  -6   3   33.77    0.93
  -4  -6   3   31.72    0.86
   4  -6  -3   32.59    0.98
   4  -6  -3   31.84    1.00
   4   6  -3   31.12    0.85
  -4   6   3   31.47    0.89
  -4   6   3   32.56    1.07
  -4   6   3   31.78    0.81
  -4   6   3   32.35    0.90
   4   6  -3   31.33    0.95
  -4   6   3   31.98    0.92
   4   6  -3   31.91    0.96
  -2  -6   3  122.33    2.51
  -2  -6   3  120.69    2.27
  -2  -6   3  120.88    2.36
  -2  -6   3  124.08    2.37
   2  -6  -3  124.05    2.45
   2  -6  -3  126.95    2.59
   2  -6  -3  123.51    2.42
   2  -6  -3  123.08    2.59
   2   6  -3  125.21    2.31
   2   6  -3  121.33    2.35
  -2   6   3  124.10    2.42
  -2   6   3  127.34    2.39
  -2   6   3  122.29    2.38
   2   6  -3  121.47    2.40
   2   6  -3  127.42    2.46
  -2   6   3  123.26    2.45
   0  -6  -3   63.27    1.40
   0  -6  -3   65.71    1.57
   0  -6   3   64.03    1.41
   0  -6  -3   63.33    1.67
   0  -6   3   63.51    1.29
   0  -6   3   63.79    1.40
   0  -6  -3   65.60    1.55
   0  -6  -3   63.12    1.40
   0   6  -3   65.89    1.55
   0   6  -3   66.37    1.45
   0   6   3   63.40    1.44
   0   6   3   65.63    1.48
   0   6   3   61.25    1.36
   0   6  -3   64.86    1.49
   0   6  -3   64.40    1.35
   0   6   3   63.57    1.33
  -2  -6  -3   32.59    1.02
  -2  -6  -3   32.94    1.00
  -2  -6  -3   34.66    1.16
   2  -6   3   33.79    0.93
   2  -6   3   34.48    1.00
  -2  -6  -3   34.00    1.07
  -2   6  -3   32.73    0.82
   2   6   3   33.24    1.02
   2   6   3   33.76    0.94
  -2   6  -3   31.32    1.13
  -2   6  -3   34.96    1.04
   2   6   3   33.23    0.90
   4  -6   3   57.48    1.41
  -4  -6  -3   57.16    1.59
   4  -6   3   56.99    1.50
  -4  -6  -3   56.41    1.63
  -4  -6  -3   57.99    1.67
  -4  -6  -3   56.19    1.43
  -4   6  -3   56.81    1.54
   4   6   3   55.89    1.40
   4   6   3   56.39    1.57
  -4   6  -3   55.25    1.78
   4   6   3   56.08    1.37
   6  -6   3    5.49    0.42
  -6  -6  -3    5.95    0.55
   6  -6   3    6.32    0.55
  -6  -6  -3    5.58    0.55
  -6  -6  -3    5.75    0.59
   6   6   3    5.67    0.49
  -6   6  -3    5.51    0.53
  -6   6  -3    6.52    0.68
   8  -6   3   13.29    0.72
   8  -6   3   12.83    0.81
  -8  -6  -3   12.57    0.86
  -8   6  -3   13.15    1.03
   8   6   3   12.76    0.79
  -9  -7   3   61.95    1.75
  -9  -7   3   60.85    1.83
   9  -7  -3   60.34    1.80
   9  -7  -3   57.58    1.70
   9   7  -3   59.11    1.86
  -9   7   3   60.09    2.02
  -9   7   3   59.69    1.84
  -9   7   3   61.43    1.75
   7  -7  -3    6.97    0.50
   7  -7  -3    6.23    0.46
  -7  -7   3    7.05    0.52
   7  -7  -3    7.58    0.54
  -7  -7   3    6.38    0.49
  -7  -7   3    6.06    0.54
  -7   7   3    6.79    0.47
  -7   7   3    6.79    0.53
   5  -7  -3  155.18    2.97
  -5  -7   3  155.79    3.29
  -5  -7   3  154.62    3.05
   5  -7  -3  152.82    3.04
  -5  -7   3  160.61    3.13
   5  -7  -3  159.93    3.22
   5  -7  -3  157.50    3.20
  -5   7   3  148.48    3.51
   5   7  -3  156.29    3.22
   5   7  -3  150.15    2.98
  -5   7   3  154.34    3.15
  -5   7   3  160.16    3.09
   3  -7  -3   44.15    1.24
  -3  -7   3   46.15    1.28
   3  -7  -3   44.05    1.30
   3  -7  -3   42.01    1.07
  -3  -7   3   43.22    1.04
  -3  -7   3   43.41    1.12
   3  -7  -3   45.35    1.23
   3   7  -3   44.17    1.20
   3   7  -3   42.80    1.13
  -3   7   3   44.57    1.16
  -3   7   3   43.94    1.18
  -3   7   3   44.05    1.15
   1  -7  -3  307.41    5.73
  -1  -7   3  309.75    5.58
  -1  -7   3  309.68    5.56
   1  -7  -3  307.73    5.61
   1  -7  -3  307.79    5.54
   1  -7  -3  322.18    5.88
   1   7  -3  318.23    5.49
  -1   7   3  312.17    5.55
  -1   7   3  306.71    5.42
   1   7  -3  318.71    5.59
   1   7  -3  315.30    5.56
  -1   7   3  298.61    5.43
  -1   7   3  311.45    5.61
   1   7  -3  310.64    5.42
  -1  -7  -3   60.31    1.48
   1  -7   3   62.73    1.48
  -1  -7  -3   64.73    1.64
  -1  -7  -3   62.81    1.76
   1  -7   3   60.90    1.40
  -1  -7  -3   63.78    1.63
   1   7   3   63.63    1.59
   1   7   3   65.27    1.59
  -1   7  -3   61.67    1.34
   1   7   3   62.59    1.49
  -1   7  -3   60.00    1.62
   1   7   3   60.51    1.42
  -1   7  -3   63.89    1.58
   3  -7   3  204.80    3.83
   3  -7   3  203.43    3.92
  -3  -7  -3  204.19    4.04
  -3  -7  -3  199.56    3.92
  -3  -7  -3  196.72    4.17
  -3  -7  -3  196.65    4.00
   3   7   3  196.88    4.00
   3   7   3  199.04    3.80
  -3   7  -3  201.94    3.99
   3   7   3  203.28    3.81
  -3   7  -3  196.33    4.25
   5  -7   3   17.01    0.83
  -5  -7  -3   16.67    0.83
  -5  -7  -3   16.11    0.88
  -5  -7  -3   15.40    0.88
  -5  -7  -3   16.08    0.72
   5  -7   3   16.26    0.72
   5   7   3   15.97    0.81
   5   7   3   16.42    0.73
  -5   7  -3   17.16    0.84
  -5   7  -3   16.80    0.98
  -7  -7  -3   60.91    1.82
   7  -7   3   56.11    1.59
   7  -7   3   61.73    1.82
  -7  -7  -3   56.33    1.91
   7   7   3   58.35    1.82
  -7   7  -3   56.68    2.12
 -10  -8   3    3.66    0.53
  10  -8  -3    4.71    0.59
 -10  -8   3    4.66    0.55
  10  -8  -3    4.90    0.53
 -10   8   3    4.74    0.70
  10   8  -3    4.66    0.58
   8  -8  -3   10.20    0.65
  -8  -8   3   10.47    0.69
   8  -8  -3   11.29    0.74
   8   8  -3    9.97    0.69
  -8   8   3   10.95    0.73
  -8   8   3   10.56    0.80
  -6  -8   3   30.88    1.07
  -6  -8   3   29.46    1.01
   6  -8  -3   30.63    1.03
   6  -8  -3   29.24    1.06
  -6  -8   3   29.79    1.18
   6  -8  -3   28.78    1.10
  -6   8   3   28.76    1.00
   6   8  -3   29.20    1.12
  -6   8   3   28.04    1.06
  -6   8   3   30.07    1.20
  -4  -8   3    2.57    0.32
   4  -8  -3    3.37    0.37
   4  -8  -3    2.59    0.27
   4  -8  -3    2.62    0.29
  -4  -8   3    2.59    0.26
  -4  -8   3    2.40    0.35
   4  -8  -3    4.65    0.46
  -4   8   3    2.84    0.30
  -4   8   3    2.44    0.31
   4   8  -3    2.36    0.28
   4   8  -3    2.31    0.32
   2  -8  -3   38.55    1.09
   2  -8  -3   37.85    1.15
  -2  -8   3   36.72    1.14
   2  -8  -3   36.81    1.23
  -2  -8   3   37.86    1.18
   2  -8  -3   37.59    1.25
  -2  -8   3   37.68    1.04
  -2   8   3   36.94    1.10
  -2   8   3   37.75    1.15
   2   8  -3   37.22    1.10
  -2   8   3   37.74    1.05
   2   8  -3   43.12    1.18
   0  -8  -3   13.82    0.69
   0  -8   3   13.31    0.57
   0  -8  -3   14.24    0.72
   0  -8  -3   14.19    0.62
   0  -8   3   13.88    0.59
   0  -8  -3   15.01    0.81
   0   8  -3   14.49    0.64
   0   8   3   13.21    0.60
   0   8   3   13.61    0.56
   0   8   3   13.56    0.66
   0   8  -3   13.29    0.64
   2  -8   3    9.00    0.54
  -2  -8  -3    9.85    0.70
  -2  -8  -3    9.65    0.60
  -2  -8  -3   10.10    0.59
  -2  -8  -3    9.03    0.53
  -2   8  -3    9.38    0.58
   2   8   3    9.31    0.50
  -2   8  -3   10.11    0.64
   2   8   3   10.72    0.61
   2   8   3    9.63    0.51
   2   8   3    9.63    0.59
  -4  -8  -3   35.39    1.29
   4  -8   3   35.77    1.14
  -4  -8  -3   33.86    1.17
  -4  -8  -3   34.35    1.35
  -4  -8  -3   34.66    1.26
   4  -8   3   35.74    1.23
  -4   8  -3   36.14    1.45
  -4   8  -3   35.16    1.26
   4   8   3   33.57    1.26
   4   8   3   33.73    1.10
   4   8   3   36.36    1.09
   6  -8   3    4.32    0.62
   6  -8   3    5.24    0.50
  -6  -8  -3    4.96    0.61
   6  -8   3    5.25    0.57
  -6  -8  -3    5.88    0.63
   6   8   3    4.37    0.52
  -6   8  -3    5.06    0.69
  -6   8  -3    5.27    0.59
   9  -9  -3   33.27    1.29
  -9  -9   3   35.93    1.36
  -9  -9   3   33.73    1.35
  -9  -9   3   35.31    1.32
  -9   9   3   34.12    1.55
   9   9  -3   31.41    1.36
   7  -9  -3  104.00    2.49
   7  -9  -3  110.36    2.53
  -7  -9   3  110.73    2.60
  -7  -9   3  100.38    2.78
   7  -9  -3  107.99    2.62
  -7  -9   3  109.92    2.56
  -7   9   3  108.14    2.69
   7   9  -3  104.17    2.70
  -7   9   3  107.78    2.50
  -7   9   3  109.85    2.86
   5  -9  -3   44.15    1.30
   5  -9  -3   44.51    1.43
   5  -9  -3   43.30    1.43
  -5  -9   3   45.01    1.35
  -5  -9   3   43.34    1.48
  -5   9   3   43.92    1.33
   5   9  -3   41.74    1.41
  -5   9   3   42.95    1.37
  -5   9   3   44.54    1.47
   3  -9  -3   89.14    2.29
   3  -9  -3   85.52    2.17
   3  -9  -3   92.81    2.21
  -3  -9   3   90.49    2.26
  -3  -9   3   91.91    2.23
  -3  -9   3   89.99    2.05
  -3   9   3   92.91    2.17
   3   9  -3   86.09    2.07
   3   9  -3   88.28    2.16
  -3   9   3   92.37    2.09
  -3   9   3   88.90    2.12
  -1  -9   3   19.98    0.82
   1  -9  -3   20.50    0.85
   1  -9  -3   19.78    0.82
  -1  -9   3   20.54    0.83
   1  -9  -3   20.54    0.96
   1  -9  -3   18.86    0.93
   1   9  -3   20.44    0.84
  -1   9   3   20.72    0.82
   1   9  -3   20.35    0.83
  -1   9   3   20.79    0.87
  -1   9   3   21.46    0.86
  -1  -9  -3   64.43    1.76
   1  -9   3   60.12    1.58
  -1  -9  -3   58.86    1.88
  -1  -9  -3   59.53    1.57
  -1  -9  -3   60.91    1.77
   1  -9   3   56.65    1.49
  -1   9  -3   61.53    1.68
   1   9   3   61.10    1.71
   1   9   3   56.96    1.51
   1   9   3   60.20    1.58
   3  -9   3   15.29    0.77
   3  -9   3   15.80    0.80
  -3  -9  -3   15.63    0.92
  -3  -9  -3   15.95    0.83
  -3  -9  -3   15.65    0.88
  -3   9  -3   15.36    0.89
   3   9   3   14.86    0.71
  -3   9  -3   15.21    0.81
   3   9   3   15.45    0.83
   3   9   3   15.57    0.84
   5  -9   3   73.39    1.90
   5  -9   3   73.78    2.04
  -5  -9  -3   73.84    1.98
  -5  -9  -3   71.98    2.11
  -5   9  -3   69.78    2.33
   5   9   3   68.39    2.09
   5   9   3   73.90    2.07
  -5   9  -3   70.33    2.03
  -8 -10   3    0.53    0.29
   8 -10  -3    0.59    0.22
   8 -10  -3    0.87    0.36
  -8 -10   3    0.59    0.26
  -8  10   3    0.20    0.28
   8  10  -3    0.85    0.35
   6 -10  -3    7.52    0.61
  -6 -10   3    6.95    0.76
  -6 -10   3    7.73    0.64
  -6 -10   3    7.75    0.57
   6 -10  -3    7.53    0.57
   6 -10  -3    6.95    0.64
  -6  10   3    8.25    0.65
   6  10  -3    6.89    0.62
  -6  10   3    7.25    0.57
  -4 -10   3    0.67    0.27
   4 -10  -3    1.22    0.25
  -4 -10   3    1.56    0.30
  -4 -10   3    1.41    0.32
   4 -10  -3    0.95    0.27
   4 -10  -3    1.87    0.36
  -4  10   3    0.98    0.22
   4  10  -3    0.68    0.27
  -4  10   3    1.04    0.29
   4  10  -3    1.61    0.29
   2 -10  -3   10.90    0.70
   2 -10  -3   10.07    0.67
  -2 -10   3   11.22    0.60
   2 -10  -3   11.27    0.79
  -2 -10   3   11.06    0.68
  -2 -10   3   10.42    0.66
  -2  10   3   11.39    0.59
  -2  10   3   11.66    0.66
   2  10  -3   11.58    0.65
  -2  10   3   11.37    0.69
   2  10  -3   11.24    0.66
   0 -10  -3    0.85    0.30
   0 -10  -3    0.61    0.26
   0 -10   3    1.33    0.26
   0 -10   3    0.60    0.27
   0 -10  -3    2.31    0.35
   0 -10  -3    0.79    0.33
   0  10   3    1.68    0.28
   0  10   3    0.53    0.24
   0  10  -3    1.43    0.30
   0  10   3    0.63    0.21
  -2 -10  -3    0.29    0.20
  -2 -10  -3    0.13    0.25
  -2 -10  -3    0.30    0.29
   2 -10   3   -0.04    0.24
  -2 -10  -3    0.21    0.26
   2  10   3    0.38    0.23
   2  10   3    0.24    0.18
   2  10   3    0.03    0.11
  -2  10  -3   -0.15    0.17
   4 -10   3    8.55    0.64
   4 -10   3    8.15    0.62
  -4 -10  -3    8.54    0.74
  -4 -10  -3    7.71    0.64
   4  10   3    7.19    0.60
  -4  10  -3    9.11    0.76
  -4  10  -3    7.75    0.62
   4  10   3    6.90    0.61
   6 -10   3    1.89    0.33
   6 -10   3    1.62    0.40
  -6 -10  -3    1.76    0.46
   6  10   3    1.37    0.34
  -6  10  -3    3.21    0.56
   6  10   3    1.64    0.39
  -6  10  -3    1.05    0.36
  -7 -11   3    7.67    0.62
   7 -11  -3    7.05    0.59
  -7 -11   3    7.08    0.65
   7 -11  -3    6.81    0.67
   7  11  -3    6.17    0.62
  -5 -11   3   56.87    1.71
   5 -11  -3   57.47    1.83
   5 -11  -3   57.87    1.68
  -5 -11   3   58.04    1.84
   5 -11  -3   60.69    1.84
   5  11  -3   57.48    1.83
  -5  11   3   58.78    1.80
  -5  11   3   58.02    1.75
  -3 -11   3   26.58    1.18
  -3 -11   3   30.05    1.22
   3 -11  -3   29.40    1.20
   3 -11  -3   27.09    1.23
   3  11  -3   26.03    1.09
  -3  11   3   27.99    1.08
   3  11  -3   29.76    1.19
  -3  11   3   28.13    1.17
  -1 -11   3  123.79    2.82
   1 -11  -3  124.28    2.89
   1 -11  -3  116.24    3.05
  -1 -11   3  119.92    2.84
   1 -11  -3  119.89    3.05
   1 -11  -3  121.66    3.01
  -1  11   3  119.41    2.91
   1  11  -3  119.14    2.86
   1  11  -3  120.38    2.81
  -1  11   3  121.83    2.83
  -1 -11  -3   46.09    1.81
  -1 -11  -3   48.61    1.71
  -1 -11  -3   48.54    1.52
   1 -11   3   47.54    1.51
  -1 -11  -3   44.50    1.57
  -1  11  -3   46.60    1.55
   1  11   3   47.06    1.63
   1  11   3   46.17    1.47
   1  11   3   43.93    1.42
   3 -11   3   83.80    2.23
   3 -11   3   86.04    2.30
  -3 -11  -3   87.32    2.42
  -3 -11  -3   86.19    2.41
   3  11   3   84.45    2.42
  -3  11  -3   82.52    2.34
   5 -11   3   20.71    1.06
  -5 -11  -3   18.68    1.05
   5  11   3   19.90    1.06
  -5  11  -3   19.89    1.06
  -6 -12   3    1.36    0.37
   6 -12  -3    1.19    0.56
   6 -12  -3    2.11    0.46
  -6 -12   3    2.63    0.50
  -6  12   3    2.14    0.42
   6  12  -3    1.47    0.39
   4 -12  -3   26.15    1.07
  -4 -12   3   26.94    1.23
   4 -12  -3   27.52    1.28
   4 -12  -3   26.92    1.19
   4  12  -3   24.79    1.08
  -4  12   3   25.35    1.13
   4  12  -3   25.76    1.20
  -2 -12   3    2.12    0.44
   2 -12  -3    2.84    0.55
   2 -12  -3    3.30    0.51
  -2  12   3    2.26    0.40
   2  12  -3    2.29    0.39
   2  12  -3    2.54    0.44
   0 -12  -3   12.82    0.78
   0 -12  -3   12.67    0.88
   0 -12   3   12.93    0.80
   0 -12   3   13.50    0.84
   0 -12  -3   14.43    0.87
   0  12  -3   12.30    0.81
   0  12   3   13.28    0.83
  -2 -12  -3   15.29    0.96
  -2 -12  -3   14.52    0.94
   2 -12   3   15.02    0.90
   2 -12   3   15.68    0.91
   2  12   3   15.14    0.94
  -2  12  -3   15.52    0.92
   2  12   3   15.65    0.84
   3 -13  -3    0.53    0.39
  -3 -13   3    0.77    0.28
   3 -13  -3    2.94    0.50
  -3  13   3    1.53    0.35
   3  13  -3    0.85    0.35
   3  13  -3    0.57    0.27
   1 -13  -3   74.66    2.41
  -1 -13   3   75.88    2.20
  -1  13   3   71.98    2.24
   1  13  -3   74.27    2.19
   1 -13   3    0.30    0.25
  -1 -13  -3    0.78    0.34
  -1 -13  -3    1.00    0.40
  -1 -13  -3    1.24    0.30
  -1  13  -3    0.52    0.30
   1  13   3    0.90    0.31
  12   0  -4  180.63    3.92
  12   0  -4  182.14    4.07
 -12   0   4  182.75    3.95
  10   0  -4    9.40    0.62
 -10   0   4    9.51    0.59
 -10   0   4   10.55    0.63
  10   0  -4    9.79    0.62
  10   0  -4   10.85    0.66
  -8   0   4  331.51    6.62
  -8   0   4  333.95    5.84
   8   0  -4  328.62    6.14
   8   0  -4  333.90    6.03
   8   0  -4  340.92    6.09
  -8   0   4  336.15    6.01
   8   0  -4  335.14    5.90
  -8   0   4  340.12    5.98
  -6   0   4    9.22    0.40
   6   0  -4    9.17    0.46
   6   0  -4    8.82    0.40
   6   0  -4    9.16    0.40
  -6   0   4    9.45    0.57
  -6   0   4    9.35    0.41
  -6   0   4    9.91    0.38
  -4   0   4  325.83    5.52
   4   0  -4  317.40    5.48
  -4   0   4  320.75    5.35
   4   0  -4  322.32    5.59
   4   0  -4  326.80    5.56
  -4   0   4  331.36    6.47
  -4   0   4  319.58    5.48
   4   0  -4  330.64    5.59
   4   0  -4  334.89    5.75
  -2   0   4    2.89    0.16
   2   0  -4    3.70    0.18
   2   0  -4    3.00    0.22
   2   0  -4    2.78    0.17
  -2   0   4    2.65    0.23
  -2   0   4    3.66    0.13
  -2   0   4    2.63    0.16
   2   0  -4    3.19    0.19
   0   0   4  281.86    4.87
   0   0  -4  283.53    4.91
   0   0   4  278.56    4.89
   0   0  -4  291.88    4.96
   0   0   4  292.17    4.92
   0   0  -4  285.60    4.87
   0   0  -4  293.80    5.15
   0   0  -4  300.27    4.84
  -2   0  -4   57.73    1.28
  -2   0  -4   55.81    1.48
   2   0   4   57.17    1.23
  -2   0  -4   56.97    1.43
   2   0   4   57.88    1.26
  -2   0  -4   58.97    1.30
   4   0   4  271.90    4.81
  -4   0  -4  265.99    5.10
  -4   0  -4  257.08    4.74
   4   0   4  269.31    4.84
  -4   0  -4  269.29    5.17
   6   0   4   45.86    1.20
  -6   0  -4   46.11    1.55
   6   0   4   47.44    1.31
   6   0   4   47.21    1.39
   6   0   4   47.32    1.21
  -6   0  -4   48.21    1.60
  -8   0  -4  126.49    3.17
  -8   0  -4  126.46    3.21
   8   0   4  123.04    2.79
   8   0   4  123.69    2.95
  11  -1  -4    7.74    0.62
 -11  -1   4    8.78    0.72
 -11  -1   4    8.38    0.63
  11  -1  -4    8.80    0.68
  11  -1  -4    8.81    0.63
 -11  -1   4    8.15    0.66
 -11   1   4    8.00    0.64
  11   1  -4    7.79    0.61
  11   1  -4    8.26    0.62
 -11   1   4    7.69    0.58
 -11   1   4    8.07    0.57
   9  -1  -4    1.58    0.31
  -9  -1   4    1.71    0.28
  -9  -1   4    1.54    0.25
   9  -1  -4    1.81    0.28
  -9  -1   4    1.71    0.30
  -9   1   4    2.03    0.30
  -9   1   4    1.90    0.26
  -9   1   4    1.54    0.25
   9   1  -4    1.85    0.30
   9   1  -4    1.21    0.22
   9   1  -4    1.54    0.31
  -7  -1   4   54.16    1.34
  -7  -1   4   53.35    1.28
  -7  -1   4   53.88    1.17
   7  -1  -4   54.84    1.26
  -7  -1   4   53.99    1.63
   7  -1  -4   56.09    1.41
   7  -1  -4   54.77    1.34
   7   1  -4   56.17    1.40
  -7   1   4   53.82    1.30
   7   1  -4   55.22    1.31
  -7   1   4   54.99    1.26
   7   1  -4   55.81    1.46
  -7   1   4   55.45    1.32
   7   1  -4   55.98    1.37
  -7   1   4   54.06    1.66
  -5  -1   4    0.71    0.18
   5  -1  -4    0.75    0.09
  -5  -1   4    0.77    0.13
  -5  -1   4    0.92    0.11
   5  -1  -4    0.61    0.11
   5  -1  -4    0.64    0.14
   5  -1  -4    0.82    0.14
   5  -1  -4    0.95    0.12
   5   1  -4    1.14    0.13
  -5   1   4    0.91    0.13
   5   1  -4    1.44    0.17
   5   1  -4    0.87    0.15
   5   1  -4    1.07    0.15
   5   1  -4    0.96    0.14
  -5   1   4    0.77    0.18
  -5   1   4    1.06    0.09
  -5   1   4    0.66    0.12
  -3  -1   4   28.90    0.67
   3  -1  -4   29.38    0.70
   3  -1  -4   29.86    0.78
   3  -1  -4   30.33    0.64
   3  -1  -4   29.93    0.74
  -3  -1   4   30.63    0.89
  -3  -1   4   29.70    0.61
  -3   1   4   29.42    0.64
   3   1  -4   30.57    0.68
  -3   1   4   31.09    0.90
   3   1  -4   30.19    0.74
  -3   1   4   28.38    0.70
   3   1  -4   30.81    0.66
   1  -1  -4   33.13    0.87
   1  -1  -4   33.13    0.87
   1  -1  -4   32.33    0.80
   1  -1  -4   32.09    0.76
   1  -1  -4   32.72    0.76
  -1  -1   4   32.29    0.69
   1   1  -4   33.21    0.63
   1   1  -4   33.87    0.75
   1   1  -4   33.75    0.90
  -1   1   4   33.38    0.71
  -1   1   4   32.35    0.74
   1   1  -4   32.46    0.74
  -1  -1  -4   10.64    0.33
   1  -1   4   10.50    0.38
  -1  -1  -4   10.76    0.48
  -1  -1  -4   11.50    0.48
  -1  -1  -4   11.24    0.44
   1  -1   4   10.65    0.36
  -1  -1  -4   10.79    0.49
   1   1   4   10.81    0.40
  -1   1  -4   10.77    0.31
  -1   1  -4   10.57    0.52
   1   1   4   10.70    0.39
   1   1   4   10.78    0.27
   1   1   4   10.50    0.35
  -1   1  -4   10.83    0.38
  -1   1  -4   10.86    0.47
  -1   1  -4   10.80    0.40
  -3  -1  -4   43.83    1.26
  -3  -1  -4   43.44    1.11
  -3  -1  -4   44.14    1.15
  -3  -1  -4   41.71    1.26
   3  -1   4   43.38    1.06
   3  -1   4   44.00    1.07
   3   1   4   44.37    1.05
   3   1   4   41.33    1.07
  -3   1  -4   43.03    1.01
  -3   1  -4   42.70    1.23
   3   1   4   43.95    1.09
  -3   1  -4   41.77    1.31
  -5  -1  -4    0.44    0.17
  -5  -1  -4    0.09    0.14
   5  -1   4    0.30    0.14
   5  -1   4    0.25    0.13
  -5  -1  -4    0.47    0.20
   5   1   4    0.26    0.11
  -5   1  -4    0.19    0.15
   5   1   4    0.59    0.14
   5   1   4    0.11    0.15
   5   1   4    0.33    0.14
  -5   1  -4    0.27    0.19
  -7  -1  -4    3.37    0.49
   7  -1   4    4.19    0.44
   7  -1   4    3.88    0.47
   7  -1   4    3.24    0.29
  -7  -1  -4    3.51    0.43
   7   1   4    3.49    0.39
   7   1   4    3.60    0.39
  -7   1  -4    3.49    0.52
  -7   1  -4    3.97    0.48
   9  -1   4    6.82    0.55
   9  -1   4    8.17    0.63
  -9  -1  -4    8.48    0.80
  -9   1  -4    5.87    0.66
   9   1   4    7.74    0.59
   9   1   4    6.89    0.64
  12  -2  -4   13.69    0.80
  12  -2  -4   13.90    0.86
 -12  -2   4   12.22    0.73
  12  -2  -4   12.93    0.81
 -12  -2   4   12.07    0.83
  12   2  -4   11.57    0.74
  12   2  -4   13.44    0.88
 -12   2   4   12.89    0.80
 -12   2   4   12.21    0.86
  10  -2  -4   36.47    1.26
 -10  -2   4   37.09    1.29
 -10  -2   4   35.18    1.09
 -10  -2   4   36.55    1.17
  10  -2  -4   36.34    1.29
 -10   2   4   36.53    1.19
 -10   2   4   37.93    1.27
  10   2  -4   37.14    1.27
  10   2  -4   37.43    1.35
   8  -2  -4   33.36    0.91
  -8  -2   4   33.09    1.32
  -8  -2   4   33.75    0.98
   8  -2  -4   34.66    1.05
  -8  -2   4   32.86    1.05
   8  -2  -4   34.69    1.10
   8   2  -4   34.20    1.00
  -8   2   4   32.21    1.36
  -8   2   4   34.55    0.99
  -8   2   4   33.69    1.03
   8   2  -4   34.56    1.09
   8   2  -4   37.50    1.16
  -8   2   4   33.60    0.98
   6  -2  -4  248.48    4.53
  -6  -2   4  249.81    4.81
   6  -2  -4  245.27    4.39
   6  -2  -4  252.09    4.43
   6  -2  -4  248.98    4.54
  -6  -2   4  248.60    4.48
  -6  -2   4  243.22    4.24
  -6  -2   4  250.34    4.39
  -6   2   4  247.54    4.39
   6   2  -4  248.64    4.48
   6   2  -4  250.03    4.50
  -6   2   4  254.57    4.91
   6   2  -4  252.37    4.54
  -6   2   4  251.94    4.43
  -6   2   4  247.11    4.42
   4  -2  -4  194.31    3.53
   4  -2  -4  198.99    3.32
  -4  -2   4  202.68    3.79
   4  -2  -4  201.02    3.55
   4  -2  -4  200.64    3.62
  -4  -2   4  194.40    3.46
   4  -2  -4  192.75    3.39
  -4  -2   4  198.17    3.40
   4   2  -4  201.30    3.57
   4   2  -4  196.51    3.50
  -4   2   4  194.75    3.48
  -4   2   4  196.74    3.52
   4   2  -4  201.24    3.47
  -4   2   4  200.24    3.42
  -4   2   4  202.24    3.82
  -4   2   4  204.72    3.38
  -2  -2   4  893.88   16.64
   2  -2  -4  829.30   15.35
   2  -2  -4  843.06   14.61
   2  -2  -4  795.45   15.15
   2  -2  -4  839.19   14.52
   2  -2  -4  815.00   15.03
  -2   2   4  818.72   14.99
  -2   2   4  846.23   15.75
   2   2  -4  818.06   14.67
  -2   2   4  779.71   14.73
   2   2  -4  888.23   15.65
  -2   2   4  837.18   14.39
   2   2  -4  871.82   15.12
   2   2  -4  860.65   14.58
   2   2  -4  829.36   14.29
   0  -2  -4  139.34    2.63
   0  -2  -4  138.06    2.54
   0  -2  -4  141.67    2.72
   0  -2  -4  136.32    2.65
   0  -2  -4  141.59    2.67
   0  -2   4  135.04    2.45
   0   2   4  141.02    2.52
   0   2  -4  144.06    2.80
   0   2   4  137.55    2.53
   0   2  -4  142.89    2.52
   0   2  -4  134.60    2.59
   0   2   4  138.40    2.42
   0   2  -4  137.01    2.44
  -2  -2  -4  377.66    6.61
   2  -2   4  375.88    6.42
  -2  -2  -4  383.78    6.71
  -2  -2  -4  377.24    6.74
  -2  -2  -4  372.41    6.38
  -2  -2  -4  390.38    6.70
   2  -2   4  371.83    6.46
   2  -2   4  378.83    6.48
   2   2   4  369.38    6.32
  -2   2  -4  377.54    6.88
  -2   2  -4  390.86    6.67
   2   2   4  385.03    6.53
  -2   2  -4  388.52    6.49
   2   2   4  379.18    6.48
   2   2   4  378.72    6.50
  -4  -2  -4    8.74    0.58
  -4  -2  -4    9.13    0.53
   4  -2   4    8.70    0.45
  -4  -2  -4    9.02    0.50
   4  -2   4    9.26    0.46
  -4  -2  -4    8.84    0.50
   4   2   4    8.82    0.38
  -4   2  -4    8.89    0.54
  -4   2  -4    8.95    0.44
   4   2   4    8.26    0.46
  -4   2  -4   10.09    0.63
   4   2   4    8.54    0.45
   4   2   4    9.04    0.40
   6  -2   4   86.27    2.00
  -6  -2  -4   85.86    2.23
   6  -2   4   85.52    2.08
  -6  -2  -4   87.60    2.35
   6   2   4   81.70    2.09
   6   2   4   80.71    1.84
  -6   2  -4   88.58    2.29
  -6   2  -4   85.97    1.94
  -6   2  -4   87.23    2.42
   6   2   4   85.00    2.03
   8  -2   4    1.89    0.38
   8  -2   4    1.86    0.32
  -8  -2  -4    3.06    0.54
   8   2   4    1.90    0.31
   8   2   4    2.09    0.40
  -8   2  -4    2.28    0.42
  -8   2  -4    2.45    0.51
 -11  -3   4    0.76    0.28
  11  -3  -4    0.89    0.27
  11  -3  -4    1.16    0.36
 -11  -3   4    0.85    0.24
 -11  -3   4    1.42    0.30
  11   3  -4    0.81    0.28
 -11   3   4    1.14    0.37
 -11   3   4    1.15    0.30
  11   3  -4    1.38    0.36
   9  -3  -4    7.31    0.55
  -9  -3   4    8.15    0.49
  -9  -3   4    7.40    0.47
   9  -3  -4    7.51    0.51
  -9  -3   4    7.62    0.53
  -9  -3   4    8.26    0.56
   9   3  -4    7.72    0.49
  -9   3   4    7.47    0.46
   9   3  -4    7.71    0.58
  -9   3   4    7.67    0.53
  -9   3   4    7.98    0.49
   9   3  -4    7.66    0.55
   7  -3  -4    9.43    0.45
   7  -3  -4    9.20    0.49
   7  -3  -4    9.44    0.42
   7  -3  -4   10.05    0.51
  -7  -3   4    9.35    0.50
  -7  -3   4   11.06    0.46
  -7  -3   4   10.80    0.64
  -7   3   4   10.06    0.49
  -7   3   4    9.05    0.66
  -7   3   4    9.00    0.46
  -7   3   4    9.03    0.41
   7   3  -4    9.14    0.52
   7   3  -4    9.54    0.49
   7   3  -4    9.48    0.50
   5  -3  -4    8.33    0.41
   5  -3  -4    7.94    0.39
  -5  -3   4    8.01    0.33
  -5  -3   4    8.22    0.48
  -5  -3   4    8.56    0.39
   5  -3  -4    8.03    0.33
  -5  -3   4    7.94    0.26
  -5   3   4    7.76    0.37
   5   3  -4    7.97    0.38
  -5   3   4    7.76    0.29
   5   3  -4    8.40    0.39
  -5   3   4    8.21    0.50
  -5   3   4    7.56    0.31
  -5   3   4    8.07    0.34
   3  -3  -4   17.42    0.41
  -3  -3   4   17.70    0.65
   3  -3  -4   17.32    0.55
   3  -3  -4   17.26    0.52
   3  -3  -4   17.00    0.42
   3  -3  -4   17.97    0.56
   3  -3  -4   17.98    0.61
   3   3  -4   16.63    0.49
   3   3  -4   17.75    0.56
  -3   3   4   17.40    0.48
  -3   3   4   17.30    0.48
   3   3  -4   16.51    0.45
   3   3  -4   18.04    0.51
   3   3  -4   18.69    0.58
  -3   3   4   17.61    0.50
  -3   3   4   17.74    0.53
  -3   3   4   17.65    0.64
   1  -3  -4   33.18    0.88
   1  -3  -4   33.91    0.73
   1  -3  -4   34.52    0.90
   1  -3  -4   34.16    0.97
   1   3  -4   33.84    0.79
   1   3  -4   34.67    0.76
   1   3  -4   32.93    0.83
   1   3  -4   34.19    0.79
  -1   3   4   34.56    0.79
   1   3  -4   35.15    0.95
  -1   3   4   33.73    0.93
  -1   3   4   33.55    0.80
  -1   3   4   33.30    0.81
   1  -3   4    2.13    0.15
  -1  -3  -4    1.98    0.19
  -1  -3  -4    2.31    0.28
  -1  -3  -4    2.41    0.29
  -1  -3  -4    1.76    0.25
   1  -3   4    1.97    0.17
  -1  -3  -4    1.71    0.19
  -1   3  -4    1.88    0.27
  -1   3  -4    1.91    0.18
   1   3   4    2.26    0.18
   1   3   4    1.79    0.17
   1   3   4    1.71    0.19
  -1   3  -4    1.83    0.22
  -1   3  -4    1.88    0.11
   1   3   4    1.83    0.12
   3  -3   4   29.91    0.84
  -3  -3  -4   29.28    0.94
  -3  -3  -4   30.13    1.01
  -3  -3  -4   30.06    0.96
  -3  -3  -4   29.94    1.05
   3  -3   4   28.35    0.72
   3  -3   4   29.98    0.87
   3   3   4   29.82    0.76
  -3   3  -4   29.90    0.95
   3   3   4   30.66    0.85
  -3   3  -4   30.18    0.96
  -3   3  -4   28.75    1.09
  -3   3  -4   29.59    0.82
   3   3   4   28.79    0.88
   3   3   4   35.52    0.96
  -5  -3  -4    0.19    0.17
  -5  -3  -4    0.10    0.15
   5  -3   4    0.05    0.16
   5  -3   4    0.28    0.17
  -5  -3  -4    0.26    0.19
  -5   3  -4    0.15    0.17
   5   3   4    0.40    0.18
  -5   3  -4    0.08    0.12
   5   3   4   -0.04    0.10
  -5   3  -4    1.40    0.34
   5   3   4    0.10    0.11
   7  -3   4    1.35    0.29
   7  -3   4    1.22    0.25
  -7  -3  -4    2.25    0.46
  -7   3  -4    1.58    0.39
   7   3   4    1.37    0.31
  -7   3  -4    2.82    0.56
   7   3   4    1.64    0.29
  10  -4  -4  158.69    3.47
 -10  -4   4  152.12    3.22
  10  -4  -4  159.80    3.40
 -10  -4   4  160.59    3.51
 -10  -4   4  152.77    3.40
  10   4  -4  159.36    3.67
 -10   4   4  155.11    3.38
  10   4  -4  156.70    3.49
 -10   4   4  159.58    3.42
  -8  -4   4   20.95    0.79
   8  -4  -4   20.83    0.84
   8  -4  -4   20.76    0.79
  -8  -4   4   21.61    0.85
  -8  -4   4   21.13    0.73
  -8  -4   4   21.31    0.86
  -8   4   4   21.04    0.79
   8   4  -4   22.08    0.89
  -8   4   4   21.06    0.80
  -8   4   4   20.38    1.09
   8   4  -4   21.36    0.81
   8   4  -4   21.25    0.92
  -6  -4   4  263.44    4.74
   6  -4  -4  264.75    4.63
  -6  -4   4  263.22    4.88
  -6  -4   4  255.51    4.56
   6  -4  -4  255.77    4.65
   6  -4  -4  265.16    4.81
  -6  -4   4  259.38    4.97
   6  -4  -4  261.15    4.79
  -6   4   4  261.54    4.66
   6   4  -4  267.42    4.79
  -6   4   4  259.41    5.16
  -6   4   4  260.96    4.73
   6   4  -4  260.68    4.80
  -4  -4   4    1.82    0.15
   4  -4  -4    1.82    0.15
   4  -4  -4    1.73    0.22
  -4  -4   4    1.74    0.20
  -4  -4   4    1.77    0.12
   4  -4  -4    1.69    0.20
   4   4  -4    2.10    0.19
   4   4  -4    2.19    0.21
   4   4  -4    1.75    0.13
  -4   4   4    1.59    0.19
  -4   4   4    1.58    0.15
   4   4  -4    1.65    0.20
   2  -4  -4  327.00    5.76
   2  -4  -4  328.21    5.69
   2  -4  -4  332.33    5.85
   2  -4  -4  317.12    5.57
  -2  -4   4  328.53    5.81
  -2   4   4  325.05    5.60
   2   4  -4  331.16    5.58
  -2   4   4  320.79    5.59
   2   4  -4  322.43    5.58
   2   4  -4  326.94    5.57
   2   4  -4  337.02    5.70
  -2   4   4  317.21    5.47
  -2   4   4  328.22    5.54
   2   4  -4  324.14    5.63
  -2   4   4  330.98    5.75
   0  -4  -4    1.65    0.15
   0  -4  -4    2.20    0.27
   0  -4  -4    1.40    0.21
   0  -4  -4    1.37    0.21
   0   4   4    1.25    0.15
   0   4  -4    1.23    0.17
   0   4  -4    1.30    0.16
   0   4  -4    1.10    0.13
   0   4   4    1.43    0.18
   0   4  -4    1.12    0.15
   0   4   4    1.45    0.12
   0   4  -4    1.76    0.22
   0   4   4    1.28    0.16
  -2  -4  -4  353.85    6.29
  -2  -4  -4  331.13    5.96
   2  -4   4  339.98    5.82
  -2  -4  -4  336.76    5.94
  -2  -4  -4  334.74    6.13
  -2  -4  -4  341.68    6.21
   2  -4   4  341.86    5.96
   2   4   4  346.92    5.97
   2   4   4  337.13    5.79
   2   4   4  337.86    6.00
   2   4   4  346.13    6.04
  -2   4  -4  338.45    6.37
  -2   4  -4  349.49    5.89
  -2   4  -4  347.41    6.10
   2   4   4  342.35    5.83
   4  -4   4   15.21    0.67
  -4  -4  -4   13.72    0.75
   4  -4   4   15.34    0.63
  -4  -4  -4   14.82    0.75
  -4   4  -4   15.09    0.85
   4   4   4   14.87    0.68
   4   4   4   14.93    0.66
  -4   4  -4   14.88    0.70
  -4   4  -4   15.36    0.57
   6  -4   4  214.59    4.28
  -6  -4  -4  211.77    4.28
   6  -4   4  219.06    4.19
  -6  -4  -4  219.06    4.62
  -6   4  -4  211.85    4.77
   6   4   4  215.15    4.29
   6   4   4  211.76    4.39
   8  -4   4   13.35    0.77
   8  -4   4   13.16    0.69
  -8  -4  -4   13.16    0.93
   8   4   4   12.86    0.74
  -8   4  -4   12.93    0.96
   8   4   4   11.33    0.79
 -11  -5   4    2.05    0.36
  11  -5  -4    2.00    0.37
  11  -5  -4    2.27    0.45
 -11  -5   4    1.76    0.38
  11   5  -4    2.17    0.42
 -11   5   4    2.52    0.52
 -11   5   4    1.91    0.39
  -9  -5   4   18.34    0.88
  -9  -5   4   17.92    0.80
  -9  -5   4   17.92    0.87
   9  -5  -4   16.43    0.77
   9  -5  -4   18.09    0.84
  -9   5   4   15.71    0.78
  -9   5   4   18.07    0.82
   9   5  -4   16.71    0.86
  -7  -5   4    1.82    0.29
  -7  -5   4    2.05    0.23
   7  -5  -4    1.74    0.22
   7  -5  -4    1.92    0.29
   7  -5  -4    1.93    0.31
   7  -5  -4    1.94    0.27
  -7  -5   4    1.77    0.30
  -7  -5   4    1.90    0.28
  -7  -5   4    2.12    0.31
   7   5  -4    2.21    0.29
  -7   5   4    1.81    0.24
   7   5  -4    1.99    0.30
  -7   5   4    1.76    0.26
  -7   5   4    1.86    0.35
  -5  -5   4   62.25    1.43
   5  -5  -4   62.99    1.55
  -5  -5   4   62.18    1.55
   5  -5  -4   63.84    1.52
  -5  -5   4   65.12    1.60
  -5  -5   4   62.07    1.28
   5  -5  -4   62.29    1.37
   5  -5  -4   59.84    1.39
   5   5  -4   62.67    1.51
  -5   5   4   61.23    1.67
  -5   5   4   61.91    1.39
  -5   5   4   61.94    1.37
  -5   5   4   62.60    1.47
   5   5  -4   61.38    1.51
  -5   5   4   60.76    1.35
   3  -5  -4   31.99    0.98
   3  -5  -4   31.91    0.97
   3  -5  -4   29.69    0.85
   3  -5  -4   30.91    0.86
  -3  -5   4   30.57    0.91
   3   5  -4   31.71    0.86
   3   5  -4   31.39    0.82
  -3   5   4   30.85    0.83
   3   5  -4   29.35    0.78
   3   5  -4   31.31    0.82
  -3   5   4   30.90    0.84
  -3   5   4   30.86    0.83
  -3   5   4   30.05    0.72
  -3   5   4   30.90    0.93
   3   5  -4   31.30    0.88
   1  -5  -4   35.69    0.89
   1  -5  -4   35.89    1.13
   1  -5  -4   35.60    1.05
   1  -5  -4   36.83    1.03
   1   5  -4   36.30    0.91
   1   5  -4   36.68    0.96
   1   5  -4   36.51    0.89
  -1   5   4   37.23    0.94
  -1   5   4   35.84    0.90
  -1   5   4   36.90    0.95
   1   5  -4   38.36    1.05
   1   5  -4   37.93    0.92
  -1   5   4   36.50    0.95
   1  -5   4  113.14    2.19
  -1  -5  -4  111.85    2.35
  -1  -5  -4  114.32    2.45
  -1  -5  -4  118.77    2.61
  -1  -5  -4  113.13    2.43
  -1   5  -4  112.09    2.56
   1   5   4  117.64    2.35
   1   5   4  114.10    2.29
  -1   5  -4  118.91    2.38
   1   5   4  109.91    2.12
  -1   5  -4  113.29    2.19
   1   5   4  111.38    2.15
   3  -5   4   16.84    0.68
   3  -5   4   16.83    0.59
  -3  -5  -4   16.14    0.78
  -3  -5  -4   16.78    0.75
  -3  -5  -4   15.64    0.62
  -3  -5  -4   17.53    0.83
   3   5   4   16.38    0.63
  -3   5  -4   16.53    0.58
  -3   5  -4   17.42    0.88
  -3   5  -4   16.98    0.74
   3   5   4   16.17    0.70
   5  -5   4   53.66    1.45
  -5  -5  -4   55.15    1.74
  -5  -5  -4   54.63    1.59
  -5  -5  -4   54.13    1.66
   5  -5   4   53.43    1.52
   5   5   4   55.27    1.38
  -5   5  -4   54.60    1.88
   5   5   4   52.29    1.58
   5   5   4   55.12    1.57
  -7  -5  -4   20.52    1.12
  -7  -5  -4   18.01    0.91
   7  -5   4   19.56    0.86
   7  -5   4   20.17    0.95
   7   5   4   17.90    0.93
  -7   5  -4   18.64    1.12
   7   5   4   18.51    0.92
  10  -6  -4    0.85    0.24
  10  -6  -4    1.62    0.38
 -10  -6   4    1.37    0.39
 -10  -6   4    1.88    0.37
 -10   6   4    1.45    0.35
 -10   6   4    1.46    0.34
 -10   6   4    1.69    0.39
  10   6  -4    1.75    0.38
   8  -6  -4  136.36    2.99
   8  -6  -4  132.11    2.84
  -8  -6   4  131.56    3.04
  -8  -6   4  135.42    2.94
   8  -6  -4  130.75    2.87
  -8  -6   4  133.77    2.89
  -8   6   4  136.99    2.88
   8   6  -4  133.88    3.05
  -8   6   4  134.90    2.96
  -6  -6   4   17.52    0.71
  -6  -6   4   19.12    0.72
   6  -6  -4   17.69    0.77
   6  -6  -4   18.14    0.63
   6  -6  -4   17.68    0.66
  -6  -6   4   18.33    0.80
   6  -6  -4   18.23    0.75
  -6   6   4   17.71    0.64
   6   6  -4   19.01    0.79
  -6   6   4   16.97    0.88
  -6   6   4   18.62    0.66
  -6   6   4   17.98    0.74
   6   6  -4   19.04    0.78
   4  -6  -4  354.93    6.20
   4  -6  -4  364.24    6.25
   4  -6  -4  372.08    6.52
  -4  -6   4  353.41    6.23
  -4  -6   4  347.84    6.33
   4  -6  -4  357.23    6.38
  -4  -6   4  358.66    6.49
   4   6  -4  362.87    6.43
   4   6  -4  350.20    6.21
  -4   6   4  356.53    6.13
   4   6  -4  367.62    6.40
  -4   6   4  364.29    6.34
  -4   6   4  360.58    6.53
  -4   6   4  367.75    6.31
  -4   6   4  367.51    6.31
   2  -6  -4   58.27    1.56
   2  -6  -4   58.82    1.52
   2  -6  -4   56.87    1.36
  -2  -6   4   57.88    1.42
  -2  -6   4   58.83    1.42
   2  -6  -4   59.28    1.43
   2   6  -4   57.74    1.30
   2   6  -4   58.77    1.35
  -2   6   4   58.51    1.37
   2   6  -4   57.69    1.36
  -2   6   4   57.69    1.33
   2   6  -4   57.30    1.38
  -2   6   4   59.16    1.40
   2   6  -4   58.60    1.36
   0  -6   4  362.53    6.47
   0  -6  -4  388.13    6.99
   0  -6   4  371.52    6.48
   0  -6  -4  383.82    6.63
   0  -6  -4  379.61    6.76
   0  -6  -4  366.59    6.49
   0  -6  -4  378.70    6.78
   0   6   4  364.33    6.41
   0   6  -4  388.74    6.56
   0   6   4  386.22    6.66
   0   6  -4  375.73    6.48
   0   6  -4  384.20    6.68
   0   6   4  373.37    6.46
   0   6   4  378.62    6.61
   0   6  -4  389.32    6.84
  -2  -6  -4   14.84    0.72
   2  -6   4   14.54    0.57
  -2  -6  -4   14.48    0.76
  -2  -6  -4   15.42    0.67
  -2  -6  -4   13.55    0.67
   2  -6   4   14.80    0.62
   2   6   4   15.08    0.68
  -2   6  -4   14.38    0.52
   2   6   4   14.99    0.62
  -2   6  -4   15.28    0.69
  -2   6  -4   14.78    0.77
  -4  -6  -4  151.25    3.42
  -4  -6  -4  149.26    3.38
   4  -6   4  155.05    3.17
   4  -6   4  147.93    2.95
  -4  -6  -4  149.55    3.26
   4   6   4  154.07    3.03
   4   6   4  150.48    3.25
  -4   6  -4  151.48    3.27
  -4   6  -4  147.96    3.58
   6  -6   4    1.10    0.28
  -6  -6  -4    0.78    0.35
  -6  -6  -4    0.89    0.28
  -6  -6  -4    0.57    0.29
   6  -6   4    0.87    0.23
  -6   6  -4    1.01    0.36
   6   6   4    1.05    0.29
  -9  -7   4   16.35    0.83
   9  -7  -4   16.96    0.90
   9  -7  -4   15.57    0.77
  -9  -7   4   17.11    0.89
  -9   7   4   15.90    0.80
  -9   7   4   15.30    0.94
  -9   7   4   15.47    0.87
   9   7  -4   14.64    0.87
   7  -7  -4    0.85    0.25
  -7  -7   4    0.72    0.22
   7  -7  -4    0.93    0.23
   7  -7  -4    0.96    0.28
  -7  -7   4    0.82    0.21
  -7  -7   4    0.92    0.27
  -7   7   4    0.76    0.24
  -7   7   4    0.68    0.17
   7   7  -4    1.66    0.31
   5  -7  -4   18.47    0.69
  -5  -7   4   18.44    0.82
   5  -7  -4   17.82    0.66
   5  -7  -4   19.09    0.81
   5  -7  -4   18.11    0.82
  -5  -7   4   18.38    0.69
  -5  -7   4   18.32    0.73
  -5   7   4   18.48    0.73
  -5   7   4   19.19    0.72
   5   7  -4   19.71    0.80
  -5   7   4   18.30    0.71
  -5   7   4   17.83    0.72
   5   7  -4   19.50    0.80
   3  -7  -4    1.78    0.25
   3  -7  -4    1.60    0.31
  -3  -7   4    1.46    0.19
   3  -7  -4    1.73    0.30
   3  -7  -4    1.64    0.27
  -3  -7   4    1.59    0.22
  -3  -7   4    1.50    0.25
   3   7  -4    2.42    0.28
  -3   7   4    1.93    0.26
   3   7  -4    1.69    0.22
  -3   7   4    2.06    0.25
  -3   7   4    1.47    0.23
   1  -7  -4    0.25    0.20
  -1  -7   4    0.17    0.10
   1  -7  -4    0.08    0.15
  -1  -7   4    0.08    0.08
   1  -7  -4    0.30    0.15
   1   7  -4    0.32    0.12
  -1   7   4    0.30    0.15
   1   7  -4    0.21    0.10
   1   7  -4    0.29    0.14
   1   7  -4    0.65    0.17
  -1   7   4    0.20    0.13
  -1   7   4    0.25    0.11
  -1  -7  -4    6.30    0.43
  -1  -7  -4    6.80    0.47
  -1  -7  -4    7.33    0.57
   1  -7   4    6.43    0.39
  -1  -7  -4    6.91    0.38
  -1  -7  -4    7.48    0.55
  -1   7  -4    6.67    0.35
   1   7   4    6.12    0.35
  -1   7  -4    6.82    0.47
   1   7   4    6.98    0.48
  -1   7  -4    7.74    0.53
   1   7   4    7.44    0.45
  -3  -7  -4    2.17    0.36
  -3  -7  -4    2.14    0.33
   3  -7   4    2.17    0.31
   3  -7   4    1.83    0.32
  -3  -7  -4    1.73    0.38
  -3  -7  -4    1.82    0.31
  -3   7  -4    1.68    0.35
   3   7   4    1.69    0.27
   3   7   4    2.05    0.34
  -3   7  -4    1.80    0.32
   5  -7   4    2.06    0.32
  -5  -7  -4    2.31    0.44
   5  -7   4    2.39    0.40
  -5  -7  -4    2.44    0.45
  -5  -7  -4    1.95    0.39
   5   7   4    2.49    0.41
  -5   7  -4    1.81    0.38
  -5   7  -4    2.09    0.43
   7  -7   4    0.26    0.19
  -7  -7  -4    0.29    0.32
  -7  -7  -4    0.79    0.37
   7  -7   4    0.25    0.29
  -7   7  -4    0.66    0.31
   7   7   4    0.15    0.17
 -10  -8   4   41.82    1.52
  10  -8  -4   42.12    1.52
 -10  -8   4   42.47    1.47
 -10   8   4   40.81    1.71
 -10   8   4   40.76    1.56
  10   8  -4   41.61    1.55
  -8  -8   4   67.68    1.87
   8  -8  -4   68.29    1.86
  -8  -8   4   68.70    1.88
  -8  -8   4   63.80    2.28
   8  -8  -4   69.61    1.94
   8  -8  -4   67.42    1.80
  -8   8   4   67.35    1.94
  -8   8   4   68.60    2.13
   8   8  -4   67.71    2.00
  -6  -8   4   35.71    1.12
  -6  -8   4   35.39    1.29
   6  -8  -4   35.38    1.09
   6  -8  -4   36.40    1.24
  -6  -8   4   36.22    1.16
   6  -8  -4   35.97    1.24
   6   8  -4   36.37    1.27
  -6   8   4   36.11    1.13
  -6   8   4   37.58    1.22
   4  -8  -4   85.60    2.05
   4  -8  -4   82.88    1.86
   4  -8  -4   81.64    2.04
  -4  -8   4   85.52    2.12
  -4  -8   4   82.90    1.82
   4  -8  -4   86.85    2.16
  -4  -8   4   84.44    1.93
  -4   8   4   83.82    1.96
   4   8  -4   85.21    2.03
   4   8  -4   81.76    1.90
  -4   8   4   85.54    1.99
  -4   8   4   84.39    1.97
   2  -8  -4   23.39    1.00
   2  -8  -4   24.09    0.86
  -2  -8   4   22.61    0.75
   2  -8  -4   22.30    0.98
  -2  -8   4   22.85    0.87
   2  -8  -4   22.60    0.86
  -2   8   4   23.38    0.85
  -2   8   4   23.71    0.89
   2   8  -4   21.89    0.82
  -2   8   4   23.75    0.79
   2   8  -4   24.15    0.86
   0  -8  -4  102.50    2.44
   0  -8  -4   97.47    2.17
   0  -8   4  100.44    2.18
   0  -8  -4  102.12    2.58
   0  -8   4   98.58    2.13
   0  -8  -4   99.44    2.39
   0   8   4  102.95    2.36
   0   8   4   94.75    2.08
   0   8   4  101.47    2.26
   0   8  -4  103.52    2.31
   0   8  -4  101.33    2.22
   0   8  -4  101.15    2.33
   0   8   4  100.78    2.31
   0   8  -4  100.74    2.07
  -2  -8  -4   25.52    1.05
   2  -8   4   24.99    0.96
  -2  -8  -4   24.69    1.16
  -2  -8  -4   25.50    1.02
   2  -8   4   24.32    0.88
  -2  -8  -4   23.57    0.94
   2   8   4   24.26    1.01
   2   8   4   25.96    0.93
  -2   8  -4   23.21    1.06
  -2   8  -4   25.06    1.00
  -4  -8  -4   99.52    2.73
  -4  -8  -4  102.37    2.42
   4  -8   4   98.99    2.27
   4  -8   4  102.10    2.45
  -4  -8  -4   96.20    2.53
  -4  -8  -4  103.91    2.61
  -4   8  -4  104.28    2.55
   4   8   4   99.87    2.57
  -4   8  -4   94.86    2.78
   4   8   4  103.31    2.31
  -6  -8  -4   27.32    1.23
   6  -8   4   25.49    1.02
   6  -8   4   25.55    1.13
  -6  -8  -4   23.45    1.18
  -6   8  -4   28.49    1.23
  -6   8  -4   27.93    1.43
   6   8   4   26.48    1.20
  -9  -9   4    0.41    0.29
   9  -9  -4    0.29    0.22
  -9  -9   4    0.12    0.26
  -9   9   4    0.46    0.22
   9   9  -4    0.04    0.28
  -9   9   4    0.33    0.30
   7  -9  -4    6.31    0.61
  -7  -9   4    5.44    0.58
   7  -9  -4    5.74    0.55
  -7  -9   4    6.04    0.47
   7  -9  -4    5.18    0.46
  -7  -9   4    6.48    0.56
  -7   9   4    4.78    0.48
  -7   9   4    5.74    0.59
   7   9  -4    5.61    0.61
   5  -9  -4    0.08    0.16
   5  -9  -4    1.31    0.34
   5  -9  -4    0.55    0.20
   5  -9  -4    0.29    0.27
  -5  -9   4    0.04    0.18
  -5  -9   4    0.17    0.16
  -5   9   4    0.24    0.19
   5   9  -4   -0.01    0.12
  -5   9   4    0.66    0.22
  -3  -9   4    1.14    0.28
   3  -9  -4    1.35    0.28
   3  -9  -4    1.57    0.27
  -3  -9   4    1.84    0.27
   3  -9  -4    1.30    0.31
  -3  -9   4    1.57    0.31
   3  -9  -4    1.36    0.31
   3   9  -4    1.13    0.27
   3   9  -4    0.85    0.22
  -3   9   4    1.24    0.24
  -3   9   4    1.35    0.26
   1  -9  -4    0.90    0.25
   1  -9  -4    1.79    0.39
   1  -9  -4    0.84    0.28
   1  -9  -4    0.77    0.31
  -1  -9   4    0.59    0.20
  -1   9   4    0.91    0.26
   1   9  -4    0.79    0.23
  -1   9   4    0.82    0.23
   1   9  -4    0.77    0.23
  -1  -9  -4    1.39    0.36
   1  -9   4    1.19    0.29
  -1  -9  -4    0.94    0.23
  -1  -9  -4    0.97    0.31
  -1  -9  -4    1.98    0.36
   1   9   4    1.16    0.28
   1   9   4    1.35    0.28
  -1   9  -4    1.29    0.21
   1   9   4    0.77    0.25
  -1   9  -4    0.89    0.26
  -3  -9  -4    1.84    0.40
   3  -9   4    2.29    0.37
   3  -9   4    2.70    0.43
  -3  -9  -4    1.65    0.41
  -3  -9  -4    2.23    0.39
  -3   9  -4    2.37    0.42
   3   9   4    1.74    0.35
   3   9   4    2.36    0.34
  -3   9  -4    2.12    0.41
   3   9   4    2.44    0.42
  -5  -9  -4    0.52    0.31
   5  -9   4    1.31    0.34
  -5  -9  -4    1.00    0.39
   5  -9   4    1.05    0.35
   5   9   4    1.03    0.29
  -5   9  -4    0.77    0.30
  -5   9  -4    1.58    0.39
   5   9   4    1.31    0.31
  -8 -10   4    2.64    0.44
  -8 -10   4    2.25    0.41
   8 -10  -4    2.26    0.41
  -8  10   4    2.26    0.43
   8  10  -4    3.72    0.51
  -8  10   4    2.13    0.46
   6 -10  -4  121.28    2.97
  -6 -10   4  128.21    2.91
   6 -10  -4  133.21    3.06
  -6  10   4  124.81    2.87
  -6  10   4  125.88    2.99
   6  10  -4  122.77    3.05
  -4 -10   4   15.56    0.84
  -4 -10   4   12.72    0.79
  -4 -10   4   15.05    0.73
   4 -10  -4   14.72    0.86
   4 -10  -4   15.57    0.82
   4 -10  -4   13.08    0.66
   4  10  -4   13.60    0.71
  -4  10   4   13.72    0.72
   4  10  -4   14.54    0.80
  -4  10   4   15.96    0.79
   2 -10  -4  146.24    3.49
  -2 -10   4  152.18    3.27
   2 -10  -4  144.32    3.48
  -2 -10   4  150.72    3.61
   2 -10  -4  150.92    3.28
   2  10  -4  153.86    3.28
   2  10  -4  145.90    3.22
  -2  10   4  148.60    3.22
  -2  10   4  150.23    3.32
   0 -10  -4   21.91    0.91
   0 -10  -4   22.28    1.09
   0 -10  -4   21.11    1.13
   0 -10   4   21.02    0.86
   0 -10   4   22.39    0.94
   0 -10  -4   22.23    1.04
   0  10   4   21.87    1.02
   0  10   4   23.29    0.96
   0  10  -4   21.14    0.96
  -2 -10  -4   95.23    2.58
   2 -10   4   97.92    2.44
   2 -10   4   96.55    2.34
  -2 -10  -4   98.67    2.56
  -2 -10  -4   99.41    2.85
  -2  10  -4   97.88    2.51
   2  10   4   98.47    2.37
   2  10   4   96.80    2.57
   4 -10   4   11.31    0.71
   4 -10   4   11.48    0.78
  -4 -10  -4   12.15    0.79
  -4 -10  -4   11.63    0.86
   4  10   4   11.61    0.78
   4  10   4   11.76    0.83
  -4  10  -4   12.09    0.78
  -4  10  -4   11.11    0.86
  -7 -11   4   14.80    0.84
   7 -11  -4   15.63    0.93
  -7 -11   4   15.97    0.93
   7 -11  -4   13.90    0.85
  -7  11   4   15.78    0.93
   7  11  -4   14.49    0.93
  -5 -11   4    9.95    0.66
   5 -11  -4    9.93    0.71
   5 -11  -4    9.69    0.72
  -5 -11   4   10.14    0.74
   5  11  -4    9.05    0.71
  -5  11   4    8.66    0.62
  -5  11   4    9.40    0.67
  -3 -11   4   17.77    0.93
   3 -11  -4   18.05    1.02
  -3 -11   4   16.22    0.90
   3 -11  -4   17.50    0.90
   3  11  -4   18.09    0.92
  -3  11   4   18.08    0.92
   3  11  -4   17.13    0.83
   1 -11  -4   18.13    1.02
  -1 -11   4   18.92    0.91
   1 -11  -4   18.12    0.93
  -1 -11   4   17.34    0.83
   1 -11  -4   16.42    1.00
   1 -11  -4   17.58    0.89
  -1  11   4   17.97    0.89
   1  11  -4   16.98    0.87
  -1  11   4   16.99    0.93
   1  11  -4   17.33    0.89
  -1 -11  -4   10.48    0.81
  -1 -11  -4   11.24    0.84
   1 -11   4   11.40    0.74
  -1  11  -4   10.88    0.75
   1  11   4   10.30    0.69
   1  11   4   10.94    0.79
   3 -11   4   15.35    0.85
  -3 -11  -4   15.15    0.93
  -3 -11  -4   16.66    1.04
   3 -11   4   16.59    0.93
   3  11   4   15.00    0.94
  -3  11  -4   15.55    0.94
   6 -12  -4   15.77    0.94
   6 -12  -4   13.93    0.88
  -6 -12   4   13.91    0.91
  -6 -12   4   13.83    0.84
   6  12  -4   14.16    0.93
  -6  12   4   13.21    0.83
  -6  12   4   14.19    0.89
  -4 -12   4   68.44    2.07
   4 -12  -4   65.78    2.01
   4 -12  -4   67.75    2.13
   4  12  -4   64.06    1.99
  -4  12   4   65.10    1.98
   2 -12  -4    8.51    0.71
  -2 -12   4    7.68    0.65
  -2 -12   4    7.97    0.62
   2 -12  -4    9.77    0.86
   2  12  -4    7.32    0.59
  -2  12   4    7.56    0.62
   2  12  -4    7.87    0.62
   0 -12  -4   81.35    2.46
   0 -12   4   78.82    2.18
   0 -12  -4   77.96    2.13
   0  12   4   76.42    2.31
   0  12   4   76.33    2.15
   0  12  -4   75.33    2.20
  -2 -12  -4    5.58    0.68
  -2 -12  -4    5.09    0.67
   2 -12   4    5.43    0.55
   2 -12   4    5.57    0.54
   2  12   4    4.95    0.60
  -2  12  -4    5.16    0.61
   2  12   4    5.57    0.54
  -3 -13   4    3.53    0.53
  -3 -13   4    3.49    0.54
   3 -13  -4    2.86    0.49
   3 -13  -4    2.76    0.56
  -3  13   4    3.28    0.51
   3  13  -4    3.33    0.52
  -1 -13   4    2.47    0.47
   1 -13  -4    3.26    0.46
   1 -13  -4    3.81    0.66
  -1 -13   4    2.05    0.49
  -1  13   4    3.65    0.56
   1  13  -4    3.35    0.52
  12   0  -5    0.00    0.19
  12   0  -5    0.10    0.17
 -12   0   5    0.11    0.26
 -12   0   5   -0.02    0.24
 -12   0   5   -0.17    0.21
  10   0  -5    0.35    0.20
 -10   0   5    0.38    0.22
 -10   0   5    0.00    0.18
  10   0  -5    0.04    0.16
  10   0  -5    0.08    0.21
   8   0  -5    0.73    0.18
  -8   0   5    0.96    0.28
   8   0  -5    0.13    0.16
   8   0  -5    1.44    0.24
  -8   0   5    1.33    0.23
   6   0  -5    0.52    0.12
  -6   0   5    0.49    0.12
   6   0  -5    0.37    0.10
   6   0  -5    0.17    0.08
   6   0  -5    0.34    0.08
  -6   0   5   -0.01    0.11
   6   0  -5    0.28    0.11
  -6   0   5    0.02    0.09
   4   0  -5    0.66    0.10
  -2   0   5    0.01    0.06
   2   0  -5    0.02    0.06
  -2   0   5    0.09    0.07
   2   0  -5    0.05    0.07
   2   0  -5    0.22    0.09
  -2   0   5    0.11    0.04
   0   0  -5    0.11    0.06
   0   0   5    0.15    0.05
   0   0  -5    0.02    0.05
   0   0  -5    0.21    0.10
   0   0  -5    0.05    0.09
   0   0  -5    0.08    0.08
   0   0   5    0.13    0.06
   0   0   5    0.03    0.06
   2   0   5    0.04    0.08
  -2   0  -5    0.09    0.12
   2   0   5    0.09    0.10
  -2   0  -5    0.14    0.11
  -2   0  -5   -0.05    0.12
   2   0   5    0.10    0.08
  -2   0  -5    0.27    0.08
   4   0   5   -0.03    0.11
  -4   0  -5    0.22    0.14
   4   0   5    0.12    0.14
  -4   0  -5    0.02    0.17
   4   0   5    0.08    0.09
   6   0   5   -0.03    0.17
   6   0   5    0.01    0.14
  -6   0  -5   -0.09    0.23
   6   0   5    0.05    0.13
  -6   0  -5    0.05    0.15
   8   0   5    0.42    0.26
  -8   0  -5    0.13    0.26
  -8   0  -5    0.16    0.31
   8   0   5    0.16    0.15
 -11  -1   5  110.14    2.64
 -11  -1   5  107.12    2.55
  11  -1  -5  110.14    2.74
  11  -1  -5  107.18    2.65
  11  -1  -5  107.11    2.60
 -11   1   5  108.09    2.58
 -11   1   5  108.63    2.59
  11   1  -5  107.17    2.62
  11   1  -5  112.16    2.74
   9  -1  -5   14.71    0.69
   9  -1  -5   14.12    0.66
   9  -1  -5   14.16    0.60
   9  -1  -5   13.79    0.72
  -9  -1   5   16.59    0.73
  -9  -1   5   14.80    0.65
   9   1  -5   14.81    0.70
  -9   1   5   13.68    0.59
   9   1  -5   14.47    0.62
   9   1  -5   13.37    0.65
  -9   1   5   13.78    0.65
  -9   1   5   14.58    0.68
  -7  -1   5  224.69    4.58
  -7  -1   5  225.22    4.16
  -7  -1   5  224.16    4.08
   7  -1  -5  224.98    4.10
   7  -1  -5  226.33    4.26
   7  -1  -5  226.69    4.10
  -7  -1   5  223.80    3.96
  -7   1   5  222.18    4.05
   7   1  -5  226.45    4.15
  -7   1   5  223.32    4.62
   7   1  -5  227.09    4.14
   7   1  -5  218.38    4.28
  -7   1   5  226.06    4.11
  -7   1   5  221.52    4.10
   5  -1  -5   50.11    1.26
   5  -1  -5   49.52    0.99
  -5  -1   5   49.66    1.41
   5  -1  -5   51.12    1.18
  -5  -1   5   48.17    1.06
  -5  -1   5   49.16    1.12
   5  -1  -5   50.56    1.19
   5  -1  -5   51.00    1.03
  -5   1   5   49.90    1.43
  -5   1   5   50.04    1.13
   5   1  -5   49.15    1.18
  -5   1   5   49.29    0.99
   5   1  -5   50.22    1.06
  -5   1   5   49.33    1.13
   5   1  -5   50.68    1.12
   5   1  -5   51.71    1.09
   5   1  -5   49.11    1.23
  -3  -1   5  347.77    5.80
   3  -1  -5  345.57    5.87
   3  -1  -5  343.08    5.74
   3  -1  -5  346.05    5.77
   3  -1  -5  332.83    5.76
  -3  -1   5  338.10    5.79
  -3  -1   5  328.14    5.91
  -3  -1   5  345.76    6.16
   3  -1  -5  346.69    5.93
   3   1  -5  350.51    5.88
   3   1  -5  351.05    5.69
   3   1  -5  345.95    5.77
  -3   1   5  340.92    5.82
  -3   1   5  328.71    5.74
  -3   1   5  336.59    6.14
   1  -1  -5  126.99    2.56
   1  -1  -5  128.38    2.36
  -1  -1   5  124.11    2.19
   1  -1  -5  124.48    2.37
   1  -1  -5  125.60    2.44
  -1  -1   5  127.25    2.27
   1  -1  -5  129.03    2.35
  -1   1   5  126.28    2.35
   1   1  -5  125.74    2.59
  -1   1   5  126.88    2.29
   1   1  -5  130.99    2.37
   1   1  -5  125.08    2.33
  -1  -1  -5  221.20    4.04
  -1  -1  -5  217.17    3.96
   1  -1   5  211.48    3.76
  -1  -1  -5  209.18    3.69
  -1  -1  -5  208.65    4.13
   1  -1   5  217.29    3.83
  -1  -1  -5  215.68    4.11
  -1   1  -5  215.62    4.23
   1   1   5  217.83    3.85
  -1   1  -5  212.13    3.71
   1   1   5  214.35    3.76
  -1   1  -5  215.41    3.86
   1   1   5  223.83    3.89
  -1   1  -5  213.13    3.87
  -3  -1  -5   89.79    2.01
  -3  -1  -5   86.93    1.97
   3  -1   5   87.87    1.88
   3  -1   5   89.72    1.91
  -3  -1  -5   88.69    2.21
  -3  -1  -5   88.89    2.21
   3   1   5   92.54    1.94
  -3   1  -5   90.48    2.18
  -3   1  -5   90.84    1.95
   3   1   5   88.24    1.91
  -3   1  -5   87.90    2.28
   3   1   5   93.34    1.92
   5  -1   5   75.92    1.74
   5  -1   5   75.17    1.85
  -5  -1  -5   76.19    2.16
   5  -1   5   76.51    1.83
  -5  -1  -5   75.88    2.13
  -5   1  -5   77.95    2.23
  -5   1  -5   75.02    1.81
   5   1   5   79.66    1.88
   5   1   5   74.77    1.86
   5   1   5   77.38    1.76
  -5   1  -5   73.17    2.09
  -7  -1  -5   37.39    1.82
   7  -1   5   44.29    1.44
  -7  -1  -5   43.73    1.68
   7  -1   5   42.55    1.21
   7  -1   5   43.96    1.37
  -7   1  -5   45.30    1.73
   7   1   5   42.88    1.44
   7   1   5   43.31    1.37
  -7   1  -5   44.46    1.65
 -12  -2   5   24.86    1.12
  12  -2  -5   25.92    1.10
  12  -2  -5   24.80    1.16
 -12  -2   5   23.93    1.05
  12  -2  -5   26.72    1.33
  12   2  -5   24.12    1.16
 -12   2   5   25.28    1.23
  12   2  -5   25.42    1.13
 -12   2   5   25.39    1.13
  10  -2  -5   52.81    1.63
 -10  -2   5   52.74    1.42
 -10  -2   5   52.72    1.57
 -10  -2   5   50.53    1.51
 -10  -2   5   52.13    1.47
  10  -2  -5   52.34    1.53
 -10   2   5   50.08    1.45
  10   2  -5   53.07    1.58
  10   2  -5   52.13    1.44
 -10   2   5   51.63    1.43
  10   2  -5   52.06    1.62
 -10   2   5   54.38    1.55
   8  -2  -5   56.81    1.35
  -8  -2   5   56.12    1.38
  -8  -2   5   57.28    1.47
   8  -2  -5   54.83    1.41
  -8  -2   5   52.78    1.73
   8  -2  -5   56.81    1.53
  -8   2   5   52.77    1.80
  -8   2   5   55.79    1.42
   8   2  -5   57.70    1.52
  -8   2   5   55.75    1.38
   8   2  -5   55.97    1.48
  -8   2   5   55.50    1.38
   8   2  -5   56.60    1.43
   6  -2  -5   96.81    2.11
  -6  -2   5   96.62    1.94
  -6  -2   5   98.27    2.03
  -6  -2   5   93.50    1.82
   6  -2  -5   95.68    2.06
   6  -2  -5   96.40    1.90
   6  -2  -5   97.25    1.99
  -6  -2   5   98.30    2.33
  -6   2   5   97.69    1.99
  -6   2   5   98.48    2.39
  -6   2   5   92.91    1.79
   6   2  -5   96.65    2.03
   6   2  -5   96.16    2.00
   6   2  -5   96.84    2.00
  -6   2   5   96.86    1.97
  -4  -2   5  122.21    2.12
   4  -2  -5  123.44    2.36
  -4  -2   5  117.13    2.22
   4  -2  -5  123.49    2.15
  -4  -2   5  124.48    2.62
   4  -2  -5  120.27    2.31
   4  -2  -5  119.39    2.43
  -4   2   5  119.50    2.22
   4   2  -5  124.29    2.38
   4   2  -5  122.29    2.26
  -4   2   5  121.60    2.32
  -4   2   5  122.89    2.29
  -4   2   5  122.59    2.62
   4   2  -5  124.10    2.26
   2  -2  -5   91.90    1.89
   2  -2  -5   92.80    1.75
   2  -2  -5   92.57    1.86
  -2  -2   5   96.30    2.12
   2  -2  -5   92.05    1.68
   2  -2  -5   87.81    1.86
  -2   2   5   93.02    1.69
   2   2  -5   92.77    1.82
  -2   2   5   91.27    1.82
   2   2  -5   93.37    1.68
  -2   2   5   90.52    1.79
   2   2  -5   92.69    1.98
   2   2  -5   95.49    1.80
  -2   2   5   92.37    2.06
   0  -2  -5  111.34    2.32
   0  -2  -5  107.02    2.27
   0  -2   5  105.49    1.87
   0  -2   5  109.23    2.04
   0  -2  -5  107.23    2.21
   0  -2  -5  109.54    2.09
   0  -2   5  104.04    1.98
   0   2   5  107.53    2.10
   0   2   5  109.92    2.08
   0   2   5  105.87    1.93
   0   2  -5  111.97    2.10
   0   2  -5  106.95    2.00
   0   2  -5  104.85    2.37
  -2  -2  -5   45.12    1.33
   2  -2   5   45.90    1.11
  -2  -2  -5   46.02    1.24
  -2  -2  -5   47.36    1.36
   2  -2   5   46.61    1.13
  -2  -2  -5   47.78    1.32
   2   2   5   48.72    1.16
   2   2   5   46.89    1.17
   2   2   5   44.62    1.11
  -2   2  -5   46.72    1.46
  -2   2  -5   47.24    1.16
  -4  -2  -5   33.58    1.20
  -4  -2  -5   32.97    1.24
  -4  -2  -5   35.03    1.10
   4  -2   5   33.84    1.02
   4  -2   5   34.22    1.03
  -4  -2  -5   34.54    1.12
   4   2   5   34.69    1.06
  -4   2  -5   35.32    1.04
   4   2   5   36.61    1.09
  -4   2  -5   34.94    1.22
  -4   2  -5   35.56    1.36
   4   2   5   35.79    0.99
  -6  -2  -5   22.26    1.10
   6  -2   5   21.59    0.91
   6  -2   5   21.98    0.88
   6  -2   5   22.42    0.83
  -6   2  -5   21.97    1.14
  -6   2  -5   21.21    0.84
   6   2   5   21.94    0.78
   6   2   5   22.39    0.92
   6   2   5   22.22    0.93
  -6   2  -5   21.89    1.07
   8  -2   5    8.52    0.58
  -8  -2  -5    8.66    0.81
   8  -2   5    8.62    0.68
  -8   2  -5    9.02    0.84
   8   2   5    8.13    0.62
 -11  -3   5   21.13    0.87
 -11  -3   5   22.14    0.93
 -11  -3   5   22.63    1.06
  11  -3  -5   21.99    1.06
 -11   3   5   21.59    0.93
  11   3  -5   22.09    1.09
 -11   3   5   21.05    0.99
  11   3  -5   23.90    1.05
   9  -3  -5   98.70    2.23
   9  -3  -5   97.01    2.34
  -9  -3   5   96.21    2.14
  -9  -3   5   97.61    2.33
  -9  -3   5   99.47    2.30
   9   3  -5   97.59    2.40
  -9   3   5   96.80    2.24
   9   3  -5   96.34    2.32
   9   3  -5   98.72    2.23
  -9   3   5   90.24    2.10
  -9   3   5  100.14    2.23
  -7  -3   5   67.67    1.89
  -7  -3   5   69.68    1.65
   7  -3  -5   69.89    1.56
   7  -3  -5   67.13    1.53
   7  -3  -5   68.00    1.67
   7  -3  -5   67.64    1.69
  -7  -3   5   68.13    1.52
  -7   3   5   70.60    1.61
  -7   3   5   69.51    2.00
  -7   3   5   67.51    1.50
  -7   3   5   68.55    1.58
   7   3  -5   68.77    1.64
   7   3  -5   67.53    1.64
   5  -3  -5  260.24    4.76
  -5  -3   5  257.67    4.53
  -5  -3   5  259.98    4.92
   5  -3  -5  256.57    4.65
   5  -3  -5  264.60    4.64
  -5   3   5  262.64    4.63
  -5   3   5  260.08    4.57
   5   3  -5  261.36    4.69
  -5   3   5  257.17    4.43
   5   3  -5  261.75    4.55
  -5   3   5  255.76    4.50
   5   3  -5  257.97    4.61
  -5   3   5  262.46    5.00
  -3  -3   5  123.47    2.61
   3  -3  -5  125.29    2.42
   3  -3  -5  124.36    2.46
   3  -3  -5  122.21    2.40
   3  -3  -5  121.35    2.29
   3  -3  -5  124.46    2.20
  -3   3   5  122.53    2.35
   3   3  -5  117.17    2.26
  -3   3   5  124.78    2.18
   3   3  -5  121.88    2.37
   3   3  -5  123.43    2.31
  -3   3   5  122.08    2.58
  -3   3   5  119.82    2.30
   3   3  -5  124.73    2.46
  -3   3   5  122.18    2.27
   3   3  -5  124.80    2.27
   1  -3  -5  309.70    5.65
   1  -3  -5  309.12    5.45
   1  -3  -5  306.67    5.51
  -1   3   5  308.34    5.32
  -1   3   5  309.66    5.39
   1   3  -5  311.53    5.24
   1   3  -5  307.66    5.43
   1   3  -5  316.16    5.66
   1   3  -5  304.98    5.32
  -1   3   5  316.76    5.65
   1   3  -5  309.85    5.35
  -1   3   5  311.45    5.38
  -1  -3  -5   38.64    1.19
  -1  -3  -5   40.80    1.12
  -1  -3  -5   37.58    1.10
   1  -3   5   38.22    0.96
   1  -3   5   38.67    0.95
  -1  -3  -5   37.58    0.97
  -1  -3  -5   36.04    1.14
  -1   3  -5   37.88    1.25
   1   3   5   40.66    1.02
  -1   3  -5   38.80    1.08
   1   3   5   38.97    0.97
   1   3   5   40.20    1.02
   1   3   5   37.28    0.92
  -1   3  -5   39.28    0.99
   3  -3   5  169.26    3.27
   3  -3   5  174.57    3.28
  -3  -3  -5  175.23    3.47
  -3  -3  -5  174.38    3.55
  -3  -3  -5  167.69    3.49
  -3  -3  -5  166.55    3.62
   3   3   5  169.99    3.32
   3   3   5  174.89    3.28
   3   3   5  173.17    3.37
  -3   3  -5  165.46    3.75
  -3   3  -5  170.18    3.27
  -5  -3  -5    7.14    0.54
   5  -3   5    7.17    0.50
  -5  -3  -5    7.22    0.64
   5  -3   5    6.87    0.48
   5   3   5    6.80    0.50
   5   3   5    7.12    0.44
   5   3   5    7.23    0.51
  -5   3  -5    6.40    0.44
  -5   3  -5    7.40    0.64
   7  -3   5   88.89    2.21
  -7  -3  -5   90.95    2.64
   7  -3   5   91.45    2.31
   7  -3   5   91.09    2.11
   7   3   5   91.55    2.30
   7   3   5   86.67    2.31
  -7   3  -5   90.79    2.73
 -12  -4   5    0.39    0.32
 -12  -4   5    0.04    0.23
  12  -4  -5    0.03    0.27
  12   4  -5   -0.03    0.22
 -12   4   5   -0.05    0.16
 -12   4   5    0.17    0.23
 -10  -4   5    6.65    0.48
 -10  -4   5    4.76    0.51
 -10  -4   5    5.53    0.47
  10  -4  -5    5.13    0.46
  10  -4  -5    6.24    0.57
 -10  -4   5    5.79    0.50
 -10   4   5    5.75    0.51
 -10   4   5    5.61    0.52
  10   4  -5    5.48    0.48
  10   4  -5    5.21    0.49
  -8  -4   5    0.15    0.18
   8  -4  -5    0.24    0.20
   8  -4  -5    0.25    0.12
  -8  -4   5    0.12    0.17
  -8  -4   5    0.35    0.15
   8  -4  -5    0.17    0.17
  -8  -4   5    0.23    0.14
  -8   4   5    0.31    0.19
   8   4  -5    0.39    0.18
  -8   4   5    0.29    0.14
   8   4  -5    0.33    0.18
  -8   4   5    0.33    0.18
   6  -4  -5    8.01    0.37
  -6  -4   5    7.63    0.37
  -6  -4   5    7.21    0.50
   6  -4  -5    7.87    0.42
   6  -4  -5    8.01    0.44
   6  -4  -5    7.71    0.48
  -6  -4   5    7.51    0.43
   6   4  -5    8.02    0.43
  -6   4   5    8.23    0.45
  -6   4   5    7.68    0.35
  -6   4   5    7.36    0.37
  -6   4   5    7.24    0.53
   6   4  -5    8.15    0.45
  -6   4   5    7.62    0.34
   4  -4  -5   13.33    0.53
  -4  -4   5   12.73    0.40
  -4  -4   5   15.17    0.66
   4  -4  -5   13.71    0.60
  -4  -4   5   14.39    0.46
   4  -4  -5   13.56    0.52
  -4   4   5   13.69    0.47
  -4   4   5   14.00    0.47
  -4   4   5   14.22    0.66
   4   4  -5   13.08    0.43
   4   4  -5   13.40    0.55
  -4   4   5   13.56    0.53
   4   4  -5   13.50    0.49
   4   4  -5   14.59    0.52
  -4   4   5   13.72    0.49
   2  -4  -5    5.09    0.41
   2  -4  -5    4.85    0.36
  -2  -4   5    5.22    0.39
   2  -4  -5    5.17    0.36
   2  -4  -5    5.71    0.28
  -2   4   5    5.13    0.29
   2   4  -5    5.27    0.30
  -2   4   5    5.08    0.35
   2   4  -5    5.23    0.29
   2   4  -5    5.34    0.27
  -2   4   5    5.29    0.27
   2   4  -5    5.27    0.35
  -2   4   5    5.36    0.30
   2   4  -5    6.55    0.32
   0  -4  -5   43.88    1.15
   0  -4  -5   44.39    1.23
   0  -4  -5   44.22    1.33
   0   4  -5   44.20    1.33
   0   4  -5   44.61    0.99
   0   4  -5   44.65    1.07
   0   4   5   44.15    1.10
   0   4  -5   44.58    1.16
   0   4   5   43.57    1.05
   0   4   5   45.70    1.13
  -2  -4  -5   19.04    0.66
   2  -4   5   20.60    0.70
  -2  -4  -5   18.27    0.71
  -2  -4  -5   20.45    0.82
   2  -4   5   19.11    0.67
  -2  -4  -5   19.31    0.86
  -2  -4  -5   19.06    0.85
  -2   4  -5   19.35    0.92
   2   4   5   19.83    0.70
  -2   4  -5   19.32    0.66
   2   4   5   18.67    0.61
   2   4   5   20.48    0.75
   2   4   5   18.55    0.67
  -2   4  -5   19.87    0.78
   4  -4   5   21.01    0.77
  -4  -4  -5   20.72    0.88
   4  -4   5   20.67    0.81
  -4  -4  -5   18.63    0.94
  -4  -4  -5   22.32    0.96
   4   4   5   20.54    0.83
   4   4   5   20.40    0.83
  -4   4  -5   20.15    1.04
   4   4   5   21.11    0.76
  -4   4  -5   19.43    0.73
   6  -4   5   26.13    1.00
  -6  -4  -5   25.90    1.25
   6  -4   5   26.83    1.03
  -6  -4  -5   26.55    1.08
   6   4   5   25.61    1.07
  -6   4  -5   27.28    1.36
   6   4   5   26.89    1.05
  11  -5  -5   64.10    1.96
 -11  -5   5   64.53    1.80
 -11  -5   5   65.21    1.98
 -11   5   5   65.92    2.17
 -11   5   5   64.67    1.90
 -11   5   5   63.62    1.87
  11   5  -5   63.13    1.95
  -9  -5   5   29.36    0.94
  -9  -5   5   32.04    1.10
  -9  -5   5   31.52    1.20
  -9  -5   5   31.01    1.14
   9  -5  -5   31.63    1.18
   9   5  -5   29.88    1.10
  -9   5   5   31.62    1.10
   9   5  -5   31.48    1.19
  -9   5   5   30.24    1.11
  -7  -5   5   90.03    2.17
   7  -5  -5   89.23    1.93
  -7  -5   5   88.49    2.02
   7  -5  -5   88.68    2.08
   7  -5  -5   87.83    2.10
  -7   5   5   85.39    1.93
  -7   5   5   86.71    2.44
  -7   5   5   89.19    2.04
   7   5  -5   86.51    2.06
   7   5  -5   84.80    2.07
  -5  -5   5   38.69    1.19
   5  -5  -5   37.19    1.08
  -5  -5   5   40.27    1.08
   5  -5  -5   39.29    1.18
   5  -5  -5   38.44    1.06
  -5  -5   5   39.32    0.94
   5   5  -5   39.19    1.08
   5   5  -5   39.95    1.13
  -5   5   5   39.56    1.28
  -5   5   5   39.09    0.98
  -5   5   5   40.20    1.09
  -5   5   5   40.39    1.02
  -5   5   5   38.51    0.98
   3  -5  -5  139.98    2.74
   3  -5  -5  142.93    3.01
  -3  -5   5  146.41    2.98
   3  -5  -5  146.48    2.96
   3  -5  -5  146.88    2.85
  -3   5   5  143.89    2.94
  -3   5   5  144.95    2.77
   3   5  -5  142.84    2.82
  -3   5   5  145.13    2.77
   3   5  -5  143.47    2.72
   3   5  -5  144.95    2.73
  -3   5   5  140.71    2.61
   3   5  -5  140.64    2.80
  -3   5   5  147.11    2.79
   3   5  -5  142.46    2.74
   1  -5  -5   82.54    1.91
   1  -5  -5   83.52    2.06
   1  -5  -5   79.44    1.65
   1  -5  -5   83.93    1.93
   1   5  -5   83.08    1.82
  -1   5   5   85.10    1.82
   1   5  -5   84.63    1.74
   1   5  -5   82.21    1.73
  -1   5   5   82.37    1.74
   1   5  -5   84.85    1.98
  -1   5   5   85.36    1.78
   1   5  -5   84.33    1.72
  -1   5   5   83.42    1.88
   1  -5   5  155.22    2.95
  -1  -5  -5  155.06    3.05
  -1  -5  -5  155.01    3.33
  -1  -5  -5  150.63    3.17
  -1  -5  -5  147.56    3.16
   1  -5   5  149.12    2.81
   1   5   5  152.93    2.99
  -1   5  -5  153.50    2.90
   1   5   5  147.97    3.03
   1   5   5  151.40    2.86
  -1   5  -5  155.80    3.09
  -1   5  -5  151.61    3.36
  -3  -5  -5   83.60    2.20
  -3  -5  -5   85.44    2.13
   3  -5   5   87.66    1.93
  -3  -5  -5   81.11    2.19
   3  -5   5   82.94    1.94
   3   5   5   84.84    2.04
  -3   5  -5   81.10    2.34
   3   5   5   85.13    1.92
  -3   5  -5   83.58    1.84
  -3   5  -5   85.34    2.09
  -5  -5  -5   81.02    2.14
  -5  -5  -5   80.51    2.20
  -5  -5  -5   82.95    2.33
   5  -5   5   80.38    1.95
   5  -5   5   79.63    2.02
   5   5   5   78.46    1.87
   5   5   5   76.61    2.08
  -5   5  -5   81.10    2.47
   5   5   5   81.27    2.10
   7  -5   5   33.31    1.19
  -7  -5  -5   32.82    1.49
   7  -5   5   32.08    1.25
   7   5   5   31.53    1.26
  -7   5  -5   34.34    1.60
   7   5   5   30.43    1.27
 -10  -6   5    1.02    0.31
  10  -6  -5    1.02    0.35
 -10  -6   5    0.75    0.31
  10   6  -5    0.76    0.30
 -10   6   5    0.92    0.30
 -10   6   5    1.39    0.32
  -8  -6   5    5.43    0.47
   8  -6  -5    5.22    0.44
   8  -6  -5    5.24    0.51
  -8  -6   5    4.97    0.47
  -8  -6   5    5.53    0.52
  -8   6   5    4.94    0.44
  -8   6   5    5.51    0.44
   8   6  -5    5.35    0.45
   8   6  -5    5.07    0.49
   6  -6  -5    0.67    0.23
  -6  -6   5    0.73    0.20
  -6  -6   5    0.96    0.25
   6  -6  -5    0.68    0.18
   6  -6  -5    0.60    0.20
  -6   6   5    0.71    0.18
  -6   6   5    0.79    0.24
   6   6  -5    0.70    0.21
  -6   6   5    0.69    0.16
  -6   6   5    0.73    0.16
  -6   6   5    1.04    0.23
   6   6  -5    0.87    0.22
  -4  -6   5    1.93    0.26
   4  -6  -5    2.12    0.27
   4  -6  -5    2.32    0.29
  -4  -6   5    2.30    0.24
   4  -6  -5    2.66    0.34
  -4  -6   5    1.68    0.16
  -4  -6   5    1.98    0.29
  -4   6   5    2.23    0.25
  -4   6   5    2.33    0.28
  -4   6   5    2.05    0.18
   4   6  -5    2.08    0.25
   4   6  -5    1.94    0.26
  -4   6   5    1.98    0.24
   4   6  -5    2.45    0.22
  -4   6   5    2.20    0.26
  -2  -6   5   24.82    0.91
   2  -6  -5   25.57    0.95
   2  -6  -5   24.35    0.76
   2  -6  -5   25.32    0.89
   2  -6  -5   24.39    0.98
  -2   6   5   25.97    0.83
  -2   6   5   25.02    0.81
   2   6  -5   24.19    0.77
   2   6  -5   24.91    0.84
  -2   6   5   24.47    0.81
   2   6  -5   25.93    0.76
  -2   6   5   25.47    0.78
   2   6  -5   24.61    0.80
  -2   6   5   25.29    0.78
   2   6  -5   23.96    0.79
   0  -6  -5    2.76    0.34
   0  -6   5    2.38    0.21
   0  -6   5    2.67    0.25
   0  -6  -5    2.47    0.39
   0  -6  -5    2.79    0.36
   0   6   5    2.21    0.27
   0   6  -5    3.13    0.32
   0   6  -5    3.14    0.35
   0   6  -5    2.53    0.23
   0   6   5    2.09    0.21
   0   6   5    2.16    0.27
  -2  -6  -5   29.06    1.10
  -2  -6  -5   26.66    0.92
  -2  -6  -5   27.38    1.06
  -2  -6  -5   26.76    1.13
   2  -6   5   26.93    0.82
   2  -6   5   28.03    0.93
   2   6   5   26.78    0.99
  -2   6  -5   27.53    0.84
  -2   6  -5   27.71    1.18
   2   6   5   29.11    0.95
  -2   6  -5   26.27    0.99
   4  -6   5   15.94    0.74
  -4  -6  -5   16.13    0.93
  -4  -6  -5   15.56    0.86
   4  -6   5   15.42    0.76
  -4  -6  -5   16.59    0.92
   4   6   5   16.09    0.71
  -4   6  -5   16.89    0.86
   4   6   5   16.06    0.80
  -4   6  -5   15.20    0.98
  -6  -6  -5    8.95    0.71
   6  -6   5    8.59    0.62
   6  -6   5    8.00    0.60
  -6  -6  -5    8.37    0.79
  -6   6  -5    8.18    0.82
   6   6   5    8.36    0.66
   9  -7  -5   30.29    1.14
  -9  -7   5   28.16    1.15
  -9  -7   5   30.24    1.14
   9  -7  -5   30.70    1.22
  -9   7   5   29.08    1.17
  -9   7   5   31.51    1.13
   9   7  -5   28.08    1.20
   7  -7  -5  119.54    2.52
  -7  -7   5  120.99    2.65
   7  -7  -5  123.15    2.77
  -7  -7   5  122.83    2.88
  -7  -7   5  122.90    2.69
   7  -7  -5  116.79    2.74
   7   7  -5  120.17    2.75
  -7   7   5  121.91    2.56
   7   7  -5  121.12    2.80
  -7   7   5  120.14    2.72
  -5  -7   5   78.12    1.99
   5  -7  -5   78.92    2.01
   5  -7  -5   74.57    1.87
   5  -7  -5   77.17    1.83
  -5  -7   5   78.93    1.78
   5   7  -5   77.82    1.93
  -5   7   5   75.04    1.78
   5   7  -5   79.59    1.91
  -5   7   5   76.27    1.81
  -5   7   5   76.85    1.86
   3  -7  -5  185.48    3.57
   3  -7  -5  176.41    3.50
  -3  -7   5  179.70    3.35
  -3  -7   5  176.25    3.58
   3  -7  -5  177.33    3.77
   3  -7  -5  181.77    3.75
  -3   7   5  183.80    3.54
   3   7  -5  181.49    3.55
   3   7  -5  174.44    3.45
  -3   7   5  182.14    3.53
   3   7  -5  183.02    3.51
   3   7  -5  182.32    3.43
  -3   7   5  179.20    3.48
   1  -7  -5   51.66    1.48
   1  -7  -5   47.84    1.41
   1  -7  -5   47.77    1.56
  -1  -7   5   46.37    1.24
   1  -7  -5   46.84    1.22
  -1   7   5   47.18    1.21
  -1   7   5   48.50    1.32
   1   7  -5   49.82    1.28
  -1   7   5   48.63    1.37
   1   7  -5   48.68    1.22
  -1   7   5   47.25    1.29
   1   7  -5   48.36    1.33
   1   7  -5   50.60    1.42
  -1  -7  -5   99.35    2.37
  -1  -7  -5  105.77    2.41
  -1  -7  -5  106.42    2.52
   1  -7   5  102.33    2.15
   1  -7   5  103.00    2.29
  -1  -7  -5  103.10    2.64
  -1   7  -5  100.34    2.58
   1   7   5  103.57    2.31
  -1   7  -5  101.13    2.13
  -1   7  -5  104.04    2.40
   1   7   5  100.95    2.37
  -3  -7  -5    9.34    0.57
  -3  -7  -5    8.37    0.62
  -3  -7  -5    9.86    0.72
   3  -7   5    9.01    0.60
  -3  -7  -5    8.84    0.68
   3   7   5   10.47    0.67
   3   7   5    8.84    0.54
  -3   7  -5    9.26    0.75
  -3   7  -5    9.72    0.64
   5  -7   5   56.03    1.59
   5  -7   5   54.22    1.65
  -5  -7  -5   54.00    1.76
  -5  -7  -5   53.72    1.85
  -5  -7  -5   52.08    1.83
   5   7   5   53.52    1.71
  -5   7  -5   55.24    2.05
  10  -8  -5   14.16    0.88
 -10  -8   5   14.91    0.86
  10   8  -5   13.73    0.89
 -10   8   5   13.07    0.86
 -10   8   5   13.48    0.99
   8  -8  -5   62.64    1.84
  -8  -8   5   65.93    1.80
  -8  -8   5   60.92    1.73
   8  -8  -5   62.49    1.82
  -8  -8   5   61.84    2.20
   8   8  -5   60.58    1.88
  -8   8   5   61.22    1.81
  -6  -8   5   36.37    1.31
   6  -8  -5   36.71    1.12
   6  -8  -5   36.27    1.28
  -6  -8   5   36.83    1.19
   6  -8  -5   37.75    1.26
  -6  -8   5   37.23    1.14
  -6   8   5   37.30    1.25
  -6   8   5   36.62    1.12
   6   8  -5   37.51    1.29
   4  -8  -5   36.16    1.26
  -4  -8   5   36.40    1.02
  -4  -8   5   39.06    1.13
   4  -8  -5   41.32    1.25
   4  -8  -5   36.59    1.11
   4  -8  -5   37.60    1.33
  -4  -8   5   36.87    1.23
  -4   8   5   37.72    1.16
   4   8  -5   38.57    1.19
  -4   8   5   37.28    1.16
  -4   8   5   36.99    1.16
   4   8  -5   35.35    1.08
   2  -8  -5   75.66    2.12
   2  -8  -5   75.54    2.03
   2  -8  -5   76.54    1.92
   2  -8  -5   72.85    1.78
  -2  -8   5   73.55    1.66
  -2  -8   5   72.60    1.81
   2   8  -5   72.06    1.77
  -2   8   5   74.42    1.74
  -2   8   5   72.29    1.82
  -2   8   5   76.43    1.89
   2   8  -5   72.52    1.81
   2   8  -5   75.03    1.71
   0  -8  -5   13.33    0.87
   0  -8  -5   13.98    0.79
   0  -8   5   13.35    0.63
   0  -8  -5   13.49    0.78
   0   8  -5   13.56    0.70
   0   8   5   14.18    0.74
   0   8   5   13.47    0.67
   0   8   5   13.60    0.69
   0   8  -5   13.12    0.57
   0   8  -5   13.43    0.73
   2  -8   5   33.91    1.17
  -2  -8  -5   32.65    1.19
  -2  -8  -5   30.70    1.19
  -2  -8  -5   33.49    1.31
   2  -8   5   34.22    1.07
  -2  -8  -5   36.23    1.45
   2   8   5   34.94    1.15
   2   8   5   33.34    1.25
  -2   8  -5   32.50    1.37
  -2   8  -5   35.61    1.24
   4  -8   5   16.12    0.86
  -4  -8  -5   15.27    0.92
   4  -8   5   16.29    0.80
  -4  -8  -5   16.89    1.15
  -4  -8  -5   17.07    0.98
  -4   8  -5   15.23    1.01
   4   8   5   16.93    0.77
  -4   8  -5   17.05    0.94
   4   8   5   15.69    0.87
   6  -8   5    2.88    0.44
  -6  -8  -5    1.79    0.47
  -6  -8  -5    2.28    0.47
   6  -8   5    2.45    0.45
  -6   8  -5    2.45    0.50
   6   8   5    2.28    0.40
  -9  -9   5   95.40    2.49
   9  -9  -5  100.85    2.60
  -9  -9   5   98.79    2.51
  -9   9   5   98.72    2.85
   9   9  -5   94.54    2.65
  -9   9   5   97.66    2.62
   7  -9  -5    0.89    0.30
  -7  -9   5    0.59    0.24
   7  -9  -5    0.65    0.30
  -7  -9   5    0.53    0.26
  -7   9   5    1.41    0.33
   7   9  -5    0.97    0.31
   5  -9  -5  107.40    2.54
   5  -9  -5  103.95    2.39
  -5  -9   5  101.09    2.37
   5  -9  -5  105.08    2.66
  -5  -9   5  102.17    2.59
  -5   9   5  103.81    2.47
  -5   9   5  106.62    2.46
   5   9  -5  106.25    2.55
  -3  -9   5    2.17    0.34
   3  -9  -5    2.37    0.36
  -3  -9   5    1.65    0.26
   3  -9  -5    1.93    0.30
   3  -9  -5    1.66    0.37
   3  -9  -5    1.86    0.41
  -3   9   5    1.99    0.34
   3   9  -5    1.71    0.28
  -3   9   5    2.22    0.34
  -3   9   5    2.29    0.32
   3   9  -5    1.95    0.31
  -1  -9   5  132.51    2.84
   1  -9  -5  133.96    3.34
   1  -9  -5  138.90    3.21
   1  -9  -5  130.55    2.85
   1  -9  -5  136.48    3.10
  -1   9   5  137.71    3.08
   1   9  -5  133.52    2.98
   1   9  -5  136.42    2.78
  -1   9   5  138.72    3.00
   1   9  -5  135.20    2.90
  -1  -9  -5   22.26    1.08
   1  -9   5   23.49    0.89
  -1  -9  -5   24.12    1.22
  -1  -9  -5   22.63    1.06
   1   9   5   21.07    0.98
  -1   9  -5   23.42    1.02
   1   9   5   22.18    1.01
   1   9   5   22.90    0.94
   3  -9   5  131.90    2.96
  -3  -9  -5  119.91    3.05
   3   9   5  120.43    3.03
  -3   9  -5  122.48    3.00
  -3   9  -5  119.91    3.27
   3   9   5  123.63    2.80
   3   9   5  123.50    3.04
   5  -9   5   29.68    1.12
  -5  -9  -5   27.34    1.31
  -5  -9  -5   28.65    1.32
   5  -9   5   27.69    1.20
   5   9   5   26.09    1.24
   5   9   5   27.12    1.21
  -5   9  -5   28.43    1.28
  -5   9  -5   27.38    1.45
   8 -10  -5    3.11    0.52
  -8 -10   5    2.12    0.41
   8 -10  -5    2.06    0.36
   8  10  -5    1.88    0.38
  -8  10   5    2.55    0.45
  -8  10   5    2.63    0.46
  -6 -10   5    0.43    0.21
   6 -10  -5    0.76    0.34
   6 -10  -5    0.66    0.32
  -6  10   5    0.29    0.22
  -6  10   5    0.19    0.21
   6  10  -5    0.58    0.27
  -4 -10   5    0.21    0.20
  -4 -10   5    0.10    0.18
   4 -10  -5    0.11    0.22
  -4 -10   5    0.52    0.22
   4 -10  -5    0.03    0.24
  -4  10   5    0.51    0.24
  -4  10   5    0.04    0.16
  -4  10   5    0.19    0.17
   4  10  -5    0.56    0.27
   2 -10  -5    6.08    0.60
   2 -10  -5    6.22    0.53
   2 -10  -5    5.76    0.59
  -2 -10   5    6.22    0.51
   2 -10  -5    6.15    0.56
  -2  10   5    6.19    0.53
   2  10  -5    6.04    0.52
  -2  10   5    6.81    0.55
   2  10  -5    6.28    0.50
   0 -10  -5    1.67    0.40
   0 -10  -5    1.77    0.45
   0 -10   5    1.95    0.36
   0 -10  -5    2.20    0.50
   0  10   5    2.09    0.33
   0  10   5    1.56    0.33
   0  10  -5    1.75    0.35
  -2 -10  -5    4.81    0.64
   2 -10   5    4.52    0.49
  -2 -10  -5    5.45    0.55
   2 -10   5    5.87    0.53
   2  10   5    5.65    0.52
  -2  10  -5    4.96    0.59
   2  10   5    5.39    0.58
   2  10   5    4.44    0.57
  -4 -10  -5    0.47    0.36
   4 -10   5    0.70    0.27
   4  10   5    1.09    0.34
  -4  10  -5    0.86    0.35
   4  10   5    0.66    0.31
  -4  10  -5    1.03    0.37
   7 -11  -5   36.40    1.40
  -7 -11   5   33.52    1.31
   7 -11  -5   33.72    1.39
  -7 -11   5   34.59    1.41
  -7  11   5   34.33    1.39
   7  11  -5   36.01    1.46
   5 -11  -5   87.02    2.24
  -5 -11   5   91.04    2.45
  -5 -11   5   90.30    2.26
   5 -11  -5   88.29    2.51
   5 -11  -5   90.33    2.42
   5  11  -5   87.58    2.39
  -5  11   5   86.97    2.32
  -5  11   5   88.32    2.34
   3 -11  -5   54.62    1.69
   3 -11  -5   49.71    1.79
  -3 -11   5   51.89    1.66
   3 -11  -5   53.11    1.90
  -3  11   5   54.79    1.74
  -3  11   5   52.25    1.64
   3  11  -5   51.73    1.66
   1 -11  -5   50.86    1.72
  -1 -11   5   51.62    1.59
   1 -11  -5   50.02    1.81
   1  11  -5   50.55    1.63
  -1  11   5   48.77    1.71
  -1  11   5   51.02    1.63
  -1 -11  -5   27.98    1.28
   1 -11   5   28.44    1.13
   1 -11   5   30.01    1.22
  -1 -11  -5   28.67    1.33
  -1  11  -5   27.09    1.21
   1  11   5   28.17    1.28
   1  11   5   28.80    1.17
   3 -11   5   11.04    0.80
  -3 -11  -5   10.26    0.78
  -3 -11  -5   10.55    0.88
  -3  11  -5   11.08    0.81
   3  11   5   10.67    0.82
   4 -12  -5   20.54    1.15
   4 -12  -5   21.51    1.07
  -4 -12   5   19.51    1.04
   4  12  -5   19.67    1.04
  -4  12   5   19.49    1.03
  -2 -12   5    4.17    0.53
   2 -12  -5    4.88    0.71
   2 -12  -5    4.13    0.54
  -2 -12   5    4.24    0.47
  -2  12   5    4.12    0.55
  -2  12   5    4.70    0.62
   2  12  -5    4.61    0.57
   2  12  -5    4.33    0.54
   0 -12   5   31.28    1.24
   0 -12  -5   27.91    1.32
   0 -12  -5   32.34    1.44
   0  12   5   31.27    1.26
   0  12   5   28.52    1.31
   0  12  -5   29.54    1.29
 -12   0   6    0.30    0.28
  12   0  -6    0.67    0.23
 -12   0   6    0.74    0.31
  10   0  -6  168.32    3.41
 -10   0   6  172.87    3.52
  10   0  -6  166.87    3.55
  10   0  -6  169.46    3.75
  10   0  -6  174.57    3.57
 -10   0   6  172.49    3.54
  -8   0   6   18.75    0.70
  -8   0   6   17.65    0.69
   8   0  -6   17.78    0.80
   8   0  -6   17.05    0.66
   8   0  -6   17.22    0.69
   8   0  -6   17.18    0.69
  -8   0   6   17.39    0.62
  -8   0   6   16.32    0.92
  -6   0   6  378.30    6.58
   6   0  -6  378.15    6.57
  -6   0   6  382.07    7.14
   6   0  -6  394.08    6.73
   6   0  -6  388.04    6.47
   6   0  -6  380.09    6.78
  -6   0   6  385.25    6.63
   4   0  -6    6.43    0.24
   4   0  -6    6.35    0.29
   4   0  -6    7.90    0.34
  -4   0   6    6.11    0.32
   4   0  -6    6.67    0.36
  -4   0   6    6.80    0.48
  -4   0   6    6.61    0.27
  -2   0   6  781.01   13.39
   2   0  -6  816.39   13.50
   2   0  -6  807.37   14.25
  -2   0   6  815.96   16.14
   2   0  -6  779.58   14.09
  -2   0   6  778.25   13.75
   0   0  -6   12.33    0.64
   0   0   6   13.04    0.47
   0   0  -6   12.91    0.51
   0   0  -6   13.11    0.46
   0   0   6   13.36    0.51
   0   0  -6   13.19    0.55
   2   0   6  494.25    8.68
  -2   0  -6  510.30    9.29
   2   0   6  526.10    8.81
   2   0   6  526.66    8.81
  -2   0  -6  514.60    8.88
  -2   0  -6  511.37    8.88
   4   0   6    5.65    0.40
  -4   0  -6    5.25    0.42
  -4   0  -6    5.17    0.51
  -4   0  -6    4.86    0.58
   4   0   6    5.05    0.39
   4   0   6    4.68    0.38
  -6   0  -6  140.74    3.49
  -6   0  -6  141.06    3.06
  -6   0  -6  138.36    3.48
   6   0   6  137.93    3.04
  11  -1  -6    1.09    0.29
 -11  -1   6    0.81    0.24
  11  -1  -6    0.66    0.26
 -11  -1   6    1.06    0.31
  11   1  -6    0.87    0.24
  11   1  -6    0.31    0.20
 -11   1   6    0.81    0.29
 -11   1   6    0.53    0.24
   9  -1  -6   22.68    0.97
   9  -1  -6   22.12    0.81
  -9  -1   6   22.46    0.82
  -9  -1   6   23.41    0.88
   9  -1  -6   22.82    0.85
  -9   1   6   22.15    0.78
  -9   1   6   22.54    0.85
  -9   1   6   23.19    0.85
   9   1  -6   22.78    0.88
   9   1  -6   22.71    0.86
   9   1  -6   21.99    0.87
   7  -1  -6   29.57    0.97
   7  -1  -6   28.19    0.90
  -7  -1   6   29.39    1.16
  -7  -1   6   29.43    0.87
  -7  -1   6   28.53    0.91
   7  -1  -6   29.40    0.86
  -7  -1   6   28.45    0.79
   7   1  -6   29.61    0.89
  -7   1   6   29.35    1.19
   7   1  -6   29.40    0.85
  -7   1   6   29.49    0.86
   7   1  -6   30.22    0.94
   7   1  -6   28.63    1.00
  -7   1   6   29.74    0.89
   5  -1  -6    2.80    0.18
   5  -1  -6    2.69    0.24
  -5  -1   6    2.82    0.24
   5  -1  -6    2.55    0.18
   5  -1  -6    2.45    0.26
   5  -1  -6    3.09    0.27
  -5  -1   6    2.61    0.21
  -5  -1   6    2.52    0.30
  -5   1   6    2.41    0.16
   5   1  -6    3.17    0.20
   5   1  -6    2.52    0.23
  -5   1   6    2.70    0.22
  -5   1   6    3.01    0.33
  -5   1   6    2.77    0.23
   3  -1  -6  107.13    1.95
  -3  -1   6  106.03    2.41
  -3  -1   6  101.49    1.84
   3  -1  -6  105.25    2.11
   3  -1  -6  106.24    1.99
  -3  -1   6  102.34    1.97
  -3  -1   6  105.71    2.05
   3  -1  -6  106.27    2.15
   3   1  -6  104.53    1.85
  -3   1   6  105.56    2.08
   3   1  -6  102.25    2.09
   3   1  -6  105.41    2.26
  -3   1   6  104.52    2.38
  -3   1   6  100.66    1.83
   3   1  -6  105.83    2.02
  -3   1   6  102.97    1.99
   1  -1  -6    3.76    0.34
   1  -1  -6    3.67    0.26
   1  -1  -6    3.12    0.29
   1  -1  -6    3.56    0.26
  -1  -1   6    3.67    0.21
  -1  -1   6    3.48    0.23
  -1  -1   6    3.40    0.18
   1  -1  -6    3.27    0.24
  -1   1   6    3.34    0.22
   1   1  -6    3.65    0.25
   1   1  -6    3.67    0.33
   1   1  -6    3.64    0.23
  -1   1   6    3.53    0.25
  -1  -1  -6   24.20    0.86
   1  -1   6   23.56    0.73
  -1  -1  -6   22.27    0.92
   1  -1   6   23.93    0.71
   1  -1   6   21.51    0.62
  -1  -1  -6   21.31    0.78
  -1  -1  -6   22.28    0.67
  -1   1  -6   21.72    0.95
   1   1   6   22.32    0.70
   1   1   6   21.72    0.71
   1   1   6   23.63    0.74
  -1   1  -6   22.89    0.75
  -1   1  -6   20.60    0.64
   3  -1   6   27.88    0.86
   3  -1   6   27.64    0.88
  -3  -1  -6   27.93    1.14
  -3  -1  -6   28.13    0.96
  -3  -1  -6   26.79    1.12
   3  -1   6   28.94    0.92
   3   1   6   27.45    0.90
   3   1   6   27.45    0.86
  -3   1  -6   28.97    1.22
   3   1   6   29.20    0.90
  -3   1  -6   28.87    0.96
  -5  -1  -6    0.40    0.24
   5  -1   6    0.29    0.19
   5  -1   6    0.63    0.19
  -5  -1  -6    0.32    0.29
   5  -1   6    0.71    0.22
   5   1   6    1.13    0.27
  -5   1  -6    0.50    0.22
   5   1   6    0.54    0.15
  -5   1  -6    0.63    0.30
  -5   1  -6    0.35    0.27
   5   1   6    0.42    0.19
   7  -1   6   14.70    0.78
   7  -1   6   14.31    0.69
   7  -1   6   14.27    0.78
  -7  -1  -6   14.82    1.02
  -7  -1  -6   14.57    0.79
  -7   1  -6   14.19    1.00
   7   1   6   14.11    0.80
  12  -2  -6   43.75    1.60
 -12  -2   6   43.97    1.55
  12  -2  -6   44.87    1.47
 -12  -2   6   43.28    1.44
 -12   2   6   43.88    1.50
  12   2  -6   43.61    1.53
 -10  -2   6   75.16    1.88
 -10  -2   6   76.60    2.02
 -10  -2   6   76.97    1.98
  10  -2  -6   73.45    1.91
  10  -2  -6   75.79    2.09
  10   2  -6   75.62    2.01
 -10   2   6   75.94    1.94
 -10   2   6   75.10    1.88
  10   2  -6   76.14    1.90
 -10   2   6   75.47    1.85
   8  -2  -6  129.18    2.87
  -8  -2   6  133.79    2.80
   8  -2  -6  136.08    2.74
  -8  -2   6  127.79    3.17
  -8  -2   6  135.99    2.70
  -8   2   6  133.46    2.74
  -8   2   6  128.57    3.26
  -8   2   6  134.71    2.70
   8   2  -6  134.69    2.79
   8   2  -6  136.55    2.82
  -8   2   6  132.84    2.71
   8   2  -6  136.40    2.81
   6  -2  -6  202.18    3.78
  -6  -2   6  201.28    3.69
   6  -2  -6  199.28    3.90
  -6  -2   6  196.95    3.58
   6  -2  -6  205.62    3.84
  -6  -2   6  203.13    4.15
  -6   2   6  197.02    3.53
   6   2  -6  202.48    3.63
  -6   2   6  202.35    3.74
   6   2  -6  205.19    3.82
  -6   2   6  205.89    3.73
   6   2  -6  199.24    3.70
  -6   2   6  202.96    4.21
   4  -2  -6  150.95    2.96
   4  -2  -6  151.50    2.67
  -4  -2   6  153.33    3.19
  -4  -2   6  148.74    2.63
   4  -2  -6  147.50    2.77
   4  -2  -6  148.12    2.87
  -4  -2   6  144.70    2.73
  -4   2   6  152.77    2.85
  -4   2   6  147.98    2.72
  -4   2   6  150.04    3.17
  -4   2   6  147.35    2.78
   4   2  -6  149.46    2.69
   4   2  -6  151.25    2.76
   4   2  -6  144.38    2.85
  -2  -2   6  138.00    2.96
  -2  -2   6  129.66    2.40
   2  -2  -6  129.67    2.59
   2  -2  -6  138.25    2.70
   2  -2  -6  132.26    2.49
   2  -2  -6  134.79    2.62
   2   2  -6  135.04    2.80
   2   2  -6  134.19    2.34
  -2   2   6  133.97    2.57
  -2   2   6  132.07    2.42
   2   2  -6  132.86    2.53
   2   2  -6  134.07    2.55
  -2   2   6  131.26    2.53
  -2   2   6  133.60    2.89
   0  -2   6   58.01    1.24
   0  -2  -6   61.23    1.34
   0  -2  -6   62.09    1.60
   0  -2  -6   60.11    1.50
   0  -2  -6   59.04    1.57
   0  -2   6   59.95    1.32
   0   2  -6   61.96    1.70
   0   2   6   62.24    1.40
   0   2  -6   59.69    1.28
   0   2   6   60.24    1.35
   0   2  -6   60.50    1.38
  -2  -2  -6   36.17    1.14
  -2  -2  -6   36.67    1.23
   2  -2   6   35.69    0.99
  -2  -2  -6   36.79    1.26
   2  -2   6   34.99    0.95
  -2  -2  -6   36.10    1.18
  -2   2  -6   37.10    1.37
   2   2   6   34.07    0.96
   2   2   6   36.56    1.04
  -2   2  -6   35.08    1.04
   2   2   6   36.75    1.03
   4  -2   6   55.22    1.44
  -4  -2  -6   53.35    1.52
  -4  -2  -6   52.98    1.75
   4  -2   6   56.24    1.46
  -4  -2  -6   54.23    1.71
   4   2   6   54.10    1.47
  -4   2  -6   56.28    1.88
   4   2   6   52.93    1.44
  -4   2  -6   55.18    1.48
   4   2   6   54.17    1.41
  -6  -2  -6   29.49    1.38
   6  -2   6   29.34    1.10
   6  -2   6   30.20    1.07
  -6   2  -6   29.49    1.40
   6   2   6   29.23    1.11
   6   2   6   28.20    0.97
 -11  -3   6   11.08    0.67
  11  -3  -6   11.36    0.75
 -11  -3   6   10.48    0.63
 -11  -3   6   11.41    0.76
  11  -3  -6   10.83    0.68
  11   3  -6   10.85    0.70
  11   3  -6   11.57    0.68
 -11   3   6   10.17    0.65
 -11   3   6   11.39    0.73
  -9  -3   6    0.53    0.20
  -9  -3   6    0.84    0.25
   9  -3  -6    0.77    0.23
   9  -3  -6    0.84    0.20
   9   3  -6    1.19    0.27
  -9   3   6    1.03    0.22
  -9   3   6    1.45    0.28
   9   3  -6    0.69    0.22
  -9   3   6    1.02    0.24
  -7  -3   6    3.06    0.30
   7  -3  -6    3.23    0.28
   7  -3  -6    3.21    0.39
   7  -3  -6    3.38    0.34
  -7  -3   6    3.45    0.29
  -7  -3   6    2.95    0.36
   7   3  -6    3.38    0.35
  -7   3   6    3.36    0.44
  -7   3   6    4.00    0.35
  -7   3   6    3.28    0.27
  -7   3   6    3.39    0.31
   7   3  -6    3.51    0.32
   5  -3  -6   36.96    1.03
  -5  -3   6   36.56    0.93
  -5  -3   6   35.68    0.86
   5  -3  -6   36.20    1.09
   5  -3  -6   36.91    0.99
  -5  -3   6   37.18    1.22
   5   3  -6   36.84    1.04
   5   3  -6   37.78    0.95
   5   3  -6   36.21    0.93
  -5   3   6   35.65    0.94
  -5   3   6   36.19    0.90
  -5   3   6   37.12    1.25
  -5   3   6   37.09    1.00
  -3  -3   6    1.51    0.27
   3  -3  -6    0.90    0.13
   3  -3  -6    0.99    0.20
   3  -3  -6    0.97    0.14
   3  -3  -6    0.94    0.20
   3   3  -6    1.05    0.16
  -3   3   6    1.06    0.16
  -3   3   6    0.86    0.19
  -3   3   6    0.94    0.11
   3   3  -6    0.89    0.17
  -3   3   6    0.73    0.14
   3   3  -6    1.67    0.23
   3   3  -6    1.75    0.19
   1  -3  -6   33.19    1.09
   1  -3  -6   32.13    0.92
  -1  -3   6   32.85    0.78
   1  -3  -6   32.73    1.00
   1   3  -6   32.26    0.84
  -1   3   6   32.28    0.91
  -1   3   6   31.87    0.89
  -1   3   6   32.50    1.11
   1   3  -6   32.01    0.94
   1   3  -6   33.98    1.13
   1   3  -6   32.67    0.88
  -1   3   6   31.67    0.84
  -1  -3  -6    4.78    0.45
   1  -3   6    4.77    0.31
  -1  -3  -6    4.86    0.40
  -1  -3  -6    5.41    0.47
   1  -3   6    5.01    0.31
  -1  -3  -6    5.68    0.46
  -1  -3  -6    5.32    0.32
  -1   3  -6    5.37    0.36
   1   3   6    4.90    0.35
  -1   3  -6    4.97    0.48
   1   3   6    4.39    0.31
   1   3   6    5.32    0.36
  -3  -3  -6    0.06    0.13
   3  -3   6    0.06    0.15
  -3  -3  -6   -0.05    0.19
  -3  -3  -6   -0.17    0.16
   3  -3   6    0.22    0.15
  -3  -3  -6    0.36    0.22
   3   3   6    0.74    0.18
  -3   3  -6    0.13    0.20
  -3   3  -6    0.30    0.16
   3   3   6    0.32    0.17
  -5  -3  -6   11.78    0.71
  -5  -3  -6   10.97    0.82
   5  -3   6    9.97    0.61
   5  -3   6   10.12    0.61
   5   3   6   10.41    0.61
  -5   3  -6   10.05    0.59
  -5   3  -6   10.32    0.84
   5   3   6    9.25    0.54
   7  -3   6    1.81    0.31
   7  -3   6    2.19    0.37
   7  -3   6    2.37    0.40
  -7  -3  -6    2.14    0.53
   7   3   6    2.59    0.42
  -7   3  -6    1.65    0.47
  12  -4  -6   72.46    1.97
 -12  -4   6   68.12    2.09
  12  -4  -6   71.19    2.15
 -12  -4   6   67.91    1.87
 -12   4   6   69.18    1.96
  12   4  -6   68.23    2.06
 -12   4   6   70.76    2.04
 -12   4   6   68.90    2.29
 -10  -4   6    4.06    0.47
 -10  -4   6    3.65    0.36
 -10  -4   6    4.26    0.52
  10  -4  -6    4.31    0.49
 -10  -4   6    4.50    0.41
  10   4  -6    4.04    0.49
  10   4  -6    4.76    0.43
 -10   4   6    4.21    0.41
 -10   4   6    4.79    0.47
   8  -4  -6   91.24    2.18
  -8  -4   6   91.54    2.12
   8  -4  -6   88.97    2.00
  -8  -4   6   86.74    1.93
  -8  -4   6   84.38    2.36
   8  -4  -6   91.02    2.21
  -8   4   6   91.23    2.09
  -8   4   6   91.09    2.04
   8   4  -6   89.55    2.14
   8   4  -6   88.40    2.13
   6  -4  -6   10.01    0.49
   6  -4  -6   10.06    0.58
  -6  -4   6    9.18    0.50
   6  -4  -6   10.21    0.51
  -6  -4   6   11.88    0.46
  -6   4   6    9.32    0.50
  -6   4   6    9.36    0.41
  -6   4   6    9.51    0.65
   6   4  -6    9.53    0.51
   6   4  -6    9.60    0.48
  -6   4   6    9.59    0.46
   6   4  -6    9.52    0.45
   4  -4  -6  207.51    3.69
   4  -4  -6  216.61    4.01
  -4  -4   6  217.92    4.27
   4  -4  -6  218.90    4.10
   4  -4  -6  208.62    3.87
  -4  -4   6  210.61    3.77
   4   4  -6  216.38    3.89
  -4   4   6  213.93    4.24
  -4   4   6  212.21    3.83
  -4   4   6  209.97    3.95
   4   4  -6  216.29    3.86
  -4   4   6  210.55    3.87
  -4   4   6  212.08    3.82
   4   4  -6  218.81    4.02
   2  -4  -6   64.18    1.71
  -2  -4   6   63.93    1.75
   2  -4  -6   63.72    1.58
   2  -4  -6   61.91    1.55
   2   4  -6   63.85    1.64
  -2   4   6   62.17    1.66
   2   4  -6   63.58    1.34
  -2   4   6   62.59    1.36
   2   4  -6   62.92    1.47
  -2   4   6   63.14    1.45
  -2   4   6   64.20    1.46
   2   4  -6   62.24    1.41
   2   4  -6   62.46    1.44
   0  -4   6  313.64    5.53
   0  -4  -6  313.29    5.86
   0  -4  -6  304.72    5.66
   0  -4  -6  324.19    6.05
   0   4   6  318.68    5.68
   0   4  -6  325.00    5.78
   0   4   6  322.59    5.66
   0   4  -6  317.55    5.62
   0   4  -6  316.68    6.07
   0   4   6  318.76    5.62
  -2  -4  -6   48.97    1.47
   2  -4   6   48.66    1.26
  -2  -4  -6   46.53    1.39
   2  -4   6   52.51    1.30
  -2  -4  -6   47.63    1.55
  -2  -4  -6   50.09    1.56
   2   4   6   49.60    1.32
   2   4   6   50.29    1.37
  -2   4  -6   47.15    1.27
  -2   4  -6   48.71    1.68
   2   4   6   49.19    1.23
  -4  -4  -6  157.57    3.72
  -4  -4  -6  164.53    3.51
   4  -4   6  160.69    3.30
   4  -4   6  167.48    3.33
   4   4   6  157.38    3.25
  -4   4  -6  159.29    3.26
  -4   4  -6  160.08    3.93
   4   4   6  165.91    3.44
   6  -4   6    7.31    0.58
  -6  -4  -6    6.94    0.73
   6  -4   6    6.98    0.56
  -6   4  -6    7.40    0.79
   6   4   6    7.03    0.59
  11  -5  -6    8.26    0.69
 -11  -5   6    8.29    0.65
 -11  -5   6    8.36    0.62
  11   5  -6    7.64    0.60
 -11   5   6    7.99    0.64
  11   5  -6    8.80    0.66
 -11   5   6    7.60    0.62
  -9  -5   6    0.17    0.16
   9  -5  -6    0.88    0.28
  -9  -5   6    0.35    0.24
  -9  -5   6    0.21    0.15
  -9   5   6    0.13    0.15
  -9   5   6    0.48    0.20
   9   5  -6    0.29    0.16
   9   5  -6    0.13    0.15
   7  -5  -6    0.23    0.18
   7  -5  -6    0.17    0.11
  -7  -5   6    0.14    0.16
  -7  -5   6    0.09    0.09
  -7  -5   6    0.26    0.14
   7  -5  -6    0.13    0.19
  -7   5   6    0.86    0.27
  -7   5   6    0.83    0.19
   7   5  -6    0.26    0.16
  -7   5   6    0.15    0.12
  -7   5   6    0.35    0.19
  -5  -5   6    9.73    0.42
   5  -5  -6   10.09    0.50
  -5  -5   6    9.39    0.58
   5  -5  -6   10.32    0.60
   5  -5  -6    9.19    0.51
  -5   5   6    9.00    0.42
  -5   5   6    9.44    0.43
   5   5  -6    9.99    0.54
   5   5  -6    9.86    0.46
  -5   5   6   10.00    0.62
  -5   5   6    9.78    0.51
   5   5  -6    9.97    0.49
  -5   5   6    9.49    0.46
   3  -5  -6    5.63    0.45
   3  -5  -6    5.44    0.41
  -3  -5   6    5.09    0.42
   3  -5  -6    5.87    0.46
   3  -5  -6    5.05    0.27
   3  -5  -6    5.30    0.32
   3   5  -6    4.57    0.31
  -3   5   6    5.08    0.41
   3   5  -6    5.44    0.36
   3   5  -6    5.12    0.32
   3   5  -6    5.41    0.33
  -3   5   6    5.01    0.35
   3   5  -6    5.13    0.38
  -3   5   6    5.01    0.28
  -3   5   6    5.23    0.35
   1  -5  -6   10.88    0.61
   1  -5  -6    9.45    0.53
   1  -5  -6    9.38    0.64
   1   5  -6   11.40    0.48
   1   5  -6    9.24    0.42
   1   5  -6   10.04    0.61
   1   5  -6    9.93    0.42
  -1   5   6    9.43    0.46
  -1   5   6   10.33    0.50
   1   5  -6    9.82    0.51
  -1   5   6   10.21    0.56
  -1   5   6    9.46    0.46
   1  -5   6    1.42    0.23
  -1  -5  -6    1.76    0.34
  -1  -5  -6    1.28    0.29
  -1   5  -6    1.49    0.21
   1   5   6    1.59    0.24
  -1   5  -6    1.35    0.25
   1   5   6    1.58    0.22
   1   5   6    1.10    0.21
  -1   5  -6    1.17    0.28
   3  -5   6    0.66    0.20
   3  -5   6    0.75    0.19
  -3  -5  -6    0.87    0.26
  -3  -5  -6    1.05    0.33
  -3  -5  -6    0.84    0.31
   3   5   6    1.01    0.21
  -3   5  -6    1.61    0.26
  -3   5  -6    1.09    0.34
   3   5   6    0.88    0.25
  -5  -5  -6   13.69    0.82
   5  -5   6   12.51    0.70
  -5  -5  -6   12.12    0.90
   5  -5   6   11.76    0.70
  -5   5  -6   13.51    0.97
   5   5   6   12.41    0.76
   5   5   6   12.36    0.64
 -10  -6   6  133.12    3.06
  10  -6  -6  129.08    3.08
 -10  -6   6  131.25    2.95
 -10   6   6  126.30    2.99
 -10   6   6  126.68    2.93
  10   6  -6  126.93    2.97
  10   6  -6  125.37    3.09
  -8  -6   6   23.35    1.04
  -8  -6   6   24.79    0.98
   8  -6  -6   24.89    1.01
   8  -6  -6   22.29    0.97
   8  -6  -6   23.96    0.86
   8   6  -6   24.23    0.99
   8   6  -6   23.01    0.99
  -8   6   6   24.70    0.91
  -8   6   6   24.32    0.97
  -6  -6   6  230.88    4.22
   6  -6  -6  242.50    4.48
  -6  -6   6  239.88    4.46
  -6  -6   6  240.26    4.72
   6  -6  -6  239.52    4.70
   6  -6  -6  234.90    4.51
  -6   6   6  235.04    4.33
   6   6  -6  232.15    4.58
   6   6  -6  239.96    4.53
  -6   6   6  233.70    4.39
  -6   6   6  237.21    4.52
  -6   6   6  229.26    4.86
   4  -6  -6   21.81    0.82
   4  -6  -6   19.51    0.74
  -4  -6   6   20.89    0.88
   4  -6  -6   22.50    0.92
   4  -6  -6   21.52    0.82
   4   6  -6   20.56    0.73
  -4   6   6   20.81    0.65
   4   6  -6   21.23    0.74
  -4   6   6   21.66    0.77
   4   6  -6   21.67    0.71
  -4   6   6   22.93    0.77
  -4   6   6   21.13    0.88
  -4   6   6   21.50    0.78
   4   6  -6   21.82    0.82
   2  -6  -6  198.12    3.89
   2  -6  -6  197.01    4.11
  -2  -6   6  193.08    4.00
   2  -6  -6  180.64    3.54
   2  -6  -6  193.05    3.92
  -2   6   6  194.90    3.65
   2   6  -6  196.79    3.65
   2   6  -6  195.87    3.89
  -2   6   6  194.19    3.75
   2   6  -6  195.05    3.62
   2   6  -6  194.70    3.74
  -2   6   6  192.35    3.68
   2   6  -6  197.49    3.70
   0  -6  -6    3.68    0.46
   0  -6  -6    3.61    0.49
   0  -6  -6    3.63    0.40
   0  -6   6    3.44    0.29
   0   6  -6    4.35    0.40
   0   6  -6    3.50    0.31
   0   6   6    3.83    0.36
   0   6   6    3.97    0.29
   0   6  -6    3.63    0.42
   0   6   6    4.10    0.36
  -2  -6  -6  103.60    2.66
  -2  -6  -6  106.77    2.77
  -2  -6  -6  106.40    2.64
  -2  -6  -6  109.61    2.66
   2  -6   6  109.93    2.39
   2   6   6  107.82    2.43
   2   6   6  105.18    2.50
  -2   6  -6  106.21    2.89
  -2   6  -6  109.28    2.31
  -2   6  -6  110.85    2.59
  -4  -6  -6    3.47    0.51
  -4  -6  -6    3.23    0.46
  -4  -6  -6    3.24    0.53
   4  -6   6    3.66    0.42
   4  -6   6    3.90    0.45
   4   6   6    4.13    0.41
   4   6   6    3.13    0.41
  -4   6  -6    2.87    0.55
  -6  -6  -6   79.38    2.25
  -6  -6  -6   80.44    2.50
   6  -6   6   78.20    2.13
  -6   6  -6   82.27    2.72
   6   6   6   79.58    2.23
  -9  -7   6   11.02    0.71
  -9  -7   6   12.23    0.72
   9  -7  -6   11.67    0.76
   9  -7  -6    9.94    0.67
  -9   7   6   11.03    0.66
  -9   7   6   11.14    0.73
   9   7  -6   10.36    0.73
  -7  -7   6   21.25    0.88
   7  -7  -6   19.48    0.86
  -7  -7   6   20.48    0.97
   7  -7  -6   19.64    0.94
   7  -7  -6   20.02    0.80
  -7  -7   6   20.37    0.84
  -7   7   6   20.06    0.77
   7   7  -6   20.48    0.89
   7   7  -6   21.01    0.93
  -7   7   6   19.18    0.86
   5  -7  -6   52.24    1.58
  -5  -7   6   50.62    1.53
   5  -7  -6   51.43    1.44
  -5  -7   6   51.01    1.35
   5  -7  -6   52.51    1.44
   5   7  -6   51.68    1.50
  -5   7   6   51.46    1.37
  -5   7   6   53.20    1.46
  -5   7   6   51.28    1.39
   5   7  -6   48.94    1.40
   3  -7  -6   14.37    0.79
   3  -7  -6   13.83    0.70
  -3  -7   6   14.52    0.68
   3  -7  -6   13.27    0.60
   3  -7  -6   13.28    0.76
   3   7  -6   14.19    0.61
   3   7  -6   14.03    0.61
   3   7  -6   14.00    0.63
   3   7  -6   14.63    0.67
  -3   7   6   13.96    0.66
  -3   7   6   14.32    0.65
  -3   7   6   15.01    0.65
   1  -7  -6   48.72    1.48
  -1  -7   6   45.55    1.79
   1  -7  -6   47.36    1.64
   1  -7  -6   46.26    1.49
   1   7  -6   46.67    1.37
  -1   7   6   47.61    1.37
   1   7  -6   49.62    1.51
   1   7  -6   47.54    1.25
  -1   7   6   46.96    1.33
  -1   7   6   45.92    1.24
   1   7  -6   48.09    1.26
  -1  -7  -6   18.67    0.83
  -1  -7  -6   17.72    0.93
  -1  -7  -6   17.71    0.98
   1  -7   6   18.31    0.78
  -1   7  -6   19.00    0.73
  -1   7  -6   17.68    0.96
   1   7   6   18.47    0.81
  -1   7  -6   19.31    0.86
   1   7   6   17.92    0.84
   3  -7   6    7.01    0.54
  -3  -7  -6    6.05    0.66
  -3  -7  -6    6.40    0.65
  -3  -7  -6    7.34    0.68
   3  -7   6    6.62    0.55
   3   7   6    6.94    0.52
  -3   7  -6    7.42    0.62
   3   7   6    6.08    0.57
  -3   7  -6    6.41    0.69
   5  -7   6   16.60    0.81
  -5  -7  -6   16.20    0.99
  -5  -7  -6   16.30    0.92
   5  -7   6   15.58    0.83
   5   7   6   16.01    0.89
  -5   7  -6   15.84    1.13
 -10  -8   6   25.50    1.14
 -10  -8   6   25.68    1.09
  10  -8  -6   23.72    1.14
 -10   8   6   25.15    1.16
 -10   8   6   23.98    1.30
  10   8  -6   24.92    1.19
   8  -8  -6   28.30    1.17
  -8  -8   6   30.38    1.15
  -8  -8   6   30.83    1.14
   8  -8  -6   29.07    1.18
  -8   8   6   28.96    1.17
   8   8  -6   27.68    1.17
   6  -8  -6   33.25    1.20
  -6  -8   6   33.67    1.27
   6  -8  -6   34.88    1.29
  -6  -8   6   34.69    1.16
   6  -8  -6   34.08    1.14
  -6  -8   6   35.37    1.11
   6   8  -6   33.77    1.21
   6   8  -6   35.39    1.25
  -6   8   6   33.25    1.11
  -6   8   6   34.98    1.19
  -4  -8   6   60.01    1.71
   4  -8  -6   59.58    1.61
   4  -8  -6   60.49    1.82
   4  -8  -6   61.55    1.65
   4   8  -6   61.10    1.67
  -4   8   6   62.49    1.65
   4   8  -6   61.94    1.62
  -4   8   6   60.14    1.61
  -4   8   6   58.72    1.61
   2  -8  -6   68.86    1.89
   2  -8  -6   68.84    1.95
   2  -8  -6   65.93    2.06
   2   8  -6   67.72    1.70
  -2   8   6   68.31    1.78
  -2   8   6   67.69    1.82
   2   8  -6   66.23    1.74
   2   8  -6   67.90    1.65
  -2   8   6   68.21    1.68
   0  -8  -6   87.75    2.24
   0  -8  -6   84.25    2.27
   0  -8  -6   81.17    2.41
   0   8  -6   84.47    2.14
   0   8  -6   80.48    1.90
   0   8   6   84.13    2.09
   0   8   6   80.46    2.09
   0   8  -6   81.09    2.26
  -2  -8  -6   66.63    2.20
  -2  -8  -6   68.86    1.90
  -2  -8  -6   69.67    2.08
   2  -8   6   72.69    1.88
  -2   8  -6   64.66    2.18
   2   8   6   69.82    1.87
   2   8   6   66.26    1.97
  -2   8  -6   68.85    2.00
   4  -8   6   45.35    1.49
   4  -8   6   48.65    1.49
  -4  -8  -6   43.26    1.67
  -4  -8  -6   44.46    1.65
   4   8   6   43.82    1.58
   4   8   6   44.54    1.40
  -4   8  -6   43.46    1.87
  -9  -9   6    5.69    0.58
  -9  -9   6    5.90    0.52
   9  -9  -6    5.88    0.59
   9  -9  -6    5.70    0.64
   9   9  -6    6.08    0.63
  -7  -9   6    7.32    0.59
   7  -9  -6    7.70    0.67
   7  -9  -6    8.67    0.67
  -7  -9   6    7.37    0.54
  -7   9   6    7.85    0.63
   7   9  -6    7.83    0.60
   5  -9  -6    2.69    0.41
   5  -9  -6    2.50    0.42
  -5  -9   6    2.24    0.38
  -5  -9   6    3.23    0.38
   5  -9  -6    3.09    0.39
  -5   9   6    3.43    0.43
  -5   9   6    3.66    0.43
  -5   9   6    3.03    0.41
   5   9  -6    3.47    0.44
   3  -9  -6   15.15    0.93
   3  -9  -6   16.43    0.96
  -3  -9   6   15.05    0.76
   3  -9  -6   14.92    0.80
   3   9  -6   15.29    0.74
  -3   9   6   15.95    0.79
  -3   9   6   16.33    0.82
   3   9  -6   16.18    0.77
  -3   9   6   15.74    0.74
  -1  -9   6    2.00    0.33
   1  -9  -6    2.92    0.53
   1  -9  -6    2.98    0.50
   1  -9  -6    3.11    0.50
  -1   9   6    2.47    0.36
   1   9  -6    2.65    0.39
  -1   9   6    2.78    0.43
   1   9  -6    2.23    0.29
  -1  -9  -6    6.06    0.72
   1  -9   6    6.51    0.52
  -1  -9  -6    6.51    0.67
  -1  -9  -6    6.17    0.56
   1   9   6    5.79    0.60
   1   9   6    5.97    0.53
   1   9   6    5.47    0.58
  -1   9  -6    5.82    0.56
  -1   9  -6    5.31    0.55
  -3  -9  -6    3.20    0.54
   3  -9   6    3.54    0.46
   3   9   6    3.21    0.46
  -3   9  -6    3.44    0.51
   3   9   6    3.88    0.55
  -3   9  -6    3.74    0.59
   3   9   6    3.01    0.42
   8 -10  -6  138.58    3.35
   8 -10  -6  146.96    3.39
  -8 -10   6  141.91    3.27
   8  10  -6  138.11    3.41
  -8  10   6  142.98    3.41
  -8  10   6  141.32    3.58
   6 -10  -6    1.22    0.38
   6 -10  -6    1.10    0.29
   6 -10  -6    1.67    0.37
  -6 -10   6    1.53    0.32
   6  10  -6    1.55    0.36
  -6  10   6    2.00    0.38
  -6  10   6    1.24    0.30
  -4 -10   6  186.47    3.95
  -4 -10   6  182.53    4.00
   4 -10  -6  188.80    4.24
  -4 -10   6  182.86    3.73
   4  10  -6  184.69    3.90
  -4  10   6  185.61    3.93
  -4  10   6  180.20    3.89
   2 -10  -6    1.07    0.32
   2 -10  -6    0.92    0.33
  -2 -10   6    0.60    0.19
   2 -10  -6    0.46    0.28
  -2  10   6    0.84    0.25
   2  10  -6    0.43    0.19
  -2  10   6    0.30    0.25
   2  10  -6    0.75    0.21
   0 -10  -6  141.90    3.37
   0 -10  -6  139.67    3.40
   0 -10   6  140.79    3.02
   0  10  -6  138.55    3.24
   0  10   6  141.31    3.20
   0  10   6  134.58    3.30
   0  10  -6  125.73    2.89
  -2 -10  -6    1.59    0.41
   2 -10   6    0.33    0.30
  -2 -10  -6    0.94    0.41
   2  10   6    0.67    0.31
   2  10   6    0.53    0.27
  -2  10  -6    0.90    0.35
   2  10   6    0.43    0.25
   7 -11  -6    9.57    0.75
  -7 -11   6    9.77    0.72
   7 -11  -6    9.12    0.72
  -7  11   6    9.95    0.76
   7  11  -6    8.19    0.67
  -5 -11   6    7.93    0.63
  -5 -11   6    7.63    0.58
   5 -11  -6    6.79    0.66
   5 -11  -6    7.81    0.66
   5 -11  -6    7.84    0.65
  -5  11   6    7.16    0.62
  -5  11   6    7.51    0.61
   5  11  -6    8.14    0.68
   3 -11  -6   16.12    1.00
  -3 -11   6   15.41    0.84
  -3  11   6   16.16    0.86
  -3  11   6   17.07    0.91
   3  11  -6   17.23    0.91
   3  11  -6   14.84    0.82
   1 -11  -6    8.44    0.80
  -1 -11   6    7.73    0.63
   1 -11  -6    7.04    0.65
  -1  11   6    7.11    0.63
   1  11  -6    8.23    0.66
  -1  11   6    8.44    0.72
   1 -11   6   12.82    0.83
  -1 -11  -6   12.64    0.94
  -1 -11  -6   11.68    0.81
   1  11   6   11.89    0.86
   1  11   6   12.09    0.78
  -1  11  -6   11.89    0.82
  -4 -12   6   31.86    1.29
   4 -12  -6   32.07    1.50
   4  12  -6   30.00    1.28
  -4  12   6   32.87    1.36
  -2 -12   6   32.73    1.25
   2 -12  -6   34.23    1.56
   2  12  -6   30.39    1.27
  -2  12   6   32.79    1.38
  -2  12   6   31.12    1.29
   0 -12   6   35.13    1.37
   0 -12  -6   33.20    1.50
   0 -12  -6   31.19    1.43
   0 -12   6   32.00    1.26
   0  12   6   30.10    1.40
   0  12  -6   31.57    1.35
  12   0  -7    0.06    0.21
 -12   0   7    0.11    0.19
 -12   0   7   -0.10    0.22
  10   0  -7    0.14    0.19
  10   0  -7    0.16    0.20
 -10   0   7    0.68    0.21
  10   0  -7    0.12    0.17
 -10   0   7   -0.05    0.19
   8   0  -7    0.07    0.12
   8   0  -7    0.13    0.13
  -8   0   7    0.23    0.13
  -8   0   7    0.04    0.18
  -8   0   7    0.08    0.12
   8   0  -7    0.21    0.12
  -8   0   7    0.07    0.11
  -6   0   7    0.10    0.12
   6   0  -7   -0.08    0.06
   6   0  -7    0.26    0.10
  -6   0   7    0.05    0.15
   6   0  -7    0.19    0.13
   6   0  -7    0.12    0.12
  -6   0   7    0.02    0.10
  -4   0   7    0.12    0.08
  -4   0   7    0.19    0.14
   4   0  -7    0.03    0.08
  -4   0   7    0.07    0.10
  -2   0   7    0.17    0.11
  -2   0   7    0.16    0.13
   2   0  -7    0.10    0.10
  -2   0   7   -0.02    0.06
   2   0  -7    0.04    0.12
   2   0  -7    0.28    0.10
   0   0  -7    0.26    0.14
   0   0   7    0.02    0.09
   0   0  -7    0.33    0.12
   0   0   7    0.16    0.12
   0   0  -7    0.00    0.13
  -2   0  -7    0.33    0.18
   2   0   7   -0.04    0.09
  -2   0  -7    0.20    0.19
   2   0   7    0.07    0.13
  -2   0  -7    0.14    0.19
   4   0   7    0.55    0.22
   4   0   7    0.10    0.19
  -4   0  -7    0.00    0.21
  -4   0  -7    0.04    0.15
   6   0   7    0.20    0.17
  -6   0  -7    0.08    0.22
   6   0   7    0.17    0.18
  -6   0  -7    0.21    0.27
  11  -1  -7   29.90    1.26
 -11  -1   7   27.03    1.11
  11  -1  -7   27.65    1.06
 -11  -1   7   27.86    1.08
 -11   1   7   27.24    1.06
  11   1  -7   28.02    1.05
 -11   1   7   27.86    1.08
  11   1  -7   28.46    1.13
   9  -1  -7   86.68    2.08
   9  -1  -7   92.84    2.09
  -9  -1   7   88.92    2.06
  -9  -1   7   88.53    2.14
   9  -1  -7   92.10    2.30
   9   1  -7   91.61    2.14
   9   1  -7   87.22    2.09
  -9   1   7   88.72    2.01
  -9   1   7   88.49    2.09
  -9   1   7   89.53    2.10
  -7  -1   7   39.98    1.09
  -7  -1   7   39.32    1.02
   7  -1  -7   39.58    1.15
   7  -1  -7   39.62    1.02
  -7  -1   7   39.16    1.43
   7  -1  -7   38.42    1.18
  -7   1   7   38.83    1.45
   7   1  -7   39.80    1.06
  -7   1   7   38.55    1.09
   7   1  -7   39.21    1.15
   7   1  -7   39.79    0.98
  -7   1   7   40.14    1.08
  -5  -1   7  227.28    4.06
   5  -1  -7  222.26    4.08
  -5  -1   7  223.69    4.08
  -5  -1   7  222.18    4.55
   5  -1  -7  220.25    3.93
   5  -1  -7  222.21    4.17
   5  -1  -7  224.30    4.28
  -5   1   7  228.26    4.09
  -5   1   7  230.04    4.12
   5   1  -7  222.94    3.99
   5   1  -7  226.03    4.19
  -5   1   7  217.30    3.92
  -5   1   7  224.99    4.57
   3  -1  -7   46.49    1.20
  -3  -1   7   47.57    1.49
  -3  -1   7   47.02    1.10
   3  -1  -7   46.81    1.11
   3  -1  -7   48.46    1.24
  -3  -1   7   46.58    1.16
  -3   1   7   46.75    1.46
   3   1  -7   47.09    1.13
  -3   1   7   46.83    1.11
   3   1  -7   47.39    1.37
   3   1  -7   46.27    1.18
  -3   1   7   47.02    1.18
  -1  -1   7  274.15    4.85
   1  -1  -7  273.05    4.88
   1  -1  -7  276.81    4.83
   1  -1  -7  276.09    5.27
   1  -1  -7  269.42    4.86
  -1  -1   7  270.46    4.74
   1  -1  -7  275.27    5.03
   1   1  -7  262.21    4.80
   1   1  -7  267.51    4.87
  -1   1   7  274.00    4.76
   1   1  -7  262.87    5.25
  -1   1   7  273.16    4.87
  -1  -1  -7   24.01    0.85
  -1  -1  -7   22.63    1.00
   1  -1   7   22.69    0.75
  -1  -1  -7   21.87    0.85
   1  -1   7   24.06    0.79
  -1  -1  -7   22.39    0.72
   1   1   7   24.32    0.82
   1   1   7   23.80    0.79
  -1   1  -7   23.55    0.83
  -1   1  -7   22.59    1.04
  -3  -1  -7  142.44    3.06
  -3  -1  -7  144.45    3.42
  -3  -1  -7  138.25    3.03
   3  -1   7  144.05    2.93
   3  -1   7  143.74    2.95
   3   1   7  145.34    2.95
  -3   1  -7  137.23    3.45
  -3   1  -7  142.82    3.03
   3   1   7  145.24    2.98
   5  -1   7   10.44    0.60
   5  -1   7    9.80    0.59
  -5  -1  -7   10.26    0.64
  -5  -1  -7   10.16    0.79
  -5  -1  -7    9.77    0.83
  -5   1  -7   10.26    0.84
   5   1   7   10.21    0.59
  -5   1  -7   10.13    0.66
   5   1   7    9.47    0.63
  12  -2  -7   15.94    0.95
 -12  -2   7   17.19    0.90
 -12  -2   7   16.13    0.81
  12  -2  -7   15.01    0.83
  12   2  -7   16.05    0.89
 -12   2   7   15.83    0.88
  10  -2  -7   27.17    1.01
 -10  -2   7   27.37    0.98
  10  -2  -7   27.14    0.98
  10  -2  -7   27.62    1.14
 -10  -2   7   29.36    1.11
 -10   2   7   26.90    0.97
  10   2  -7   28.25    1.07
 -10   2   7   27.22    1.00
 -10   2   7   27.48    1.04
  10   2  -7   26.23    1.02
   8  -2  -7   34.32    1.07
  -8  -2   7   30.24    1.54
   8  -2  -7   35.02    1.16
   8  -2  -7   34.65    1.01
  -8  -2   7   35.24    1.13
  -8  -2   7   35.45    1.05
  -8   2   7   35.57    1.06
   8   2  -7   35.31    1.08
   8   2  -7   36.52    1.15
  -8   2   7   33.63    1.04
  -8   2   7   34.54    1.06
   6  -2  -7   73.17    1.51
  -6  -2   7   71.55    1.55
  -6  -2   7   72.41    2.02
   6  -2  -7   72.51    1.70
  -6  -2   7   72.98    1.63
   6  -2  -7   73.55    1.84
   6  -2  -7   74.32    1.73
   6   2  -7   72.95    1.57
  -6   2   7   74.09    1.65
  -6   2   7   75.65    1.69
  -6   2   7   70.73    2.03
  -6   2   7   71.52    1.49
   6   2  -7   72.53    1.74
   6   2  -7   71.67    1.57
   4  -2  -7   68.37    1.66
   4  -2  -7   69.13    1.41
   4  -2  -7   66.82    1.42
   4  -2  -7   67.94    1.59
  -4  -2   7   68.11    1.88
  -4  -2   7   65.70    1.47
  -4  -2   7   66.24    1.38
  -4   2   7   66.25    1.85
  -4   2   7   67.84    1.45
  -4   2   7   68.08    1.55
   4   2  -7   65.82    1.47
   4   2  -7   67.38    1.35
   4   2  -7   66.80    1.57
   2  -2  -7   83.61    1.86
   2  -2  -7   85.43    1.96
  -2  -2   7   83.97    2.22
   2  -2  -7   81.54    1.76
  -2  -2   7   82.38    1.65
   2  -2  -7   86.32    1.87
  -2  -2   7   85.63    1.76
   2   2  -7   81.96    1.79
  -2   2   7   86.08    2.20
  -2   2   7   81.30    1.67
   2   2  -7   83.26    2.09
   2   2  -7   84.30    1.80
  -2   2   7   86.40    1.85
  -2   2   7   85.05    1.81
   0  -2  -7   84.67    2.00
   0  -2  -7   79.72    2.09
   0  -2   7   81.91    1.74
   0  -2  -7   83.70    1.87
   0  -2  -7   81.10    1.82
   0   2   7   82.53    1.84
   0   2   7   83.85    1.79
   0   2  -7   81.17    1.84
   0   2  -7   80.54    2.21
  -2  -2  -7   50.11    1.47
   2  -2   7   49.01    1.31
   2  -2   7   49.93    1.30
   2  -2   7   46.83    1.21
  -2  -2  -7   50.48    1.50
  -2  -2  -7   46.09    1.53
  -2   2  -7   47.32    1.69
  -2   2  -7   48.40    1.35
   2   2   7   48.51    1.32
   2   2   7   51.95    1.36
  -4  -2  -7   40.68    1.51
  -4  -2  -7   34.23    1.57
   4  -2   7   42.06    1.23
  -4  -2  -7   39.22    1.55
   4  -2   7   42.67    1.27
   4  -2   7   44.59    1.28
  -4   2  -7   42.76    1.69
  -4   2  -7   44.66    1.36
   4   2   7   44.66    1.27
   4   2   7   43.84    1.34
  -6  -2  -7   23.77    1.28
   6  -2   7   23.00    0.90
   6  -2   7   23.53    0.97
  -6  -2  -7   26.00    1.09
   6   2   7   22.60    0.88
  -6   2  -7   23.53    1.32
 -11  -3   7  103.07    2.59
 -11  -3   7  101.25    2.40
  11  -3  -7  102.65    2.45
  11  -3  -7  103.47    2.69
  11   3  -7  101.90    2.59
 -11   3   7  101.24    2.50
  11   3  -7  101.69    2.47
 -11   3   7  100.80    2.41
   9  -3  -7   25.21    0.92
  -9  -3   7   26.04    1.00
  -9  -3   7   25.80    0.90
   9  -3  -7   25.31    1.02
   9   3  -7   25.37    0.98
  -9   3   7   24.60    0.87
  -9   3   7   24.67    0.92
  -9   3   7   24.80    0.93
   9   3  -7   23.11    0.95
   7  -3  -7  153.73    3.29
  -7  -3   7  149.79    3.51
   7  -3  -7  159.03    3.15
   7  -3  -7  156.94    3.21
  -7  -3   7  154.70    3.02
   7   3  -7  156.84    3.20
   7   3  -7  155.02    3.07
   7   3  -7  152.98    2.99
  -7   3   7  157.46    3.12
  -7   3   7  151.22    3.61
  -7   3   7  154.24    3.06
  -5  -3   7   43.20    1.05
   5  -3  -7   43.37    1.12
   5  -3  -7   43.68    1.21
  -5  -3   7   42.50    1.43
  -5  -3   7   43.00    1.10
   5  -3  -7   45.44    1.31
  -5   3   7   42.86    1.06
   5   3  -7   45.63    1.23
   5   3  -7   43.22    1.10
   5   3  -7   43.34    1.05
  -5   3   7   42.82    1.43
  -5   3   7   43.67    1.11
  -5   3   7   45.27    1.19
  -3  -3   7  145.93    2.76
   3  -3  -7  148.78    3.03
  -3  -3   7  141.47    2.64
   3  -3  -7  146.85    2.95
  -3  -3   7  148.61    3.30
   3  -3  -7  147.68    2.76
   3  -3  -7  147.07    2.99
   3   3  -7  145.58    2.65
   3   3  -7  148.48    2.85
   3   3  -7  145.38    3.11
   3   3  -7  150.42    2.91
  -3   3   7  150.62    2.91
  -3   3   7  145.58    2.84
  -3   3   7  149.93    3.26
   1  -3  -7   45.21    1.39
   1  -3  -7   49.24    1.40
   1  -3  -7   48.00    1.26
   1  -3  -7   51.80    1.52
  -1  -3   7   47.44    1.13
   1  -3  -7   47.66    1.28
   1   3  -7   48.73    1.24
  -1   3   7   49.17    1.27
   1   3  -7   46.68    1.16
  -1   3   7   48.09    1.27
  -1   3   7   50.92    1.20
   1   3  -7   50.39    1.55
  -1   3   7   46.91    1.53
  -1  -3  -7  104.49    2.55
   1  -3   7  103.06    2.14
   1  -3   7  108.79    2.23
  -1  -3  -7  105.61    2.48
  -1  -3  -7  108.37    2.59
   1   3   7  109.73    2.33
  -1   3  -7  102.36    2.74
  -1   3  -7  105.92    2.31
   1   3   7  108.35    2.29
   1   3   7  107.46    2.30
  -3  -3  -7   37.84    1.30
   3  -3   7   38.42    1.15
  -3  -3  -7   38.01    1.34
  -3  -3  -7   34.32    1.42
  -3  -3  -7   33.33    1.29
   3  -3   7   35.48    1.07
  -3   3  -7   36.36    1.54
   3   3   7   36.20    1.14
  -3   3  -7   34.51    1.15
   3   3   7   37.05    1.19
   5  -3   7   67.80    1.79
  -5  -3  -7   66.87    2.22
   5  -3   7   65.57    1.77
   5  -3   7   69.28    1.78
   5   3   7   66.25    1.86
  -5   3  -7   68.08    2.34
   5   3   7   67.59    1.75
 -10  -4   7   12.32    0.65
  10  -4  -7   13.50    0.78
 -10  -4   7   12.89    0.76
 -10  -4   7   13.00    0.80
 -10   4   7   13.80    0.71
  10   4  -7   13.07    0.72
 -10   4   7   13.65    0.74
  10   4  -7   12.40    0.75
   8  -4  -7    6.04    0.43
   8  -4  -7    6.79    0.52
  -8  -4   7    6.90    0.44
  -8  -4   7    6.68    0.50
   8  -4  -7    6.17    0.53
  -8   4   7    6.14    0.45
   8   4  -7    6.08    0.46
  -8   4   7    6.30    0.45
   8   4  -7    6.07    0.46
  -6  -4   7   21.47    0.71
   6  -4  -7   21.01    0.89
   6  -4  -7   21.18    0.80
  -6  -4   7   20.28    0.94
   6  -4  -7   20.73    0.77
   6   4  -7   21.88    0.84
  -6   4   7   20.81    0.78
   6   4  -7   21.36    0.74
  -6   4   7   20.66    0.99
  -6   4   7   21.00    0.69
  -6   4   7   20.97    0.72
   6   4  -7   21.22    0.73
  -4  -4   7    2.93    0.36
   4  -4  -7    2.93    0.24
   4  -4  -7    2.80    0.29
   4  -4  -7    2.79    0.31
  -4  -4   7    3.29    0.22
   4  -4  -7    2.96    0.21
   4   4  -7    3.18    0.24
  -4   4   7    3.53    0.39
  -4   4   7    3.55    0.27
   4   4  -7    2.50    0.28
  -4   4   7    2.75    0.27
   4   4  -7    2.60    0.27
  -4   4   7    2.80    0.31
   2  -4  -7    6.90    0.45
   2  -4  -7    5.82    0.34
   2  -4  -7    5.56    0.44
   2  -4  -7    6.10    0.52
  -2  -4   7    5.68    0.52
   2  -4  -7    5.48    0.42
  -2   4   7    5.09    0.45
   2   4  -7    5.90    0.38
   2   4  -7    5.32    0.37
  -2   4   7    6.18    0.39
  -2   4   7    5.08    0.31
   2   4  -7    5.39    0.45
   2   4  -7    5.68    0.29
  -2   4   7    5.70    0.38
   2   4  -7    5.20    0.33
   0  -4  -7    7.28    0.52
   0  -4   7    7.09    0.41
   0  -4  -7    9.01    0.47
   0  -4   7    7.20    0.39
   0  -4  -7    7.93    0.58
   0   4  -7    7.41    0.61
   0   4   7    7.41    0.57
   0   4   7    7.47    0.47
   0   4   7    7.26    0.44
   0   4  -7    7.80    0.44
   0   4   7    7.17    0.42
  -2  -4  -7    0.04    0.23
  -2  -4  -7    0.16    0.17
   2  -4   7    0.43    0.17
   2  -4   7    0.04    0.15
   2   4   7   -0.01    0.15
   2   4   7    0.08    0.11
  -2   4  -7    0.17    0.15
  -2   4  -7    0.13    0.17
  -4  -4  -7    5.91    0.58
   4  -4   7    5.50    0.43
   4  -4   7    5.44    0.45
  -4  -4  -7    6.03    0.72
  -4   4  -7    5.42    0.63
   4   4   7    5.57    0.48
  -4   4  -7    5.02    0.46
   4   4   7    5.40    0.45
  -6  -4  -7    0.73    0.39
   6  -4   7    0.63    0.27
   6  -4   7    0.44    0.24
   6  -4   7    0.50    0.25
   6   4   7    0.75    0.29
  -6   4  -7    0.44    0.36
  11  -5  -7   16.65    0.94
 -11  -5   7   16.20    0.91
 -11  -5   7   16.01    0.85
  11   5  -7   15.78    0.91
 -11   5   7   16.24    0.84
  11   5  -7   15.21    0.84
 -11   5   7   16.24    0.83
   9  -5  -7   51.61    1.65
  -9  -5   7   52.33    1.57
  -9  -5   7   50.29    1.36
   9  -5  -7   52.58    1.46
   9  -5  -7   53.59    1.64
  -9  -5   7   52.48    1.69
   9   5  -7   49.56    1.56
  -9   5   7   52.83    1.55
  -9   5   7   52.29    1.49
   9   5  -7   51.09    1.57
  -7  -5   7   35.96    1.16
  -7  -5   7   34.28    1.32
   7  -5  -7   36.10    1.14
   7  -5  -7   36.18    1.16
  -7  -5   7   35.47    1.01
   7  -5  -7   35.55    1.25
  -7   5   7   35.72    1.06
  -7   5   7   33.82    1.39
   7   5  -7   35.22    1.18
   7   5  -7   35.56    1.12
  -7   5   7   35.30    1.01
  -7   5   7   36.26    1.17
   5  -5  -7  140.96    3.06
   5  -5  -7  142.25    2.93
  -5  -5   7  143.71    2.72
  -5  -5   7  139.39    3.16
   5  -5  -7  136.99    2.79
  -5   5   7  137.63    2.78
   5   5  -7  141.19    2.94
  -5   5   7  138.04    3.20
  -5   5   7  134.37    2.70
  -5   5   7  138.39    2.73
  -5   5   7  139.25    2.89
   5   5  -7  141.29    2.80
   5   5  -7  137.98    2.76
   3  -5  -7   73.49    1.58
   3  -5  -7   75.08    1.88
   3  -5  -7   75.51    1.90
  -3  -5   7   74.70    2.06
   3  -5  -7   74.90    1.84
   3   5  -7   72.56    1.72
   3   5  -7   74.52    1.62
   3   5  -7   76.65    1.92
   3   5  -7   76.10    1.76
  -3   5   7   73.56    1.60
   3   5  -7   74.83    1.71
  -3   5   7   73.55    1.60
  -3   5   7   77.72    1.77
  -3   5   7   76.18    1.78
  -3   5   7   73.10    1.96
   1  -5  -7  158.80    3.41
   1  -5  -7  161.59    3.30
  -1  -5   7  157.96    3.04
   1  -5  -7  155.54    3.57
  -1   5   7  159.19    3.23
  -1   5   7  157.31    3.46
   1   5  -7  160.34    3.27
  -1   5   7  157.19    3.16
   1   5  -7  164.38    3.59
  -1   5   7  160.16    3.15
   1   5  -7  163.03    3.16
  -1  -5  -7   49.29    1.59
   1  -5   7   51.31    1.35
  -1  -5  -7   49.84    1.68
   1  -5   7   48.16    1.29
   1   5   7   50.62    1.32
  -1   5  -7   49.07    1.34
   1   5   7   51.19    1.43
   1   5   7   51.36    1.45
  -1   5  -7   53.75    1.82
  -3  -5  -7   69.00    2.00
  -3  -5  -7   69.74    2.10
  -3  -5  -7   65.31    2.11
   3  -5   7   69.74    1.76
   3  -5   7   66.59    1.73
  -3   5  -7   66.56    1.75
   3   5   7   68.58    1.88
   3   5   7   70.11    1.79
  -3   5  -7   67.37    2.29
   5  -5   7   15.80    0.78
  -5  -5  -7   15.93    0.92
  -5  -5  -7   15.58    1.06
   5  -5   7   15.23    0.80
  -5   5  -7   17.31    1.14
   5   5   7   16.31    0.89
 -10  -6   7    5.44    0.52
  10  -6  -7    5.73    0.55
 -10  -6   7    5.79    0.56
 -10   6   7    5.43    0.51
 -10   6   7    5.74    0.49
  10   6  -7    5.70    0.53
  10   6  -7    5.18    0.55
  -8  -6   7   14.07    0.82
  -8  -6   7   13.87    0.74
   8  -6  -7   13.83    0.81
   8  -6  -7   13.02    0.64
   8  -6  -7   14.22    0.74
   8   6  -7   14.55    0.76
  -8   6   7   13.64    0.67
  -8   6   7   14.02    0.72
   8   6  -7   14.35    0.78
  -6  -6   7    0.65    0.16
   6  -6  -7    0.28    0.16
   6  -6  -7    0.23    0.17
   6  -6  -7    0.51    0.17
  -6  -6   7    0.50    0.20
  -6   6   7    0.23    0.15
   6   6  -7    0.37    0.14
   6   6  -7    0.28    0.16
  -6   6   7    0.47    0.18
  -6   6   7    0.31    0.19
  -6   6   7    0.30    0.12
   4  -6  -7    8.46    0.54
   4  -6  -7    9.47    0.48
  -4  -6   7    8.69    0.61
   4  -6  -7    9.54    0.64
   4  -6  -7    8.69    0.57
   4   6  -7    8.40    0.49
  -4   6   7    8.37    0.50
   4   6  -7    8.81    0.53
  -4   6   7    8.22    0.48
   4   6  -7    8.80    0.47
  -4   6   7    7.93    0.40
  -4   6   7    9.11    0.50
   2  -6  -7    1.41    0.28
   2  -6  -7    1.60    0.31
   2  -6  -7    1.22    0.29
  -2  -6   7    1.16    0.28
  -2   6   7    1.57    0.26
  -2   6   7    1.52    0.25
   2   6  -7    1.27    0.26
   2   6  -7    1.05    0.20
  -2   6   7    1.11    0.21
   2   6  -7    1.21    0.24
   2   6  -7    1.09    0.22
   2   6  -7    1.45    0.23
   0  -6  -7    0.01    0.17
   0  -6  -7   -0.07    0.21
   0  -6   7    0.18    0.13
   0  -6  -7    0.02    0.17
   0   6   7    0.42    0.19
   0   6  -7   -0.04    0.16
   0   6   7    0.22    0.12
   0   6  -7    0.00    0.13
   0   6  -7   -0.05    0.16
   0   6   7    0.21    0.18
   2  -6   7    4.36    0.39
  -2  -6  -7    3.65    0.51
   2  -6   7    4.50    0.43
  -2  -6  -7    4.10    0.56
   2   6   7    4.71    0.44
  -2   6  -7    4.06    0.60
   2   6   7    3.74    0.43
  -2   6  -7    3.23    0.36
  -4  -6  -7    0.92    0.38
   4  -6   7    0.84    0.25
  -4  -6  -7    0.26    0.31
   4  -6   7    0.18    0.23
  -4   6  -7    0.12    0.23
   4   6   7    0.42    0.25
   4   6   7    0.04    0.12
  -9  -7   7  102.40    2.50
   9  -7  -7   96.87    2.56
  -9  -7   7  102.46    2.50
   9  -7  -7   96.95    2.53
   9   7  -7   99.90    2.55
  -9   7   7  102.52    2.39
   9   7  -7   97.76    2.56
  -9   7   7   99.17    2.52
  -7  -7   7   28.11    1.04
   7  -7  -7   28.95    1.20
  -7  -7   7   30.41    1.20
   7  -7  -7   26.74    1.05
   7  -7  -7   30.12    1.07
  -7   7   7   26.27    0.95
   7   7  -7   27.15    1.04
   7   7  -7   28.05    1.12
  -7   7   7   29.29    1.09
  -5  -7   7   87.77    2.26
   5  -7  -7   92.71    2.38
   5  -7  -7   86.67    2.09
   5  -7  -7   91.62    2.22
  -5  -7   7   92.54    2.10
  -5   7   7   91.91    2.19
   5   7  -7   91.34    2.13
   5   7  -7   91.86    2.22
  -5   7   7   92.62    2.14
  -5   7   7   89.46    2.07
   5   7  -7   91.67    2.10
   3  -7  -7   17.81    0.91
   3  -7  -7   16.85    0.82
  -3  -7   7   16.19    0.73
   3  -7  -7   16.88    0.95
  -3   7   7   16.69    0.76
   3   7  -7   17.83    0.76
   3   7  -7   16.70    0.71
  -3   7   7   16.94    0.75
  -3   7   7   16.78    0.72
   3   7  -7   16.75    0.67
   3   7  -7   17.44    0.79
   3   7  -7   16.81    0.72
   1  -7  -7   65.19    1.92
   1  -7  -7   65.25    2.07
   1  -7  -7   66.57    1.84
  -1   7   7   64.82    1.63
  -1   7   7   64.45    1.71
  -1   7   7   66.63    1.76
   1   7  -7   65.35    1.64
   1   7  -7   65.30    1.94
   1   7  -7   66.86    1.79
  -1  -7  -7   20.48    1.02
  -1  -7  -7   20.58    1.11
  -1  -7  -7   20.01    0.89
   1  -7   7   21.54    0.85
   1   7   7   20.20    0.93
  -1   7  -7   23.41    1.03
   1   7   7   19.62    0.87
  -1   7  -7   21.62    0.82
  -1   7  -7   20.22    1.11
   3  -7   7   64.31    1.74
  -3  -7  -7   62.76    1.99
   3  -7   7   61.31    1.72
  -3   7  -7   60.07    2.21
   3   7   7   59.56    1.86
   3   7   7   61.84    1.74
 -10  -8   7   11.53    0.76
 -10  -8   7   12.06    0.80
  10  -8  -7   13.03    0.85
  10   8  -7   12.29    0.81
 -10   8   7   12.40    0.83
  -8  -8   7   39.34    1.34
  -8  -8   7   37.43    1.30
   8  -8  -7   38.54    1.46
   8  -8  -7   36.61    1.35
   8   8  -7   38.54    1.40
  -8   8   7   38.63    1.39
   8   8  -7   37.44    1.38
   6  -8  -7   16.06    0.79
   6  -8  -7   17.12    0.93
  -6  -8   7   15.62    0.73
  -6  -8   7   15.32    0.86
   6  -8  -7   15.80    0.77
  -6   8   7   16.36    0.80
   6   8  -7   15.47    0.78
   6   8  -7   16.48    0.85
  -6   8   7   14.93    0.74
  -4  -8   7   63.49    1.80
   4  -8  -7   61.97    1.68
   4  -8  -7   61.56    1.76
   4  -8  -7   64.92    1.96
   4  -8  -7   65.28    1.83
   4   8  -7   67.56    1.80
  -4   8   7   62.54    1.72
   4   8  -7   66.24    1.71
   4   8  -7   66.82    1.69
  -4   8   7   65.00    1.75
  -4   8   7   64.41    1.74
   2  -8  -7   45.28    1.54
   2  -8  -7   43.03    1.67
   2  -8  -7   44.18    1.54
  -2   8   7   45.23    1.45
  -2   8   7   44.63    1.32
   2   8  -7   43.51    1.37
   2   8  -7   45.02    1.29
   2   8  -7   44.67    1.29
  -2   8   7   45.80    1.43
   0  -8  -7   30.40    1.43
   0  -8   7   31.09    1.10
   0  -8  -7   31.27    1.23
   0  -8  -7   29.70    1.27
   0   8  -7   32.33    1.22
   0   8   7   29.84    1.15
   0   8   7   30.60    1.15
   0   8  -7   29.91    1.03
   0   8  -7   31.29    1.33
   2  -8   7   59.93    1.71
   2  -8   7   62.30    1.69
  -2  -8  -7   59.45    1.97
  -2   8  -7   61.65    1.90
   2   8   7   60.03    1.75
  -2   8  -7   53.16    2.05
   2   8   7   61.29    1.88
   4  -8   7   13.63    0.80
   4  -8   7   13.70    0.75
  -4  -8  -7   12.34    0.91
   4   8   7   12.25    0.81
  -4   8  -7   12.37    1.03
  -9  -9   7    2.74    0.42
  -9  -9   7    3.49    0.48
   9  -9  -7    3.23    0.49
   9   9  -7    3.55    0.53
   7  -9  -7   81.97    2.19
   7  -9  -7   82.02    2.34
  -7  -9   7   83.57    2.15
   7  -9  -7   81.86    2.11
  -7   9   7   85.03    2.28
   7   9  -7   83.42    2.27
   5  -9  -7   11.58    0.84
  -5  -9   7   11.50    0.74
   5  -9  -7   13.02    0.71
  -5  -9   7   11.23    0.65
   5  -9  -7   13.28    0.75
  -5   9   7   11.55    0.68
  -5   9   7   11.44    0.70
   5   9  -7   11.00    0.68
  -5   9   7   13.27    0.73
   3  -9  -7  176.84    4.00
   3  -9  -7  175.53    3.83
   3  -9  -7  161.36    4.03
  -3   9   7  173.63    3.76
   3   9  -7  175.88    3.67
  -3   9   7  175.98    3.61
  -3   9   7  171.80    3.71
   3   9  -7  175.80    3.56
   3   9  -7  175.34    3.60
   1  -9  -7   14.21    0.92
   1  -9  -7   15.55    0.93
  -1  -9   7   15.45    0.87
   1  -9  -7   13.65    1.00
  -1   9   7   14.24    0.85
   1   9  -7   15.89    0.73
  -1   9   7   14.59    0.81
   1   9  -7   14.95    0.81
   1  -9   7  141.15    3.10
  -1  -9  -7  136.57    3.44
  -1  -9  -7  139.73    3.24
  -1   9  -7  134.50    3.51
  -1   9  -7  135.17    3.27
   1   9   7  135.07    3.25
   1   9   7  139.20    3.17
   1   9   7  138.88    3.36
   3  -9   7    3.01    0.45
  -3  -9  -7    2.40    0.52
   3  -9   7    2.70    0.39
   3   9   7    2.45    0.39
  -3   9  -7    2.30    0.50
   3   9   7    2.49    0.43
   8 -10  -7    2.15    0.42
   8 -10  -7    2.31    0.48
  -8  10   7    2.67    0.48
   6 -10  -7    3.75    0.47
   6 -10  -7    3.92    0.59
  -6 -10   7    3.51    0.45
   6 -10  -7    3.06    0.43
  -6  10   7    3.87    0.48
  -6  10   7    4.11    0.51
   6  10  -7    3.96    0.48
   4 -10  -7    0.54    0.44
  -4 -10   7    1.60    0.33
   4 -10  -7    1.71    0.46
   4 -10  -7    1.68    0.40
  -4  10   7    1.41    0.35
  -4  10   7    1.59    0.31
   4  10  -7    1.90    0.32
  -4  10   7    1.72    0.36
   2 -10  -7    0.21    0.22
  -2 -10   7    0.38    0.24
   2 -10  -7    0.13    0.31
  -2  10   7    0.33    0.23
  -2  10   7    0.86    0.32
   2  10  -7    0.08    0.18
   0 -10   7    1.59    0.37
   0 -10  -7    2.57    0.48
   0 -10  -7    1.64    0.44
   0  10  -7    1.86    0.39
   0  10   7    1.82    0.38
   0  10   7    2.16    0.42
  -2 -10  -7    2.12    0.52
   2 -10   7    2.40    0.44
   2  10   7    1.94    0.39
  -2  10  -7    1.84    0.44
   2  10   7    1.38    0.38
   2  10   7    2.47    0.45
   5 -11  -7   20.15    1.17
   5 -11  -7   18.01    0.97
  -5 -11   7   19.16    0.97
  -5  11   7   19.15    0.94
   5  11  -7   20.19    0.99
  -5  11   7   17.43    0.93
  -5  11   7   18.76    0.98
   3 -11  -7   32.94    1.44
   3 -11  -7   23.93    1.17
   3  11  -7   30.13    1.17
  -3  11   7   29.55    1.28
  -3  11   7   28.24    1.23
   1 -11  -7    6.90    0.73
   1 -11  -7    7.01    0.76
   1  11  -7    6.12    0.56
  -1  11   7    7.08    0.70
  -1  11   7    6.35    0.57
 -12   0   8   41.87    1.44
 -12   0   8   41.99    1.45
  12   0  -8   44.23    1.48
  10   0  -8    7.50    0.56
 -10   0   8    7.51    0.56
 -10   0   8    8.01    0.53
  10   0  -8    6.84    0.50
   8   0  -8  174.62    3.36
  -8   0   8  170.20    3.36
  -8   0   8  176.53    3.47
   8   0  -8  176.98    3.57
   6   0  -8   43.24    1.23
  -6   0   8   42.85    1.15
  -6   0   8   41.44    1.12
   6   0  -8   41.03    1.03
  -6   0   8   40.71    1.49
   4   0  -8  394.54    6.91
   4   0  -8  391.15    6.74
  -4   0   8  376.55    6.67
  -4   0   8  398.57    6.85
  -4   0   8  382.39    7.37
   2   0  -8   22.35    0.78
  -2   0   8   23.37    0.68
   2   0  -8   28.47    1.09
   2   0  -8   24.30    0.81
  -2   0   8   23.42    0.77
  -2   0   8   23.61    1.10
   0   0   8  272.50    4.96
   0   0   8  271.85    4.85
   0   0  -8  266.20    5.46
   0   0  -8  265.47    5.00
   0   0  -8  263.25    4.84
   2   0   8    1.94    0.29
  -2   0  -8    1.25    0.29
   2   0   8    1.02    0.24
  -2   0  -8    1.25    0.35
  -4   0  -8  116.09    3.15
  -4   0  -8  113.43    2.70
   4   0   8  112.18    2.60
   4   0   8  112.57    2.56
 -11  -1   8    0.07    0.24
  11  -1  -8    0.29    0.15
 -11  -1   8    0.17    0.23
  11  -1  -8    0.17    0.25
  11  -1  -8    0.30    0.17
 -11   1   8   -0.09    0.13
 -11   1   8    0.16    0.22
  11   1  -8    0.16    0.21
  11   1  -8    0.19    0.19
  -9  -1   8   22.69    0.86
   9  -1  -8   22.11    0.91
   9  -1  -8   22.41    0.83
   9  -1  -8   23.57    1.01
  -9  -1   8   23.98    0.93
   9   1  -8   22.71    0.86
  -9   1   8   22.67    0.90
  -9   1   8   23.56    0.86
   9   1  -8   23.37    0.93
  -9   1   8   22.61    0.87
   7  -1  -8    0.19    0.13
  -7  -1   8    0.20    0.13
  -7  -1   8    0.16    0.16
  -7  -1   8    0.04    0.10
   7  -1  -8    0.11    0.14
   7   1  -8    0.21    0.17
  -7   1   8    0.04    0.17
   7   1  -8    0.08    0.10
  -7   1   8    0.13    0.14
  -7   1   8    0.14    0.14
   7   1  -8    0.19    0.11
  -5  -1   8   13.26    0.46
   5  -1  -8   14.47    0.52
  -5  -1   8   13.69    0.81
   5  -1  -8   14.63    0.55
   5  -1  -8   13.87    0.63
  -5  -1   8   14.57    0.57
   5   1  -8   14.55    0.65
   5   1  -8   14.16    0.55
  -5   1   8   14.27    0.58
  -5   1   8   14.49    0.81
  -5   1   8   13.54    0.50
  -5   1   8   14.11    0.60
  -3  -1   8   24.42    0.76
   3  -1  -8   24.37    0.84
  -3  -1   8   23.33    1.07
  -3  -1   8   23.95    0.81
   3  -1  -8   24.44    0.86
   3  -1  -8   25.09    0.77
  -3   1   8   24.06    0.76
  -3   1   8   24.29    1.09
   3   1  -8   24.61    0.79
   3   1  -8   24.98    1.01
  -3   1   8   24.83    0.84
   3   1  -8   23.74    0.82
   1  -1  -8    0.59    0.19
  -1  -1   8    0.54    0.14
   1  -1  -8    0.45    0.18
  -1  -1   8    0.35    0.13
   1  -1  -8    0.63    0.15
  -1   1   8    0.34    0.11
   1   1  -8    0.44    0.16
  -1   1   8    0.36    0.14
   1   1  -8    0.79    0.26
   1   1  -8    0.60    0.16
   1  -1   8   33.42    1.04
  -1  -1  -8   31.69    1.08
  -1  -1  -8   30.75    1.30
   1  -1   8   33.70    1.00
  -1  -1  -8   32.08    1.14
   1   1   8   32.59    1.04
  -1   1  -8   33.68    1.11
   1   1   8   31.90    0.99
  -1   1  -8   31.73    1.35
  -3  -1  -8    2.55    0.44
  -3  -1  -8    2.60    0.40
   3  -1   8    2.26    0.33
   3  -1   8    2.87    0.35
  -3   1  -8    2.88    0.50
   3   1   8    2.90    0.35
  -3   1  -8    2.55    0.39
   3   1   8    2.85    0.37
  -5  -1  -8    3.88    0.51
  -5  -1  -8    3.27    0.53
   5  -1   8    3.87    0.43
   5  -1   8    4.35    0.44
   5   1   8    4.24    0.48
  -5   1  -8    4.83    0.50
   5   1   8    4.46    0.44
  -5   1  -8    3.99    0.62
  12  -2  -8   20.10    0.91
  12  -2  -8   19.76    1.05
 -12  -2   8   19.34    0.93
 -12  -2   8   19.08    0.95
  12   2  -8   20.04    0.94
  12   2  -8   20.69    1.00
 -12   2   8   20.53    0.98
  10  -2  -8  122.32    2.97
  10  -2  -8  122.58    2.75
 -10  -2   8  124.23    2.72
 -10  -2   8  123.54    2.82
  10  -2  -8  121.62    2.69
 -10   2   8  125.97    2.78
 -10   2   8  122.64    2.71
  10   2  -8  121.56    2.79
 -10   2   8  120.91    2.67
  10   2  -8  121.07    2.79
  -8  -2   8   12.29    0.64
   8  -2  -8   11.35    0.65
   8  -2  -8   12.08    0.65
  -8  -2   8   12.25    0.59
  -8   2   8   11.95    0.59
   8   2  -8   12.48    0.58
   8   2  -8   12.44    0.67
  -8   2   8   12.45    0.62
  -6  -2   8  104.27    2.21
   6  -2  -8  105.80    2.34
  -6  -2   8  101.52    2.68
   6  -2  -8  103.64    2.24
  -6  -2   8  102.09    2.14
   6  -2  -8  104.81    2.46
  -6   2   8  101.84    2.68
  -6   2   8  105.23    2.23
   6   2  -8  104.24    2.16
   6   2  -8  107.41    2.36
  -6   2   8  100.75    2.06
  -6   2   8  110.71    2.30
  -4  -2   8   12.22    0.77
  -4  -2   8   12.29    0.47
  -4  -2   8   12.63    0.54
   4  -2  -8   12.44    0.59
   4  -2  -8   12.68    0.64
   4  -2  -8   12.66    0.50
  -4   2   8   11.86    0.51
   4   2  -8   12.07    0.58
  -4   2   8   12.58    0.56
   4   2  -8   13.20    0.55
  -4   2   8   12.47    0.75
   2  -2  -8   97.99    2.15
  -2  -2   8   98.26    1.95
   2  -2  -8   95.65    2.17
   2  -2  -8   98.70    2.11
  -2  -2   8   98.28    2.63
  -2  -2   8   98.38    2.07
  -2   2   8   98.48    1.98
   2   2  -8   98.87    2.13
  -2   2   8   99.68    2.18
  -2   2   8  100.36    2.60
   2   2  -8  100.70    2.52
  -2   2   8   97.80    2.12
   2   2  -8   96.32    2.11
   0  -2   8   48.79    1.30
   0  -2   8   48.86    1.24
   0  -2  -8   48.58    1.48
   0  -2  -8   47.92    1.30
   0  -2  -8   45.42    1.56
   0  -2  -8   49.11    1.37
   0   2   8   49.15    1.29
   0   2  -8   48.89    1.36
   0   2   8   51.11    1.36
   0   2  -8   48.96    1.70
   0   2   8   51.86    1.38
   2  -2   8   98.82    2.24
  -2  -2  -8   98.91    2.63
  -2  -2  -8  100.56    2.38
  -2  -2  -8   99.18    2.43
   2  -2   8   98.01    2.21
   2   2   8   97.88    2.26
  -2   2  -8   95.74    2.32
   2   2   8   98.05    2.25
  -2   2  -8   96.03    2.78
   4  -2   8   62.89    1.69
   4  -2   8   65.01    1.73
  -4  -2  -8   62.93    1.81
   4   2   8   62.08    1.76
  -4   2  -8   63.73    2.25
   4   2   8   62.08    1.69
  -4   2  -8   61.89    1.79
 -11  -3   8    0.11    0.19
 -11  -3   8    0.06    0.21
  11  -3  -8    0.16    0.26
 -11   3   8    0.04    0.22
 -11   3   8    0.21    0.21
  11   3  -8   -0.02    0.18
  11   3  -8    0.05    0.22
   9  -3  -8   12.25    0.72
   9  -3  -8   13.54    0.70
  -9  -3   8   13.32    0.73
  -9  -3   8   12.40    0.64
  -9   3   8   12.13    0.61
  -9   3   8   12.19    0.64
   9   3  -8   12.71    0.65
  -9   3   8   12.30    0.64
   9   3  -8   13.54    0.71
  -7  -3   8    1.13    0.20
  -7  -3   8    0.88    0.17
   7  -3  -8    1.18    0.29
   7  -3  -8    0.92    0.23
   7  -3  -8    0.94    0.24
  -7  -3   8    0.79    0.28
  -7   3   8    0.76    0.23
   7   3  -8    0.95    0.18
   7   3  -8    1.03    0.22
  -7   3   8    1.05    0.20
   7   3  -8    0.81    0.19
   5  -3  -8    2.36    0.21
   5  -3  -8    2.19    0.32
   5  -3  -8    3.04    0.26
  -5  -3   8    2.71    0.41
  -5  -3   8    2.01    0.23
   5  -3  -8    2.31    0.30
   5   3  -8    2.35    0.28
  -5   3   8    2.64    0.28
  -5   3   8    2.34    0.24
  -5   3   8    2.06    0.27
  -5   3   8    2.54    0.36
   5   3  -8    2.27    0.30
   3  -3  -8    3.77    0.37
  -3  -3   8    3.14    0.26
   3  -3  -8    2.59    0.27
  -3  -3   8    2.77    0.41
   3  -3  -8    2.13    0.30
   3   3  -8    2.93    0.28
  -3   3   8    3.79    0.34
   3   3  -8    2.95    0.28
  -3   3   8    2.83    0.39
  -3   3   8    3.10    0.33
   3   3  -8    2.98    0.35
   1  -3  -8    8.35    0.49
   1  -3  -8    8.13    0.47
  -1  -3   8    8.42    0.42
  -1  -3   8    8.74    0.47
   1  -3  -8    7.79    0.49
   1  -3  -8    7.90    0.57
   1   3  -8    8.67    0.48
  -1   3   8    8.08    0.44
   1   3  -8    7.60    0.63
  -1   3   8    7.88    0.62
  -1   3   8    9.11    0.52
  -1   3   8    8.26    0.50
  -1  -3  -8    3.08    0.41
   1  -3   8    2.61    0.30
  -1  -3  -8    2.17    0.38
   1  -3   8    2.56    0.33
  -1  -3  -8    2.65    0.31
   1   3   8    2.05    0.29
  -1   3  -8    2.92    0.34
   1   3   8    2.35    0.34
  -1   3  -8    2.40    0.47
   1   3   8    2.70    0.33
   3  -3   8    5.54    0.48
   3  -3   8    5.54    0.44
  -3  -3  -8    5.78    0.57
   3   3   8    5.79    0.44
  -3   3  -8    5.43    0.68
   3   3   8    5.52    0.50
  -3   3  -8    4.89    0.49
   3   3   8    6.34    0.50
  -5  -3  -8    1.36    0.37
   5  -3   8    1.71    0.33
   5  -3   8    1.58    0.30
  -5   3  -8    1.46    0.46
   5   3   8    1.42    0.30
   5   3   8    1.25    0.28
 -10  -4   8  114.64    2.71
  10  -4  -8  112.97    2.76
 -10  -4   8  108.70    2.47
  10   4  -8  109.94    2.67
 -10   4   8  109.53    2.58
 -10   4   8  108.03    2.57
  10   4  -8  105.67    2.64
   8  -4  -8    8.42    0.57
  -8  -4   8    9.20    0.61
  -8  -4   8    9.20    0.52
   8  -4  -8    8.29    0.57
   8  -4  -8    7.88    0.60
   8   4  -8    8.59    0.60
  -8   4   8    9.46    0.53
  -8   4   8    9.39    0.59
  -8   4   8    8.53    0.50
   8   4  -8    9.42    0.55
   6  -4  -8  260.12    4.90
  -6  -4   8  254.31    5.27
   6  -4  -8  258.04    5.04
   6  -4  -8  250.99    4.75
  -6  -4   8  250.23    4.56
  -6  -4   8  259.20    4.69
   6   4  -8  253.40    4.64
  -6   4   8  252.37    5.30
   6   4  -8  257.09    4.71
  -6   4   8  249.66    4.64
  -6   4   8  259.91    4.86
  -6   4   8  259.75    4.72
   6   4  -8  255.85    4.92
   4  -4  -8   38.10    1.23
  -4  -4   8   36.86    1.40
  -4  -4   8   36.11    0.95
  -4  -4   8   37.29    1.03
   4  -4  -8   37.42    1.18
   4  -4  -8   37.50    0.96
   4   4  -8   38.06    1.15
  -4   4   8   37.31    1.14
   4   4  -8   38.59    1.10
  -4   4   8   36.71    1.08
  -4   4   8   35.50    1.01
  -4   4   8   35.72    1.34
   2  -4  -8  250.28    4.67
  -2  -4   8  238.34    4.32
  -2  -4   8  238.61    5.10
   2  -4  -8  238.68    4.64
   2  -4  -8  242.30    4.47
   2  -4  -8  237.77    4.77
   2   4  -8  239.11    4.47
  -2   4   8  240.40    4.99
  -2   4   8  239.44    4.57
  -2   4   8  243.80    4.57
   2   4  -8  240.53    4.51
  -2   4   8  243.44    4.42
   2   4  -8  248.16    4.98
   0  -4  -8   16.05    0.89
   0  -4   8   15.82    0.63
   0  -4  -8   16.48    0.73
   0  -4  -8   15.65    0.85
   0   4  -8   16.27    0.72
   0   4  -8   15.24    0.94
   0   4   8   16.37    0.71
   0   4   8   15.84    0.91
   0   4   8   15.44    0.73
   0   4   8   14.98    0.67
  -2  -4  -8   88.99    2.39
  -2  -4  -8   88.98    2.47
   2  -4   8   92.89    2.13
   2   4   8   95.01    2.22
  -2   4  -8   87.12    2.69
   2   4   8   90.26    2.09
  -2   4  -8   87.31    2.17
   2   4   8   92.63    2.23
   4  -4   8    2.59    0.40
   4  -4   8    3.26    0.42
  -4  -4  -8    2.34    0.43
  -4   4  -8    2.63    0.38
   4   4   8    2.81    0.39
   4   4   8    3.13    0.41
  -4   4  -8    2.72    0.56
 -11  -5   8   32.87    1.31
  11  -5  -8   30.79    1.31
 -11  -5   8   32.37    1.24
 -11   5   8   31.40    1.19
 -11   5   8   30.77    1.20
  11   5  -8   31.72    1.25
  11   5  -8   30.35    1.25
  -9  -5   8    8.14    0.51
   9  -5  -8    8.44    0.58
   9  -5  -8    8.36    0.59
  -9  -5   8    8.45    0.63
  -9   5   8    8.07    0.53
   9   5  -8    9.11    0.60
  -9   5   8    7.87    0.59
   9   5  -8    8.51    0.60
  -7  -5   8   46.54    1.25
  -7  -5   8   47.79    1.43
   7  -5  -8   45.11    1.40
   7  -5  -8   47.59    1.38
   7  -5  -8   44.99    1.51
   7   5  -8   46.24    1.31
  -7   5   8   47.83    1.31
   7   5  -8   46.68    1.44
   7   5  -8   45.41    1.29
  -7   5   8   49.16    1.44
  -7   5   8   43.47    1.21
  -5  -5   8   18.62    0.70
  -5  -5   8   19.03    0.98
   5  -5  -8   19.12    0.90
  -5  -5   8   19.50    0.66
   5  -5  -8   19.43    0.83
  -5   5   8   19.68    0.71
   5   5  -8   19.49    0.70
   5   5  -8   18.83    0.73
  -5   5   8   19.36    0.98
   5   5  -8   19.55    0.82
  -5   5   8   18.52    0.74
  -5   5   8   19.35    0.82
   3  -5  -8    9.95    0.59
   3  -5  -8   11.23    0.50
   3  -5  -8   11.78    0.68
  -3  -5   8    9.44    0.71
   3  -5  -8   10.26    0.63
  -3   5   8   10.65    0.49
   3   5  -8   10.61    0.55
  -3   5   8   11.28    0.59
   3   5  -8   10.32    0.54
  -3   5   8   10.64    0.58
  -3   5   8    9.81    0.67
   3   5  -8   10.10    0.66
   1  -5  -8   26.47    1.13
   1  -5  -8   27.19    1.23
   1  -5  -8   28.82    1.03
  -1  -5   8   27.89    0.88
   1   5  -8   29.01    0.97
  -1   5   8   30.48    1.05
  -1   5   8   30.71    1.01
  -1   5   8   28.06    0.96
   1   5  -8   26.55    1.19
   1  -5   8    0.34    0.19
  -1  -5  -8    0.55    0.31
  -1  -5  -8    0.40    0.22
   1   5   8    0.57    0.22
  -1   5  -8    0.30    0.21
  -1   5  -8    0.35    0.19
   1   5   8    0.32    0.20
   1   5   8    0.80    0.20
   3  -5   8    6.42    0.53
  -3  -5  -8    6.16    0.64
  -3   5  -8    6.43    0.53
   3   5   8    5.78    0.56
  -3   5  -8    6.53    0.71
   3   5   8    6.35    0.51
 -10  -6   8    8.59    0.65
  10  -6  -8    7.27    0.64
 -10  -6   8    7.52    0.60
 -10   6   8    7.44    0.55
  10   6  -8    7.55    0.65
 -10   6   8    8.02    0.60
  10   6  -8    7.48    0.62
   8  -6  -8  121.17    2.98
   8  -6  -8  117.19    2.78
  -8  -6   8  125.25    2.81
  -8  -6   8  119.39    3.00
   8  -6  -8  119.49    2.73
  -8   6   8  120.79    2.64
   8   6  -8  116.24    2.73
  -8   6   8  122.99    2.83
   8   6  -8  121.78    2.86
  -6  -6   8    1.12    0.22
   6  -6  -8    1.04    0.28
   6  -6  -8    0.98    0.23
   6  -6  -8    0.96    0.30
  -6   6   8    1.36    0.29
   6   6  -8    1.12    0.27
   6   6  -8    1.82    0.27
   6   6  -8    1.16    0.22
  -6   6   8    1.07    0.22
  -6   6   8    1.14    0.22
  -4  -6   8  123.42    3.11
   4  -6  -8  129.65    2.91
   4  -6  -8  127.80    2.99
   4   6  -8  128.56    2.62
   4   6  -8  129.27    2.72
  -4   6   8  130.67    2.82
  -4   6   8  128.10    2.77
  -4   6   8  126.14    2.72
   4   6  -8  130.78    2.82
  -4   6   8  130.04    2.59
   2  -6  -8    1.59    0.30
   2  -6  -8    1.71    0.38
   2  -6  -8    2.10    0.29
   2  -6  -8    2.20    0.42
  -2  -6   8    1.94    0.43
   2   6  -8    1.43    0.28
   2   6  -8    2.86    0.41
  -2   6   8    2.23    0.33
   2   6  -8    1.90    0.30
  -2   6   8    1.86    0.26
  -2   6   8    1.77    0.29
   0  -6  -8  139.00    3.48
   0  -6   8  146.61    2.94
   0  -6  -8  140.61    3.32
   0   6  -8  139.68    2.98
   0   6   8  142.17    2.97
   0   6   8  139.13    3.07
   0   6   8  140.84    3.11
   0   6  -8  137.37    3.52
  -2  -6  -8   11.55    0.83
   2  -6   8   10.55    0.61
  -2  -6  -8   10.50    0.81
  -2   6  -8   10.33    0.63
  -2   6  -8   10.42    0.86
   2   6   8   10.84    0.68
   2   6   8   10.53    0.71
  -4  -6  -8  110.23    2.85
   4  -6   8  110.18    2.61
   4   6   8  110.82    2.79
  -4   6  -8  106.21    3.26
  -9  -7   8    0.60    0.27
   9  -7  -8    0.99    0.29
   9  -7  -8    0.71    0.32
  -9  -7   8    0.70    0.25
   9  -7  -8    0.49    0.27
   9   7  -8    0.41    0.24
   9   7  -8    0.67    0.25
  -9   7   8    1.20    0.33
  -7  -7   8    6.24    0.52
   7  -7  -8    5.49    0.49
   7  -7  -8    5.98    0.61
  -7  -7   8    5.86    0.56
   7  -7  -8    5.96    0.53
   7   7  -8    5.86    0.48
  -7   7   8    5.40    0.45
   7   7  -8    6.67    0.54
  -7   7   8    6.60    0.56
  -5  -7   8    1.86    0.32
   5  -7  -8    2.35    0.37
   5  -7  -8    2.00    0.38
  -5   7   8    1.60    0.31
  -5   7   8    1.95    0.30
   5   7  -8    1.53    0.30
  -5   7   8    2.29    0.34
   5   7  -8    2.18    0.32
   5   7  -8    2.07    0.30
   3  -7  -8    3.59    0.50
   3  -7  -8    3.09    0.40
   3  -7  -8    2.77    0.41
   3   7  -8    3.11    0.34
  -3   7   8    3.00    0.39
   3   7  -8    3.05    0.37
   3   7  -8    3.48    0.35
  -3   7   8    3.13    0.39
  -3   7   8    4.18    0.46
   3   7  -8    3.96    0.39
   3   7  -8    3.36    0.44
   1  -7  -8   19.17    0.93
   1  -7  -8   18.23    1.08
   1  -7  -8   18.16    1.00
  -1   7   8   20.58    0.92
  -1   7   8   19.56    0.84
   1   7  -8   19.15    0.90
   1   7  -8   18.81    0.81
   1   7  -8   17.96    0.99
  -1   7   8   17.98    0.78
  -1  -7  -8    2.25    0.47
  -1  -7  -8    2.13    0.47
   1  -7   8    2.37    0.33
   1   7   8    2.30    0.39
  -1   7  -8    1.92    0.45
   1   7   8    2.38    0.39
  -1   7  -8    2.26    0.33
  -3  -7  -8   15.31    0.98
   3  -7   8   16.60    0.85
   3   7   8   14.94    0.86
  -3   7  -8   15.84    1.14
   3   7   8   15.28    0.82
  -8  -8   8   75.61    2.05
   8  -8  -8   71.20    2.18
   8  -8  -8   72.03    1.98
   8  -8  -8   72.74    2.04
  -8  -8   8   75.37    2.02
   8   8  -8   76.40    2.16
  -8   8   8   76.56    2.12
   8   8  -8   71.89    2.03
   6  -8  -8   33.71    1.24
  -6  -8   8   31.75    1.28
  -6  -8   8   34.07    1.15
   6  -8  -8   33.43    1.39
   6   8  -8   34.68    1.29
  -6   8   8   33.61    1.24
  -6   8   8   32.40    1.15
   6   8  -8   31.86    1.15
  -4  -8   8   99.31    2.49
   4  -8  -8  104.11    2.60
   4  -8  -8  102.75    2.71
   4  -8  -8  103.71    2.61
   4   8  -8  103.94    2.38
  -4   8   8  102.37    2.47
   4   8  -8  103.27    2.47
   4   8  -8  101.30    2.34
  -4   8   8  101.39    2.46
  -4   8   8  106.74    2.54
   2  -8  -8   41.23    1.71
   2  -8  -8   44.34    1.55
   2  -8  -8   40.38    1.53
  -2   8   8   43.91    1.48
   2   8  -8   41.94    1.31
   2   8  -8   40.39    1.38
  -2   8   8   42.53    1.32
  -2   8   8   40.43    1.40
   0  -8   8   59.64    1.64
   0  -8  -8   60.21    1.99
   0  -8  -8   59.37    1.79
   0   8   8   56.62    1.76
   0   8  -8   58.87    2.03
   0   8   8   62.89    1.84
   0   8  -8   58.69    1.83
  -2  -8  -8   21.87    1.19
   2  -8   8   21.94    0.94
   2  -8   8   25.26    1.25
  -2   8  -8   22.93    1.31
   2   8   8   21.63    1.10
   2   8   8   24.08    1.05
  -7  -9   8    0.61    0.26
   7  -9  -8    0.14    0.22
   7  -9  -8    0.19    0.22
   7  -9  -8    0.30    0.24
  -7   9   8   -0.06    0.19
   7   9  -8    0.26    0.18
  -7   9   8    0.24    0.24
   5  -9  -8    1.30    0.35
  -5  -9   8    1.40    0.29
   5  -9  -8    1.61    0.33
  -5   9   8    1.48    0.32
  -5   9   8    1.76    0.33
   5   9  -8    2.31    0.34
  -5   9   8    1.68    0.31
   3  -9  -8    3.24    0.49
   3  -9  -8    3.30    0.51
   3   9  -8    2.96    0.38
   3   9  -8    2.82    0.38
  -3   9   8    2.91    0.42
  -3   9   8    2.83    0.36
  -3   9   8    3.08    0.46
   1  -9  -8    0.50    0.35
  -1  -9   8    0.72    0.27
   1  -9  -8    0.71    0.27
   1   9  -8    0.17    0.19
   1   9  -8    0.16    0.22
  -1   9   8    0.49    0.21
  -1   9   8    0.25    0.19
   1  -9   8    6.17    0.52
   1  -9   8    7.16    0.59
  -1  -9  -8    5.14    0.65
  -1   9  -8    6.12    0.65
  -1   9  -8    6.04    0.69
   1   9   8    6.46    0.66
   1   9   8    7.15    0.61
   1   9   8    7.11    0.62
   6 -10  -8   62.73    2.15
  -6 -10   8   67.22    1.86
  -6  10   8   65.31    1.92
  -6  10   8   67.70    1.98
   4 -10  -8    2.97    0.46
   4 -10  -8    3.94    0.57
  -4  10   8    3.76    0.47
  -4  10   8    4.08    0.48
  -4  10   8    3.13    0.43
   4  10  -8    3.66    0.45
   2 -10  -8   84.88    2.48
  -2  10   8   81.13    2.30
   2  10  -8   81.97    2.10
  -2  10   8   82.31    2.38
   2  10  -8   82.83    2.28
   0 -10  -8    2.67    0.47
   0 -10  -8    2.41    0.46
   0 -10   8    2.03    0.38
   0  10   8    2.32    0.47
   0  10  -8    2.57    0.46
   0  10   8    2.74    0.45
   3 -11  -8    8.08    0.73
   3 -11  -8    7.04    0.72
   3 -11  -8    6.77    0.69
  -3  11   8    7.67    0.67
 -12   0   9    0.08    0.17
 -12   0   9   -0.04    0.23
  12   0  -9   -0.06    0.20
  10   0  -9   -0.05    0.19
 -10   0   9   -0.03    0.14
 -10   0   9    0.09    0.21
  -8   0   9    0.47    0.15
  -8   0   9    0.11    0.17
   8   0  -9    0.11    0.19
  -6   0   9    0.14    0.11
   6   0  -9    0.19    0.16
  -6   0   9    0.05    0.14
  -4   0   9    0.03    0.16
  -4   0   9   -0.03    0.10
  -4   0   9    0.93    0.22
   4   0  -9    0.18    0.11
   4   0  -9    0.04    0.10
  -2   0   9    1.16    0.33
   2   0  -9    0.10    0.16
  -2   0   9    0.85    0.20
   2   0  -9   -0.02    0.12
  -2   0   9    0.26    0.16
   2   0  -9    0.06    0.12
   0   0   9    0.22    0.16
   0   0  -9   -0.02    0.20
   0   0  -9    0.10    0.13
   0   0   9    0.05    0.16
   2   0   9    0.00    0.13
  -2   0  -9   -0.08    0.21
  -2   0  -9    0.35    0.25
   2   0   9    0.40    0.20
  -4   0  -9   -0.10    0.24
  -4   0  -9    0.04    0.17
   4   0   9   -0.10    0.19
   4   0   9    0.12    0.21
  11  -1  -9   32.10    1.19
 -11  -1   9   34.35    1.28
 -11  -1   9   34.10    1.22
 -11   1   9   32.46    1.21
  11   1  -9   34.59    1.26
 -11   1   9   33.28    1.20
   9  -1  -9   63.70    1.77
  -9  -1   9   62.08    1.59
  -9  -1   9   65.06    1.79
  -9  -1   9   65.39    1.71
   9  -1  -9   64.37    1.86
  -9   1   9   63.48    1.65
  -9   1   9   64.59    1.71
   9   1  -9   64.41    1.80
  -9   1   9   64.15    1.74
  -7  -1   9   55.22    1.42
  -7  -1   9   56.32    1.48
   7  -1  -9   56.48    1.58
   7   1  -9   54.47    1.34
  -7   1   9   55.77    1.47
   7   1  -9   56.43    1.58
  -7   1   9   55.59    1.48
  -5  -1   9   92.81    2.60
  -5  -1   9   94.44    2.10
   5  -1  -9   94.31    2.22
   5  -1  -9   97.79    2.00
  -5  -1   9   94.08    1.93
  -5   1   9   95.28    1.99
   5   1  -9   96.97    2.23
  -5   1   9   92.16    2.59
  -5   1   9   95.85    2.15
   5   1  -9   93.27    2.03
  -3  -1   9   65.82    2.11
  -3  -1   9   67.87    1.60
   3  -1  -9   68.41    1.64
  -3  -1   9   67.54    1.70
   3  -1  -9   67.86    1.74
  -3   1   9   70.95    1.65
  -3   1   9   67.17    2.12
   3   1  -9   70.09    2.03
   3   1  -9   66.69    1.69
   3   1  -9   67.19    1.64
  -3   1   9   69.99    1.73
   1  -1  -9   67.24    2.05
   1  -1  -9   65.92    1.67
  -1  -1   9   68.02    1.68
  -1  -1   9   65.08    1.53
   1  -1  -9   67.49    1.72
  -1   1   9   65.34    1.55
  -1   1   9   69.11    1.69
   1   1  -9   65.84    2.08
   1   1  -9   66.34    1.62
   1   1  -9   66.87    1.72
  -1   1   9   68.55    1.76
   1  -1   9   56.61    1.56
  -1  -1  -9   55.82    1.93
   1  -1   9   54.93    1.47
  -1  -1  -9   54.42    1.60
  -1   1  -9   57.16    1.65
  -1   1  -9   55.21    1.98
   1   1   9   57.26    1.57
   3  -1   9   30.37    1.08
   3  -1   9   29.91    1.10
  -3  -1  -9   31.83    1.23
  -3  -1  -9   30.05    1.42
  -3   1  -9   29.30    1.20
   3   1   9   29.53    1.10
   3   1   9   29.44    1.06
  -3   1  -9   28.74    1.46
  10  -2  -9   10.47    0.72
 -10  -2   9   11.17    0.65
 -10  -2   9   11.33    0.72
  10  -2  -9   10.52    0.64
  10   2  -9    9.85    0.65
 -10   2   9   10.67    0.67
 -10   2   9   11.00    0.64
 -10   2   9    9.88    0.62
   8  -2  -9   18.17    0.83
   8  -2  -9   18.94    0.84
  -8  -2   9   17.06    0.68
  -8  -2   9   19.19    0.80
   8   2  -9   18.57    0.87
  -8   2   9   19.29    0.81
   8   2  -9   18.07    0.67
  -8   2   9   18.90    0.80
  -6  -2   9   24.34    0.86
   6  -2  -9   23.96    0.93
  -6  -2   9   22.81    0.78
  -6   2   9   23.98    0.88
  -6   2   9   23.11    0.84
   6   2  -9   23.40    0.92
  -6   2   9   22.60    0.73
   6   2  -9   24.51    0.81
   4  -2  -9   17.32    0.77
  -4  -2   9   16.72    0.61
  -4  -2   9   17.29    0.71
   4  -2  -9   17.02    0.79
   4  -2  -9   17.30    0.65
  -4  -2   9   16.31    0.96
  -4   2   9   16.72    0.96
  -4   2   9   17.37    0.74
  -4   2   9   16.32    0.65
   4   2  -9   17.35    0.68
   4   2  -9   17.12    0.72
  -2  -2   9   29.73    0.95
   2  -2  -9   28.09    0.96
   2  -2  -9   29.21    0.98
   2  -2  -9   28.86    1.00
  -2   2   9   29.73    1.03
   2   2  -9   28.62    0.94
   2   2  -9   28.83    1.26
  -2   2   9   30.39    1.00
  -2   2   9   28.76    1.32
   2   2  -9   30.47    0.99
   0  -2  -9   19.18    0.93
   0  -2  -9   18.03    0.75
   0  -2  -9   18.16    0.98
   0  -2   9   18.19    0.72
   0  -2   9   18.03    0.76
   0  -2  -9   20.45    0.85
   0   2  -9   18.55    1.06
   0   2   9   20.19    0.83
   0   2   9   19.25    0.75
   0   2  -9   19.93    0.86
   0   2   9   18.41    0.81
   2  -2   9   17.34    0.80
  -2  -2  -9   16.16    0.88
   2  -2   9   16.91    0.78
  -2  -2  -9   17.01    1.02
  -2  -2  -9   16.89    0.84
   2   2   9   17.81    0.80
   2   2   9   16.58    0.78
  -2   2  -9   15.83    1.08
   2   2   9   16.61    0.79
  -2   2  -9   16.96    0.87
  -4  -2  -9   16.38    0.92
   4  -2   9   17.32    0.85
   4  -2   9   18.02    0.86
   4   2   9   16.67    0.83
  -4   2  -9   16.72    0.90
  -4   2  -9   15.41    1.12
   4   2   9   17.01    0.82
 -11  -3   9    4.74    0.56
 -11  -3   9    4.38    0.46
  11  -3  -9    4.37    0.53
  11  -3  -9    4.51    0.47
  11   3  -9    5.03    0.56
 -11   3   9    4.11    0.47
 -11   3   9    5.09    0.52
  11   3  -9    4.63    0.48
   9  -3  -9  118.92    2.74
  -9  -3   9  120.38    2.64
   9  -3  -9  115.79    2.80
  -9  -3   9  122.97    2.81
  -9   3   9  116.63    2.68
  -9   3   9  114.44    2.61
   9   3  -9  117.36    2.78
  -9   3   9  120.44    2.67
   7  -3  -9    2.76    0.38
   7  -3  -9    3.16    0.45
   7  -3  -9    2.52    0.33
  -7  -3   9    4.18    0.39
  -7  -3   9    2.91    0.27
   7   3  -9    3.10    0.39
   7   3  -9    2.75    0.30
  -7   3   9    3.06    0.36
  -7   3   9    2.61    0.36
   5  -3  -9  173.08    3.61
   5  -3  -9  172.75    3.28
  -5  -3   9  176.69    3.41
   5  -3  -9  175.25    3.71
  -5   3   9  180.06    3.47
  -5   3   9  177.18    3.41
  -5   3   9  171.98    4.03
   5   3  -9  175.64    3.59
  -5   3   9  174.39    3.55
   5   3  -9  177.23    3.46
   3  -3  -9    9.39    0.50
  -3  -3   9    9.42    0.49
   3  -3  -9   10.00    0.60
   3  -3  -9    8.77    0.54
  -3   3   9   10.14    0.58
   3   3  -9    9.01    0.68
  -3   3   9    9.43    0.54
  -3   3   9    9.45    0.73
   3   3  -9    9.98    0.55
   3   3  -9   10.98    0.57
   1  -3  -9  165.97    3.47
   1  -3  -9  170.70    3.75
  -1  -3   9  167.91    3.41
   1   3  -9  171.72    3.52
   1   3  -9  170.09    4.04
  -1   3   9  178.81    3.56
  -1   3   9  180.45    3.55
  -1   3   9  169.05    3.38
   1  -3   9   16.89    0.75
  -1  -3  -9   15.56    0.90
   1  -3   9   16.65    0.72
  -1  -3  -9   16.12    0.90
  -1  -3  -9   16.54    0.84
   1   3   9   16.39    0.77
   1   3   9   16.71    0.76
  -1   3  -9   15.53    1.05
  -1   3  -9   16.85    0.83
   1   3   9   16.38    0.79
  -3  -3  -9   89.67    2.43
   3  -3   9   91.18    2.25
  -3  -3  -9   96.76    2.44
   3  -3   9   93.88    2.27
  -3   3  -9   90.43    2.36
   3   3   9   90.72    2.30
  -3   3  -9   89.98    2.88
   3   3   9   93.78    2.29
  10  -4  -9   16.68    0.89
 -10  -4   9   16.54    0.78
  10  -4  -9   16.26    0.80
 -10  -4   9   15.81    0.87
 -10   4   9   14.81    0.79
  10   4  -9   16.89    0.90
 -10   4   9   15.31    0.81
  -8  -4   9   35.49    1.26
   8  -4  -9   34.58    1.23
   8  -4  -9   32.64    1.16
  -8  -4   9   34.74    1.10
   8  -4  -9   33.57    1.34
  -8   4   9   33.83    1.18
  -8   4   9   34.83    1.15
   8   4  -9   33.95    1.23
   6  -4  -9   43.51    1.39
   6  -4  -9   43.62    1.47
  -6  -4   9   44.28    1.25
  -6  -4   9   43.71    1.17
  -6   4   9   43.32    1.21
  -6   4   9   44.01    1.25
   6   4  -9   45.04    1.41
  -6   4   9   44.89    1.35
   6   4  -9   43.23    1.25
   4  -4  -9   25.90    0.82
  -4  -4   9   25.42    0.81
   4  -4  -9   27.50    1.08
   4  -4  -9   26.07    1.01
  -4  -4   9   27.20    0.90
  -4   4   9   26.36    0.94
  -4   4   9   25.80    1.19
   4   4  -9   26.92    0.94
   4   4  -9   27.24    0.98
  -4   4   9   26.94    0.90
  -4   4   9   27.79    1.01
   2  -4  -9   44.19    1.28
   2  -4  -9   45.74    1.40
  -2  -4   9   43.12    1.25
  -2  -4   9   45.94    1.24
   2  -4  -9   43.73    1.51
   2  -4  -9   47.54    1.38
  -2   4   9   43.88    1.65
  -2   4   9   44.90    1.34
   2   4  -9   43.29    1.29
  -2   4   9   46.18    1.36
   2   4  -9   46.24    1.67
   0  -4  -9   19.14    0.85
   0  -4   9   19.19    0.75
   0  -4   9   17.93    0.77
   0  -4  -9   19.55    0.96
   0  -4  -9   18.08    0.82
   0   4  -9   18.61    1.08
   0   4   9   19.16    0.82
   0   4  -9   17.89    0.82
   0   4   9   18.40    0.82
   0   4   9   17.74    0.78
  -2  -4  -9   15.68    0.93
  -2  -4  -9   15.51    0.85
   2  -4   9   14.19    0.73
   2  -4   9   13.50    0.70
  -2   4  -9   14.72    0.80
  -2   4  -9   14.63    1.07
   2   4   9   14.46    0.77
   2   4   9   14.36    0.78
   4  -4   9   10.62    0.66
   4  -4   9   11.64    0.71
  -4  -4  -9   11.10    0.73
   4   4   9   10.91    0.68
   4   4   9   10.88    0.70
  -4   4  -9   11.72    1.03
  -4   4  -9   10.17    0.78
 -11  -5   9   43.55    1.51
  11  -5  -9   41.53    1.54
  11   5  -9   39.53    1.42
 -11   5   9   40.93    1.42
  11   5  -9   41.47    1.49
 -11   5   9   42.16    1.44
   9  -5  -9   45.54    1.49
  -9  -5   9   45.42    1.33
   9  -5  -9   43.39    1.45
  -9  -5   9   47.74    1.52
   9   5  -9   47.34    1.55
  -9   5   9   46.88    1.51
   9   5  -9   43.86    1.39
  -9   5   9   46.45    1.42
   7  -5  -9   85.45    2.20
   7  -5  -9   84.17    2.32
  -7  -5   9   86.46    1.99
  -7   5   9   85.51    2.16
  -7   5   9   87.00    2.03
   7   5  -9   85.79    2.22
  -7   5   9   80.31    1.93
   7   5  -9   85.59    2.01
  -5  -5   9   57.37    1.44
   5  -5  -9   57.59    1.77
   5  -5  -9   59.14    1.70
   5   5  -9   56.88    1.62
  -5   5   9   59.64    1.66
  -5   5   9   56.68    1.53
  -5   5   9   58.13    1.49
   5   5  -9   59.62    1.56
   3  -5  -9   73.76    1.99
  -3  -5   9   74.12    1.76
   3  -5  -9   79.41    2.06
   3  -5  -9   77.87    1.80
   3  -5  -9   77.10    2.14
  -3   5   9   78.71    1.96
  -3   5   9   77.03    1.95
   3   5  -9   76.28    1.89
   3   5  -9   75.98    1.88
   3   5  -9   74.32    2.18
   1  -5  -9   28.92    1.05
  -1  -5   9   28.97    0.93
   1  -5  -9   34.84    1.19
   1  -5  -9   28.27    1.20
  -1   5   9   28.66    1.02
  -1   5   9   29.05    1.06
  -1   5   9   29.35    1.10
   1   5  -9   29.52    1.06
   1   5  -9   28.96    1.37
   1  -5   9   43.98    1.31
  -1  -5  -9   42.16    1.59
  -1  -5  -9   42.36    1.42
   1   5   9   42.22    1.38
   1   5   9   40.60    1.31
   1   5   9   44.75    1.43
  -1   5  -9   41.62    1.78
  -1   5  -9   43.99    1.41
  -3  -5  -9   17.18    0.93
   3  -5   9   16.99    0.84
  -3  -5  -9   16.17    0.97
  -3   5  -9   15.73    1.16
   3   5   9   16.10    0.89
   3   5   9   16.99    0.85
  10  -6  -9   28.67    1.19
 -10  -6   9   27.08    1.18
  10   6  -9   27.17    1.17
 -10   6   9   26.15    1.11
 -10   6   9   26.03    1.06
  10   6  -9   24.60    1.07
   8  -6  -9   19.21    0.89
  -8  -6   9   22.02    0.98
   8  -6  -9   20.34    0.93
   8  -6  -9   19.69    1.05
  -8   6   9   20.47    0.86
  -8   6   9   20.57    0.96
   8   6  -9   21.29    1.01
   8   6  -9   19.32    0.86
  -6  -6   9   21.67    0.82
   6  -6  -9   19.94    1.04
   6  -6  -9   21.96    0.98
  -6   6   9   20.36    0.85
  -6   6   9   20.46    0.94
  -6   6   9   21.48    0.81
   6   6  -9   20.52    0.93
   6   6  -9   20.30    0.86
   4  -6  -9   43.55    1.46
   4  -6  -9   44.57    1.51
  -4   6   9   43.62    1.39
  -4   6   9   45.50    1.35
  -4   6   9   43.34    1.37
   4   6  -9   45.38    1.35
   4   6  -9   43.66    1.37
   2  -6  -9   11.94    0.71
   2  -6  -9   12.08    0.75
   2  -6  -9   11.72    0.82
  -2  -6   9   12.10    0.57
   2  -6  -9   11.13    0.61
  -2   6   9   12.18    0.66
   2   6  -9   12.13    0.68
   2   6  -9   12.14    0.84
  -2   6   9   11.58    0.70
   0  -6   9   22.59    0.86
   0  -6  -9   20.77    1.17
   0  -6  -9   19.15    1.07
   0  -6  -9   22.13    0.99
   0   6  -9   20.29    1.16
   0   6   9   22.22    0.94
   0   6  -9   21.48    0.92
   0   6   9   21.49    0.98
   0   6   9   20.52    0.87
   2  -6   9   11.55    0.66
  -2  -6  -9   12.03    0.88
   2   6   9   12.61    0.79
  -2   6  -9   12.35    1.02
  -2   6  -9   11.58    0.71
   2   6   9   12.53    0.73
   9  -7  -9    5.49    0.58
   9  -7  -9    5.10    0.54
  -9  -7   9    4.89    0.57
   9  -7  -9    4.47    0.52
  -9   7   9    4.19    0.50
   9   7  -9    3.85    0.47
   9   7  -9    4.42    0.55
  -7  -7   9   64.70    1.83
   7  -7  -9   68.70    2.12
   7  -7  -9   67.61    1.94
  -7   7   9   65.75    1.91
  -7   7   9   62.90    1.74
   7   7  -9   69.65    1.99
   5  -7  -9    6.06    0.58
   5  -7  -9    6.92    0.60
  -5  -7   9    6.14    0.55
  -5   7   9    6.78    0.56
   5   7  -9    6.37    0.52
   5   7  -9    6.35    0.48
  -5   7   9    5.98    0.52
   3  -7  -9  102.18    2.59
   3  -7  -9   97.36    2.66
   3  -7  -9  105.26    2.67
   3   7  -9  103.00    2.68
  -3   7   9  100.36    2.49
  -3   7   9  102.64    2.51
  -3   7   9  102.96    2.47
   3   7  -9  101.50    2.40
   1  -7  -9   20.53    1.08
   1  -7  -9   20.67    0.88
   1  -7  -9   21.45    0.99
   1  -7  -9   19.80    0.95
  -1  -7   9   20.82    0.83
  -1   7   9   21.37    0.97
   1   7  -9   20.74    1.16
  -1   7   9   20.38    0.86
   1   7  -9   20.45    0.90
  -1   7   9   19.54    0.89
   1  -7   9  100.07    2.33
  -1  -7  -9   94.80    2.72
  -1  -7  -9   98.84    2.47
  -1   7  -9   93.23    2.36
  -1   7  -9   95.93    2.98
   1   7   9   96.11    2.51
   1   7   9  101.24    2.51
   8  -8  -9    4.84    0.55
   8  -8  -9    4.41    0.56
   8   8  -9    4.35    0.51
  -8   8   9    4.57    0.55
   8   8  -9    4.92    0.50
  -6  -8   9    4.17    0.45
   6  -8  -9    3.83    0.53
   6  -8  -9    3.94    0.49
  -6   8   9    4.75    0.52
  -6   8   9    4.74    0.48
   6   8  -9    4.46    0.50
   4  -8  -9   20.70    1.07
   4  -8  -9   20.50    1.01
  -4   8   9   19.51    0.92
  -4   8   9   20.59    0.95
   4   8  -9   19.07    1.02
  -4   8   9   21.39    0.99
   4   8  -9   20.35    0.88
   2  -8  -9    3.08    0.52
   2  -8  -9    2.68    0.46
   2  -8  -9    2.31    0.39
  -2   8   9    2.69    0.40
   2   8  -9    2.79    0.39
  -2   8   9    3.07    0.46
  -2   8   9    2.99    0.39
   0  -8  -9   16.66    1.06
   0  -8   9   17.82    0.82
   0   8   9   15.81    0.87
   0   8   9   15.06    0.87
   0   8  -9   15.28    0.80
   0   8  -9   15.70    1.03
  -7  -9   9   39.27    1.36
   7  -9  -9   40.52    1.64
   7  -9  -9   40.09    1.47
  -7   9   9   40.13    1.47
  -7   9   9   39.78    1.37
   5  -9  -9   71.86    2.13
   5  -9  -9   73.69    2.30
  -5   9   9   71.76    2.03
  -5   9   9   68.05    2.00
   3  -9  -9   24.10    1.15
   3  -9  -9   21.84    1.16
   3  -9  -9   24.05    1.19
  -3   9   9   24.42    1.12
  -3   9   9   22.28    1.06
  -3   9   9   23.57    0.98
   3   9  -9   24.30    1.01
  -1  -9   9   41.38    1.28
   1  -9  -9   40.44    1.50
   1  -9  -9   36.43    1.59
  -1   9   9   39.78    1.48
   1   9  -9   39.74    1.34
  -1   9   9   39.59    1.54
   4 -10  -9    5.66    0.65
   4 -10  -9    5.68    0.70
  -4  10   9    6.13    0.61
  -4  10   9    6.17    0.61
   2 -10  -9    0.88    0.37
   2 -10  -9    0.97    0.30
   2 -10  -9    0.97    0.41
  -2  10   9    0.68    0.30
   2  10  -9    0.58    0.26
  -2  10   9    0.94    0.34
  10   0 -10  167.37    3.67
 -10   0  10  167.25    3.63
 -10   0  10  167.25    3.55
  -8   0  10   19.84    0.82
   8   0 -10   19.55    0.91
  -8   0  10   19.34    0.84
   6   0 -10  153.35    3.07
   6   0 -10  154.58    3.35
  -6   0  10  157.26    3.22
  -6   0  10  156.22    3.22
  -4   0  10    7.57    0.46
   4   0 -10    7.66    0.50
   4   0 -10    7.81    0.54
  -4   0  10    7.13    0.50
   2   0 -10   78.61    1.95
  -2   0  10   81.93    2.04
  -2   0  10   79.43    1.91
   2   0 -10   77.98    2.38
   2   0 -10   78.10    1.98
   0   0  10    4.41    0.47
   0   0 -10    3.88    0.59
   0   0  10    3.22    0.35
   0   0 -10    3.90    0.46
   2   0  10   61.42    1.70
  -2   0 -10   62.64    2.21
   2   0  10   62.58    1.74
  -2   0 -10   60.32    1.86
 -11  -1  10    7.92    0.65
 -11  -1  10    8.55    0.64
  11  -1 -10    7.88    0.60
 -11   1  10    8.06    0.62
  11   1 -10    8.72    0.68
 -11   1  10    8.01    0.62
  -9  -1  10   10.21    0.64
   9  -1 -10    9.20    0.66
  -9  -1  10   10.15    0.55
  -9  -1  10   10.03    0.68
   9   1 -10   10.15    0.66
  -9   1  10    9.38    0.62
  -9   1  10   10.29    0.62
  -7  -1  10    0.28    0.18
   7  -1 -10    0.09    0.13
  -7  -1  10    1.62    0.30
   7   1 -10    0.33    0.18
   7   1 -10    0.22    0.12
  -7   1  10    0.10    0.14
  -7   1  10    0.10    0.18
   5  -1 -10   24.40    0.99
  -5  -1  10   27.16    0.94
   5  -1 -10   23.22    0.80
  -5  -1  10   23.11    0.89
   5   1 -10   23.81    0.97
  -5   1  10   24.00    0.82
  -5   1  10   22.81    0.91
   5   1 -10   23.00    0.85
  -3  -1  10    0.59    0.17
  -3  -1  10    0.37    0.20
   3  -1 -10    0.51    0.21
   3  -1 -10    0.61    0.21
   3   1 -10    0.85    0.31
  -3   1  10    0.90    0.24
  -3   1  10    0.41    0.18
   3   1 -10    0.35    0.14
   3   1 -10    1.87    0.30
  -1  -1  10    5.12    0.45
   1  -1 -10    4.21    0.36
   1  -1 -10    4.51    0.42
   1  -1 -10    4.79    0.59
   1   1 -10    4.61    0.47
  -1   1  10    4.46    0.44
   1   1 -10    3.94    0.60
  -1   1  10    5.00    0.48
   1  -1  10    9.38    0.63
  -1  -1 -10    9.45    0.83
  -1  -1 -10    9.85    0.69
   1  -1  10    9.65    0.58
  -1   1 -10    8.54    0.62
   1   1  10    9.58    0.62
  -1   1 -10    8.83    0.84
   1   1  10    8.73    0.57
   1   1  10    9.58    0.64
  -3  -1 -10    0.14    0.21
   3  -1  10    0.77    0.27
  -3  -1 -10    0.21    0.21
   3  -1  10    0.21    0.17
   3   1  10    0.16    0.21
  -3   1 -10    0.21    0.21
  -3   1 -10   -0.05    0.27
   3   1  10    0.40    0.24
 -10  -2  10    5.91    0.58
 -10  -2  10    5.28    0.51
  10  -2 -10    6.14    0.57
 -10   2  10    5.40    0.46
  10   2 -10    5.72    0.58
 -10   2  10    5.79    0.48
 -10   2  10    5.68    0.48
   8  -2 -10   61.74    1.80
  -8  -2  10   65.50    1.69
  -8  -2  10   62.24    1.58
  -8   2  10   64.12    1.71
  -8   2  10   62.73    1.71
   8   2 -10   62.93    1.56
   8   2 -10   63.59    1.84
  -6  -2  10   14.08    0.69
   6  -2 -10   14.09    0.74
  -6  -2  10   14.45    0.66
  -6   2  10   14.02    0.72
  -6   2  10   14.35    0.69
   6   2 -10   14.67    0.77
   6   2 -10   14.77    0.67
  -6   2  10   13.25    0.58
  -4  -2  10  159.22    3.12
   4  -2 -10  159.19    3.41
   4  -2 -10  153.13    3.16
  -4  -2  10  163.17    3.30
  -4   2  10  153.99    3.20
  -4   2  10  160.05    3.35
   4   2 -10  155.57    3.32
   4   2 -10  158.26    3.23
   2  -2 -10   33.72    1.14
   2  -2 -10   34.03    1.17
  -2  -2  10   34.84    1.12
  -2   2  10   35.42    1.16
   2   2 -10   34.81    1.50
  -2   2  10   36.11    1.23
   2   2 -10   33.42    1.16
   0  -2 -10  141.78    3.66
   0  -2 -10  146.92    3.32
   0  -2  10  146.77    3.05
   0  -2  10  155.27    3.23
   0   2  10  156.44    3.28
   0   2  10  154.14    3.30
   0   2 -10  150.81    3.33
   0   2 -10  148.08    3.86
   2  -2  10   17.11    0.81
   2  -2  10   17.05    0.80
  -2  -2 -10   17.32    0.93
  -2  -2 -10   17.25    1.06
  -2   2 -10   17.15    1.13
   2   2  10   16.92    0.82
   2   2  10   16.96    0.83
  -2   2 -10   14.86    0.83
   2   2  10   17.16    0.85
  11  -3 -10    0.35    0.19
 -11  -3  10    0.10    0.26
 -11  -3  10    0.39    0.20
  11  -3 -10    0.69    0.26
  11   3 -10    0.16    0.25
 -11   3  10    0.11    0.17
 -11   3  10    0.36    0.24
   9  -3 -10    0.73    0.25
  -9  -3  10    0.74    0.25
  -9  -3  10    0.89    0.27
   9  -3 -10    0.82    0.25
  -9   3  10    0.88    0.26
  -9   3  10    0.74    0.26
   9   3 -10    0.92    0.30
  -7  -3  10    1.34    0.28
   7  -3 -10    1.21    0.27
  -7  -3  10    1.70    0.25
  -7   3  10    1.88    0.32
  -7   3  10    1.87    0.28
   7   3 -10    1.93    0.36
   7   3 -10    1.71    0.29
   5  -3 -10   10.76    0.68
   5  -3 -10   10.41    0.70
   5  -3 -10   10.06    0.51
  -5  -3  10   10.55    0.56
   5   3 -10    9.89    0.62
  -5   3  10   11.63    0.67
   5   3 -10   10.14    0.57
  -5   3  10   10.05    0.57
  -5   3  10   11.09    0.58
   3  -3 -10   -0.09    0.15
   3  -3 -10    0.12    0.17
  -3  -3  10    0.67    0.20
   3  -3 -10    0.14    0.19
   3   3 -10    0.26    0.16
  -3   3  10   -0.03    0.16
  -3   3  10    0.09    0.18
   3   3 -10   -0.18    0.16
   3   3 -10    0.00    0.21
   1  -3 -10    2.06    0.36
   1  -3 -10    2.72    0.38
  -1  -3  10    2.21    0.28
  -1  -3  10    1.84    0.31
   1   3 -10    2.28    0.46
  -1   3  10    2.06    0.35
  -1   3  10    1.93    0.34
   1   3 -10    3.54    0.46
   1  -3  10    5.57    0.51
  -1  -3 -10    5.68    0.57
  -1  -3 -10    5.09    0.60
   1  -3  10    5.55    0.47
   1   3  10    5.71    0.49
  -1   3 -10    5.01    0.70
  -1   3 -10    6.25    0.58
   1   3  10    6.42    0.55
   1   3  10    5.22    0.49
   3  -3  10    0.00    0.15
   3  -3  10    0.24    0.22
  -3  -3 -10    0.13    0.28
  -3   3 -10    0.35    0.28
   3   3  10    0.36    0.25
   3   3  10    0.63    0.28
  -3   3 -10    0.24    0.31
  10  -4 -10   16.33    0.88
  10  -4 -10   16.34    0.88
 -10  -4  10   15.71    0.76
 -10  -4  10   16.73    0.92
 -10   4  10   16.06    0.83
  10   4 -10   15.52    0.90
 -10   4  10   16.77    0.85
  -8  -4  10  163.14    3.36
   8  -4 -10  161.95    3.56
  -8   4  10  159.73    3.38
   8   4 -10  162.26    3.59
   8   4 -10  159.79    3.31
  -8   4  10  160.90    3.51
   6  -4 -10    6.29    0.59
  -6  -4  10    5.88    0.41
  -6  -4  10    6.89    0.47
   6  -4 -10    7.12    0.59
  -6   4  10    7.47    0.54
   6   4 -10    5.85    0.44
   6   4 -10    5.91    0.54
  -6   4  10    6.15    0.44
  -6   4  10    7.25    0.51
  -4  -4  10  138.67    2.92
   4  -4 -10  138.42    3.15
   4  -4 -10  132.81    2.80
   4  -4 -10  136.91    3.11
  -4   4  10  138.56    3.07
  -4   4  10  134.24    2.96
   4   4 -10  138.24    2.96
   4   4 -10  136.25    3.00
  -4   4  10  138.66    2.91
  -2  -4  10    0.82    0.22
   2  -4 -10    1.33    0.29
   2  -4 -10    0.43    0.19
  -2   4  10    0.44    0.23
   2   4 -10    1.39    0.29
   2   4 -10    0.36    0.27
  -2   4  10    0.50    0.24
   0  -4 -10   89.39    2.22
   0  -4 -10   88.86    2.28
   0  -4 -10   87.28    2.49
   0  -4  10   90.51    2.18
   0  -4  10   87.46    2.06
   0   4  10   87.75    2.19
   0   4 -10   86.34    2.77
   0   4  10   89.29    2.21
   0   4  10   92.20    2.29
   0   4 -10   88.44    2.27
  -2  -4 -10    1.92    0.36
  -2  -4 -10    1.34    0.38
   2  -4  10    1.66    0.29
   2  -4  10    1.35    0.31
   2   4  10    1.67    0.36
   2   4  10    1.07    0.30
  -2   4 -10    1.08    0.33
  -2   4 -10    1.69    0.48
  -9  -5  10    8.50    0.67
   9  -5 -10    8.05    0.64
  -9  -5  10    7.61    0.55
  -9   5  10    7.91    0.58
   9   5 -10    7.63    0.65
  -9   5  10    7.93    0.63
  -7  -5  10   32.86    1.10
   7  -5 -10   33.92    1.38
   7  -5 -10   33.26    1.27
  -7   5  10   32.36    1.23
   7   5 -10   31.75    1.25
  -7   5  10   34.01    1.13
   7   5 -10   30.62    1.10
   5  -5 -10    7.90    0.60
   5  -5 -10    8.67    0.67
  -5  -5  10    8.38    0.51
  -5   5  10    9.03    0.63
  -5   5  10    8.77    0.54
  -5   5  10    8.50    0.56
   5   5 -10    8.24    0.54
   5   5 -10    7.81    0.59
   3  -5 -10   39.15    1.20
   3  -5 -10   40.66    1.40
   3  -5 -10   38.73    1.37
  -3  -5  10   37.82    1.14
   3   5 -10   37.96    1.27
  -3   5  10   39.59    1.34
  -3   5  10   40.47    1.35
   3   5 -10   40.09    1.57
   1  -5 -10   21.97    0.96
   1  -5 -10   22.92    1.02
   1  -5 -10   21.93    1.15
  -1  -5  10   21.47    0.88
   1   5 -10   21.08    0.96
   1   5 -10   21.88    1.25
  -1   5  10   21.93    0.97
  -1   5  10   22.51    0.96
  -1  -5 -10    9.92    0.68
   1  -5  10   10.04    0.59
   1  -5  10   10.27    0.66
  -1  -5 -10    9.92    0.82
   1   5  10   10.71    0.67
  -1   5 -10    9.89    0.92
   1   5  10   10.55    0.67
  -1   5 -10   10.60    0.71
  -8  -6  10    2.10    0.33
  -8  -6  10    2.36    0.42
   8  -6 -10    2.37    0.43
   8  -6 -10    2.14    0.40
   8   6 -10    1.90    0.36
  -8   6  10    2.46    0.34
  -8   6  10    2.29    0.41
   6  -6 -10  100.99    2.63
  -6  -6  10  105.22    2.36
   6  -6 -10  107.56    2.79
  -6   6  10  100.99    2.38
  -6   6  10  108.77    2.62
   6   6 -10  103.21    2.44
  -6   6  10  100.40    2.42
   6   6 -10  101.01    2.58
  -4  -6  10   10.57    0.58
   4  -6 -10   10.32    0.73
   4  -6 -10   12.95    0.82
   4   6 -10   10.36    0.64
  -4   6  10   10.47    0.69
  -4   6  10   11.12    0.67
   4   6 -10   10.73    0.66
  -4   6  10   10.51    0.62
  -2  -6  10  144.30    3.01
   2  -6 -10  140.55    3.27
   2  -6 -10  138.64    3.06
   2  -6 -10  134.61    3.44
   2   6 -10  143.44    3.66
  -2   6  10  145.94    3.20
  -2   6  10  143.70    3.25
   2   6 -10  145.23    3.18
   0  -6  10   13.78    0.68
   0  -6 -10   14.26    0.81
   0  -6 -10   13.44    0.76
   0  -6 -10   13.51    0.95
   0  -6  10   13.52    0.74
   0   6  10   13.15    0.77
   0   6 -10   13.67    0.76
   0   6 -10   14.27    1.03
   9  -7 -10    0.83    0.30
   9  -7 -10    0.87    0.31
  -9  -7  10    0.86    0.31
  -9   7  10    0.89    0.32
   9   7 -10    1.03    0.35
   7  -7 -10    5.03    0.52
  -7  -7  10    4.57    0.50
   7  -7 -10    4.15    0.57
  -7   7  10    4.92    0.55
   7   7 -10    5.16    0.52
  -7   7  10    3.79    0.43
   5  -7 -10    0.86    0.29
   5  -7 -10    0.54    0.25
  -5   7  10    0.38    0.24
   5   7 -10    0.77    0.26
  -5   7  10    0.61    0.26
   5   7 -10    1.48    0.29
   3  -7 -10    2.07    0.41
   3  -7 -10    2.18    0.38
  -3   7  10    1.86    0.37
  -3   7  10    2.05    0.36
   3   7 -10    3.11    0.44
   3   7 -10    2.11    0.40
  -3   7  10    2.27    0.36
   1  -7 -10    0.46    0.27
   1  -7 -10    0.11    0.22
   1  -7 -10    0.15    0.30
   1   7 -10    0.13    0.19
   1   7 -10   -0.08    0.20
  -1   7  10   -0.02    0.21
  -8  -8  10   28.09    1.16
   8  -8 -10   28.95    1.36
   8  -8 -10   29.06    1.22
   8   8 -10   31.05    1.31
  -8   8  10   28.38    1.22
   6  -8 -10   59.30    2.05
   6  -8 -10   65.97    2.00
   6   8 -10   64.29    1.92
   6   8 -10   62.43    1.79
  -6   8  10   61.09    1.82
  -6   8  10   61.63    1.90
   4  -8 -10   14.67    0.87
   4  -8 -10   13.95    0.91
   4   8 -10   14.21    0.79
  -4   8  10   13.83    0.78
  -4   8  10   13.77    0.80
  -4   8  10   14.10    0.82
   2  -8 -10   37.31    1.77
   2  -8 -10   46.10    1.78
  -2   8  10   47.51    1.62
   2   8 -10   43.72    1.72
  -2   8  10   47.09    1.65
   2   8 -10   46.49    1.49
   5  -9 -10    0.74    0.28
   5  -9 -10    1.23    0.39
   5   9 -10    0.86    0.30
  -5   9  10    0.74    0.31
  -5   9  10    1.44    0.31
   3  -9 -10    1.04    0.31
   3  -9 -10    0.60    0.35
  -3   9  10    0.66    0.24
  -3   9  10    1.01    0.35
   3   9 -10    0.74    0.29
 -10   0  11    0.20    0.24
 -10   0  11    0.33    0.27
  10   0 -11    0.16    0.19
  -8   0  11    0.46    0.21
   8   0 -11    0.06    0.21
  -8   0  11    0.18    0.21
  -6   0  11    0.02    0.14
  -6   0  11    0.22    0.16
   6   0 -11    0.94    0.28
   6   0 -11    0.05    0.11
  -4   0  11    0.05    0.19
   4   0 -11    0.00    0.16
   4   0 -11    0.33    0.17
  -4   0  11    0.08    0.16
   2   0 -11    0.45    0.24
   2   0 -11    0.03    0.25
  -2   0  11   -0.04    0.17
  -2   0  11    1.41    0.33
   0   0 -11    0.72    0.30
   0   0  11    0.23    0.18
   0   0  11    0.13    0.21
   0   0 -11   -0.28    0.21
   2   0  11    0.01    0.19
   2   0  11    0.17    0.16
  -2   0 -11    0.13    0.30
  -2   0 -11    0.03    0.18
   2   0  11    0.19    0.23
 -11  -1  11   10.53    0.74
  11  -1 -11   10.37    0.74
 -11  -1  11   10.30    0.70
 -11   1  11    9.47    0.68
 -11   1  11   10.00    0.66
  11   1 -11   10.19    0.72
   9  -1 -11   80.40    2.22
  -9  -1  11   81.43    2.10
   9   1 -11   79.85    2.22
  -9   1  11   83.25    2.12
  -9   1  11   80.36    2.06
   7  -1 -11   17.93    0.89
  -7  -1  11   18.60    0.83
  -7  -1  11   18.36    0.80
  -7   1  11   18.52    0.86
   7   1 -11   18.45    0.92
   7   1 -11   17.94    0.75
  -7   1  11   18.71    0.83
   5  -1 -11   76.74    1.86
  -5  -1  11   77.04    1.98
   5  -1 -11   74.07    2.04
  -5   1  11   76.54    2.01
  -5   1  11   75.09    1.83
   5   1 -11   78.12    2.07
   5   1 -11   75.76    1.90
   3  -1 -11   32.16    1.12
  -3  -1  11   29.82    1.13
  -3  -1  11   29.76    1.05
   3  -1 -11   30.97    1.15
  -3   1  11   31.80    1.11
   3   1 -11   29.83    1.10
   3   1 -11   29.59    1.11
  -3   1  11   30.10    1.15
  -1  -1  11   49.84    1.50
  -1  -1  11   52.93    1.62
   1  -1 -11   47.74    1.56
   1  -1 -11   50.79    1.93
  -1   1  11   52.54    1.60
   1   1 -11   48.92    1.97
   1   1 -11   47.73    1.57
  -1   1  11   48.27    1.49
  -1  -1 -11   34.56    1.36
   1  -1  11   34.75    1.24
  -1  -1 -11   33.83    1.59
   1   1  11   34.58    1.25
  -1   1 -11   32.89    1.29
  -1   1 -11   34.51    1.67
   1   1  11   32.48    1.24
   1   1  11   32.70    1.16
  10  -2 -11   23.02    1.08
 -10  -2  11   22.55    0.97
 -10  -2  11   24.81    1.11
 -10   2  11   21.90    0.99
  10   2 -11   22.03    1.06
 -10   2  11   22.26    0.98
   8  -2 -11   34.64    1.32
  -8  -2  11   33.68    1.11
  -8  -2  11   35.14    1.20
   8   2 -11   34.77    1.33
   8   2 -11   34.85    1.10
  -8   2  11   35.35    1.23
  -8   2  11   34.51    1.21
  -6  -2  11   26.61    0.99
   6  -2 -11   26.37    1.10
  -6  -2  11   26.00    1.02
  -6   2  11   25.50    1.03
  -6   2  11   25.79    1.00
   6   2 -11   26.36    1.09
   6   2 -11   25.53    0.95
  -4  -2  11   28.06    1.07
   4  -2 -11   25.49    0.94
   4  -2 -11   25.62    1.08
  -4  -2  11   25.14    0.91
  -4   2  11   27.03    1.06
  -4   2  11   28.33    1.02
   4   2 -11   26.85    1.02
   4   2 -11   25.95    1.04
   2  -2 -11   24.11    1.01
  -2  -2  11   25.30    1.06
  -2  -2  11   23.84    0.94
   2   2 -11   24.44    1.31
  -2   2  11   26.10    1.09
   2   2 -11   24.47    1.04
  -2   2  11   23.86    1.00
   0  -2 -11   11.69    0.92
   0  -2  11   11.90    0.70
   0  -2 -11   11.94    0.77
   0   2  11   11.88    0.70
   0   2 -11   11.60    0.96
   0   2 -11   11.80    0.76
   0   2  11   10.73    0.71
  -9  -3  11   17.62    0.85
  -9  -3  11   17.85    0.92
   9  -3 -11   17.58    0.94
   9   3 -11   17.69    0.96
  -9   3  11   17.04    0.88
  -9   3  11   17.60    0.87
  -7  -3  11   88.78    2.10
   7  -3 -11   85.17    2.33
  -7  -3  11   89.50    2.19
  -7   3  11   90.72    2.20
   7   3 -11   86.93    2.11
   7   3 -11   86.10    2.33
  -7   3  11   90.73    2.29
   5  -3 -11   20.88    0.99
  -5  -3  11   20.94    0.90
  -5   3  11   23.62    1.02
   5   3 -11   21.15    0.96
   5   3 -11   21.31    0.91
  -5   3  11   23.95    0.92
  -5   3  11   21.81    0.89
   3  -3 -11  108.18    2.68
   3  -3 -11  108.17    2.54
  -3  -3  11  117.82    2.67
   3   3 -11  109.19    2.60
   3   3 -11  107.41    3.09
  -3   3  11  112.00    2.61
  -3   3  11  112.16    2.68
  -1  -3  11   11.51    0.65
   1  -3 -11   11.86    0.71
  -1   3  11   12.08    0.73
   1   3 -11   11.74    0.96
  -1   3  11   11.00    0.71
   1   3 -11   12.00    0.76
   1  -3  11   76.79    2.00
   1  -3  11   72.98    1.88
  -1  -3 -11   73.02    2.12
   1   3  11   69.60    1.94
   1   3  11   72.44    1.98
  -1   3 -11   73.20    2.10
   1   3  11   73.88    2.02
  -1   3 -11   73.01    2.59
  10  -4 -11    0.43    0.27
 -10  -4  11    0.30    0.29
 -10  -4  11    0.25    0.23
  10   4 -11    0.45    0.29
 -10   4  11    0.34    0.20
 -10   4  11    0.34    0.19
  -8  -4  11    7.73    0.57
   8  -4 -11    7.57    0.66
   8   4 -11    6.47    0.61
   8   4 -11    7.53    0.54
  -8   4  11    7.73    0.55
  -8   4  11    8.09    0.60
  -6  -4  11    3.22    0.38
  -6  -4  11    3.45    0.41
   6  -4 -11    3.69    0.47
   6  -4 -11    4.73    0.60
   6   4 -11    3.89    0.45
  -6   4  11    3.67    0.41
  -6   4  11    4.19    0.49
  -6   4  11    4.06    0.43
   6   4 -11    4.19    0.49
  -4  -4  11    8.20    0.55
   4  -4 -11    8.31    0.62
   4  -4 -11    8.65    0.55
   4  -4 -11    9.50    0.68
  -4   4  11    9.50    0.63
   4   4 -11    8.41    0.60
  -4   4  11    8.35    0.65
  -4   4  11    8.53    0.57
   4   4 -11    8.08    0.60
   2  -4 -11   14.35    0.78
  -2  -4  11   15.37    0.74
   2  -4 -11   15.66    0.86
   2   4 -11   15.73    0.81
  -2   4  11   16.73    0.84
  -2   4  11   15.01    0.80
   2   4 -11   15.39    1.04
   0  -4  11    7.13    0.57
   0  -4 -11    6.31    0.56
   0   4 -11    7.68    0.61
   0   4 -11    5.95    0.72
   0   4  11    6.71    0.59
   0   4  11    6.84    0.54
   9  -5 -11   48.85    1.68
  -9  -5  11   50.95    1.70
  -9  -5  11   49.93    1.49
   9   5 -11   50.74    1.73
  -9   5  11   48.43    1.52
  -9   5  11   50.13    1.66
  -7  -5  11   23.11    0.95
   7  -5 -11   22.09    1.13
   7  -5 -11   21.80    1.04
   7   5 -11   22.21    0.92
   7   5 -11   23.45    1.08
  -7   5  11   23.63    1.05
  -7   5  11   25.58    0.99
  -5  -5  11   40.03    1.26
   5  -5 -11   39.92    1.48
   5  -5 -11   37.95    1.44
   5   5 -11   39.20    1.37
  -5   5  11   41.65    1.45
  -5   5  11   40.41    1.27
  -5   5  11   38.07    1.30
   5   5 -11   38.78    1.32
   3  -5 -11   21.55    0.91
   3  -5 -11   20.37    1.03
  -3  -5  11   21.04    0.86
  -3   5  11   22.11    1.01
   3   5 -11   22.22    1.24
  -3   5  11   23.49    1.02
   3   5 -11   22.10    0.99
  -1  -5  11   36.61    1.22
   1  -5 -11   35.72    1.30
  -1   5  11   36.77    1.37
  -1   5  11   37.97    1.33
   1   5 -11   35.64    1.72
   1   5 -11   36.00    1.31
   8  -6 -11    0.18    0.29
  -8  -6  11    0.13    0.24
  -8  -6  11    0.03    0.19
   8  -6 -11   -0.03    0.25
  -8   6  11   -0.21    0.21
   8   6 -11    0.29    0.21
   6  -6 -11    8.15    0.72
  -6  -6  11    7.16    0.54
   6  -6 -11    6.65    0.60
  -6   6  11    7.27    0.63
  -6   6  11    6.90    0.56
   6   6 -11    7.56    0.56
   6   6 -11    7.44    0.59
   4  -6 -11    6.23    0.57
   4  -6 -11    5.63    0.60
  -4  -6  11    5.84    0.50
   4   6 -11    5.62    0.53
  -4   6  11    5.87    0.53
  -4   6  11    6.58    0.55
  -2  -6  11    4.38    0.43
   2  -6 -11    3.75    0.45
   2   6 -11    4.28    0.52
  -2   6  11    4.26    0.51
  -2   6  11    4.74    0.53
   2   6 -11    3.99    0.64
   7  -7 -11   26.30    1.30
   7  -7 -11   24.94    1.20
  -7   7  11   25.60    1.14
   7   7 -11   26.55    1.19
   7   7 -11   26.27    1.10
   5  -7 -11   76.99    2.30
   5  -7 -11   72.36    2.21
  -5   7  11   77.60    2.18
   5   7 -11   76.03    2.06
  -5   7  11   74.22    2.10
   3  -7 -11   29.52    1.29
   3   7 -11   30.27    1.20
   3   7 -11   28.71    1.38
  -3   7  11   29.77    1.25
  -3   7  11   30.70    1.21
  -3   7  11   27.26    1.18
   4  -8 -11   12.29    0.83
   4  -8 -11   12.50    0.84
  -4   8  11   12.92    0.81
  -4   8  11   12.29    0.82
   4   8 -11   14.10    0.81
 -10   0  12    2.27    0.43
 -10   0  12    2.19    0.40
  10   0 -12    2.34    0.39
  -8   0  12  126.86    2.88
   8   0 -12  122.94    3.05
  -8   0  12  124.60    2.88
  -6   0  12    7.02    0.54
  -6   0  12    6.91    0.54
   6   0 -12    6.95    0.52
   6   0 -12    7.59    0.63
  -4   0  12  142.59    3.18
  -4   0  12  133.94    2.95
   4   0 -12  133.80    3.02
   4   0 -12  133.40    3.13
   2   0 -12    0.51    0.26
  -2   0  12    0.67    0.27
  -2   0  12    0.81    0.24
   0   0 -12  125.51    3.13
   0   0  12  133.85    3.09
   0   0  12  127.98    3.00
   0   0 -12  131.54    3.66
  -9  -1  12    1.33    0.26
  -9  -1  12    2.09    0.36
   9  -1 -12    1.34    0.32
   9   1 -12    1.78    0.35
  -9   1  12    1.80    0.33
  -9   1  12    1.64    0.35
  -7  -1  12    9.30    0.61
   7  -1 -12    9.32    0.71
  -7  -1  12    9.37    0.66
   7   1 -12    9.44    0.71
   7   1 -12   10.28    0.60
  -7   1  12    9.93    0.68
  -7   1  12    9.68    0.66
   5  -1 -12   13.23    0.81
   5  -1 -12   13.98    0.71
  -5  -1  12   15.44    0.83
  -5   1  12   15.00    0.81
   5   1 -12   14.84    0.83
  -5   1  12   13.18    0.69
   5   1 -12   14.28    0.75
   3  -1 -12    0.67    0.27
   3  -1 -12    0.31    0.21
  -3  -1  12    0.56    0.24
  -3  -1  12    0.82    0.25
   3   1 -12    1.43    0.35
  -3   1  12    0.76    0.27
  -3   1  12    0.80    0.25
   1  -1 -12   14.79    0.87
  -1  -1  12   16.41    0.89
  -1  -1  12   14.82    0.80
  -1   1  12   15.61    0.84
   1   1 -12   14.78    1.09
  -1   1  12   14.70    0.85
   1   1 -12   15.94    0.86
   8  -2 -12   64.08    1.98
  -8  -2  12   65.06    1.84
  -8   2  12   66.54    1.89
   8   2 -12   63.50    1.95
   8   2 -12   61.75    1.68
  -8   2  12   64.01    1.82
  -6  -2  12   64.86    1.78
   6  -2 -12   63.99    1.97
  -6  -2  12   64.96    1.85
  -6   2  12   66.32    1.90
  -6   2  12   64.40    1.82
   6   2 -12   65.96    1.77
   6   2 -12   65.17    1.92
  -4  -2  12   51.96    1.49
   4  -2 -12   53.36    1.71
   4  -2 -12   53.40    1.57
  -4  -2  12   54.30    1.65
   4   2 -12   51.43    1.62
   4   2 -12   52.54    1.60
  -4   2  12   52.78    1.58
  -4   2  12   56.06    1.72
  -2  -2  12   41.73    1.36
   2  -2 -12   42.07    1.46
  -2  -2  12   42.64    1.48
  -2   2  12   41.99    1.43
   2   2 -12   42.73    1.88
   2   2 -12   42.26    1.47
  -2   2  12   41.98    1.48
   0  -2  12   14.25    0.81
   0  -2 -12   15.53    0.91
   0  -2  12   15.64    0.88
   0   2  12   16.25    0.86
   0   2  12   14.15    0.83
   0   2 -12   16.67    1.16
   0   2 -12   14.02    0.85
  -9  -3  12    9.54    0.63
   9  -3 -12    8.93    0.69
  -9   3  12    9.47    0.70
  -9   3  12    8.84    0.62
   9   3 -12    9.41    0.74
  -7  -3  12    2.57    0.37
  -7  -3  12    2.61    0.41
   7  -3 -12    2.16    0.37
   7   3 -12    2.74    0.44
   7   3 -12    2.48    0.39
  -7   3  12    2.63    0.43
  -7   3  12    2.64    0.37
   5  -3 -12    1.12    0.33
  -5  -3  12    0.62    0.26
  -5   3  12    0.62    0.23
  -5   3  12    0.58    0.25
   5   3 -12    0.63    0.22
  -5   3  12    1.06    0.32
   5   3 -12    0.63    0.25
   3  -3 -12    9.46    0.61
  -3  -3  12    9.97    0.66
   3  -3 -12    9.62    0.65
  -3  -3  12    9.56    0.60
  -3   3  12    9.41    0.67
   3   3 -12    9.23    0.64
  -3   3  12    8.82    0.65
   1  -3 -12    0.23    0.19
  -1  -3  12    0.39    0.23
  -1   3  12    0.15    0.18
   1   3 -12    0.05    0.28
  -1   3  12    0.80    0.29
   1   3 -12    0.19    0.25
  -8  -4  12    5.18    0.47
   8  -4 -12    6.18    0.67
   8   4 -12    4.45    0.52
  -8   4  12    3.64    0.46
   8   4 -12    3.83    0.42
  -8   4  12    4.15    0.54
  -6  -4  12   52.95    1.59
   6  -4 -12   48.61    1.70
  -6   4  12   50.05    1.52
   6   4 -12   51.03    1.68
  -6   4  12   51.25    1.56
  -6   4  12   55.59    1.74
   6   4 -12   51.44    1.58
  -4  -4  12    4.71    0.51
   4  -4 -12    6.47    0.58
   4   4 -12    3.91    0.49
  -4   4  12    4.41    0.49
  -4   4  12    4.64    0.48
  -4   4  12    4.49    0.53
   2  -4 -12   73.44    2.05
   2  -4 -12   73.08    2.09
  -2  -4  12   75.83    2.09
  -2  -4  12   71.75    1.93
   2   4 -12   75.30    2.60
   2   4 -12   71.71    2.07
  -2   4  12   73.27    2.08
  -2   4  12   77.50    2.12
   7  -5 -12    0.27    0.26
  -7  -5  12    0.23    0.23
   7   5 -12   -0.12    0.20
  -7   5  12    0.11    0.23
   7   5 -12    0.17    0.19
  -7   5  12   -0.04    0.19
   5  -5 -12   -0.15    0.21
   5  -5 -12    0.38    0.25
  -5  -5  12   -0.03    0.20
  -5   5  12    0.17    0.24
  -5   5  12    0.14    0.17
  -5   5  12    0.32    0.22
   5   5 -12   -0.02    0.23
   3  -5 -12    6.18    0.56
  -3  -5  12    4.23    0.49
  -3   5  12    5.93    0.63
  -3   5  12    5.16    0.61
   3   5 -12    4.83    0.54
   3   5 -12    5.04    0.70
   6  -6 -12   16.66    0.99
  -6  -6  12   15.48    0.80
   6  -6 -12   17.51    1.04
   6   6 -12   16.31    0.87
  -6   6  12   16.19    0.86
  -4  -6  12   85.48    2.23
   4  -6 -12   92.98    2.55
   4   6 -12   87.90    2.34
  -4   6  12   93.75    2.47
  -4   6  12   88.75    2.41
  -8   0  13    0.24    0.18
  -8   0  13    0.03    0.16
   8   0 -13   -0.05    0.23
  -6   0  13    0.01    0.23
  -6   0  13    0.16    0.23
   6   0 -13    0.83    0.30
   6   0 -13    0.04    0.19
  -4   0  13    0.13    0.21
   4   0 -13    1.00    0.28
  -4   0  13    0.09    0.26
   7  -1 -13   67.83    2.09
  -7  -1  13   71.69    2.00
  -7  -1  13   70.56    1.97
   7   1 -13   65.39    1.80
   7   1 -13   68.49    2.10
  -7   1  13   71.00    1.98
  -7   1  13   72.29    2.05
  -5  -1  13    8.92    0.70
   5  -1 -13    9.82    0.73
   5  -1 -13    8.08    0.56
   5   1 -13    8.98    0.69
   5   1 -13    9.78    0.66
  -5   1  13    9.29    0.67
  -5   1  13    9.97    0.69
  -3  -1  13   72.30    1.96
  -3  -1  13   76.06    2.15
   3  -1 -13   68.14    2.01
  -3   1  13   76.03    2.16
  -3   1  13   71.28    1.99
   8  -2 -13   22.00    1.12
  -8  -2  13   23.17    1.04
  -8   2  13   21.86    1.05
  -8   2  13   22.16    1.02
   6  -2 -13   19.16    1.00
  -6  -2  13   18.91    0.95
  -6   2  13   19.47    0.92
  -6   2  13   21.05    1.04
   6   2 -13   19.82    0.93
   6   2 -13   20.86    1.01
   4  -2 -13   24.62    1.07
   4  -2 -13   25.51    1.16
  -4  -2  13   27.47    1.17
  -4   2  13   26.81    1.09
   4   2 -13   25.17    1.07
  -4   2  13   27.04    1.19
  -7  -3  13   21.54    0.95
   7  -3 -13   23.73    1.16
  -7  -3  13   23.14    1.04
  -7   3  13   23.34    1.01
   7   3 -13   22.63    0.98
  -7   3  13   22.44    1.09
   7   3 -13   22.33    1.11
  -5  -3  13   46.31    1.52
   5  -3 -13   47.38    1.66
  -5   3  13   44.87    1.57
   5   3 -13   44.49    1.51
  -5   3  13   46.11    1.52
  -5   3  13   43.77    1.46
   0   0   0    0.00    0.00
;
_shelx_hkl_checksum              127
loop_
_space_group_symop_operation_xyz
'x, y, z'
'-x, y, -z+1/2'
'x+1/2, y+1/2, z'
'-x+1/2, y+1/2, -z+1/2'
'-x, -y, -z'
'x, -y, z-1/2'
'-x+1/2, -y+1/2, -z'
'x+1/2, -y+1/2, z-1/2'
loop_
_atom_site_label
_atom_site_type_symbol
_atom_site_fract_x
_atom_site_fract_y
_atom_site_fract_z
_atom_site_U_iso_or_equiv
_atom_site_adp_type
_atom_site_occupancy
_atom_site_site_symmetry_order
_atom_site_calc_flag
_atom_site_refinement_flags_posn
_atom_site_refinement_flags_adp
_atom_site_refinement_flags_occupancy
_atom_site_disorder_assembly
_atom_site_disorder_group
Co Co 0.000000 0.500000 0.000000 0.00327(3) Uani 1 2 d S . P . .
S S 0.000000 0.15532(2) 0.250000 0.00313(4) Uani 1 2 d S T P . .
O1 O 0.17207(7) 0.04480(6) 0.40193(7) 0.00652(7) Uani 1 1 d . . . . .
O2 O 0.09983(7) 0.26818(6) 0.15527(7) 0.00564(7) Uani 1 1 d . . . . .
O3 O 0.000000 0.63777(8) 0.250000 0.00535(9) Uani 1 2 d S T P . .
H H 0.110(2) 0.704(2) 0.294(2) 0.022(3) Uiso 1 1 d . . . . .
loop_
_atom_site_aniso_label
_atom_site_aniso_U_11
_atom_site_aniso_U_22
_atom_site_aniso_U_33
_atom_site_aniso_U_23
_atom_site_aniso_U_13
_atom_site_aniso_U_12
Co 0.00299(5) 0.00348(5) 0.00344(5) 0.00024(3) 0.00161(3) -0.00003(3)
S 0.00255(7) 0.00322(7) 0.00371(7) 0.000 0.00155(5) 0.000
O1 0.00425(14) 0.00740(16) 0.00727(16) 0.00341(13) 0.00220(13) 0.00203(12)
O2 0.00567(15) 0.00528(15) 0.00750(16) 0.00230(12) 0.00437(13) 0.00047(12)
O3 0.0051(2) 0.0057(2) 0.0055(2) 0.000 0.00273(17) 0.000
loop_
_atom_type_symbol
_atom_type_description
_atom_type_scat_dispersion_real
_atom_type_scat_dispersion_imag
_atom_type_scat_source
O O 0.0106 0.0060 'International Tables Vol C Tables 4.2.6.8 and 6.1.1.4'
H H 0.0000 0.0000 'International Tables Vol C Tables 4.2.6.8 and 6.1.1.4'
S S 0.1246 0.1234 'International Tables Vol C Tables 4.2.6.8 and 6.1.1.4'
Co Co 0.3494 0.9721 'International Tables Vol C Tables 4.2.6.8 and 6.1.1.4'
loop_
_geom_angle_atom_site_label_1
_geom_angle_atom_site_label_2
_geom_angle_atom_site_label_3
_geom_angle
_geom_angle_site_symmetry_1
_geom_angle_site_symmetry_3
_geom_angle_publ_flag
O2 Co O2 180.0 . 5_565 ?
O2 Co O1 94.47(2) . 8_455 ?
O2 Co O1 85.53(2) 5_565 8_455 ?
O2 Co O1 85.53(2) . 4 ?
O2 Co O1 94.47(2) 5_565 4 ?
O1 Co O1 180.0 8_455 4 ?
O2 Co O3 93.06(2) . . ?
O2 Co O3 86.94(2) 5_565 . ?
O1 Co O3 86.430(16) 8_455 . ?
O1 Co O3 93.570(16) 4 . ?
O2 Co O3 86.94(2) . 5_565 ?
O2 Co O3 93.06(2) 5_565 5_565 ?
O1 Co O3 93.570(16) 8_455 5_565 ?
O1 Co O3 86.430(16) 4 5_565 ?
O3 Co O3 180.0 . 5_565 ?
O2 Co O2 98.293(13) . 4 ?
O2 Co O2 81.707(13) 5_565 4 ?
O1 Co O2 136.648(16) 8_455 4 ?
O1 Co O2 43.352(16) 4 4 ?
O3 Co O2 51.775(12) . 4 ?
O3 Co O2 128.225(13) 5_565 4 ?
O2 Co O2 81.707(12) . 8_455 ?
O2 Co O2 98.293(13) 5_565 8_455 ?
O1 Co O2 43.352(16) 8_455 8_455 ?
O1 Co O2 136.648(16) 4 8_455 ?
O3 Co O2 128.224(12) . 8_455 ?
O3 Co O2 51.776(12) 5_565 8_455 ?
O2 Co O2 180.0 4 8_455 ?
O2 Co O2 42.786(17) . 2 ?
O2 Co O2 137.215(17) 5_565 2 ?
O1 Co O2 66.967(18) 8_455 2 ?
O1 Co O2 113.032(18) 4 2 ?
O3 Co O2 60.368(19) . 2 ?
O3 Co O2 119.631(18) 5_565 2 ?
O2 Co O2 96.022(15) 4 2 ?
O2 Co O2 83.978(15) 8_455 2 ?
O2 Co O2 137.214(17) . 6_565 ?
O2 Co O2 42.785(17) 5_565 6_565 ?
O1 Co O2 113.033(18) 8_455 6_565 ?
O1 Co O2 66.968(18) 4 6_565 ?
O3 Co O2 119.632(19) . 6_565 ?
O3 Co O2 60.369(18) 5_565 6_565 ?
O2 Co O2 83.978(15) 4 6_565 ?
O2 Co O2 96.022(15) 8_455 6_565 ?
O2 Co O2 180.000(13) 2 6_565 ?
O1 S O1 109.98(4) 2 . ?
O1 S O2 108.77(3) 2 2 ?
O1 S O2 110.01(3) . 2 ?
O1 S O2 110.01(3) 2 . ?
O1 S O2 108.77(3) . . ?
O2 S O2 109.30(4) 2 . ?
S O1 Co 136.47(3) . 4_545 ?
S O1 O2 35.873(16) . . ?
Co O1 O2 100.66(2) 4_545 . ?
S O1 O1 35.01(2) . 2 ?
Co O1 O1 140.25(3) 4_545 2 ?
O2 O1 O1 60.469(19) . 2 ?
S O1 O2 35.246(17) . 2 ?
Co O1 O2 144.48(3) 4_545 2 ?
O2 O1 O2 60.37(2) . 2 ?
O1 O1 O2 59.705(19) 2 2 ?
S O1 O2 128.28(3) . 4_545 ?
Co O1 O2 47.194(14) 4_545 4_545 ?
O2 O1 O2 109.71(2) . 4_545 ?
O1 O1 O2 103.13(2) 2 4_545 ?
O2 O1 O2 162.50(3) 2 4_545 ?
S O1 O3 170.25(3) . 7_556 ?
Co O1 O3 48.439(12) 4_545 7_556 ?
O2 O1 O3 146.66(2) . 7_556 ?
O1 O1 O3 150.070(17) 2 7_556 ?
O2 O1 O3 135.08(2) 2 7_556 ?
O2 O1 O3 61.470(17) 4_545 7_556 ?
S O1 O2 114.53(3) . 8_556 ?
Co O1 O2 42.735(14) 4_545 8_556 ?
O2 O1 O2 86.57(2) . 8_556 ?
O1 O1 O2 146.921(19) 2 8_556 ?
O2 O1 O2 103.13(2) 2 8_556 ?
O2 O1 O2 89.93(2) 4_545 8_556 ?
O3 O1 O2 62.453(19) 7_556 8_556 ?
S O1 O3 92.38(2) . 3_545 ?
Co O1 O3 44.676(13) 4_545 3_545 ?
O2 O1 O3 57.449(18) . 3_545 ?
O1 O1 O3 102.22(3) 2 3_545 ?
O2 O1 O3 114.89(2) 2 3_545 ?
O2 O1 O3 62.741(19) 4_545 3_545 ?
O3 O1 O3 93.115(18) 7_556 3_545 ?
O2 O1 O3 56.933(16) 8_556 3_545 ?
S O1 O2 126.20(3) . 6_556 ?
Co O1 O2 96.798(19) 4_545 6_556 ?
O2 O1 O2 161.57(3) . 6_556 ?
O1 O1 O2 101.95(2) 2 6_556 ?
O2 O1 O2 107.25(2) 2 6_556 ?
O2 O1 O2 78.226(19) 4_545 6_556 ?
O3 O1 O2 51.769(15) 7_556 6_556 ?
O2 O1 O2 110.49(2) 8_556 6_556 ?
O3 O1 O2 137.68(2) 3_545 6_556 ?
S O1 O2 111.84(3) . 7_556 ?
Co O1 O2 77.875(19) 4_545 7_556 ?
O2 O1 O2 108.18(2) . 7_556 ?
O1 O1 O2 139.29(2) 2 7_556 ?
O2 O1 O2 80.406(19) 2 7_556 ?
O2 O1 O2 117.06(2) 4_545 7_556 ?
O3 O1 O2 59.087(18) 7_556 7_556 ?
O2 O1 O2 45.008(18) 8_556 7_556 ?
O3 O1 O2 101.679(19) 3_545 7_556 ?
O2 O1 O2 81.162(15) 6_556 7_556 ?
S O1 O3 103.82(3) . 1_545 ?
Co O1 O3 97.068(18) 4_545 1_545 ?
O2 O1 O3 118.86(2) . 1_545 ?
O1 O1 O3 68.811(10) 2 1_545 ?
O2 O1 O3 118.26(2) 2 1_545 ?
O2 O1 O3 51.511(15) 4_545 1_545 ?
O3 O1 O3 82.249(17) 7_556 1_545 ?
O2 O1 O3 138.021(18) 8_556 1_545 ?
O3 O1 O3 106.914(18) 3_545 1_545 ?
O2 O1 O3 52.448(13) 6_556 1_545 ?
O2 O1 O3 132.722(17) 7_556 1_545 ?
S O2 Co 131.98(3) . . ?
S O2 O1 35.360(16) . . ?
Co O2 O1 161.18(3) . . ?
S O2 O1 34.745(16) . 2 ?
Co O2 O1 118.76(2) . 2 ?
O1 O2 O1 59.83(3) . 2 ?
S O2 O2 35.352(19) . 2 ?
Co O2 O2 102.103(17) . 2 ?
O1 O2 O2 60.190(19) . 2 ?
O1 O2 O2 59.435(18) 2 2 ?
S O2 O3 108.25(3) . 3_545 ?
Co O2 O3 119.50(2) . 3_545 ?
O1 O2 O3 74.01(2) . 3_545 ?
O1 O2 O3 113.70(3) 2 3_545 ?
O2 O2 O3 130.16(3) 2 3_545 ?
S O2 O1 160.23(3) . 4 ?
Co O2 O1 47.272(15) . 4 ?
O1 O2 O1 137.19(2) . 4 ?
O1 O2 O1 162.50(3) 2 4 ?
O2 O2 O1 128.159(16) 2 4 ?
O3 O2 O1 74.55(2) 3_545 4 ?
S O2 O3 136.42(3) . 5_565 ?
Co O2 O3 48.210(15) . 5_565 ?
O1 O2 O3 149.06(3) . 5_565 ?
O1 O2 O3 102.14(2) 2 5_565 ?
O2 O2 O3 135.50(3) 2 5_565 ?
O3 O2 O3 94.026(18) 3_545 5_565 ?
O1 O2 O3 61.044(17) 4 5_565 ?
S O2 O1 92.30(2) . 8_455 ?
Co O2 O1 42.800(13) . 8_455 ?
O1 O2 O1 127.59(3) . 8_455 ?
O1 O2 O1 76.87(2) 2 8_455 ?
O2 O2 O1 73.38(2) 2 8_455 ?
O3 O2 O1 156.45(2) 3_545 8_455 ?
O1 O2 O1 90.07(2) 4 8_455 ?
O3 O2 O1 62.652(16) 5_565 8_455 ?
S O2 O3 102.06(2) . . ?
Co O2 O3 44.975(12) . . ?
O1 O2 O3 117.03(2) . . ?
O1 O2 O3 116.42(2) 2 . ?
O2 O2 O3 66.710(10) 2 . ?
O3 O2 O3 126.36(2) 3_545 . ?
O1 O2 O3 63.276(17) 4 . ?
O3 O2 O3 93.185(16) 5_565 . ?
O1 O2 O3 56.833(13) 8_455 . ?
S O2 O1 95.76(2) . 6 ?
Co O2 O1 113.32(2) . 6 ?
O1 O2 O1 84.744(17) . 6 ?
O1 O2 O1 72.75(2) 2 6 ?
O2 O2 O1 130.066(14) 2 6 ?
O3 O2 O1 57.330(16) 3_545 6 ?
O1 O2 O1 101.774(19) 4 6 ?
O3 O2 O1 65.136(19) 5_565 6 ?
O1 O2 O1 110.49(2) 8_455 6 ?
O3 O2 O1 158.221(18) . 6 ?
S O2 O1 82.14(2) . 7_556 ?
Co O2 O1 94.70(2) . 7_556 ?
O1 O2 O1 71.82(2) . 7_556 ?
O1 O2 O1 116.33(2) 2 7_556 ?
O2 O2 O1 61.61(2) 2 7_556 ?
O3 O2 O1 87.332(19) 3_545 7_556 ?
O1 O2 O1 78.425(16) 4 7_556 ?
O3 O2 O1 137.25(2) 5_565 7_556 ?
O1 O2 O1 107.28(2) 8_455 7_556 ?
O3 O2 O1 54.096(12) . 7_556 ?
O1 O2 O1 142.222(18) 6 7_556 ?
Co O3 Co 122.14(3) . 2 ?
Co O3 O2 89.090(13) . 4 ?
Co O3 O2 111.826(14) 2 4 ?
Co O3 O2 111.827(14) . 3_455 ?
Co O3 O2 89.089(13) 2 3_455 ?
O2 O3 O2 136.83(3) 4 3_455 ?
Co O3 O1 45.131(13) . 8_455 ?
Co O3 O1 103.92(2) 2 8_455 ?
O2 O3 O1 132.906(16) 4 8_455 ?
O2 O3 O1 70.901(17) 3_455 8_455 ?
Co O3 O1 103.92(2) . 7_556 ?
Co O3 O1 45.131(13) 2 7_556 ?
O2 O3 O1 70.901(16) 4 7_556 ?
O2 O3 O1 132.905(15) 3_455 7_556 ?
O1 O3 O1 122.55(3) 8_455 7_556 ?
Co O3 O2 161.34(2) . 6_566 ?
Co O3 O2 44.854(12) 2 6_566 ?
O2 O3 O2 85.974(18) 4 6_566 ?
O2 O3 O2 83.615(18) 3_455 6_566 ?
O1 O3 O2 140.759(16) 8_455 6_566 ?
O1 O3 O2 57.486(15) 7_556 6_566 ?
Co O3 O2 44.854(12) . 5_565 ?
Co O3 O2 161.34(2) 2 5_565 ?
O2 O3 O2 83.616(17) 4 5_565 ?
O2 O3 O2 85.974(18) 3_455 5_565 ?
O1 O3 O2 57.486(15) 8_455 5_565 ?
O1 O3 O2 140.759(16) 7_556 5_565 ?
O2 O3 O2 151.45(3) 6_566 5_565 ?
Co O3 O2 81.66(2) . 2 ?
Co O3 O2 41.961(14) 2 2 ?
O2 O3 O2 126.36(2) 4 2 ?
O2 O3 O2 94.756(14) 3_455 2 ?
O1 O3 O2 66.817(19) 8_455 2 ?
O1 O3 O2 60.714(18) 7_556 2 ?
O2 O3 O2 86.816(16) 6_566 2 ?
O2 O3 O2 120.56(2) 5_565 2 ?
Co O3 O2 41.961(14) . . ?
Co O3 O2 81.66(2) 2 . ?
O2 O3 O2 94.756(14) 4 . ?
O2 O3 O2 126.36(2) 3_455 . ?
O1 O3 O2 60.714(18) 8_455 . ?
O1 O3 O2 66.817(19) 7_556 . ?
O2 O3 O2 120.56(2) 6_566 . ?
O2 O3 O2 86.815(16) 5_565 . ?
O2 O3 O2 46.58(2) 2 . ?
Co O3 O1 121.57(2) . 3_455 ?
Co O3 O1 41.755(11) 2 3_455 ?
O2 O3 O1 146.231(16) 4 3_455 ?
O2 O3 O1 48.540(14) 3_455 3_455 ?
O1 O3 O1 80.404(16) 8_455 3_455 ?
O1 O3 O1 86.886(18) 7_556 3_455 ?
O2 O3 O1 60.415(15) 6_566 3_455 ?
O2 O3 O1 127.381(15) 5_565 3_455 ?
O2 O3 O1 53.983(14) 2 3_455 ?
O2 O3 O1 99.53(2) . 3_455 ?
Co O3 O1 41.755(11) . 4 ?
Co O3 O1 121.57(2) 2 4 ?
O2 O3 O1 48.540(14) 4 4 ?
O2 O3 O1 146.231(15) 3_455 4 ?
O1 O3 O1 86.886(18) 8_455 4 ?
O1 O3 O1 80.404(16) 7_556 4 ?
O2 O3 O1 127.381(15) 6_566 4 ?
O2 O3 O1 60.415(15) 5_565 4 ?
O2 O3 O1 99.53(2) 2 4 ?
O2 O3 O1 53.982(14) . 4 ?
O1 O3 O1 153.41(3) 3_455 4 ?
Co O3 H 105.2(10) . . ?
Co O3 H 108.6(10) 2 . ?
O2 O3 H 18.3(11) 4 . ?
O2 O3 H 120.5(11) 3_455 . ?
O1 O3 H 145.3(10) 8_455 . ?
O1 O3 H 75.8(10) 7_556 . ?
O2 O3 H 73.5(10) 6_566 . ?
O2 O3 H 89.3(10) 5_565 . ?
O2 O3 H 136.2(10) 2 . ?
O2 O3 H 112.5(11) . . ?
O1 O3 H 132.9(10) 3_455 . ?
O1 O3 H 66.2(11) 4 . ?
Co O3 H 108.6(10) . 2 ?
Co O3 H 105.2(10) 2 2 ?
O2 O3 H 120.5(11) 4 2 ?
O2 O3 H 18.3(11) 3_455 2 ?
O1 O3 H 75.8(10) 8_455 2 ?
O1 O3 H 145.3(10) 7_556 2 ?
O2 O3 H 89.3(10) 6_566 2 ?
O2 O3 H 73.5(10) 5_565 2 ?
O2 O3 H 112.5(11) 2 2 ?
O2 O3 H 136.2(10) . 2 ?
O1 O3 H 66.2(11) 3_455 2 ?
O1 O3 H 132.9(10) 4 2 ?
H O3 H 106(2) . 2 ?
loop_
_geom_bond_atom_site_label_1
_geom_bond_atom_site_label_2
_geom_bond_distance
_geom_bond_site_symmetry_2
_geom_bond_publ_flag
Co O2 2.0531(5) . ?
Co O2 2.0531(5) 5_565 ?
Co O1 2.0557(5) 8_455 ?
Co O1 2.0557(5) 4 ?
Co O3 2.1704(4) . ?
Co O3 2.1704(4) 5_565 ?
Co O2 3.4383(6) 4 ?
Co O2 3.4383(6) 8_455 ?
Co O2 3.4903(6) 2 ?
Co O2 3.4903(6) 6_565 ?
S O1 1.4680(5) 2 ?
S O1 1.4680(5) . ?
S O2 1.4865(5) 2 ?
S O2 1.4865(5) . ?
O1 O2 2.4018(7) . ?
O1 O1 2.4048(10) 2 ?
O1 O2 2.4203(7) 2 ?
O1 O2 2.7900(7) 4_545 ?
O1 O3 2.8950(7) 7_556 ?
O1 O2 3.0164(8) 8_556 ?
O1 O3 3.0809(6) 3_545 ?
O1 O2 3.2498(7) 6_556 ?
O1 O2 3.2854(8) 7_556 ?
O1 O3 3.3267(9) 1_545 ?
O2 O2 2.4248(9) 2 ?
O2 O3 2.7014(6) 3_545 ?
O2 O3 2.9068(6) 5_565 ?
O2 O3 3.0663(8) . ?
O3 H 0.839(15) . ?
O3 H 0.839(15) 2 ?
loop_
_geom_hbond_atom_site_label_D
_geom_hbond_atom_site_label_H
_geom_hbond_atom_site_label_A
_geom_hbond_distance_DH
_geom_hbond_distance_HA
_geom_hbond_distance_DA
_geom_hbond_angle_DHA
_geom_hbond_site_symmetry_A
_geom_hbond_publ_flag
O3 H O2 0.839(15) 1.923(15) 2.7015(6) 153.9(15) 4 yes
