#------------------------------------------------------------------------------
#$Date: 2022-01-01 07:13:54 +0200 (Sat, 01 Jan 2022) $
#$Revision: 271676 $
#$URL: file:///home/coder/svn-repositories/cod/cif/1/56/58/1565864.cif $
#------------------------------------------------------------------------------
#
# This file is available in the Crystallography Open Database (COD),
# http://www.crystallography.net/. The original data for this entry
# were provided by IUCr Journals, http://journals.iucr.org/.
#
# The file may be used within the scientific community so long as
# proper attribution is given to the journal article from which the
# data were obtained.
#
data_1565864
loop_
_publ_author_name
'Olejniczak, Anna'
'Katrusiak, Anna'
'Podsiad\/lo, Marcin'
'Katrusiak, Andrzej'
_publ_section_title
;
 Stochastic hydration of a high-nitrogen-content molecular compound
 recrystallized under pressure
;
_journal_coeditor_code           LT5042
_journal_issue                   1
_journal_name_full               IUCrJ
_journal_page_first              49
_journal_page_last               54
_journal_paper_doi               10.1107/S2052252521010381
_journal_volume                  9
_journal_year                    2022
_chemical_formula_moiety         'C4 H2 Cl N5'
_chemical_formula_sum            'C4 H2 Cl N5'
_chemical_formula_weight         155.56
_chemical_name_systematic        6-chloro-1,2,3,4-tetrazolo[1,5-b]pyridazine
_space_group_crystal_system      orthorhombic
_space_group_IT_number           19
_space_group_name_Hall           'P 2ac 2ab'
_space_group_name_H-M_alt        'P 21 21 21'
_atom_sites_solution_hydrogens   geom
_atom_sites_solution_primary     direct
_audit_creation_date             2020-07-14
_audit_creation_method
;
Olex2 1.3
(compiled 2020.06.28 svn.raecde09e for OlexSys, GUI svn.r6132)
;
_cell_angle_alpha                90
_cell_angle_beta                 90
_cell_angle_gamma                90
_cell_formula_units_Z            4
_cell_length_a                   7.0651(2)
_cell_length_b                   8.7859(2)
_cell_length_c                   10.0906(2)
_cell_measurement_reflns_used    2612
_cell_measurement_temperature    300.0(1)
_cell_measurement_theta_max      64.5840
_cell_measurement_theta_min      6.6780
_cell_volume                     626.36(3)
_computing_cell_refinement       'CrysAlisPro 1.171.40.67a (Rigaku OD, 2019)'
_computing_data_collection       'CrysAlisPro 1.171.40.67a (Rigaku OD, 2019)'
_computing_data_reduction        'CrysAlisPro 1.171.40.67a (Rigaku OD, 2019)'
_computing_molecular_graphics    'Olex2 1.3 (Dolomanov et al., 2009)'
_computing_publication_material  'Olex2 1.3 (Dolomanov et al., 2009)'
_computing_structure_refinement  'SHELXL 2018/3 (Sheldrick, 2015)'
_computing_structure_solution    'SHELXT 2018/2 (Sheldrick, 2018)'
_diffrn_ambient_environment      air
_diffrn_ambient_temperature      300.0(1)
_diffrn_detector                 'CCD plate'
_diffrn_detector_area_resol_mean 10.5357
_diffrn_detector_type            Atlas
_diffrn_measured_fraction_theta_full 0.994
_diffrn_measured_fraction_theta_max 0.992
_diffrn_measurement_details
;
List of Runs (angles in degrees, time in seconds):

  # Type    Start    End  Width  t~exp~   \w     \q     \k     \f   Frames
--------------------------------------------------------------------------
  1  \w     13.00 116.00   1.00    1.25    --   41.73  77.00 150.00  103
  2  \w     13.00  88.00   1.00    1.25    --   41.73-125.00  60.00   75
  3  \w     40.00  99.00   1.00    1.25    --   41.73  37.00 -90.00   59
  4  \w     16.00  51.00   1.00    2.50    --   88.44 -45.00 150.00   35
  5  \w     36.00 158.00   1.00    2.50    --   88.44  15.00  60.00  122
  6  \w      8.00 106.00   1.00    2.50    --   88.44 -94.00 120.00   98
  7  \w     37.00  77.00   1.00    2.50    --   88.44 -45.00  90.00   40
  8  \w     44.00  70.00   1.00    2.50    --   88.44 -45.00-120.00   26
  9  \w     16.00 109.00   1.00    2.50    --   88.44 -94.00-120.00   93
 10  \w     26.00  75.00   1.00    2.50    --   88.44 -45.00   0.00   49
 11  \w     42.00  81.00   1.00    2.50    --   88.44 -94.00   0.00   39
 12  \w     85.00 111.00   1.00    2.50    --   88.44 125.00  90.00   26
 13  \w    116.00 146.00   1.00    2.50    --   88.44 125.00  90.00   30
 14  \w     68.00 107.00   1.00    2.50    --   88.44-125.00  90.00   39
 15  \w     75.00 156.00   1.00    2.50    --   88.44  61.00 -90.00   81
;
_diffrn_measurement_device       'four-circle diffractometer'
_diffrn_measurement_device_type
'SuperNova, Single source at offset/far, Atlas'
_diffrn_measurement_method       '\w scans'
_diffrn_orient_matrix_type
'CrysAlisPro convention (1999,Acta A55,543-557)'
_diffrn_orient_matrix_UB_11      0.0560139000
_diffrn_orient_matrix_UB_12      0.0092821000
_diffrn_orient_matrix_UB_13      -0.1473060000
_diffrn_orient_matrix_UB_21      -0.0482366000
_diffrn_orient_matrix_UB_22      0.1710883000
_diffrn_orient_matrix_UB_23      -0.0008493000
_diffrn_orient_matrix_UB_31      0.2050636000
_diffrn_orient_matrix_UB_32      0.0376472000
_diffrn_orient_matrix_UB_33      0.0400317000
_diffrn_radiation_monochromator  mirror
_diffrn_radiation_probe          x-ray
_diffrn_radiation_type           'Cu K\a'
_diffrn_radiation_wavelength     1.54184
_diffrn_reflns_av_R_equivalents  0.0180
_diffrn_reflns_av_unetI/netI     0.0148
_diffrn_reflns_Laue_measured_fraction_full 0.994
_diffrn_reflns_Laue_measured_fraction_max 0.992
_diffrn_reflns_limit_h_max       8
_diffrn_reflns_limit_h_min       -6
_diffrn_reflns_limit_k_max       10
_diffrn_reflns_limit_k_min       -9
_diffrn_reflns_limit_l_max       11
_diffrn_reflns_limit_l_min       -10
_diffrn_reflns_number            3680
_diffrn_reflns_point_group_measured_fraction_full 0.991
_diffrn_reflns_point_group_measured_fraction_max 0.989
_diffrn_reflns_theta_full        64.687
_diffrn_reflns_theta_max         64.687
_diffrn_reflns_theta_min         6.681
_diffrn_source                   'micro-focus sealed X-ray tube'
_diffrn_source_type              'SuperNova (Cu) X-ray Source'
_exptl_absorpt_coefficient_mu    4.768
_exptl_absorpt_correction_T_max  1.00000
_exptl_absorpt_correction_T_min  0.68754
_exptl_absorpt_correction_type   multi-scan
_exptl_absorpt_process_details
;
CrysAlisPro 1.171.40.67a (Rigaku Oxford Diffraction, 2019)
Empirical absorption correction using spherical harmonics,
 implemented in SCALE3 ABSPACK scaling algorithm.
;
_exptl_crystal_colour            colourless
_exptl_crystal_density_diffrn    1.650
_exptl_crystal_description       plate
_exptl_crystal_F_000             312
_exptl_crystal_size_max          0.50
_exptl_crystal_size_mid          0.20
_exptl_crystal_size_min          0.15
_refine_diff_density_max         0.129
_refine_diff_density_min         -0.222
_refine_diff_density_rms         0.029
_refine_ls_abs_structure_details
;
 Flack x determined using 378 quotients [(I+)-(I-)]/[(I+)+(I-)]
 (Parsons, Flack and Wagner, Acta Cryst. B69 (2013) 249-259).
;
_refine_ls_abs_structure_Flack   0.489(6)
_refine_ls_extinction_method     none
_refine_ls_goodness_of_fit_ref   1.098
_refine_ls_hydrogen_treatment    constr
_refine_ls_matrix_type           full
_refine_ls_number_parameters     91
_refine_ls_number_reflns         1046
_refine_ls_number_restraints     0
_refine_ls_restrained_S_all      1.098
_refine_ls_R_factor_all          0.0360
_refine_ls_R_factor_gt           0.0340
_refine_ls_shift/su_max          0.000
_refine_ls_shift/su_mean         0.000
_refine_ls_structure_factor_coef Fsqd
_refine_ls_weighting_details
'w=1/[\s^2^(Fo^2^)+(0.0448P)^2^+0.1954P] where P=(Fo^2^+2Fc^2^)/3'
_refine_ls_weighting_scheme      calc
_refine_ls_wR_factor_gt          0.0893
_refine_ls_wR_factor_ref         0.0913
_reflns_Friedel_coverage         0.642
_reflns_Friedel_fraction_full    0.986
_reflns_Friedel_fraction_max     0.983
_reflns_number_gt                997
_reflns_number_total             1046
_reflns_threshold_expression     'I > 2\s(I)'
_cod_data_source_file            lt5042.cif
_cod_data_source_block           C4H2N5Cl1@300K_phase_alpha
_cod_database_code               1565864
_shelx_shelxl_version_number     2018/3
_chemical_oxdiff_formula         C4H2N5Cl1
_shelx_space_group_comment
;
The symmetry employed for this shelxl refinement is uniquely defined
by the following loop, which should always be used as a source of
symmetry information in preference to the above space-group names.
They are only intended as comments.
;
_reflns_odcompleteness_completeness 99.24
_reflns_odcompleteness_iscentric 1
_reflns_odcompleteness_theta     64.59
_olex2_refinement_description
;
1. Fixed Uiso
 At 1.2 times of:
  All C(H) groups
2.a Aromatic/amide H refined with riding coordinates:
 C7(H7), C8(H8)
;
_shelx_res_file
;
TITL 1a_a.res in P2(1)2(1)2(1)
    1a.res
    created by SHELXL-2018/3 at 12:29:55 on 14-Jul-2020
REM Old TITL 1a in P2(1)2(1)2(1)
REM SHELXT solution in P2(1)2(1)2(1): R1 0.163, Rweak 0.070, Alpha 0.001
REM <I/s> 0.759 for 15 systematic absences, Orientation as input
REM Flack x = 0.487 ( 0.006 ) from 382 Parsons' quotients
REM Formula found by SHELXT: C8 N Cl
CELL 1.54184 7.0651 8.7859 10.0906 90 90 90
ZERR 4 0.0002 0.0002 0.0002 0 0 0
LATT -1
SYMM 0.5-X,-Y,0.5+Z
SYMM -X,0.5+Y,0.5-Z
SYMM 0.5+X,0.5-Y,-Z
SFAC C H N Cl
UNIT 16 8 20 4

L.S. 44
PLAN  10
CONF
BOND
list 4
MORE -1
BOND $H
fmap 2 53
ACTA
REM <olex2.extras>
REM <HklSrc "%.\\1a.hkl">
REM </olex2.extras>

WGHT    0.044800    0.195400
FVAR       1.31271
CL1   4    0.290482    0.334681    0.321249    11.00000    0.08490    0.04166 =
         0.10090   -0.00368    0.02382   -0.00180
N4    3    0.355648    0.748483    0.412253    11.00000    0.05819    0.04604 =
         0.04011   -0.00176   -0.00157   -0.00281
N5    3    0.365925    0.595270    0.418781    11.00000    0.06172    0.04635 =
         0.04941    0.00707    0.00124    0.00172
N3    3    0.427664    0.839631    0.506201    11.00000    0.08502    0.06754 =
         0.05310   -0.01050   -0.01078   -0.01350
N2    3    0.389269    0.977374    0.465694    11.00000    0.09739    0.05871 =
         0.07866   -0.02173    0.00532   -0.01400
N1    3    0.296971    0.980431    0.349406    11.00000    0.08360    0.04584 =
         0.07283   -0.00493    0.00799   -0.00220
C9    1    0.276468    0.834327    0.315573    11.00000    0.05820    0.04182 =
         0.04528    0.00387    0.00649    0.00189
C7    1    0.201422    0.604806    0.209045    11.00000    0.06744    0.06104 =
         0.04184   -0.00897   -0.00057   -0.00553
AFIX  43
H7    2    0.149172    0.548711    0.139977    11.00000   -1.20000
AFIX   0
C6    1    0.286907    0.530505    0.317670    11.00000    0.05529    0.04223 =
         0.05290   -0.00277    0.01099   -0.00034
C8    1    0.196545    0.757719    0.206767    11.00000    0.06632    0.06421 =
         0.04152    0.00798   -0.00305    0.00377
AFIX  43
H8    2    0.142695    0.810517    0.136344    11.00000   -1.20000
AFIX   0
HKLF 4




REM  1a_a.res in P2(1)2(1)2(1)
REM wR2 = 0.0913, GooF = S = 1.098, Restrained GooF = 1.098 for all data
REM R1 = 0.0340 for 997 Fo > 4sig(Fo) and 0.0360 for all 1046 data
REM 91 parameters refined using 0 restraints

END

WGHT      0.0448      0.1954

REM Highest difference peak  0.129,  deepest hole -0.222,  1-sigma level  0.029
Q1    1   0.3865  0.3574  0.3642  11.00000  0.05    0.13
Q2    1   0.2273  0.9432  0.3204  11.00000  0.05    0.10
Q3    1   0.2827  0.7820  0.3570  11.00000  0.05    0.10
Q4    1   0.2839  1.0483  0.3157  11.00000  0.05    0.10
Q5    1   0.2728  0.5663  0.2572  11.00000  0.05    0.10
Q6    1   0.1765  0.3767  0.4511  11.00000  0.05    0.09
Q7    1   0.2048  1.0376  0.1832  11.00000  0.05    0.09
Q8    1   0.3745  1.0618  0.5110  11.00000  0.05    0.08
Q9    1   0.3377  0.5555  0.3644  11.00000  0.05    0.08
Q10   1   0.3576  0.6778  0.4174  11.00000  0.05    0.08
;
_shelx_res_checksum              58102
_shelx_hkl_file
;
   0   0  -1    0.16    0.27
   0   0  -2 2334.39   14.47
   0   0  -3    0.30    0.90
   0   0  -4   44.63    3.06
   0   0  -5   -2.48    1.34
   0   0  -6 1506.76   22.56
   0   0   6 1488.35   15.20
   0   0   6 1524.02   15.63
   0   0  -7    1.18    0.69
   0   0   7    2.47    0.90
   0   0   7    1.26    1.05
   0   0  -8  747.86   19.62
   0   0   8  762.62   12.75
   0   0   8  768.11   13.31
   0   0   9    0.51    0.98
   0   0  10  244.63    7.86
   0   0  10  230.16    6.87
   0   0  11   -1.37    0.95
   0   1   0    1.21    0.42
   0   1   0    0.03    0.13
   0   1  -1 2174.89   10.81
   0  -1  -1 2165.56   12.05
   0  -1  -2   66.91    2.76
   0   1  -2   70.08    2.57
   0  -1  -3 5633.43   29.53
   0   1  -3 5671.00   27.80
   0   1  -4   20.69    2.17
   0  -1  -4   22.06    2.32
   0  -1  -5 1622.22   21.33
   0   1  -5 1613.60   20.40
   0   1   6    0.97    0.94
   0  -1  -6    1.96    1.44
   0   1  -6    1.17    0.73
   0  -1   6   -0.68    0.79
   0  -1   6    1.15    0.76
   0  -1   7   24.20    2.22
   0   1   7   22.87    2.24
   0  -1   7   21.93    2.30
   0   1   7   22.76    2.36
   0   1  -7   22.82    3.20
   0  -1  -7   23.11    3.34
   0  -1   8   33.77    2.94
   0   1   8   33.09    2.73
   0   1  -8   30.66    3.90
   0   1   8   35.85    3.03
   0  -1  -8   34.88    4.72
   0  -1   8   33.47    2.87
   0  -1   9   10.67    1.85
   0   1   9    7.06    1.58
   0  -1   9    9.48    1.81
   0   1   9   10.52    1.75
   0   1  10   97.26    5.01
   0  -1  10   94.96    4.52
   0  -1  10   98.44    4.96
   0  -1  11   49.65    3.23
   0   1  11   50.20    3.32
   0   2   0  246.59    5.20
   0   2   0  256.47    3.06
   0  -2  -1 1809.98   13.66
   0   2  -1 1801.93   14.48
   0   2  -2  497.84    7.56
   0   2  -2  484.75    8.49
   0  -2  -2  503.14    8.54
   0  -2  -3  473.67    9.40
   0   2  -3  475.09    8.64
   0   2  -4   10.98    1.74
   0  -2  -4   11.65    1.93
   0  -2  -5 1118.85   18.70
   0   2   5 1130.32   12.44
   0   2  -5 1079.37   17.05
   0  -2   5 1131.24   12.08
   0  -2   5 1109.93   12.55
   0   2   6   28.56    2.27
   0  -2   6   24.97    2.23
   0   2   6   27.56    2.29
   0   2  -6   23.76    3.05
   0  -2  -6   26.49    3.27
   0  -2   6   29.30    2.34
   0   2   7  438.50    9.81
   0   2  -7  422.31   13.49
   0  -2  -7  426.06   14.24
   0   2   7  441.76    9.38
   0  -2   7  431.14    9.38
   0  -2   7  434.21    9.26
   0   2   8   26.17    2.78
   0   2  -8   26.20    3.73
   0  -2   8   27.76    2.65
   0  -2   8   27.37    2.66
   0   2   8   28.10    2.60
   0  -2  -8   26.72    4.10
   0  -2   9    5.80    1.37
   0   2   9    5.33    1.66
   0  -2   9    6.72    1.53
   0  -2  10  101.24    4.82
   0   2  10  102.87    4.94
   0  -2  10   89.65    4.40
   0   2  11    3.10    0.97
   0  -2  11    3.24    0.85
   0   3   0   -0.02    0.87
   0   3   0    0.30    0.34
   0   3  -1  407.27    5.85
   0  -3  -1  397.64    7.66
   0   3  -1  407.46    8.43
   0  -3  -2 3086.72   23.85
   0   3  -2 2978.58   24.32
   0  -3  -3    3.58    1.18
   0   3  -3    4.11    1.27
   0   3   4   22.28    1.80
   0   3  -4   21.99    2.85
   0  -3   4   19.83    1.78
   0  -3  -4   20.29    2.53
   0   3   5  116.37    4.36
   0  -3  -5  104.56    6.21
   0   3  -5  118.34    6.01
   0  -3   5  119.07    4.12
   0   3  -5  116.34    6.58
   0  -3   5  116.09    4.39
   0  -3   6   11.81    1.58
   0   3   6   10.52    1.69
   0   3  -6   11.54    2.07
   0   3  -6   10.85    2.18
   0  -3   6   10.91    1.61
   0  -3  -6    7.71    2.17
   0   3   7   10.55    1.57
   0  -3   7    9.51    1.62
   0   3   7    9.81    1.86
   0   3   7   11.36    1.88
   0  -3   7   15.83    2.09
   0   3  -7   11.67    2.57
   0  -3  -7   11.61    2.79
   0   3   8  153.17    6.41
   0   3  -8  161.85    9.79
   0  -3   8  156.20    6.17
   0  -3  -8  153.41    9.61
   0  -3   8  155.94    5.97
   0   3   9    9.92    1.87
   0  -3   9   10.54    1.68
   0  -3   9   10.61    1.74
   0  -3  10    3.31    1.25
   0   3  10    1.91    1.15
   0  -3  10    2.44    1.17
   0   3  11   -0.45    0.71
   0   4   0    5.94    1.41
   0  -4  -1 4286.76   29.20
   0   4  -1 4387.61   32.77
   0  -4  -2  130.04    5.58
   0   4  -2  129.60    5.91
   0   4  -2  133.30    4.42
   0   4   3  245.89    5.87
   0  -4   3  244.08    5.93
   0   4  -3  255.91    8.83
   0  -4  -3  239.79    8.13
   0   4  -4  118.67    6.61
   0   4   4  120.06    4.15
   0  -4  -4  116.83    6.30
   0   4   4  123.11    4.47
   0  -4   4  124.26    4.60
   0  -4  -5  276.42   10.52
   0  -4   5  281.25    6.66
   0   4   5  297.89    6.82
   0  -4   5  281.25    7.38
   0   4  -5  289.18   11.01
   0   4   5  283.61    7.25
   0  -4   6   67.14    4.00
   0   4  -6   75.57    6.21
   0  -4   6   77.93    3.77
   0   4   6   74.35    4.06
   0  -4  -6   74.54    6.12
   0   4   7  179.72    6.91
   0  -4   7  173.30    6.55
   0   4  -7  169.40    9.76
   0  -4   7  179.86    6.15
   0   4   7  176.15    6.63
   0  -4  -7  191.40   10.21
   0  -4   8    0.81    1.10
   0  -4   8    1.76    1.10
   0   4   8    2.98    1.48
   0   4   9  219.96    7.46
   0  -4   9  232.10    7.38
   0   4  10    4.58    1.26
   0  -4  10    6.54    1.26
   0   5   0    1.72    0.83
   0  -5   0    0.12    0.84
   0   5   0    0.50    0.84
   0   5  -1  755.65   10.35
   0  -5   1  777.47   10.84
   0   5  -1  734.25   15.53
   0   5  -1  761.53   10.35
   0   5   1  767.59   10.67
   0  -5  -1  766.14   10.72
   0   5   1  747.50   10.66
   0   5  -2    8.71    1.36
   0  -5  -2    9.31    1.34
   0   5   2    8.73    1.29
   0   5  -2   10.96    2.17
   0  -5  -2    7.79    1.65
   0   5  -2    9.00    1.26
   0  -5   2   10.04    1.53
   0   5  -3 1095.37   20.38
   0  -5  -3 1126.43   19.17
   0  -5   3 1110.31   14.01
   0   5  -3 1073.87   13.00
   0   5   3 1064.19   13.50
   0   5  -4  720.01   17.37
   0   5  -4  761.68   11.31
   0   5   4  751.34   11.94
   0  -5  -4  753.19   16.91
   0   5   4  741.70   11.40
   0  -5   4  741.69   12.11
   0  -5  -5    5.67    1.87
   0   5   5    7.80    1.69
   0   5   5    6.95    1.25
   0  -5   5    6.19    1.53
   0  -5   6   63.81    4.05
   0   5  -6   57.44    5.53
   0   5   6   58.75    3.94
   0  -5  -6   53.47    5.26
   0   5   7    2.51    1.43
   0  -5   7    5.16    1.64
   0  -5   8    1.28    1.31
   0   5   8    2.26    1.18
   0  -5   9   62.77    3.68
   0   5   9   56.03    3.60
   0  -5  10    2.72    0.94
   0   5  10    0.39    0.77
   0  -6   0 1236.21   15.33
   0   6   0 1219.27   14.56
   0   6   0 1211.28   14.87
   0   6   1   35.79    2.61
   0   6   1   34.45    2.70
   0   6  -1   36.45    3.99
   0   6  -1   31.75    2.55
   0  -6  -1   30.70    2.52
   0  -6   1   34.95    2.75
   0   6  -1   31.45    2.50
   0  -6   2  249.90    7.18
   0   6  -2  243.09    6.49
   0   6  -2  224.01    9.96
   0   6  -2  243.01    6.68
   0   6   2  247.50    6.91
   0   6   3   32.61    2.75
   0   6  -3   32.28    3.95
   0  -6   3   32.30    2.80
   0   6  -3   36.19    2.67
   0  -6   4    2.30    1.22
   0   6  -4    3.69    2.06
   0   6  -4    1.05    0.87
   0   6   4    1.89    1.44
   0   6   4    1.32    1.17
   0   6  -5   17.18    1.90
   0   6   5   14.47    2.06
   0   6  -5   15.55    3.43
   0   6   5   13.75    2.28
   0  -6   5   13.73    2.21
   0  -6   6 1263.75   18.05
   0   6   6 1277.54   18.05
   0   6   7    0.27    1.10
   0  -6   7    1.97    1.28
   0  -6   8   18.77    2.26
   0   6   8   16.73    2.17
   0   6   9   -0.97    0.76
   0  -6   9    1.79    0.91
   0   7   0   -0.38    0.85
   0   7   0   -1.02    0.86
   0  -7   0   -0.44    1.16
   0  -7   1    5.72    1.42
   0   7   1    6.02    1.55
   0   7  -1    4.06    1.28
   0  -7  -1    6.16    1.48
   0   7  -1    5.52    1.38
   0   7  -2    3.19    1.26
   0   7   2    1.74    1.20
   0  -7   2    0.56    1.29
   0   7   3   32.72    2.91
   0  -7   3   33.50    3.12
   0   7  -3   36.66    2.84
   0   7  -3   35.92    4.66
   0   7   3   30.96    2.88
   0   7   4  108.92    5.21
   0   7   4  108.47    5.08
   0  -7   4  110.39    5.42
   0   7   5  278.64    7.93
   0  -7   5  265.84    8.25
   0   7   5  259.62    8.02
   0   7   6    8.74    1.81
   0  -7   6    2.20    1.23
   0   7   7    8.33    1.84
   0  -7   7    8.08    1.54
   0  -7   8   -0.05    0.67
   0   7   8   -0.32    0.62
   0  -7   8    1.18    0.59
   0   8   0    4.55    1.39
   0  -8   0    5.63    1.43
   0   8   1  617.66   11.37
   0   8  -1  610.80   11.73
   0  -8   1  596.00   12.29
   0  -8   2   26.81    2.78
   0   8   2   22.57    2.52
   0   8   2   23.73    2.50
   0   8  -2   22.76    2.41
   0   8   3    7.36    1.63
   0  -8   3    8.04    1.70
   0   8   3    8.50    1.60
   0  -8   4    0.74    0.94
   0   8   4   -0.78    0.86
   0   8   4    1.88    1.10
   0   8   5   21.99    2.26
   0  -8   5   23.54    2.56
   0   8   5   25.45    2.61
   0  -8   6   67.57    3.81
   0   8   6   66.56    3.75
   0   8   7   46.83    2.94
   0  -8   7   50.82    3.00
   0   9   0    1.56    0.91
   0  -9   1   51.86    3.50
   0   9   1   51.91    3.55
   0   9   1   46.70    2.99
   0   9   2  124.16    4.85
   0  -9   2  129.61    5.45
   0   9   2  133.29    5.45
   0  -9   3    3.63    1.25
   0   9   3    2.34    1.10
   0   9   3    1.88    0.93
   0   9   4  136.25    5.00
   0  -9   4  144.68    5.39
   0   9   4  135.61    4.94
   0   9   5    2.43    0.92
   0  -9   5    2.07    0.75
   0   9   5    1.08    0.74
   0  10   0  110.76    4.34
   0  10   1  109.04    4.32
   0  10  -1  109.99    4.19
   0  10   2   26.72    2.10
   0  10  -2   21.73    1.87
  -1   0   0   -0.02    0.22
   1   0   0    0.41    0.47
   1   0  -1 1510.60   10.50
   1   0   1 1514.54   10.45
  -1   0  -3 2102.63   16.91
   1   0  -3 2150.94   18.91
   1   0  -4  535.90   11.11
  -1   0  -4  505.60    9.88
  -1   0  -5    4.11    1.13
   1   0   5    4.11    1.08
  -1   0   5    3.59    1.03
   1   0  -5    3.48    1.63
   1   0   6    8.14    1.39
  -1   0  -6    7.53    1.58
   1   0  -6    9.43    1.87
  -1   0   6    8.25    1.26
  -1   0   6    6.98    1.36
   1   0   7   12.57    1.85
  -1   0  -7    9.47    1.95
   1   0  -7    9.82    2.45
  -1   0   7   10.39    1.74
  -1   0  -8  180.77    9.57
  -1   0   8  173.41    6.54
  -1   0   8  185.71    6.23
   1   0   8  179.50    6.77
   1   0  -8  191.86   10.47
   1   0   9   22.29    2.56
  -1   0   9   15.09    2.16
   1   0   9   19.27    2.51
  -1   0  10  386.16    9.48
  -1   0  10  389.94    9.48
   1   0  10  403.23   10.15
   1   0  11   25.06    2.46
  -1   0  11   21.58    2.20
   1  -1  11   17.70    1.93
  -1   1  11   16.06    1.91
   1  -1  10   43.08    3.21
  -1   1  10   40.72    3.19
   1  -1  10   41.49    3.39
  -1   1   9  119.48    5.24
   1  -1   9  136.25    6.05
  -1   1   9  124.97    5.67
   1   1  -8  296.89   12.91
  -1   1   8  301.08    8.08
   1  -1   8  315.44    8.85
  -1  -1  -8  311.48   12.79
  -1   1   8  301.29    8.65
   1  -1   7  237.96    6.56
   1  -1   7  237.07    7.05
  -1  -1  -7  233.34   10.11
  -1   1   7  244.52    6.77
   1  -1   7  249.26    7.36
   1   1  -7  249.56   10.81
  -1   1   7  245.14    7.41
   1  -1   6   28.22    2.34
  -1   1   6   28.36    2.15
  -1   1   6   31.02    2.12
  -1  -1  -6   26.91    3.18
   1   1  -6   26.87    3.35
  -1   1   6   30.53    2.52
   1  -1   6   26.74    2.23
   1  -1   6   27.74    2.12
  -1  -1  -5  519.42   12.03
   1  -1   5  550.94    8.84
  -1  -1  -4  185.18    6.35
   1   1  -4  173.87    6.44
  -1  -1  -3 1145.58   13.91
   1   1  -3 1121.93   14.20
   1   1  -2 2569.83   18.63
  -1  -1  -2 2594.73   18.23
   1   1  -1 1168.97    6.99
   1   1   0 1052.75    9.57
  -1   1   0 1041.34    8.92
   1  -1  -1 1161.93    8.67
  -1   1  -1 1178.33    5.58
  -1   1  -2 2529.87   13.47
   1  -1  -2 2564.35   17.25
  -1   1  -3 1085.73   11.45
   1  -1  -3 1146.55   14.11
   1  -1  -4  200.57    6.96
  -1   1  -4  189.52    5.74
   1  -1  -5  524.53   12.89
   1   1   5  549.28    8.90
  -1  -1   5  551.67    9.01
   1   1   6   26.26    2.40
   1  -1  -6   28.70    3.61
  -1  -1   6   28.83    2.43
  -1   1  -6   29.46    3.15
  -1   1  -7  251.10    9.94
   1   1   7  257.54    7.58
  -1  -1   7  251.78    7.38
   1  -1  -7  251.29   11.13
  -1  -1   8  302.92    8.63
   1   1   8  314.54    9.04
   1  -1  -8  302.65   13.15
  -1   1  -8  292.69   11.74
   1   1   9  129.18    6.01
  -1  -1   9  132.17    5.57
  -1  -1   9  129.11    5.84
   1   1  10   44.24    3.50
  -1  -1  10   43.60    3.32
  -1  -1  10   43.16    3.23
  -1  -1  11   15.31    1.84
  -1  -1  11   16.53    1.83
   1   1  11   16.49    2.02
  -1   2  11   12.69    1.65
   1  -2  11   13.71    1.69
  -1   2  10   26.54    2.62
   1  -2  10   27.95    2.69
  -1   2   9   30.46    3.02
   1  -2   9   28.04    2.87
  -1   2   9   26.14    2.58
   1  -2   8   53.98    3.75
  -1  -2  -8   53.04    5.33
  -1   2   8   54.15    3.86
   1  -2   8   54.89    3.55
  -1   2   8   58.94    3.73
   1   2  -8   48.45    5.15
  -1   2   7   77.83    3.91
   1  -2   7   74.18    4.11
   1   2  -7   73.74    6.05
  -1   2   7   81.59    4.49
  -1   2   7   78.47    4.08
   1  -2   7   77.83    3.90
  -1  -2  -7   70.91    6.02
  -1   2   6  511.04    9.29
   1   2  -6  507.77   14.39
  -1   2   6  512.59    9.02
   1  -2   6  489.87    9.54
  -1  -2  -6  496.21   14.03
   1  -2   6  497.13    9.21
   1  -2   5 2432.14   18.32
  -1  -2  -5 2426.52   27.68
  -1   2   5 2457.19   17.88
   1  -2   5 2369.50   18.68
   1   2  -5 2368.79   27.80
  -1  -2  -4  340.30    9.38
   1   2  -4  328.50    9.32
  -1  -2  -3 2797.19   24.54
   1   2  -3 2879.59   24.33
   1   2  -2   64.65    2.89
  -1  -2  -2   67.79    3.51
  -1   2   1 1194.92   12.88
   1   2  -1 1225.32   10.43
  -1   2   0 1124.50   12.14
   1  -2   0 1119.48    5.83
   1   2   1 1207.85   11.18
  -1   2  -1 1203.53   13.37
   1  -2  -1 1238.36    6.51
  -1   2  -2   74.77    2.32
  -1   2  -2   71.88    3.69
   1  -2  -2   68.75    3.14
   1  -2  -3 2842.89   23.69
  -1   2  -3 2863.18   18.26
   1  -2  -4  336.05    9.45
  -1   2  -4  321.07    7.48
   1  -2  -5 2503.70   28.75
   1   2   5 2400.55   19.23
  -1   2  -5 2558.73   24.30
   1   2   5 2392.58   17.68
  -1  -2   5 2465.33   19.54
  -1  -2   6  525.65    8.84
  -1  -2   6  489.67    9.66
  -1   2  -6  508.12   12.44
   1   2   6  518.16    8.95
   1   2   6  504.50   10.00
   1  -2  -6  518.67   14.80
   1   2   7   72.30    4.29
   1  -2  -7   82.31    6.63
  -1  -2   7   81.89    3.88
  -1   2  -7   75.08    5.62
  -1  -2   7   73.97    4.17
   1   2   8   54.70    3.96
  -1  -2   8   54.23    3.45
   1  -2  -8   50.74    5.41
  -1  -2   8   54.40    3.80
  -1  -2   9   30.24    2.78
   1   2   9   26.45    2.98
  -1  -2   9   26.97    2.82
  -1  -2  10   26.94    2.60
  -1  -2  10   27.67    2.39
   1   2  10   25.02    2.60
   1   2  10   26.78    2.71
  -1  -2  11   10.37    1.43
   1   2  11   10.91    1.64
   1  -3  11    9.37    1.41
   1  -3  10   16.27    2.01
   1  -3   9   36.21    3.11
   1  -3   9   35.44    2.80
  -1   3   9   36.37    3.11
  -1   3   9   34.19    2.89
  -1   3   8   40.67    3.29
   1  -3   8   42.43    3.23
   1  -3   8   42.61    3.30
  -1   3   8   36.47    3.22
  -1  -3  -7   60.03    5.74
  -1   3   7   59.25    3.65
   1  -3   7   57.86    3.57
   1  -3   7   60.15    3.77
   1   3  -7   60.92    5.52
  -1   3   7   60.72    3.75
   1   3  -6   83.41    5.84
  -1   3   6   90.16    4.10
  -1  -3  -6   83.71    6.16
   1  -3   6   84.70    4.13
   1  -3   6   88.40    4.12
   1   3  -5   42.31    3.79
  -1   3   5   37.70    2.57
   1  -3   5   42.94    2.70
   1  -3   5   39.09    2.60
  -1  -3  -5   41.22    3.99
   1  -3   4  199.20    5.20
   1   3  -4  198.15    7.12
  -1   3   4  208.24    5.28
  -1  -3  -4  206.69    7.95
   1  -3   4  203.44    5.33
  -1  -3  -3  245.35    8.07
   1   3  -3  235.71    6.95
   1   3  -2  305.44    7.51
  -1  -3  -2  301.68    8.23
   1   3  -2  313.51    7.21
   1   3  -1  166.07    4.94
   1   3  -1  160.50    5.00
  -1   3   1  172.76    6.04
  -1   3   0 2870.01   23.84
   1  -3   0 2851.72   14.54
  -1   3  -1  167.53    5.94
   1  -3  -1  158.22    4.30
   1   3   1  174.51    4.56
   1  -3  -2  299.96    3.59
   1  -3  -2  303.10    7.17
  -1   3  -3  239.12    8.27
   1  -3  -3  246.51    7.50
   1  -3  -4  201.72    7.75
   1   3   4  197.37    5.14
   1   3   4  200.97    5.40
  -1  -3   4  202.71    5.42
  -1   3  -4  190.59    8.07
   1  -3  -5   44.57    4.28
   1   3   5   43.37    2.86
   1   3   5   38.23    2.46
  -1  -3   5   45.41    2.92
  -1   3  -5   39.89    4.12
   1  -3  -6   95.01    6.62
  -1   3  -6   86.54    6.59
  -1  -3   6   87.33    4.33
   1   3   6   94.44    4.47
   1   3   6   85.56    3.92
   1   3   7   66.82    4.20
  -1  -3   7   58.82    3.89
   1  -3  -7   56.09    5.66
  -1   3  -7   53.94    5.75
  -1  -3   8   38.77    3.39
   1   3   8   36.21    3.36
   1   3   9   35.13    3.33
  -1  -3   9   36.60    3.21
   1   3  10   19.53    2.29
   1  -3 -10   22.67    2.46
   1   3  10   17.81    2.05
  -1  -3  10   17.61    2.20
  -1  -3  11    6.26    1.06
   1   3  11    8.24    1.33
   1  -4  10   11.67    1.80
   1  -4   9   67.18    3.74
  -1   4   9   68.20    3.87
  -1   4   9   67.95    3.97
   1  -4   8    5.23    1.31
  -1   4   8    2.58    1.47
  -1   4   8    5.04    1.63
  -1   4   8    2.17    0.96
   1  -4   7    6.38    1.56
  -1   4   7    4.70    1.34
  -1   4   7    9.04    1.72
   1  -4   7    5.78    1.51
  -1   4   6   60.89    3.66
  -1  -4  -6   55.89    5.44
   1  -4   6   58.15    3.64
   1   4  -6   57.80    5.11
   1  -4   6   61.56    3.67
   1   4  -5  395.99   11.98
  -1  -4  -5  389.02   12.73
  -1   4   5  393.47    8.46
   1  -4   5  392.09    8.67
  -1  -4  -4  246.24    9.50
  -1   4   4  246.68    6.38
   1   4  -4  246.40    8.66
   1  -4   4  246.93    6.47
   1   4  -3 1201.77   17.55
   1  -4   3 1210.77   13.39
  -1   4   3 1217.94   13.38
  -1   4   2   24.33    1.95
   1  -4   2   21.56    1.83
   1   4  -2   21.75    2.39
  -1  -4  -2   22.14    2.68
   1   4  -2   20.82    2.18
   1   4  -1  577.31   11.20
   1   4  -1  601.92   10.13
  -1   4   0  389.90   10.30
   1  -4   0  380.18    6.64
   1   4   0  401.28    7.46
  -1   4  -1  587.75   12.83
   1  -4  -1  554.96    9.22
   1   4   1  580.80    8.62
   1   4   2   24.99    1.94
   1  -4  -2   24.05    1.92
   1  -4  -2   22.57    2.34
  -1   4  -2   27.14    3.01
  -1  -4   3 1219.61   13.33
   1   4   3 1218.39   13.21
   1  -4  -3 1193.81   17.87
  -1   4  -3 1239.22   20.60
   1   4   3 1218.20   13.17
  -1  -4   4  257.88    6.64
   1   4   4  238.87    6.37
  -1   4  -4  241.96    9.87
   1   4   4  246.33    6.41
   1  -4  -4  242.64    9.07
   1  -4  -5  413.37   13.09
  -1  -4   5  384.75    8.79
  -1   4  -5  398.30   13.61
   1   4   5  383.58    8.35
   1   4   5  395.73    8.92
   1   4   6   59.99    3.50
   1  -4  -6   48.17    4.98
  -1   4  -6   55.18    5.50
   1   4   6   57.01    3.79
  -1  -4   6   58.03    3.76
   1   4   7    7.34    1.73
   1  -4  -7    7.70    2.76
  -1  -4   7    7.21    1.72
  -1   4  -7    4.29    1.76
   1   4   7   10.45    2.00
   1   4   8    4.35    1.50
  -1  -4   8    2.73    1.44
   1   4   9   68.05    4.33
  -1  -4   9   70.50    4.25
  -1  -4  10   10.85    1.67
   1   4  10    8.31    1.61
   1  -4 -10    8.96    1.78
   1  -5  10    0.63    0.75
   1  -5   9   23.22    2.25
  -1   5   9   26.82    2.31
  -1   5   8    2.14    1.23
   1  -5   8    1.55    1.12
  -1   5   8   -0.09    1.19
  -1   5   8    0.76    0.99
  -1   5   7  108.95    5.35
   1  -5   7   99.81    4.98
  -1   5   6   92.99    4.76
  -1  -5  -6   82.39    6.64
   1  -5   6   87.22    4.62
   1  -5   5   66.12    3.92
  -1  -5  -5   65.36    5.59
  -1   5   5   65.17    3.84
   1   5  -4    5.08    1.58
  -1   5   4    7.47    1.11
   1  -5   4    5.73    1.43
  -1   5   4    5.18    1.28
  -1  -5  -4    7.67    2.22
  -1  -5  -3   54.92    4.70
  -1   5   3   65.54    3.51
   1   5  -3   49.78    4.07
   1  -5   3   57.79    3.36
   1   5  -3   59.31    3.34
  -1  -5  -2  465.67   12.63
   1   5  -2  452.94    8.80
   1  -5   2  464.83    8.99
   1   5  -2  464.46   11.93
  -1   5   2  470.40    9.00
  -1  -5  -1 2686.84   19.21
   1   5  -1 2684.89   20.63
   1   5  -1 2624.22   27.74
  -1   5   1 2663.09   21.01
   1  -5   1 2629.58   20.93
  -1   5   0  395.79    8.11
  -1  -5   0  416.32    7.67
  -1   5   0  407.92    7.44
   1   5   0  395.04    7.95
   1  -5   0  409.67    8.17
  -1   5   0  428.64   12.38
   1   5   1 2688.37   19.39
   1   5   1 2651.85   20.75
  -1  -5   1 2637.96   19.73
   1  -5  -1 2691.34   21.08
  -1   5  -1 2609.75   30.88
  -1  -5   2  478.24    8.72
  -1   5  -2  491.45   13.78
   1   5   2  460.05    8.52
   1   5   2  461.34    9.01
  -1   5  -3   54.14    4.92
  -1  -5   3   60.94    3.37
   1   5   3   58.80    3.39
   1   5   3   57.76    3.24
   1   5   4    6.67    1.22
   1   5   4    8.55    1.60
   1  -5  -4   10.30    2.08
  -1  -5   4    6.74    1.41
  -1   5  -4    8.38    2.54
   1   5   5   71.30    3.92
   1  -5  -5   62.93    5.54
   1   5   5   69.55    4.13
  -1   5  -5   64.73    6.04
  -1  -5   5   63.87    3.93
   1   5   6   91.77    5.00
   1   5   6   91.90    4.66
  -1  -5   6   90.83    4.86
  -1   5  -6   94.18    7.43
   1   5   7   96.95    5.33
  -1  -5   7  105.56    5.40
  -1  -5   8    0.10    1.04
   1   5   8    0.78    1.18
   1   5   9   26.91    2.64
  -1  -5   9   23.92    2.38
   1   5  10    2.47    0.94
  -1  -5  10    2.69    0.86
   1   5  10    0.14    0.73
   1  -5 -10    1.78    1.05
   1  -6   9    8.99    1.47
   1  -6   8   56.40    3.46
   1  -6   8   54.75    3.74
  -1   6   8   54.40    3.39
  -1   6   8   56.22    3.67
  -1   6   7   93.50    4.92
   1  -6   7   90.96    4.77
   1   6  -7   90.84    4.50
  -1   6   6  265.19    8.17
   1  -6   6  257.38    8.12
   1   6  -6  267.84    7.85
   1   6  -5  143.34    5.83
   1  -6   5  141.79    6.04
  -1   6   5  140.12    5.85
  -1   6   4 2081.11   20.08
   1  -6   4 2064.54   22.20
  -1   6   4 2077.56   21.55
   1   6  -4 2012.40   21.21
   1   6  -3  148.33    7.72
  -1  -6  -3  168.00    8.65
  -1   6   3  174.52    6.17
   1   6  -3  170.55    6.06
   1  -6   3  168.76    6.27
  -1   6   2  865.85   13.32
   1  -6   2  859.09   13.73
  -1  -6  -2  866.63   18.83
   1   6  -2  821.18   17.96
   1   6  -2  860.09   13.27
  -1  -6  -1   80.99    5.63
  -1  -6  -1   79.36    3.74
   1   6  -1   80.01    4.04
  -1   6   1   75.02    4.02
   1  -6   1   76.94    4.12
   1  -6   0   14.74    1.99
   1   6   0   16.65    1.92
  -1  -6   0   17.41    1.82
  -1   6   0   14.85    1.80
  -1   6   0   16.20    1.96
   1   6   1   73.29    4.03
   1  -6  -1   74.67    4.04
  -1   6  -1   70.58    5.97
   1   6   1   82.03    3.88
  -1  -6   1   78.30    3.88
  -1   6  -1   78.51    4.05
   1   6   2  852.43   13.50
  -1  -6   2  878.82   13.15
   1   6   2  862.59   12.73
  -1   6  -2  868.42   20.44
  -1   6  -2  841.25   13.04
   1   6   2  853.43   13.51
  -1  -6   3  176.49    6.20
   1   6   3  168.28    6.15
   1   6   3  176.96    6.05
   1   6   4 2053.04   21.42
   1   6   4 2041.45   21.72
  -1  -6   4 2054.58   21.78
   1   6   5  135.77    5.94
   1   6   5  140.32    5.78
  -1   6  -5  127.75    8.82
  -1  -6   5  134.40    5.90
   1   6   6  276.01    8.55
  -1  -6   6  281.13    8.55
   1   6   6  276.97    8.08
  -1  -6   7   87.99    4.77
   1   6   7   92.76    4.97
   1   6   8   48.51    3.56
  -1  -6   8   55.35    3.59
   1   6   9    9.35    1.43
   1  -6  -9    7.31    1.60
  -1  -6   9   10.93    1.54
  -1   7   8   22.13    1.99
   1  -7   8   28.59    2.23
   1  -7   8   23.13    2.06
   1  -7   7    0.77    1.02
  -1   7   7   -0.72    0.98
  -1   7   7   -0.48    1.23
   1  -7   7    2.22    0.84
   1  -7   6   13.43    2.02
   1   7  -6   12.14    1.76
  -1   7   6   15.17    2.18
   1  -7   6   15.56    2.12
  -1   7   5    6.39    1.80
   1  -7   5    8.08    1.79
   1   7  -5    7.96    1.68
  -1   7   4    2.37    1.18
  -1   7   4    1.69    1.26
   1   7  -4    0.74    1.20
   1  -7   4    1.57    1.24
   1  -7   3   35.68    3.27
   1   7  -3   32.09    2.98
  -1   7   3   32.46    3.09
   1  -7   2  199.63    7.15
  -1   7   2  193.06    6.76
   1   7  -2  193.82    6.77
  -1  -7  -1  327.71    8.23
   1  -7   1  322.15    8.95
  -1   7   1  311.35    8.44
   1   7  -1  316.22    8.63
   1  -7   0    6.54    1.64
  -1   7   0    5.81    1.64
  -1  -7   0    4.75    1.42
   1   7   0    5.77    1.57
  -1  -7   1  334.76    8.56
   1  -7  -1  308.14    8.83
   1   7   1  317.17    8.78
   1   7   1  314.74    7.82
  -1   7  -1  313.80    8.41
   1   7   2  196.34    6.44
   1   7   2  196.79    6.96
  -1   7  -2  182.25    6.43
  -1   7  -2  185.16   10.29
  -1  -7   2  198.67    6.84
  -1   7  -3   30.36    2.80
   1   7   3   28.17    2.67
  -1  -7   3   27.55    2.79
  -1   7  -3   29.53    4.32
   1   7   3   28.52    2.81
  -1   7  -4    1.91    1.12
   1   7   4    2.99    1.41
  -1  -7   4    1.65    1.29
   1   7   4    2.98    1.22
  -1  -7   5    9.43    1.68
   1   7   5    7.97    1.71
   1   7   5    8.29    1.72
  -1  -7   6   16.90    2.24
   1   7   6   13.86    1.93
   1   7   6   14.95    2.21
   1   7   7    1.10    1.06
  -1  -7   7    1.41    1.05
   1   7   8   24.59    2.30
   1  -7  -8   27.63    2.60
  -1  -7   8   25.90    2.25
   1  -8   7    0.95    0.70
  -1   8   7    2.41    1.21
  -1   8   6   35.65    2.77
   1  -8   6   33.91    2.74
  -1   8   5   53.37    3.54
   1  -8   5   57.85    3.70
   1   8  -5   56.05    3.29
  -1   8   4  224.03    7.14
   1  -8   4  211.91    7.25
   1   8  -4  204.85    6.61
  -1   8   4  212.93    6.64
  -1   8   3  206.01    6.82
   1   8  -3  217.31    7.11
  -1   8   3  214.32    7.11
   1  -8   3  209.59    7.38
   1  -8   2   33.51    3.21
   1   8  -2   34.64    3.02
  -1   8   2   36.61    3.13
   1   8  -1  278.42    8.38
   1  -8   1  261.89    8.33
  -1   8   1  267.00    7.88
   1   8   0  211.70    7.36
   1  -8   0  213.38    7.57
   1   8   0  213.56    7.34
  -1   8   0  205.00    6.84
  -1  -8   0  212.17    6.89
   1   8   1  280.77    8.47
  -1  -8   1  264.47    7.81
  -1   8  -1  262.22    7.63
   1   8   2   34.24    3.19
  -1  -8   2   36.16    3.08
   1   8   2   33.27    2.84
  -1   8  -2   31.79    2.76
   1   8   3  220.54    7.50
   1   8   3  209.98    6.72
  -1  -8   3  211.77    7.11
  -1   8  -3  197.21    6.31
   1   8   4  215.62    6.87
  -1  -8   4  220.27    7.21
   1   8   4  216.73    7.22
   1   8   5   56.61    3.57
  -1  -8   5   57.35    3.71
   1   8   5   53.80    3.48
  -1  -8   6   35.45    2.80
   1   8   6   33.72    2.65
   1   8   6   32.98    2.49
   1   8   7    4.18    1.10
   1  -8  -7    2.70    1.21
  -1  -8   7    3.05    1.08
   1  -9   5   10.56    1.50
  -1   9   5    9.09    1.33
   1  -9   4   11.54    1.67
  -1   9   4   12.18    1.77
  -1   9   4   13.61    1.68
   1  -9   3   32.84    2.82
   1   9  -3   28.10    2.38
  -1   9   3   30.25    2.50
  -1   9   3   34.30    2.63
   1   9  -2   75.03    4.06
  -1   9   2   78.12    4.11
   1  -9   2   87.47    4.50
   1   9  -2   80.94    4.00
  -1   9   2   77.12    3.97
   1   9  -1   35.53    2.74
  -1   9   1   37.45    2.82
  -1   9   0  136.87    5.11
   1   9   0  146.00    5.74
   1   9   1   36.82    3.06
  -1  -9   1   36.48    2.81
  -1   9  -1   31.58    2.41
   1   9   2   83.34    4.39
  -1  -9   2   76.68    3.94
  -1  -9   3   31.50    2.62
   1   9   3   33.47    2.80
   1   9   4   15.08    1.91
  -1  -9   4   13.10    1.71
  -1  -9   5    9.03    1.35
   1   9   5   10.35    1.40
  -1  10   2   40.44    2.52
   1  10  -1   11.28    1.47
  -1  10   1   14.76    1.64
   1  10   0    2.93    0.82
  -1  10   0    2.44    0.98
   1  10   1   13.67    1.63
  -1  10  -1   13.63    1.67
  -1  10  -2   42.72    2.55
   1  10   2   41.88    2.65
   2   0  -2 9973.64   42.61
  -2   0  -2 9999.00   35.69
  -2   0  -3 1138.48   13.48
   2   0  -3 1140.46   15.84
  -2   0  -4  506.95   10.18
   2   0  -4  506.01   12.07
   2   0   5  328.51    6.73
  -2   0  -5  323.42    9.28
   2   0  -5  331.91    7.69
  -2   0   5  328.57    7.59
   2   0  -5  324.24   10.94
   2   0   5  332.49    7.22
   2   0   6  608.32   10.86
   2   0   6  587.55   10.59
  -2   0  -6  586.60   14.04
   2   0  -6  610.25   11.16
   2   0   6  601.28    9.66
   2   0  -6  621.80   16.82
  -2   0   6  566.67   10.98
   2   0   7   66.88    4.04
   2   0   7   63.12    3.33
   2   0   7   69.57    4.07
   2   0  -7   68.07    6.30
  -2   0  -7   65.61    5.28
  -2   0   7   70.83    4.28
   2   0   7   71.02    4.19
  -2   0  -8  698.34   18.52
  -2   0   8  682.05   13.78
   2   0   8  713.73   13.57
   2   0  -8  697.17   20.97
   2   0   8  709.85   13.22
   2   0   8  707.63   13.63
   2   0   9    0.13    1.03
  -2   0   9   -0.58    1.05
   2   0  10   41.60    3.36
  -2   0  10   43.45    3.10
  -2   0  10   46.69    3.51
  -2   0  11   61.02    3.37
   2   0  11   62.45    3.52
   2  -1  11   11.68    1.67
  -2   1  11    7.95    1.28
  -2   1  11    9.80    1.50
   2  -1  10   30.33    2.73
  -2   1  10   22.45    2.49
   2  -1  10   25.72    2.69
   2  -1   9   55.58    4.05
  -2   1   9   60.18    4.23
   2  -1   9   61.07    4.15
  -2  -1  -8   15.58    2.95
   2   1  -8   22.13    3.72
   2  -1   8   15.97    2.36
   2  -1   8   16.37    2.43
  -2   1   8   16.04    2.47
   2  -1   7   13.83    2.01
   2   1  -7   17.22    3.66
  -2  -1  -7   13.06    2.79
   2  -1   7   13.27    1.56
  -2   1   7   13.83    2.11
  -2   1   6  305.53    8.20
   2   1  -6  320.74   12.31
   2  -1   6  298.88    6.80
   2  -1   6  298.27    7.69
  -2  -1  -6  284.74   10.40
   2  -1   6  303.20    7.74
  -2  -1  -5  994.33   17.38
   2  -1   5 1022.84   11.74
   2   1  -5 1033.63   19.74
   2  -1   5 1021.81   12.88
   2  -1   5 1030.01   12.73
  -2  -1  -4   23.93    2.55
   2   1  -4   18.62    2.73
  -2  -1  -3  476.80   10.02
   2   1  -3  493.50   10.90
   2   1  -2 3186.09   25.60
   2   1  -1  566.21    9.99
   2  -1   1  588.03    8.41
  -2   1   0  326.22    5.80
   2   1   0  329.72    7.34
   2  -1   0  322.84    6.23
   2   1   1  560.07    9.48
  -2   1  -1  554.04    8.47
  -2   1  -1  570.63    5.61
   2  -1  -1  562.49    8.51
   2  -1  -2 3225.27   22.00
   2  -1  -2 3189.61   22.78
   2   1   2 3186.02   23.56
  -2   1  -2 3260.68   16.03
  -2   1  -3  487.01    7.70
   2  -1  -3  461.82    9.87
   2  -1  -4   24.49    2.91
  -2   1  -4   59.47    3.28
   2  -1  -5 1051.16   19.69
   2   1   5 1025.87   12.81
  -2  -1   5 1021.27   13.21
  -2   1  -5 1035.18   15.52
   2   1   5 1034.73   12.40
   2   1   6  306.40    7.88
   2   1   6  311.84    7.26
  -2   1  -6  318.09    9.91
  -2  -1   6  306.91    8.08
   2  -1  -6  313.45   12.03
   2   1   7   12.50    1.98
   2  -1  -7   16.40    2.40
   2   1   7   14.93    1.69
   2  -1  -7   11.26    2.51
  -2  -1   7   13.50    2.04
  -2   1  -7   16.10    2.55
   2   1   8   16.32    2.37
  -2  -1   8   16.15    2.41
   2  -1  -8   18.28    2.43
   2  -1  -8   19.50    3.62
   2   1   8   15.05    2.29
   2   1   9   57.19    4.08
  -2  -1   9   59.11    4.21
   2   1   9   51.89    3.87
   2   1  10   27.51    2.76
  -2  -1  10   25.81    2.79
  -2  -1  11   10.38    1.52
   2   1  11    8.73    1.49
  -2   2  11   18.48    1.81
   2  -2  10   11.64    2.10
   2  -2  10    9.69    1.67
  -2   2  10   12.68    1.89
   2  -2   9   24.50    2.93
  -2   2   9   20.90    2.65
   2  -2   9   25.19    2.85
   2  -2   8  162.80    6.63
  -2   2   8  169.65    7.07
  -2  -2  -7  226.86   10.69
   2  -2   7  226.52    7.35
  -2   2   7  235.22    8.00
   2  -2   6   19.27    1.79
  -2  -2  -6   14.08    2.48
   2  -2   6   15.89    1.93
  -2   2   5  317.24    6.47
   2  -2   5  327.01    6.81
   2  -2   5  309.55    7.32
   2  -2   4  545.27    8.20
  -2  -2  -4  574.66   13.21
   2  -2   4  572.54    8.99
   2   2  -3  132.10    6.26
   2   2  -3  141.63    4.15
   2   2  -2  143.92    5.93
   2   2  -2  144.17    3.21
   2   2  -1 1313.59   16.31
  -2   2   1 1387.98   15.02
   2   2   0  112.27    4.61
  -2   2   0  114.14    4.36
   2  -2   0  105.51    3.08
   2   2   1 1309.58   15.32
   2  -2  -1 1290.66   11.37
  -2   2  -1 1331.11   15.50
   2  -2  -1 1330.60   10.31
   2  -2  -2  151.32    4.74
  -2   2  -2  153.74    5.84
   2  -2  -2  143.32    4.36
   2   2   2  159.94    5.55
   2  -2  -3  137.62    5.61
   2  -2  -3  151.13    5.25
  -2   2  -3  149.78    6.33
   2  -2  -4  560.15   13.11
   2   2   4  559.96    8.89
  -2  -2   4  591.83    9.18
   2  -2  -4  560.66    8.59
   2  -2  -5  305.88   11.03
   2   2   5  330.14    7.58
   2   2   5  327.71    7.39
  -2  -2   5  325.68    7.60
   2  -2  -5  330.17    7.09
   2   2   6   14.68    2.00
   2   2   6   16.81    1.85
   2  -2  -6   17.97    3.14
  -2  -2   6   15.63    1.93
   2   2   7  230.21    7.60
   2   2   7  233.53    6.79
  -2  -2   7  230.04    7.59
   2  -2  -7  235.68   11.56
   2   2   8  169.47    6.85
   2  -2  -8  172.49    7.48
  -2  -2   8  164.69    6.73
   2   2   9   23.33    2.60
   2  -2  -9   22.76    2.78
  -2  -2   9   22.70    2.76
   2   2   9   20.44    2.53
   2   2  10   10.36    1.84
  -2  -2  10   11.59    1.87
   2   2  10   13.01    1.93
   2   2  11   17.92    1.85
  -2  -2  11   17.92    1.90
  -2   3  10   -0.29    0.81
   2  -3  10    3.64    1.32
   2  -3   9   31.93    3.49
   2  -3   9   26.04    2.78
  -2   3   9   29.30    2.98
   2  -3   8   16.57    2.32
  -2   3   8   15.52    2.38
  -2   3   7   66.49    3.69
  -2  -3  -7   71.52    6.47
   2  -3   7   63.47    4.05
   2   3  -7   75.08    7.02
   2  -3   6   43.80    3.05
  -2  -3  -6   46.06    4.82
  -2   3   6   45.17    2.90
   2  -3   6   45.07    3.28
   2  -3   5   14.12    1.64
   2   3  -5   15.64    2.75
  -2  -3  -5   13.09    2.72
  -2   3   5   13.78    1.63
   2  -3   5   14.57    1.89
   2  -3   4  239.58    6.24
   2   3  -4  268.24   10.12
   2  -3   4  236.56    6.05
  -2  -3  -4  264.34    9.87
  -2   3   4  239.43    5.82
  -2   3   3  410.58    7.32
   2   3  -3  419.00   11.50
  -2  -3  -3  419.31   11.53
   2   3  -2  504.47    7.85
   2   3  -2  489.12   11.37
  -2   3   1  619.00   12.00
   2   3  -1  622.07   11.96
  -2   3   0  258.23    7.76
   2   3   0  256.08    7.41
   2   3   1  638.88   11.32
  -2   3  -1  607.24   12.18
  -2   3  -2  495.57   11.69
   2   3   2  486.43   10.10
   2   3   3  410.98    7.71
  -2   3  -3  418.18   11.63
  -2  -3   3  401.25    7.22
   2   3   4  243.21    6.48
  -2   3  -4  244.32    9.73
   2   3   4  239.82    6.30
  -2  -3   4  257.73    6.38
   2  -3  -4  241.41    5.99
   2   3   5   12.77    1.89
  -2  -3   5   14.64    1.80
   2   3   5   14.83    1.76
  -2   3  -5   12.85    2.79
   2  -3  -5   15.89    2.82
   2  -3  -5   16.01    1.64
   2   3   6   46.36    3.40
   2   3   6   47.82    3.26
   2  -3  -6   46.00    4.95
  -2   3  -6   45.08    5.04
  -2  -3   6   43.90    3.29
   2  -3  -7   77.73    6.92
   2   3   7   69.28    4.36
   2   3   7   67.87    3.90
  -2   3  -7   66.05    6.32
  -2  -3   7   73.68    4.44
   2   3   8   14.67    2.30
  -2  -3   8   15.32    2.31
   2  -3  -8   19.10    3.02
   2   3   9   28.58    2.94
   2  -3  -9   28.87    3.33
   2   3   9   25.17    2.64
  -2  -3   9   32.02    3.07
   2   3  10    1.66    1.02
  -2  -3  10    1.60    1.03
   2   3  10    1.02    0.78
   2  -3 -10   -0.30    1.28
   2  -4  10   31.91    2.80
  -2   4   9   58.63    3.90
   2  -4   9   68.30    4.50
  -2   4   8   28.92    2.68
   2  -4   8   35.17    3.65
  -2   4   8   30.11    3.03
   2  -4   7  261.87    7.73
  -2   4   7  278.12    7.85
  -2   4   6    4.86    1.43
   2  -4   6    4.45    1.06
  -2  -4  -6    3.82    1.81
   2   4  -6    6.17    2.80
  -2  -4  -5  109.39    7.28
   2   4  -5  102.35    7.31
   2  -4   5  106.02    4.71
  -2   4   5  108.36    4.55
  -2  -4  -4  234.38   10.17
   2  -4   4  243.86    6.75
   2   4  -4  232.85    9.85
  -2   4   4  245.41    6.49
  -2  -4  -3  177.63    8.34
  -2   4   3  179.07    5.46
   2   4  -3  184.70    8.00
   2  -4   3  175.88    5.51
   2   4  -2  610.51   13.41
   2  -4   2  612.08    9.75
   2  -4   2  607.08    9.92
  -2   4   2  595.96    9.75
   2  -4   1 2065.25   17.53
   2   4  -1 2053.08   17.35
  -2   4   1 2016.98   17.74
   2  -4   0    2.94    0.99
   2   4   0    3.59    0.89
   2   4   0    4.96    1.13
   2   4   0    1.55    1.09
   2   4   0    3.04    1.07
  -2   4   0    6.31    1.78
   2   4   1 2103.23   21.34
   2  -4  -1 2063.90   17.53
   2   4   1 2071.20   17.20
  -2   4  -1 2029.40   25.59
   2   4   1 2063.07   17.76
   2   4   2  614.61    9.68
   2   4   2  625.88   10.10
  -2   4  -2  623.96   14.79
  -2  -4   2  599.76    8.91
   2   4   3  173.60    5.47
   2   4   3  182.29    5.76
   2   4   3  171.14    5.39
  -2   4  -3  176.58    8.28
  -2  -4   3  183.93    5.33
  -2   4  -4  251.05   10.74
   2   4   4  231.41    6.70
  -2  -4   4  243.41    6.65
   2   4   4  244.79    6.93
   2  -4  -4  230.47    6.22
  -2  -4   5  114.89    5.00
   2   4   5  106.89    4.84
  -2   4  -5  116.23    7.91
   2   4   5  113.00    5.13
   2  -4  -5  100.72    4.31
  -2  -4   6    2.74    1.23
   2   4   6    3.41    1.22
  -2   4  -6    1.85    2.05
   2   4   7  269.49    8.66
   2   4   7  264.39    7.91
  -2  -4   7  268.15    8.42
   2   4   8   31.10    3.12
   2  -4  -8   33.32    3.83
  -2  -4   8   33.17    3.19
   2   4   9   57.37    3.94
   2   4   9   62.57    3.64
   2  -4  -9   65.24    4.62
  -2  -4   9   59.57    3.92
   2   4  10   28.58    2.38
  -2  -4  10   34.34    2.63
   2  -4 -10   28.21    2.75
  -2   5   9    5.74    1.37
   2   5  -9    7.00    1.40
   2  -5   9    9.57    1.84
  -2   5   8   20.49    2.50
  -2   5   8   19.78    2.21
   2  -5   8   26.50    3.06
  -2   5   7   23.61    2.62
   2  -5   7   23.33    2.46
   2  -5   7   24.88    3.05
  -2   5   6   70.19    4.05
   2  -5   6   64.64    4.01
   2  -5   6   71.56    4.85
  -2  -5  -5  143.73    8.71
   2   5  -5  128.80    8.15
  -2   5   5  129.19    5.38
   2  -5   5  130.15    5.60
  -2  -5  -4  377.30   13.61
  -2   5   4  390.30    8.96
   2   5  -4  408.81   13.23
   2  -5   4  374.32    9.12
   2  -5   4  404.30    9.98
   2   5  -3  578.19   14.53
   2   5  -3  598.79   11.08
   2  -5   3  594.54   11.08
  -2  -5  -3  577.80   16.29
  -2   5   3  584.58   10.67
   2  -5   3  589.38   11.18
  -2  -5  -2   43.05    4.37
  -2   5   2   42.10    3.00
   2  -5   2   37.74    2.84
   2   5  -2   41.88    3.04
   2   5  -2   40.93    3.82
  -2   5   1  341.00    8.05
   2   5  -1  330.61    9.65
   2   5  -1  329.90    7.79
   2  -5   1  323.90    7.83
  -2   5   0  686.00   11.49
  -2   5   0  710.79   16.84
   2  -5   0  687.91   11.32
   2   5   0  696.89   11.22
   2   5   0  681.06   11.33
   2  -5  -1  325.84    7.97
   2   5   1  321.07    7.69
   2   5   1  331.89    8.05
  -2  -5   1  327.13    6.91
   2   5   2   38.20    2.68
   2   5   2   42.45    2.97
  -2   5  -2   38.31    4.20
   2   5   2   41.40    2.95
  -2  -5   2   42.08    2.67
  -2  -5   3  588.63   10.35
   2   5   3  588.35   11.34
   2   5   3  562.23   10.51
  -2   5  -3  611.56   17.16
   2   5   4  372.98    9.21
   2   5   4  367.36    9.05
  -2  -5   4  360.51    8.74
   2  -5  -4  385.96    8.41
  -2   5  -4  378.92   14.17
   2   5   5  134.38    5.87
   2   5   5  130.10    5.73
  -2  -5   5  129.45    5.59
  -2   5  -5  133.51    8.89
   2   5   6   69.36    4.30
  -2  -5   6   74.73    4.44
   2   5   7   25.33    2.89
   2   5   7   19.97    2.45
  -2  -5   7   26.31    2.88
   2   5   8   25.49    2.75
   2  -5  -8   26.87    3.32
  -2  -5   8   26.59    2.73
  -2  -5   9    6.74    1.51
   2   5   9    9.05    1.58
   2  -5  -9    8.40    1.95
   2  -6   9   32.87    2.54
  -2   6   8   67.39    3.63
   2   6  -8   72.06    3.78
   2  -6   8   74.54    4.27
  -2   6   8   70.06    3.97
  -2   6   7  170.88    6.22
   2  -6   7  163.77    6.12
   2   6  -7  175.44    6.40
   2  -6   7  189.42    7.15
   2  -6   6  256.91    8.50
   2  -6   6  240.25    7.77
   2   6  -6  244.22    7.85
  -2   6   6  264.11    7.91
   2  -6   5  249.59    8.00
   2   6  -5  276.42    8.33
   2  -6   5  273.31    8.58
  -2   6   5  260.78    7.94
  -2  -6  -4  129.76    8.43
  -2   6   4  131.28    5.63
   2  -6   4  126.51    5.78
   2   6  -4  136.16    5.86
   2  -6   4  143.96    5.98
  -2   6   3   40.01    3.24
   2  -6   3   40.05    3.31
   2   6  -3   34.80    3.12
  -2  -6  -3   36.90    4.56
  -2   6   2  466.04   10.22
   2  -6   2  440.89   10.25
   2   6  -2  460.07   10.26
  -2  -6  -2  456.77   14.79
  -2   6   1   18.48    2.30
   2  -6   1   18.56    2.26
   2   6  -1   19.99    2.31
   2   6  -1   16.01    2.07
   2  -6   0  524.37   11.02
   2   6   0  522.01   10.68
  -2   6   0  532.79   10.94
   2   6   0  528.22   11.06
   2   6   1   17.98    2.32
   2  -6  -1   18.66    2.35
   2   6   1   21.53    2.43
  -2  -6   1   23.10    2.16
  -2   6  -1   18.04    3.01
  -2   6  -1   21.03    2.35
  -2   6  -2  453.83   15.63
   2   6   2  471.13   10.38
  -2  -6   2  466.74    9.49
   2   6   2  474.42   10.75
   2   6   3   42.48    3.37
   2   6   3   38.54    3.13
  -2   6  -3   41.64    5.08
  -2  -6   3   36.33    2.89
   2   6   4  132.90    5.93
   2   6   4  125.18    5.58
  -2   6  -4  121.43    8.48
  -2  -6   4  129.86    5.51
   2   6   5  257.32    8.20
   2   6   5  246.00    8.01
  -2  -6   5  263.20    8.02
   2   6   6  257.19    8.07
  -2  -6   6  253.53    8.01
   2   6   7  167.65    6.63
  -2  -6   7  176.25    6.50
   2  -6  -7  182.82    7.88
   2   6   7  172.81    6.23
   2   6   8   70.99    4.07
   2  -6  -8   73.26    4.66
  -2  -6   8   77.97    4.09
   2   6   9   27.10    2.27
  -2  -6   9   35.37    2.46
   2  -6  -9   29.91    2.65
   2  -7   7   10.60    1.64
   2   7  -7   11.35    1.70
  -2   7   7   11.97    1.64
   2  -7   7   15.90    1.76
  -2   7   6   71.26    4.06
   2  -7   6   66.74    3.98
   2   7  -6   59.01    3.70
   2  -7   6   68.95    3.87
  -2   7   5   18.79    2.39
   2  -7   5   18.88    2.30
   2   7  -5   20.51    2.42
  -2   7   4  144.99    6.04
   2   7  -4  141.25    6.07
   2  -7   4  147.15    6.27
   2   7  -3   45.08    3.58
   2  -7   3   41.81    3.52
  -2   7   3   47.51    3.60
  -2   7   2   11.28    2.15
   2   7  -2   10.18    1.85
   2  -7   2   11.82    2.08
   2   7  -2   10.91    1.96
  -2  -7  -2    7.27    2.52
   2   7  -1   18.61    2.32
   2  -7   1   19.53    2.52
   2   7  -1   23.46    2.55
  -2  -7  -1   17.30    3.06
  -2   7   1   23.07    2.67
   2  -7   0   10.29    1.97
  -2   7   0   11.13    2.02
   2   7   0   14.00    2.17
   2   7   0   14.47    2.31
  -2  -7   0   11.15    2.35
   2   7   1   19.68    2.48
  -2   7  -1   15.79    2.27
  -2  -7   1   22.94    2.31
   2   7   1   21.95    2.58
  -2  -7   2   11.46    1.71
   2   7   2   13.36    2.38
  -2   7  -2    8.46    1.94
   2   7   3   44.82    3.36
   2   7   3   43.45    3.53
  -2   7  -3   41.70    3.38
  -2  -7   3   44.41    3.27
   2   7   4  144.80    5.88
   2   7   4  154.34    6.42
  -2   7  -4  138.65    5.88
   2  -7  -4  151.50    6.67
  -2  -7   4  139.69    5.69
   2   7   5   19.26    2.37
   2  -7  -5   21.38    2.72
   2   7   5   21.66    2.47
  -2  -7   5   21.90    2.50
  -2   7  -5   21.42    2.35
   2   7   6   66.25    3.90
   2  -7  -6   68.82    4.52
  -2  -7   6   71.54    4.12
   2   7   7   15.36    1.97
   2   7   7   10.32    1.52
   2  -7  -7   14.53    2.31
  -2  -7   7   12.76    1.78
  -2  -7   8    4.88    1.22
   2   7   8    5.14    1.25
   2  -7  -8    6.30    1.28
   2  -8   6    9.87    1.49
  -2   8   6    9.80    1.53
   2   8  -6    9.02    1.47
  -2   8   5   44.51    3.10
   2  -8   5   46.06    3.17
   2   8  -5   47.16    3.16
   2  -8   4    3.97    1.36
  -2   8   4    4.85    1.43
   2   8  -4    2.72    1.36
  -2   8   3   12.47    1.68
  -2   8   3   13.78    2.05
   2  -8   3   14.04    2.25
   2   8  -3   14.70    2.21
   2  -8   2  154.06    6.40
   2   8  -2  169.20    6.59
   2   8  -2  174.93    6.31
  -2   8   2  170.47    6.46
  -2   8   1  283.68    8.33
   2  -8   1  277.51    8.65
   2   8  -1  291.69    8.71
   2   8  -1  296.17    8.59
  -2   8   0    1.87    1.27
   2   8   0    2.40    1.22
   2   8   0    1.34    1.30
   2   8   1  291.76    8.82
  -2   8  -1  290.83    8.41
  -2   8  -2  162.22    6.24
  -2  -8   2  158.06    5.68
   2   8   2  172.79    6.80
  -2   8  -3   12.10    1.87
   2   8   3   14.22    2.24
  -2  -8   3   16.12    1.95
  -2  -8   4    5.64    1.22
   2   8   4    5.46    1.64
  -2   8  -4    3.04    1.01
  -2  -8   5   45.10    3.04
   2   8   5   46.21    3.25
  -2  -8   6   10.23    1.48
   2   8   6    9.37    1.47
   2   8   6   11.50    1.62
  -2   9   5   12.73    1.46
  -2   9   4   68.28    3.45
   2  -9   4   68.44    3.58
   2   9  -4   64.61    3.32
  -2   9   3   18.63    1.95
  -2   9   3   16.66    1.80
   2   9  -3   16.61    1.92
   2  -9   3   18.47    2.12
   2   9  -2   81.18    4.13
  -2   9   2   78.67    3.98
  -2   9   2   76.45    3.75
  -2   9   1   39.54    2.86
   2   9  -1   43.76    3.08
   2   9  -1   41.82    3.15
   2   9   0   41.07    3.06
  -2   9   0   29.78    2.58
  -2   9  -1   39.99    2.86
   2   9   1   38.58    3.12
  -2   9  -2   76.84    3.77
   2   9   2   85.46    4.36
   2   9   3   18.58    2.10
   2   9   4   70.93    3.62
   3   0   0   -0.03    0.91
   3   0   1 2065.26   21.33
  -3   0  -1 2072.59   14.95
  -3   0  -2  493.08    9.40
   3   0  -2  491.29   11.53
   3   0   2  498.03   10.88
   3   0   3 1495.58   13.67
  -3   0  -3 1501.74   17.62
   3   0   3 1453.46   13.85
   3   0  -3 1452.11   21.96
   3   0  -3 1474.46   13.64
   3   0  -3 1483.68   13.80
   3   0   4 2290.06   17.98
   3   0   4 2295.17   18.79
   3   0   4 2347.06   18.91
   3   0  -4 2326.50   21.60
   3   0  -4 2314.95   30.90
   3   0   4 2348.75   20.81
  -3   0   4 2344.52   19.72
   3   0   5  229.82    6.38
   3   0   5  227.41    6.32
   3   0   5  243.25    6.81
   3   0  -5  232.44    7.28
   3   0  -5  205.69   10.27
  -3   0  -5  239.70    8.35
   3   0  -5  237.52   10.62
   3   0   5  225.63    7.06
  -3   0   5  237.67    6.95
   3   0   6    7.20    1.65
  -3   0   6    7.53    1.75
   3   0  -6    5.14    1.61
   3   0   6    5.47    1.34
   3   0   6    5.62    1.46
   3   0  -6    5.92    2.38
  -3   0  -6    6.67    1.64
   3   0  -6    4.45    2.46
   3   0   6    5.54    1.35
   3   0   7   88.12    4.80
   3   0   7   77.59    4.10
   3   0  -7   74.43    7.38
   3   0  -7   98.37    8.17
   3   0   7   78.74    4.65
  -3   0   7   86.03    4.95
   3   0  -7   85.18    4.97
   3   0   7   81.71    4.56
   3   0   8  142.94    5.44
   3   0   8  131.70    6.05
   3   0   8  125.24    5.78
  -3   0   8  146.52    6.51
   3   0   9   25.93    2.73
  -3   0   9   27.37    2.99
   3   0  10   27.91    2.72
  -3   0  10   29.11    2.78
  -3   0  11   68.02    3.27
  -3   1  10   10.03    1.80
   3  -1  10   12.43    1.89
  -3   1   9    4.43    1.57
   3  -1   9    5.12    1.66
   3  -1   9    3.38    1.51
   3  -1   8  231.34    6.89
   3  -1   8  227.63    8.31
   3  -1   8  233.80    8.07
  -3   1   8  223.90    8.15
   3  -1   7   59.97    3.60
   3   1  -7   58.32    6.90
  -3  -1  -7   70.28    5.67
   3  -1   7   68.55    4.36
   3  -1   7   66.04    4.67
  -3   1   7   72.63    4.61
   3  -1   6  183.82    6.45
   3  -1   6  163.69    6.98
   3   1  -6  165.56   10.40
  -3  -1  -6  169.92    8.33
   3  -1   6  168.65    5.76
  -3   1   6  160.19    6.45
   3  -1   5   37.05    2.76
   3  -1   5   36.15    2.61
   3   1  -5   36.08    4.46
   3  -1   5   37.58    3.36
  -3  -1  -5   36.10    3.64
   3  -1   4  599.64    9.57
  -3  -1  -4  610.74   13.69
   3  -1   4  606.82    9.85
   3   1  -4  594.07   16.34
   3  -1   4  608.75   11.51
   3  -1   3  386.69    8.38
   3   1  -3  403.95   12.17
   3  -1   3  390.54    7.16
   3   1  -3  395.80    7.30
  -3  -1  -3  392.34   10.22
   3   1  -2  286.45    9.41
   3   1  -1  140.35    6.21
   3  -1   1  131.79    5.13
   3  -1   0  844.30   12.94
  -3   1   0  866.69   10.41
   3   1   1  138.36    5.86
   3  -1  -1  131.95    5.30
  -3   1  -1  134.76    4.68
   3  -1  -2  288.92    8.30
  -3   1  -2  284.38    7.71
  -3   1  -2  290.21    5.66
   3   1   2  277.65    8.42
   3   1   3  395.84    7.60
   3   1   3  386.85    7.16
   3  -1  -3  397.12    8.88
   3  -1  -3  390.06   10.40
   3  -1  -3  375.26   10.55
   3  -1  -3  383.93    7.27
   3   1   4  590.28    9.30
   3  -1  -4  611.24   11.89
   3   1   4  590.08    9.90
   3   1   4  606.92    9.45
   3  -1  -4  602.52   15.04
   3   1   4  600.17    9.58
   3  -1  -4  611.62    9.38
   3   1   4  584.84    9.70
   3  -1  -4  599.54   14.86
   3  -1  -4  610.81    9.73
  -3  -1   4  601.81    9.83
   3   1   5   36.66    2.67
   3   1   5   36.12    2.70
   3  -1  -5   34.87    3.24
   3   1   5   36.39    2.70
   3  -1  -5   34.16    4.29
   3   1   5   34.00    2.63
   3  -1  -5   31.20    4.26
  -3  -1   5   33.20    2.64
   3   1   6  172.33    6.14
   3   1   6  173.35    6.28
   3  -1  -6  172.17    7.15
   3  -1  -6  155.66    9.60
   3   1   6  172.53    6.03
   3   1   6  165.52    5.84
   3  -1  -6  174.33   10.17
  -3  -1   6  167.50    6.30
   3   1   7   65.35    4.15
   3  -1  -7   67.91    4.73
   3  -1  -7   59.85    6.29
   3   1   7   71.06    4.43
   3   1   7   63.27    3.78
   3  -1  -7   63.33    6.63
  -3  -1   7   66.48    4.34
   3   1   8  219.02    6.87
   3   1   8  236.31    8.03
   3  -1  -8  236.02    8.53
  -3  -1   8  216.02    7.79
   3   1   8  229.88    7.82
   3   1   9    3.86    1.60
  -3  -1   9    4.45    1.56
  -3  -1  10   10.09    1.73
   3   1  10   11.23    1.71
  -3   2  10    3.16    1.19
   3  -2  10    2.10    0.94
   3  -2   9   37.60    3.25
   3  -2   9   37.46    3.44
  -3   2   9   35.80    3.19
   3  -2   8   39.13    3.36
   3  -2   8   37.66    3.79
  -3   2   8   43.56    3.82
   3  -2   7  167.41    6.71
  -3  -2  -7  172.08    9.55
   3  -2   7  163.92    7.61
  -3   2   7  175.54    7.18
   3  -2   6  355.09    8.38
   3  -2   6  351.82    9.14
  -3  -2  -6  353.12   12.92
  -3  -2  -5   40.99    4.29
   3  -2   5   49.28    3.08
   3  -2   5   49.09    3.25
   3   2  -5   54.46    5.47
   3  -2   5   39.11    3.63
   3  -2   4   23.88    2.07
   3   2  -4   24.21    3.57
   3  -2   4   20.75    2.42
   3  -2   4   22.43    2.08
  -3  -2  -3 1781.02   24.44
   3  -2   3 1830.23   15.89
   3   2  -3 1794.01   26.40
   3  -2   3 1751.43   18.97
   3  -2   2  796.17   11.66
   3  -2   2  777.98    9.73
   3   2  -2  802.30    9.99
   3   2  -1   72.41    4.75
   3   2   0  600.01   12.98
  -3   2   0  606.27   10.90
   3  -2   0  605.43    9.84
   3   2   1   74.84    4.60
   3  -2  -1   72.33    3.63
  -3   2  -1   75.63    4.16
   3  -2  -2  765.07   12.38
   3   2   2  793.26   10.57
   3   2   2  795.01   10.38
   3  -2  -2  785.00   12.33
   3   2   2  785.62    9.97
  -3   2  -2  801.48   14.35
   3   2   2  790.33   14.64
   3   2   3 1787.14   16.04
   3  -2  -3 1831.20   20.30
   3   2   3 1834.87   17.00
   3  -2  -3 1732.11   20.86
   3  -2  -3 1808.85   21.84
  -3   2  -3 1779.47   23.52
  -3  -2   3 1767.07   15.17
   3  -2  -3 1789.64   16.29
   3   2   4   23.01    2.07
   3   2   4   25.79    2.25
   3  -2  -4   24.85    2.84
   3  -2  -4   27.33    2.10
   3  -2  -4   24.17    2.91
  -3   2  -4   24.19    3.12
   3  -2  -4   20.18    2.77
   3   2   4   24.53    2.08
  -3  -2   4   27.89    2.24
   3  -2  -4   24.06    2.11
   3   2   5   48.41    3.20
   3   2   5   51.98    3.05
   3   2   5   46.57    3.05
   3   2   5   48.10    3.26
   3  -2  -5   53.09    4.80
  -3   2  -5   45.54    4.66
   3  -2  -5   43.21    4.56
  -3  -2   5   46.42    3.09
   3  -2  -5   46.03    3.06
   3  -2  -5   41.14    3.89
   3   2   6  343.68    8.91
   3   2   6  342.73    8.74
   3   2   6  347.75    8.84
   3  -2  -6  368.57   11.32
  -3   2  -6  353.08   13.63
   3  -2  -6  327.35   13.68
  -3  -2   6  362.22    9.21
   3   2   7  173.64    6.74
   3   2   7  173.57    6.66
   3  -2  -7  182.83    8.14
   3   2   7  171.93    6.35
   3  -2  -7  175.94   11.09
  -3   2  -7  179.18   10.52
  -3  -2   7  175.15    6.84
   3   2   8   37.62    3.41
   3   2   8   38.87    3.04
   3   2   8   39.31    3.40
   3  -2  -8   38.94    3.89
  -3  -2   8   43.33    3.64
   3   2   9   34.99    3.05
   3  -2  -9   38.19    3.58
  -3  -2   9   41.49    3.39
   3   2   9   38.55    3.24
  -3  -2  10    0.78    0.96
   3   2  10    2.43    0.94
  -3   3  10    3.70    1.10
   3  -3  10    0.96    1.26
  -3   3   9    7.59    1.73
   3  -3   9    7.26    1.92
   3  -3   8   21.71    3.00
  -3   3   8   18.42    2.69
   3  -3   7   12.29    2.33
   3   3  -6  135.85    9.70
   3  -3   6  108.99    6.27
  -3  -3  -6  127.54    8.30
  -3  -3  -5   80.70    6.31
   3  -3   5   70.32    4.89
   3   3  -5   82.79    6.96
  -3   3   4    8.83    1.38
  -3  -3  -4    8.18    1.94
   3   3  -4   11.28    2.64
   3  -3   4    7.92    1.76
  -3  -3  -3  163.25    8.19
  -3   3   3  171.93    5.07
   3   3  -3  173.49    8.64
   3   3  -3  172.10    5.27
   3  -3   3  175.56    6.42
   3   3  -2   65.54    5.05
   3   3  -2   64.23    3.15
  -3   3   2   65.24    3.19
   3  -3   2   70.06    3.69
   3   3  -1  462.71   12.33
   3   3  -1  478.01    8.28
   3  -3   1  492.01    8.95
   3   3   0  377.64   10.85
   3   3   0  381.36    7.38
  -3   3   0  401.87   10.37
   3   3   1  474.20   11.79
   3   3   1  488.85    8.36
  -3   3  -1  497.89   11.96
   3  -3  -1  493.26    9.55
   3   3   1  504.33    8.80
   3   3   2   67.07    3.43
   3   3   2   66.21    3.31
  -3   3  -2   69.18    4.73
   3   3   2   69.34    3.16
   3  -3  -2   65.95    3.95
   3   3   2   66.82    4.57
   3   3   3  171.51    5.27
   3   3   3  169.70    5.66
   3  -3  -3  157.94    6.57
  -3   3  -3  170.03    7.97
  -3  -3   3  177.35    5.06
  -3  -3   4   10.16    1.50
   3   3   4   10.74    1.50
   3  -3  -4   11.49    2.39
   3   3   4    9.09    1.55
  -3   3  -4    6.49    2.08
   3  -3  -4    9.55    1.49
   3   3   5   82.48    4.24
   3   3   5   81.27    4.35
   3   3   5   79.30    3.70
  -3   3  -5   77.26    6.34
  -3  -3   5   81.52    4.16
   3  -3  -5   82.31    4.09
   3  -3  -5   71.56    5.27
   3   3   6  127.48    5.62
   3  -3  -6  117.97    6.91
  -3   3  -6  123.60    8.48
  -3  -3   6  128.85    5.62
   3   3   6  125.65    5.57
   3   3   7   12.67    2.20
   3   3   7   13.47    1.93
   3  -3  -7   12.79    2.62
   3   3   7   10.15    1.82
  -3  -3   7   14.73    2.01
   3   3   8   19.67    2.55
   3   3   8   22.08    2.32
   3  -3  -8   23.71    3.36
   3   3   8   20.39    2.31
  -3  -3   8   20.11    2.54
   3   3   9    7.61    1.69
  -3  -3   9    8.28    1.68
   3  -3  -9    8.84    2.16
   3   3   9    7.29    1.31
   3   3  10    2.55    1.09
  -3  -3  10    2.48    1.01
   3  -4  10   -0.81    0.91
   3  -4   9   39.22    3.39
  -3   4   9   36.51    3.03
   3  -4   8   73.70    5.08
  -3   4   8   68.69    4.43
   3  -4   7   18.06    3.03
   3   4  -6   96.07    8.19
  -3   4   6   87.14    4.19
   3  -4   6   89.40    5.86
  -3  -4  -6   90.95    7.25
  -3  -4  -5  223.30   11.04
  -3   4   5  198.58    6.15
   3   4  -5  203.89   10.88
   3  -4   5  190.44    7.97
  -3   4   4   86.34    4.04
   3   4  -4   85.84    6.64
  -3  -4  -4   87.05    6.74
   3   4  -4   94.70    4.08
   3  -4   4   88.40    4.33
   3  -4   4   90.82    5.16
  -3  -4  -3  606.10   16.96
   3   4  -3  601.20   16.25
  -3   4   3  585.55   10.25
   3   4  -3  605.20   10.03
   3  -4   3  568.62   10.59
   3  -4   3  586.67   11.97
  -3   4   2  129.42    4.87
   3   4  -2  129.43    7.19
   3   4  -2  136.43    4.74
   3  -4   2  132.68    5.03
   3  -4   2  136.73    5.33
   3   4  -1   19.13    2.62
  -3   4   1   17.16    1.91
   3   4  -1   17.71    1.78
   3  -4   1   17.82    1.90
   3   4  -1   18.45    1.92
   3   4  -1   16.55    1.77
   3  -4   1   21.01    2.01
   3   4   0  348.93   10.90
   3   4   0  343.75    7.97
   3   4   0  349.12    7.49
   3  -4   0  347.22    7.89
  -3   4   0  341.99   11.03
   3   4   0  339.14    7.49
   3   4   1   18.38    2.49
   3   4   1   19.78    1.97
   3   4   1   14.83    1.89
   3  -4  -1   18.27    2.18
  -3   4  -1   17.65    2.66
   3   4   1   19.12    1.92
   3   4   2  138.53    5.38
   3  -4  -2  132.71    5.75
   3   4   2  133.26    4.79
  -3   4  -2  130.95    7.27
   3   4   2  134.84    6.66
   3   4   3  577.26    9.93
   3   4   3  603.14   11.64
  -3   4  -3  592.95   16.14
  -3  -4   3  587.65    9.78
   3   4   4   86.21    3.84
   3   4   4   95.11    4.86
   3  -4  -4   74.08    5.26
  -3   4  -4   88.39    6.61
  -3  -4   4   91.95    4.25
   3  -4  -4   90.19    4.33
   3   4   5  204.89    7.20
  -3   4  -5  204.74   10.71
  -3  -4   5  193.94    6.54
   3  -4  -5  203.82    6.66
   3   4   6   81.01    4.69
   3   4   6   83.02    4.79
   3  -4  -6   82.59    6.07
  -3   4  -6   78.49    7.31
  -3  -4   6   84.96    4.62
   3  -4  -6   93.13    4.56
   3   4   7   16.26    2.38
   3   4   7   15.52    2.13
   3  -4  -7   16.51    2.98
  -3  -4   7   19.82    2.50
   3   4   8   65.65    4.20
   3   4   8   68.46    3.92
   3  -4  -8   64.40    5.00
  -3  -4   8   70.23    4.25
   3   4   9   37.45    2.96
   3  -4  -9   36.31    3.47
  -3  -4   9   37.78    2.98
   3   4  10   -0.41    0.61
  -3  -4  10   -2.35    0.77
   3   5  -9   13.30    1.68
   3  -5   9   12.40    1.84
  -3   5   9   14.79    1.79
  -3   5   8    7.79    1.65
   3  -5   8    9.98    1.85
  -3   5   7   61.45    3.59
   3  -5   7   64.79    4.71
  -3   5   6    8.96    1.78
   3  -5   6   11.31    2.34
  -3   5   5   85.39    4.43
   3   5  -5   77.70    6.75
   3  -5   5   86.61    4.62
   3  -5   5   85.46    5.28
  -3  -5  -4   93.32    7.35
   3   5  -4   72.32    6.16
   3  -5   4   73.03    4.26
   3  -5   4   87.59    5.09
  -3   5   4   82.37    4.24
   3   5  -3  148.16    8.36
   3  -5   3  146.13    5.98
   3   5  -3  149.16    5.92
  -3   5   3  145.09    5.56
  -3  -5  -3  142.07    8.84
   3  -5   3  144.70    6.08
  -3  -5  -2  793.28   20.16
   3   5  -2  778.17   11.62
   3  -5   2  746.40   13.07
   3   5  -2  775.05   13.01
  -3   5   2  771.73   12.84
   3  -5   2  792.14   12.95
   3   5  -2  762.96   17.83
   3   5  -1  335.69   11.29
   3   5  -1  343.10    7.87
   3  -5   1  315.93    8.36
   3   5  -1  333.70    8.32
  -3   5   1  327.92    8.38
   3   5   0  128.51    6.74
  -3   5   0  115.16    5.09
  -3   5   0  114.61    7.18
   3  -5   0  112.62    5.06
   3   5   0  116.70    4.91
   3   5   0  104.87    4.98
   3   5   1  307.35    8.63
  -3   5  -1  322.83   12.13
   3   5   1  332.40    8.21
   3   5   1  326.52   10.44
   3   5   2  781.59   13.87
   3   5   2  736.71   11.81
   3   5   2  763.98   12.56
  -3   5  -2  734.79   19.00
   3  -5  -2  773.04   14.16
   3   5   3  141.98    5.12
   3   5   3  146.22    6.22
   3  -5  -3  144.86    6.84
  -3   5  -3  136.84    8.60
  -3  -5   3  145.76    5.15
   3   5   4   86.43    4.91
   3  -5  -4   77.19    5.48
  -3   5  -4   80.40    6.81
  -3  -5   4   83.13    4.20
   3  -5  -4   78.14    4.23
   3  -5  -5   77.99    5.75
   3   5   5   89.18    5.04
  -3  -5   5   82.96    4.43
   3  -5  -5   87.87    4.50
  -3  -5   6    8.64    1.84
   3   5   6    8.50    1.85
   3  -5  -6   11.92    2.83
   3   5   6   12.22    1.98
   3  -5  -6    8.20    1.66
   3   5   7   63.79    4.26
   3   5   7   62.73    4.05
   3  -5  -7   64.52    5.20
  -3  -5   7   60.02    3.92
  -3  -5   8   10.29    1.72
   3   5   8    9.01    1.59
   3  -5  -8    5.86    1.94
   3   5   8   11.68    1.78
   3   5   9   12.35    1.71
   3  -5  -9   14.87    2.16
  -3  -5   9   13.94    1.70
  -3   6   8    8.47    1.40
   3   6  -8    8.71    1.53
   3  -6   8    6.85    1.43
  -3   6   7  193.63    6.00
   3   6  -7  197.63    6.61
   3  -6   7  203.07    7.14
  -3   6   6   75.10    4.09
   3   6  -6   82.39    4.65
   3  -6   6   85.68    4.93
  -3   6   5  156.00    5.97
   3  -6   5  158.53    6.27
   3   6  -5  173.38    6.72
   3  -6   5  171.41    6.91
  -3   6   4  355.91    9.10
   3  -6   4  371.55    9.76
   3   6  -4  379.97   10.00
   3  -6   4  381.03    9.98
  -3   6   3  199.85    7.01
   3  -6   3  197.20    7.25
  -3  -6  -3  193.11   10.84
   3   6  -3  205.29    7.36
  -3  -6  -2  668.28   19.51
  -3   6   2  645.46   12.51
   3  -6   2  652.60   12.99
   3   6  -2  655.88   12.71
  -3   6   1  462.78   10.76
   3  -6   1  435.98   10.65
   3   6  -1  448.35   10.45
  -3   6   0    2.59    1.44
   3   6   0    1.02    1.06
   3   6   0    1.75    1.39
   3   6   1  454.64   11.25
  -3   6  -1  470.91   11.03
  -3   6  -1  431.33   15.49
   3   6   1  438.71   10.26
   3   6   2  654.76   13.56
  -3   6  -2  649.51   19.25
   3   6   2  646.77   12.53
   3   6   3  199.65    7.55
   3  -6  -3  189.35    7.63
  -3   6  -3  201.91   11.12
   3   6   4  365.21   10.19
   3  -6  -4  368.11   11.26
  -3  -6   4  358.28    8.67
   3  -6  -4  366.37    8.96
   3   6   5  169.65    6.88
   3  -6  -5  167.70    7.84
  -3  -6   5  165.05    6.05
   3  -6  -5  154.64    5.65
   3   6   6   77.74    4.49
   3   6   6   81.27    4.66
   3  -6  -6   77.49    5.34
  -3  -6   6   75.07    4.14
   3   6   7  195.98    6.66
   3   6   7  194.29    6.46
   3  -6  -7  214.59    8.30
  -3  -6   7  201.16    6.33
  -3  -6   8    8.17    1.36
   3   6   8    6.17    1.47
   3  -6  -8    6.96    1.65
   3   6   8    7.18    1.14
  -3   7   7   10.87    1.47
   3   7  -7   13.16    1.68
  -3   7   6   16.16    1.95
   3   7  -6   15.63    2.12
   3  -7   6   16.95    1.88
  -3   7   5   19.94    2.20
   3  -7   5   19.51    2.38
   3   7  -5   22.00    2.42
   3  -7   4   10.32    1.77
   3   7  -4    8.06    1.84
  -3   7   4    9.67    1.88
  -3   7   3   62.90    4.06
   3  -7   3   65.36    4.27
   3   7  -3   68.36    4.37
  -3   7   2  127.64    5.82
   3  -7   2  129.38    5.97
   3   7  -2  126.91    5.78
  -3   7   1   15.72    2.42
   3  -7   1   14.47    2.27
   3   7  -1   13.60    2.35
   3   7  -1   16.94    2.36
  -3   7   0  111.81    5.62
   3   7   0  105.15    5.36
   3   7   0  105.49    5.58
  -3   7  -1   14.52    2.45
   3   7   1   15.35    2.37
   3   7   1   16.65    2.49
   3   7   2  139.02    6.42
  -3   7  -2  124.63    5.93
  -3   7  -3   67.48    4.44
   3   7   3   67.81    4.54
  -3  -7   4    9.61    1.67
  -3   7  -4    9.40    1.90
   3  -7  -4    9.02    1.74
   3   7   4    9.21    1.79
   3  -7  -4    6.12    1.38
   3  -7  -5   20.61    2.49
  -3   7  -5   20.49    2.42
  -3  -7   5   19.98    2.09
   3   7   5   20.18    2.59
   3   7   6   15.35    1.92
  -3   7  -6   15.77    1.90
   3  -7  -6   14.74    2.23
  -3  -7   6   16.62    2.02
   3   7   6   17.87    2.10
   3   7   7   11.70    1.65
   3   7   7   13.44    1.50
   3  -7  -7   10.29    1.73
  -3  -7   7   11.69    1.44
  -3   8   5   27.14    2.24
   3   8  -5   23.37    2.15
  -3   8   4   34.45    2.76
   3  -8   4   31.96    2.74
   3   8  -4   33.60    2.89
  -3   8   3  204.51    6.67
   3  -8   3  200.83    6.93
   3   8  -3  217.16    7.08
   3   8  -2   49.93    3.63
  -3   8   2   48.13    3.42
   3   8  -1   22.60    2.45
  -3   8   1   26.96    2.71
   3   8  -1   18.19    2.39
  -3   8   0  196.98    6.99
   3   8   0  196.17    7.11
   3   8   0  201.70    7.13
  -3   8  -1   21.93    2.61
   3   8   1   24.22    2.60
  -3   8  -2   50.21    3.56
   3   8   2   48.11    3.63
   3   8   3  221.59    7.45
  -3   8  -3  201.01    6.74
  -3   8  -4   29.89    2.66
   3   8   4   37.44    3.04
   3   8   5   21.00    2.01
   3   8   5   26.86    2.44
  -3   8  -5   25.24    2.14
  -3   9   3   30.60    2.26
   3   9  -3   32.03    2.53
  -3   9   2   25.53    2.36
  -3   9   2   22.53    1.86
   3   9  -2   22.83    2.25
  -3   9   1   17.16    1.89
   3   9  -1   17.44    2.02
  -3   9   0   83.80    3.93
   3   9   0   89.97    4.12
   3   9   1   18.19    2.15
  -3   9  -1   12.93    1.85
  -3   9  -2   21.88    2.09
   3   9   2   22.84    2.28
  -3   9  -3   32.59    2.28
   3   9   3   34.34    2.60
   4   0   0   10.91    1.70
   4   0   0    8.40    1.91
   4   0   1  491.45   12.38
   4   0  -1  510.44   13.22
   4   0   1  497.58    8.04
   4   0   1  512.12    8.59
   4   0  -1  485.88    8.17
   4   0   1  520.54    9.56
   4   0  -1  509.12    9.70
   4   0   1  494.10    8.25
   4   0  -1  496.93    8.98
   4   0   1  497.31    9.35
   4   0  -1  504.69    8.12
   4   0   2 2128.24   17.77
   4   0  -2 2116.26   28.07
   4   0   2 2130.97   17.99
   4   0  -2 2118.21   20.59
   4   0   2 2068.59   16.64
   4   0  -2 2127.65   18.49
   4   0   2 2104.50   20.23
   4   0  -2 2126.88   17.57
   4   0   2 2202.38   27.09
  -4   0  -2 2051.24   22.12
   4   0   3 3930.04   25.77
   4   0   3 3956.54   25.69
   4   0  -3 3910.92   41.13
   4   0  -3 3853.01   29.30
   4   0  -3 3925.40   25.98
   4   0   3 3863.88   28.91
   4   0  -3 3928.64   25.49
  -4   0   3 3874.69   24.82
   4   0   4   26.64    2.47
   4   0   4   27.44    2.46
   4   0   4   30.72    2.61
   4   0  -4   25.83    3.75
   4   0  -4   27.67    2.52
   4   0   4   24.15    2.71
  -4   0   4   27.50    2.37
   4   0   5  260.76    7.50
   4   0   5  261.63    7.65
   4   0  -5  246.53   12.46
   4   0   5  268.52    8.48
  -4   0   5  257.63    7.76
   4   0   6  448.53   10.20
   4   0   6  447.67   10.62
   4   0   6  450.23   11.34
  -4   0   6  466.62   10.97
   4   0   7  100.61    4.98
   4   0   7  106.04    5.43
   4   0  -7  105.67    5.34
   4   0   7   93.53    5.32
  -4   0   7  110.20    5.52
   4   0   8   63.79    3.88
   4   0   8   62.96    4.18
   4   0   8   63.11    4.15
  -4   0   8   61.30    4.18
   4   0   9   43.07    3.20
  -4   0   9   45.28    3.43
  -4   0  10    5.48    1.22
  -4   1  10   13.24    1.65
  -4   1   9    6.01    1.49
   4  -1   9    5.61    1.42
   4  -1   8   11.59    2.18
   4  -1   8   16.23    2.51
  -4   1   8   17.78    2.56
   4  -1   7  104.71    5.00
   4  -1   7  104.29    5.44
   4  -1   7   96.53    5.74
  -4   1   7  109.47    5.72
   4  -1   6  242.15    7.41
   4   1  -6  240.45    7.52
   4   1  -6  218.08   13.07
   4  -1   6  247.75    8.10
   4  -1   6  248.06    9.06
  -4   1   6  245.65    8.21
  -4   1   5    8.68    1.75
   4   1  -5    1.99    1.19
   4  -1   5    3.66    1.21
   4  -1   5    5.76    1.38
  -4  -1  -5    6.43    2.13
   4   1  -5    5.74    2.37
   4  -1   5    3.04    1.73
   4  -1   4  148.88    5.38
  -4  -1  -4  152.71    7.43
   4   1  -4  136.28    8.93
   4   1  -4  139.53    5.61
   4  -1   4  143.70    6.32
   4  -1   3   15.53    1.86
   4   1  -3   17.81    2.12
  -4  -1  -3   19.70    2.85
   4   1  -3   16.73    1.97
   4   1  -3   17.55    3.33
   4  -1   3   15.92    2.28
   4  -1   2  197.03    5.46
   4   1  -2  191.25    9.08
   4  -1   2  202.43    5.48
   4   1  -2  197.34    6.18
   4   1  -2  197.40    5.76
   4  -1   2  204.40    6.70
   4  -1   1  391.13    7.19
   4  -1   1  397.86    7.28
   4  -1   1  398.05    8.34
   4   1  -1  404.87    8.56
   4   1  -1  392.17    7.80
   4  -1   1  395.69    8.71
   4   1  -1  385.38   12.11
   4  -1   1  420.54   10.91
   4  -1   0  977.50   16.69
   4   1   0  984.44   18.45
   4  -1   0  938.24   10.79
   4   1   0  957.95   13.04
   4  -1   0  957.58   13.13
   4   1   0  934.77   12.08
   4   1   0  955.40   12.32
   4  -1   0  931.80   12.76
   4   1   1  411.02   11.83
   4  -1  -1  397.80   10.95
   4   1   1  404.06    7.60
   4   1   1  393.60    7.90
   4  -1  -1  405.82    8.97
   4   1   1  391.03    7.71
   4  -1  -1  406.43    8.27
   4   1   1  389.88    8.11
   4  -1  -2  189.35    7.96
   4   1   2  196.91    5.78
   4   1   2  200.92    5.75
   4   1   2  199.31    5.48
   4   1   2  190.82    5.85
   4   1   2  205.19    8.51
   4  -1  -2  202.26    5.72
   4   1   3   17.10    2.07
   4   1   3   17.33    1.92
   4  -1  -3   15.78    2.75
   4  -1  -3   16.55    1.86
   4   1   3   15.88    2.05
  -4   1  -3   18.67    2.38
   4  -1  -3   16.10    1.99
   4   1   4  151.77    5.65
   4   1   4  142.94    5.27
   4  -1  -4  148.56    8.34
   4  -1  -4  150.45    6.74
   4  -1  -4  152.56    5.33
   4   1   4  147.69    5.64
  -4   1  -4  156.20    7.79
   4  -1  -4  139.31    5.34
  -4  -1   4  149.10    5.24
   4   1   5    5.56    1.39
  -4  -1   5    6.42    1.45
   4   1   5    4.40    1.43
   4  -1  -5    7.26    2.62
   4  -1  -5    3.81    1.57
   4   1   5    4.00    1.27
  -4   1  -5    4.90    1.65
   4   1   6  247.30    7.68
   4   1   6  250.09    7.86
   4  -1  -6  237.64   12.33
   4  -1  -6  263.61    9.64
   4   1   6  233.56    7.58
  -4   1  -6  254.93   11.76
  -4  -1   6  249.64    7.79
   4   1   6  252.25    7.55
   4   1   7  102.06    5.05
  -4  -1   7  102.74    5.29
   4   1   7   88.59    4.82
   4   1   7   99.81    4.99
   4   1   8   12.20    1.74
   4   1   8   13.64    2.24
  -4  -1   8   14.28    2.18
  -4  -1   9    6.96    1.72
   4   1   9    6.08    1.08
   4   1   9    6.67    1.29
  -4  -1  10   12.26    1.67
  -4   2  10    9.86    1.40
   4  -2   9   33.92    3.12
  -4   2   9   34.20    2.92
   4  -2   8   46.71    4.15
  -4   2   8   55.77    4.06
   4  -2   7   66.17    5.17
  -4   2   7   76.64    4.88
  -4   2   6   22.19    2.86
   4  -2   6   22.05    2.44
  -4  -2  -6   20.54    3.29
   4   2  -6   19.92    4.67
   4  -2   6   19.53    3.07
   4  -2   5    7.72    1.56
  -4  -2  -5   10.32    2.67
   4   2  -5    3.81    2.87
   4  -2   5    8.55    2.26
   4  -2   4  252.69    7.10
  -4  -2  -4  248.99   10.56
   4   2  -4  272.19   12.77
   4   2  -4  244.84    6.98
   4  -2   4  240.63    8.65
   4  -2   3   36.59    2.70
   4   2  -3   36.68    2.80
   4   2  -3   31.14    4.32
   4   2  -3   40.57    2.92
   4  -2   3   37.86    3.35
  -4  -2  -3   46.31    4.51
   4  -2   2  197.82    5.63
   4   2  -2  203.27    9.62
   4   2  -2  192.55    6.02
   4   2  -2  193.09    6.00
   4   2  -2  203.40    5.85
   4  -2   2  197.60    6.86
   4  -2   1  375.58    7.28
   4   2  -1  377.02   12.50
   4  -2   1  365.36    8.06
   4   2  -1  363.78    8.00
   4   2  -1  370.96    7.61
   4  -2   1  370.13    8.78
   4   2   0   19.89    2.75
   4   2   0   23.28    1.96
   4  -2   0   17.20    2.04
   4   2   0   18.68    2.02
   4   2   0   15.99    1.76
   4  -2   0   20.01    2.05
   4  -2   0   19.41    2.31
   4   2   1  355.47   11.59
   4  -2  -1  368.63    9.66
   4   2   1  395.09    8.22
   4   2   1  379.36    8.27
   4  -2  -1  363.95    8.84
   4   2   1  380.17    8.02
   4   2   1  352.94    7.47
   4  -2  -1  363.39    8.02
   4  -2  -2  183.08    7.27
   4   2   2  210.55    6.36
   4   2   2  202.36    5.85
  -4   2  -2  201.22    7.73
   4  -2  -2  189.91    5.64
   4   2   2  184.15    5.50
   4   2   2  198.50    6.05
   4   2   2  189.02    8.54
   4   2   3   36.87    2.92
   4   2   3   33.88    2.70
   4  -2  -3   34.25    3.47
   4  -2  -3   37.65    2.70
  -4   2  -3   38.10    3.87
   4   2   3   35.62    2.55
   4  -2  -3   30.22    2.64
   4   2   4  252.60    7.63
   4   2   4  240.46    6.87
   4  -2  -4  254.72    6.78
  -4   2  -4  247.98   10.32
   4  -2  -4  245.83    9.16
  -4  -2   4  252.56    6.71
   4  -2  -4  243.69    7.15
   4   2   5   10.53    1.52
  -4  -2   5    9.22    1.45
   4   2   5    8.33    1.66
   4  -2  -5   11.21    2.40
   4   2   5    5.40    1.61
  -4   2  -5    6.66    1.93
   4  -2  -5    9.61    1.73
   4   2   6   23.32    2.55
   4  -2  -6   23.97    3.30
  -4  -2   6   24.01    2.52
  -4   2  -6   30.39    4.20
   4   2   6   24.46    2.70
   4   2   7   76.13    4.41
   4   2   7   74.80    4.40
   4  -2  -7   71.26    5.48
  -4  -2   7   79.03    4.58
   4   2   8   51.95    3.48
  -4  -2   8   56.83    3.82
   4   2   8   50.96    3.60
   4   2   9   33.89    2.45
  -4  -2   9   34.41    2.85
  -4  -2  10   10.65    1.49
  -4   3   9   -0.93    0.85
   4  -3   9    5.52    1.42
  -4   3   8    5.90    1.69
   4  -3   8    6.57    1.97
  -4   3   7    3.06    1.32
   4  -3   7    2.27    1.89
   4   3  -6   13.28    1.97
   4  -3   6   14.66    2.81
  -4  -3  -5  133.64    8.53
   4   3  -5  146.69   10.21
   4   3  -5  123.41    5.29
   4   3  -4   92.67    7.63
  -4  -3  -4   93.77    7.16
   4   3  -4   93.47    4.59
   4  -3   4   89.67    5.63
   4   3  -3   36.79    4.57
   4   3  -3   39.35    3.04
   4  -3   3   37.20    3.40
  -4  -3  -3   38.02    4.45
   4   3  -2   39.33    4.43
  -4   3   2   41.26    2.77
   4   3  -2   40.54    2.96
   4  -3   2   42.57    3.46
   4   3  -1  195.03    9.31
  -4   3   1  210.51    6.00
   4  -3   1  209.21    6.12
   4   3  -1  200.37    6.18
   4   3  -1  201.78    5.78
   4   3  -1  205.92    5.73
   4  -3   1  201.59    6.70
   4  -3   0    3.68    1.36
   4   3   0    4.88    1.18
   4   3   0    3.35    1.00
   4   3   0    3.42    1.68
   4   3   0    2.41    0.93
   4   3   0    3.09    0.94
  -4   3   0    4.28    1.54
   4  -3   0    2.49    1.15
   4   3   1  220.31    9.48
   4   3   1  215.34    6.56
   4   3   1  218.84    6.42
  -4   3  -1  226.02    8.62
   4   3   1  195.92    5.34
   4  -3  -1  198.90    6.04
   4   3   2   43.44    3.14
   4   3   2   38.61    2.92
   4  -3  -2   38.57    3.46
   4   3   2   41.75    2.97
  -4   3  -2   44.38    3.98
   4  -3  -2   42.48    2.71
   4   3   2   40.77    4.11
   4   3   3   37.31    3.16
   4   3   3   33.00    2.70
   4  -3  -3   37.46    3.74
  -4   3  -3   42.69    4.45
   4  -3  -3   29.49    2.77
   4   3   4   93.67    5.01
   4   3   4   97.42    4.54
   4  -3  -4   85.06    5.83
  -4   3  -4   85.73    6.52
  -4  -3   4   86.21    3.99
   4  -3  -4   88.55    4.59
   4   3   5  122.06    5.36
   4   3   5  135.54    6.03
   4   3   5  127.95    5.22
   4  -3  -5  109.63    6.90
  -4   3  -5  132.64    8.44
  -4  -3   5  126.89    5.21
   4  -3  -5  132.72    5.68
   4   3   6   16.71    2.25
   4   3   6   17.85    2.42
   4  -3  -6   15.89    2.88
  -4  -3   6   18.33    2.22
   4   3   7    3.23    1.40
  -4  -3   7    3.80    1.36
   4  -3  -7    2.04    2.13
   4   3   7    3.51    1.41
   4   3   8    4.78    1.24
  -4  -3   8    5.26    1.26
   4   3   8    5.92    1.38
   4  -3  -8    5.41    2.16
  -4  -3   9    2.20    0.84
   4   3   9    2.87    0.75
   4  -4   9   11.03    2.01
  -4   4   9   11.60    1.60
  -4   4   8   10.76    1.86
   4  -4   8   11.63    2.20
  -4   4   7   87.00    5.09
   4  -4   7   93.37    5.74
   4  -4   6   77.82    5.51
   4   4  -5   11.91    1.85
   4  -4   5   10.81    2.35
   4   4  -4  255.89   12.61
  -4  -4  -4  259.61   12.41
   4   4  -4  246.39    7.25
   4  -4   4  252.79    9.23
  -4   4   3  124.29    4.89
   4   4  -3  122.50    8.51
   4   4  -3  117.93    5.09
   4  -4   3  131.84    6.28
  -4  -4  -3  134.33    8.65
  -4   4   2  349.98    8.35
   4   4  -2  376.82    8.87
   4   4  -2  368.14   13.74
   4   4  -2  352.65    8.58
   4  -4   2  367.94    9.85
   4   4  -1  213.15   10.09
  -4   4   1  227.43    6.87
   4   4  -1  232.55    6.94
   4   4  -1  219.96    6.56
   4  -4   1  226.92    7.24
   4   4   0   83.98    6.06
   4   4   0   81.64    4.31
   4  -4   0   88.33    4.41
   4   4   0   89.59    4.33
   4   4   0   74.30    3.79
   4   4   1  236.20    7.54
   4   4   1  242.72    7.16
  -4   4  -1  227.33    9.72
   4   4   1  221.22    6.33
   4   4   1  226.36    9.73
   4   4   2  373.90    9.77
   4   4   2  353.91    8.73
   4  -4  -2  365.94   10.58
   4   4   2  360.72    8.13
  -4   4  -2  344.50   12.50
   4   4   3  129.71    5.96
   4   4   3  119.25    5.11
   4  -4  -3  113.57    6.43
  -4   4  -3  125.08    7.97
   4   4   4  260.69    8.60
   4   4   4  247.00    7.15
  -4   4  -4  231.73   11.19
   4  -4  -4  250.48    7.79
   4   4   5   11.30    1.84
   4   4   5   14.98    2.46
   4   4   5    9.59    1.70
   4  -4  -5    7.20    2.55
  -4  -4   5   12.60    1.80
   4  -4  -5    9.69    1.91
   4   4   6   81.71    4.56
   4   4   6   77.01    4.66
   4  -4  -6   67.09    5.70
  -4  -4   6   78.89    4.25
   4   4   7   90.27    4.66
   4   4   7   91.14    4.79
   4  -4  -7   98.83    6.46
  -4  -4   7   95.88    4.65
   4   4   8    9.74    1.59
  -4  -4   8   10.71    1.55
   4   4   8   12.01    1.71
   4  -4  -8   11.63    2.34
  -4  -4   9   11.09    1.43
  -4   5   8    6.64    1.42
   4   5  -8    3.42    1.19
   4  -5   8    5.91    1.44
   4   5  -7   17.41    2.16
   4  -5   7   16.53    2.65
   4   5  -6   91.65    4.87
   4  -5   6   97.59    5.73
  -4   5   5   82.71    4.05
   4   5  -5   76.71    4.53
   4  -5   5   88.37    5.47
  -4   5   4   38.74    3.04
   4   5  -4   38.75    2.89
   4   5  -4   38.49    3.35
   4  -5   4   33.02    3.41
   4   5  -3   88.63    7.15
  -4   5   3   91.60    4.55
   4   5  -3   92.14    4.45
   4   5  -3   90.97    4.89
  -4  -5  -3   87.60    7.54
   4  -5   3   94.55    5.37
   4   5  -2   64.42    6.01
  -4   5   2   72.49    4.12
  -4  -5  -2   74.23    6.90
   4   5  -2   75.40    4.08
   4   5  -2   70.58    4.26
   4  -5   2   74.19    4.51
   4   5  -1   99.07    6.84
  -4   5   1   97.13    4.85
   4   5  -1  106.26    4.98
   4   5  -1   89.96    4.58
   4  -5   1   95.31    4.63
   4   5   0  410.74   13.54
  -4   5   0  432.69   10.28
   4   5   0  433.80    9.73
   4   5   1   88.47    5.16
   4  -5  -1   99.17    4.98
  -4   5  -1   88.30    6.55
   4   5   1   96.54    4.67
   4   5   1   95.00    6.56
   4   5   2   70.23    4.67
   4   5   2   67.38    4.03
  -4   5  -2   78.83    6.38
   4   5   2   69.37    3.98
   4   5   3  102.03    5.61
   4   5   3   91.18    4.50
   4  -5  -3   90.86    5.79
  -4   5  -3   92.55    7.29
   4   5   4   39.23    2.84
   4   5   4   45.21    3.94
   4  -5  -4   34.08    3.94
   4  -5  -4   39.27    3.27
   4   5   5   77.64    4.41
   4  -5  -5   73.78    5.72
   4  -5  -5   76.22    4.26
   4   5   6   97.35    4.83
   4   5   6  103.75    5.28
   4  -5  -6   97.22    6.40
  -4  -5   6   97.97    4.53
   4   5   7   15.04    1.93
   4  -5  -7   15.60    2.77
  -4  -5   7   16.88    1.98
   4   5   7   16.15    2.04
  -4  -5   8    4.06    0.99
   4   5   8    4.58    0.95
   4   6  -7   28.90    2.43
   4  -6   7   28.48    2.54
   4   6  -6   -0.99    0.94
   4  -6   6    0.53    0.98
  -4   6   5   26.98    2.55
   4   6  -5   31.41    3.01
   4  -6   5   24.26    2.76
  -4   6   4   34.63    2.96
   4   6  -4   34.75    3.12
   4  -6   4   38.95    3.36
  -4   6   3  318.23    8.54
   4   6  -3  319.23    9.04
   4  -6   3  308.87    8.74
  -4   6   2   43.76    3.44
   4   6  -2   42.04    3.41
  -4   6   1   10.12    2.00
   4   6  -1   10.24    1.98
   4   6   0  353.65    9.22
  -4   6   0  357.70    9.75
  -4   6  -1    6.91    2.10
   4   6   1    8.10    1.66
   4   6   1    7.34    1.82
   4   6   1    6.42    1.77
  -4   6  -2   45.16    3.83
   4   6   2   45.90    3.98
   4   6   2   49.93    3.54
   4   6   2   47.32    3.49
   4   6   3  322.33    9.91
   4  -6  -3  311.56    8.78
   4   6   4   35.03    3.29
   4  -6  -4   32.86    3.66
   4  -6  -4   30.08    2.76
   4  -6  -5   27.86    3.43
   4  -6  -5   23.22    2.33
   4   6   5   30.88    3.10
   4  -6  -6    0.39    1.40
   4   6   6    1.36    1.06
   4   6   7   29.75    2.42
   4   7  -6    5.09    1.18
  -4   7   5   19.15    1.95
   4   7  -5   18.22    2.02
  -4   7   4    1.41    0.96
   4   7  -4    2.90    1.30
  -4   7   3    6.88    1.64
   4   7  -3    8.37    1.67
  -4   7   2   51.93    3.71
   4   7  -2   48.10    3.60
  -4   7   1   26.78    2.86
   4   7  -1   28.91    2.82
  -4   7   0   16.57    2.49
   4   7   0   12.71    2.13
   4   7   0   14.39    2.12
  -4   7  -1   24.82    2.87
   4   7   1   24.73    2.85
   4   7   1   25.88    2.46
   4   7   1   24.71    2.70
  -4   7  -2   51.80    3.78
   4   7   2   55.48    4.18
  -4   7  -3    6.13    1.65
   4   7   3   10.30    1.91
   4  -7  -3    6.28    1.39
  -4   7  -4    3.95    1.61
   4   7   4    1.46    1.19
   4  -7  -4    2.67    0.92
  -4   7  -5   21.52    2.34
   4   7   5   25.22    2.48
  -4   7  -6    6.40    1.36
   4   7   6    7.60    1.36
  -4   8   4   41.44    2.58
   4   8  -4   45.31    2.89
  -4   8   3   40.20    2.73
   4   8  -3   42.39    2.83
  -4   8   2   61.64    3.52
   4   8  -2   69.19    3.81
  -4   8   1   23.11    2.32
   4   8  -1   21.44    2.11
   4   8  -1   24.52    2.43
  -4   8   0   45.84    3.26
   4   8   0   45.88    3.27
  -4   8  -1   24.05    2.48
   4   8   1   21.06    2.43
  -4   8  -2   70.30    3.90
   4   8   2   69.19    4.05
   4  -8  -2   65.59    3.49
  -4   8  -3   39.84    2.86
   4   8   3   44.52    3.22
   4  -8  -3   35.66    2.54
  -4   8  -4   39.71    2.74
   4   8   4   51.60    3.28
  -4   9   0    3.15    0.95
   5   0   0    1.47    0.86
   5   0   0   -0.38    1.33
   5   0   0   -0.24    1.25
   5   0   0    0.67    1.56
   5   0   0    0.42    1.13
   5   0  -1  309.24   11.78
   5   0   1  287.94    6.98
   5   0   1  290.54    7.41
   5   0  -1  279.25    7.05
   5   0  -1  287.79    8.54
   5   0   1  293.02    7.31
   5   0  -1  293.48    7.86
   5   0   1  295.82    8.40
   5   0  -1  295.05    7.02
   5   0   1  302.65   11.32
   5   0   2   16.92    1.93
   5   0   2   16.20    2.06
   5   0  -2   16.64    1.84
   5   0  -2   15.74    2.34
   5   0   2   16.45    1.95
   5   0  -2   16.20    3.10
   5   0  -2   19.09    2.27
   5   0   2   15.95    2.35
   5   0  -2   16.96    1.97
   5   0   3    7.25    1.72
   5   0  -3    9.78    2.05
   5   0   3    9.74    1.63
   5   0  -3   13.82    3.01
   5   0  -3    9.76    1.75
   5   0   3    8.86    2.03
   5   0   4  522.68   10.93
   5   0  -4  488.59   17.55
   5   0  -4  509.15   12.37
   5   0   4  523.70   12.44
   5   0   5  467.86   10.70
   5   0  -5  472.96   12.02
   5   0   5  457.50   11.92
  -5   0   5  450.62   10.01
   5   0   6   55.89    3.82
   5   0  -6   53.47    4.24
   5   0   6   55.21    4.21
  -5   0   6   56.79    3.82
   5   0   7  150.56    5.91
   5   0  -7  145.58    6.31
   5   0   7  140.61    6.27
  -5   0   7  145.99    5.92
  -5   0   8    5.80    1.27
   5   0   8    7.80    1.51
  -5   0   9    1.28    0.80
  -5   1   9   19.04    1.89
   5  -1   8   10.60    2.06
  -5   1   8   13.81    1.88
   5  -1   7   15.33    2.19
   5  -1   7   15.01    2.65
  -5   1   7   12.89    2.13
   5  -1   6   23.31    2.70
   5   1  -6   27.16    2.83
   5  -1   6   21.87    3.22
  -5   1   6   21.19    2.50
   5  -1   5  220.99    7.28
   5   1  -5  216.10    7.65
   5  -1   5  219.94    8.94
  -5   1   5  216.43    7.36
  -5   1   4    8.63    1.51
   5   1  -4    9.94    1.77
   5  -1   4    9.19    1.92
   5   1  -4   11.23    3.17
   5  -1   4    6.32    2.20
   5  -1   3   68.20    3.85
   5   1  -3   70.56    6.66
   5   1  -3   67.20    4.31
   5   1  -3   79.11    4.30
   5  -1   3   68.77    4.79
   5  -1   2   75.00    3.80
   5   1  -2   79.22    6.74
   5  -1   2   79.65    4.01
   5   1  -2   89.34    4.85
   5   1  -2   72.31    4.19
   5   1  -2   79.91    4.25
   5  -1   2   81.70    4.97
   5   1  -1  118.81    7.73
   5  -1   1  125.49    4.61
   5  -1   1  122.00    4.61
   5   1  -1  116.27    5.00
   5   1  -1  123.96    5.63
   5  -1   1  115.96    4.48
   5   1  -1  117.50    5.07
   5   1  -1  118.14    5.01
   5  -1   1  124.56    5.73
   5  -1   1  122.73    6.91
   5  -1   0   11.47    1.57
   5   1   0    8.11    1.71
   5  -1   0   11.79    2.01
   5   1   0    8.61    1.69
   5  -1   0    8.42    1.65
   5  -1   0    9.59    2.24
   5   1   0   10.50    2.57
   5   1   0    7.69    1.56
   5  -1   0    8.88    1.73
   5  -1   0    8.58    1.53
   5  -1  -1  118.71    6.98
   5   1   1  123.18    4.70
   5   1   1  113.93    4.94
   5  -1  -1  111.98    5.62
   5   1   1  122.18    4.95
   5  -1  -1  123.76    5.29
   5   1   1  115.60    5.12
   5  -1  -1  116.64    4.76
   5   1   1  130.71    7.74
   5  -1  -2   70.01    5.66
   5   1   2   79.58    4.11
   5   1   2   79.91    4.27
   5  -1  -2   82.81    5.02
   5   1   2   78.48    3.94
   5  -1  -2   79.51    4.17
   5   1   2   75.23    4.29
   5  -1  -2   77.11    4.00
   5  -1  -3   63.16    5.75
   5   1   3   72.48    4.12
   5   1   3   69.44    3.99
   5  -1  -3   62.36    4.64
   5  -1  -3   70.63    3.99
   5   1   3   62.06    3.97
   5  -1  -3   63.39    3.84
   5   1   4    6.40    1.66
   5  -1  -4   10.95    2.62
   5   1   4    8.03    1.71
   5  -1  -4   10.07    1.91
   5   1   4   10.36    1.98
   5   1   5  225.90    7.58
   5  -1  -5  226.17    9.03
   5   1   5  208.61    7.46
  -5  -1   5  218.83    6.74
   5   1   6   22.47    2.76
   5  -1  -6   26.16    3.43
   5   1   6   20.26    2.54
  -5  -1   6   22.53    2.55
   5   1   7   13.55    2.07
   5  -1  -7    8.63    2.07
  -5  -1   7   15.54    1.93
  -5  -1   8   10.09    1.71
   5   1   8   13.23    1.71
   5  -1  -8   14.40    2.16
  -5  -1   9   18.45    1.92
  -5   2   9    2.59    0.84
   5   2  -8   56.66    3.26
   5  -2   8   59.35    4.03
  -5   2   8   63.27    3.83
   5   2  -7   22.09    2.37
   5  -2   7   16.70    2.92
  -5   2   7   22.02    2.56
   5   2  -6   31.05    2.97
   5  -2   6   28.86    3.46
  -5   2   6   33.07    3.20
   5   2  -5   41.04    3.39
   5  -2   5   29.50    3.64
  -5   2   5   35.62    3.13
   5  -2   4   68.68    4.08
   5   2  -4   66.75    6.91
   5   2  -4   71.47    4.25
   5   2  -4   65.06    4.18
   5  -2   4   56.51    4.76
   5  -2   3   14.65    2.04
  -5  -2  -3   13.35    2.85
   5   2  -3   12.02    1.93
   5   2  -3   14.69    2.25
   5   2  -3   16.75    3.28
   5  -2   3   15.06    2.65
   5   2  -2  318.76   13.67
  -5  -2  -2  289.72   11.49
   5   2  -2  286.53    8.17
   5   2  -2  302.34    7.95
   5  -2   2  301.42    9.55
   5   2  -1  130.11    8.48
   5  -2   1  125.48    5.49
   5   2  -1  124.79    5.38
   5   2  -1  119.84    4.97
   5  -2   1  128.38    5.92
   5   2   0  512.41   16.00
   5   2   0  478.42   10.61
   5  -2   0  498.02   11.10
   5   2   0  501.72   10.41
   5   2   0  491.50    9.82
   5  -2   0  514.59   11.13
   5   2   1  132.60    5.20
   5   2   1  124.98    5.41
   5  -2  -1  126.46    6.00
   5   2   1  129.38    5.29
   5   2   1  120.41    4.96
   5  -2  -1  121.98    5.24
   5  -2  -1  131.72    5.41
   5   2   1  130.41    8.01
   5   2   2  308.44    8.38
   5   2   2  295.35    8.20
   5  -2  -2  304.04    9.69
   5   2   2  295.51    7.85
   5  -2  -2  297.88    8.03
   5   2   2  278.62    7.53
   5   2   2  300.16   12.18
   5  -2  -2  300.60    8.23
   5   2   3   12.56    2.09
   5   2   3   13.46    2.00
   5  -2  -3   12.52    2.69
   5  -2  -3   13.84    1.90
   5   2   3   13.66    1.99
   5  -2  -3   13.47    2.06
   5   2   4   69.55    4.35
   5   2   4   69.53    4.09
   5  -2  -4   66.30    5.23
   5  -2  -4   66.85    3.90
   5   2   4   56.33    3.59
   5  -2  -4   59.54    4.00
   5   2   5   32.77    3.08
   5  -2  -5   38.84    4.36
   5   2   6   31.66    3.07
   5  -2  -6   34.58    4.05
  -5  -2   6   31.83    2.68
   5   2   7   24.06    2.53
   5  -2  -7   24.98    3.16
  -5  -2   7   23.36    2.34
   5   2   8   60.97    3.47
   5  -2  -8   61.25    4.12
  -5  -2   8   58.31    3.38
  -5   3   8    0.56    0.85
   5  -3   8    0.88    1.26
   5   3  -7   15.30    1.95
   5  -3   7   14.55    2.52
  -5   3   7   17.26    2.30
  -5   3   6    6.57    1.86
   5   3  -6    7.35    1.55
   5  -3   6    6.14    1.99
   5   3  -5   29.76    2.94
   5  -3   5   28.94    3.80
   5   3  -4   21.68    2.51
   5  -3   4   22.49    3.24
   5   3  -3  126.87    9.31
   5   3  -3  134.45    5.79
   5   3  -3  133.98    5.47
  -5  -3  -3  134.77    8.58
   5  -3   3  143.11    7.09
   5   3  -2   48.84    5.64
  -5  -3  -2   42.53    4.74
   5   3  -2   47.89    3.55
   5   3  -2   49.73    3.28
   5  -3   2   47.54    3.95
   5   3  -1   37.42    4.54
   5  -3   1   36.89    3.10
   5   3  -1   31.61    3.01
   5   3  -1   43.83    3.14
   5  -3   1   38.78    3.46
   5   3   0   37.43    4.61
   5   3   0   36.15    3.32
   5  -3   0   31.70    3.01
   5   3   0   37.09    3.13
   5   3   0   33.44    2.58
   5  -3   0   32.71    3.02
   5   3   1   40.72    3.23
   5   3   1   36.03    3.12
   5  -3  -1   33.13    3.35
   5   3   1   33.82    2.98
   5   3   1   30.97    2.46
   5  -3  -1   37.82    3.00
   5   3   1   35.78    4.43
   5   3   2   46.20    3.58
   5   3   2   50.86    3.69
   5  -3  -2   44.49    4.14
   5  -3  -2   48.45    3.26
   5  -3  -2   45.26    3.46
   5   3   3  141.55    6.30
   5   3   3  138.04    5.80
   5  -3  -3  130.16    7.03
   5  -3  -3  130.71    5.13
   5  -3  -3  129.39    5.78
   5   3   4   22.83    2.84
   5   3   4   25.15    2.58
   5  -3  -4   25.49    2.62
   5   3   5   30.82    3.20
   5  -3  -5   30.17    2.99
   5   3   6    7.67    1.80
   5   3   7   16.31    2.24
   5  -3  -7   17.52    2.92
  -5  -3   7   16.42    1.81
  -5  -3   8    1.34    0.50
   5  -3  -8    2.06    1.10
   5   3   8    1.82    1.05
   5   4  -8   35.78    2.54
   5  -4   8   33.96    2.86
  -5   4   8   34.71    2.57
  -5   4   7    9.85    1.63
   5   4  -7   11.07    1.73
   5  -4   7   13.11    2.36
  -5   4   6   92.18    4.95
   5   4  -6   86.84    4.04
   5   4  -6   89.05    4.63
   5  -4   6   99.82    6.03
   5   4  -5   87.57    4.40
   5   4  -5   89.19    4.74
   5  -4   5   90.96    5.95
   5   4  -4    9.85    1.99
   5   4  -4    8.07    1.80
   5  -4   4    9.53    2.46
   5   4  -3   16.14    2.28
   5   4  -3   12.44    1.94
   5  -4   3   15.28    2.67
   5   4  -2   89.53    4.70
   5   4  -2   87.11    4.45
   5  -4   2   86.94    5.30
  -5   4   1   17.17    2.17
   5   4  -1   19.27    2.39
   5   4  -1   16.76    1.95
   5   4  -1   17.37    3.73
   5  -4   1   17.87    2.31
   5   4   0  171.59    9.59
  -5   4   0  168.01    6.25
   5  -4   0  165.69    6.38
   5   4   0  180.75    6.69
   5  -4   0  169.32    6.38
   5   4   1   18.56    2.39
   5   4   1   16.98    2.52
   5  -4  -1   19.54    2.62
   5   4   1   16.70    2.96
   5  -4  -1   19.52    1.98
   5   4   2   88.52    5.17
   5   4   2   84.22    4.71
   5  -4  -2   78.14    5.24
   5  -4  -2   88.53    5.01
   5   4   3   14.76    2.43
   5   4   3   14.36    2.11
   5  -4  -3   13.35    2.65
   5  -4  -3   17.78    2.37
   5   4   4   10.35    1.83
   5   4   4    9.90    2.04
   5  -4  -4    9.38    1.89
   5   4   5   95.34    5.18
   5  -4  -5   89.27    4.79
   5   4   6   96.08    5.03
   5   4   7   11.90    1.76
   5  -4  -7   11.49    2.28
   5   4   8   30.79    2.25
   5  -4  -8   35.25    3.10
  -5   5   7    6.97    1.50
   5   5  -7    6.74    1.48
   5  -5   7    7.59    1.47
   5   5  -6   11.63    1.79
   5  -5   6   12.93    2.06
   5   5  -5   -0.22    0.92
   5  -5   5    0.60    1.22
   5   5  -4  181.60    6.08
   5   5  -4  173.99    6.44
   5  -5   4  187.76    7.71
   5   5  -3   54.31    3.54
   5   5  -3   51.09    3.63
   5  -5   3   52.35    4.07
  -5   5   2   97.65    4.68
   5   5  -2  104.55    5.03
   5   5  -2  105.18    4.96
   5  -5   2  103.95    5.42
  -5   5   1   22.14    2.55
   5   5  -1   19.64    2.50
   5   5  -1   16.76    2.15
   5  -5   1   18.27    2.22
  -5   5   0   20.21    2.49
   5   5   0   16.42    2.51
   5   5   0   19.81    2.29
  -5   5  -1   18.66    2.50
   5   5   1   19.25    2.63
   5   5   1   21.95    2.73
   5  -5  -1   20.43    2.41
   5   5   2  101.85    5.74
   5   5   2  105.19    5.21
   5  -5  -2  100.83    5.46
   5  -5  -2  110.31    5.64
   5   5   3   60.38    4.43
   5   5   3   51.65    3.54
   5  -5  -3   52.13    4.29
   5  -5  -3   52.30    3.88
   5   5   4  170.05    5.82
   5  -5  -4  165.85    7.65
   5  -5  -4  175.89    6.58
   5   5   5   -2.56    1.51
   5  -5  -5    2.13    1.01
   5   5   6   17.09    2.19
   5  -5  -6   13.02    2.26
   5  -5  -7    5.71    1.90
   5   5   7    8.09    1.35
  -5   6   6    6.96    1.35
   5   6  -6   10.06    1.56
   5  -6   6    8.98    1.38
   5   6  -5   47.12    3.13
   5  -6   5   42.52    3.11
   5   6  -4    9.37    1.77
   5  -6   4   10.86    1.73
  -5   6   3   12.05    1.86
   5   6  -3   15.00    1.98
  -5   6   2   86.22    4.32
   5   6  -2   82.76    4.40
  -5   6   1  411.01    9.57
   5   6  -1  412.79    9.51
  -5   6   0   29.99    2.96
   5   6   0   27.64    2.95
   5   6   0   28.67    2.71
  -5   6  -1  428.08   10.28
   5   6   1  417.55    9.93
   5   6   1  412.82    9.22
  -5   6  -2   85.82    4.85
   5   6   2   89.55    5.23
   5   6   2   79.44    4.17
   5  -6  -2   92.40    4.91
  -5   6  -3   14.07    2.19
   5   6   3   13.91    1.84
   5  -6  -3   13.02    2.09
   5   6   3   12.44    2.15
   5  -6  -3   11.71    1.91
   5  -6  -4    8.99    2.07
   5   6   4   10.74    1.88
   5  -6  -4    6.62    1.53
   5   6   5   50.19    3.49
   5  -6  -5   47.01    3.45
   5  -6  -6    9.08    1.67
   5   6   6    9.46    1.49
   5   7  -4   27.69    2.25
  -5   7   3   20.31    1.90
   5   7  -3   21.18    2.12
  -5   7   2    3.69    1.22
   5   7  -2    5.29    1.45
  -5   7   1   20.39    2.30
   5   7  -1   21.77    2.46
   5   7  -1   19.24    2.09
  -5   7   0    6.55    1.49
   5   7   0    4.90    1.27
   5   7   0    5.37    1.49
  -5   7  -1   21.58    2.42
   5   7   1   20.36    2.18
  -5   7  -2    4.78    1.35
   5   7   2    4.18    1.30
   5  -7  -2    3.82    1.25
  -5   7  -3   24.07    2.34
   5   7   3   27.66    2.64
   5  -7  -3   22.23    2.09
   5   7   4   27.57    2.46
  -5   7  -4   27.69    2.47
   5  -7  -4   22.46    2.00
  -5   8   1   27.92    2.17
  -5   8   0   12.68    1.56
  -5   8  -1   30.97    2.33
   5  -8  -1   28.21    2.14
  -5   8  -2   38.67    2.45
   6   0   0   -0.14    0.96
   6   0   0   -1.18    1.23
   6   0   0    1.24    1.54
   6   0   1   16.12    1.94
   6   0   1   17.10    2.17
   6   0  -1   14.25    2.06
   6   0   1   15.15    2.14
   6   0  -1   15.95    2.35
   6   0  -1   14.19    2.94
   6   0  -1   17.60    2.54
   6   0   1   19.31    2.70
   6   0   2    0.40    1.06
   6   0  -2   -0.07    1.59
   6   0   2    0.60    1.12
   6   0  -2   -1.42    1.19
   6   0   2    2.32    1.85
   6   0   3  653.33   12.32
   6   0  -3  664.77   14.65
   6   0  -3  633.47   13.50
   6   0  -3  663.02   12.84
   6   0   3  667.69   14.24
   6   0   4   75.48    4.40
   6   0  -4   73.82    5.14
   6   0   4   68.07    4.75
   6   0   5  568.24   11.63
   6   0  -5  559.42   12.99
   6   0   5  538.94   12.52
   6   0   6   32.01    2.86
   6   0  -6   32.26    3.18
   6   0   6   24.85    2.66
   6   0  -7   -0.19    1.09
   6   0   7    0.25    0.93
   6   0  -7   -1.09    1.27
   6   0  -8    2.20    0.94
   6   1  -7   32.60    2.83
   6  -1   7   26.25    2.71
   6   1  -6    4.13    1.46
   6  -1   6    3.43    1.47
   6  -1   5   44.75    3.44
   6   1  -5   44.40    3.52
   6   1  -5   46.94    3.86
   6  -1   5   43.36    4.00
   6   1  -4   16.70    2.39
   6  -1   4   12.24    2.12
   6   1  -4   11.35    2.11
   6  -1   4   14.50    2.61
   6  -1   3   11.95    2.06
   6   1  -3   10.12    1.69
   6   1  -3   13.51    2.53
   6   1  -3   12.85    2.25
   6  -1   3   15.88    2.67
   6  -1   2   48.53    3.32
   6   1  -2   39.85    3.19
   6   1  -2   44.60    3.71
   6   1  -2   49.78    3.72
   6  -1   2   54.06    4.37
   6  -1   1    4.82    1.24
   6   1  -1    2.27    1.09
   6   1  -1    3.70    1.57
   6   1  -1    5.50    2.57
   6   1  -1    3.01    1.53
   6  -1   1    2.09    1.58
   6  -1   0  313.98    7.63
   6   1   0  310.91    8.60
   6   1   0  324.51    8.89
   6  -1   0  309.68    8.13
   6   1   0  333.88    9.08
   6  -1   0  328.24    9.44
   6   1   0  311.61   13.23
   6   1   1    3.38    1.28
   6  -1  -1    4.12    1.81
   6   1   1    5.37    1.57
   6  -1  -1    2.26    1.08
   6   1   1    5.62    2.72
   6  -1  -1    2.50    1.46
   6   1   1    3.00    1.44
   6  -1  -1    2.81    1.07
   6   1   2   43.54    3.25
   6   1   2   43.36    3.42
   6  -1  -2   45.26    4.30
   6   1   2   43.91    3.25
   6  -1  -2   41.79    3.48
   6  -1  -2   45.42    3.54
   6   1   2   41.77    3.55
   6  -1  -2   45.08    3.26
   6   1   3   12.70    2.01
   6  -1  -3   11.88    2.82
   6   1   3   10.45    1.99
   6  -1  -3   12.48    2.06
   6   1   3   11.63    2.16
   6   1   4   15.34    2.21
   6  -1  -4   15.33    2.96
   6   1   4   10.90    1.97
   6   1   5   43.67    3.47
   6  -1  -5   45.03    4.21
   6  -1  -6    3.38    1.76
   6   1   6    3.93    1.35
   6   1   7   34.16    2.64
   6  -1  -7   37.32    3.09
   6  -1  -8   24.64    2.29
  -6   2   7    1.40    0.81
   6  -2   7    0.22    0.72
   6   2  -6    6.72    1.63
   6  -2   6    7.63    2.02
   6   2  -5   45.26    3.58
   6  -2   5   40.90    3.96
   6   2  -4   22.08    2.53
   6   2  -4   20.52    2.77
   6  -2   4   19.36    2.99
   6   2  -3    6.45    1.73
   6   2  -3    8.52    1.97
   6  -2   3    6.47    2.20
   6   2  -2  131.03    5.99
   6   2  -2  139.44    6.20
   6   2  -2  136.25    5.83
   6  -2   2  137.36    6.80
   6   2  -1   18.40    2.34
   6   2  -1   19.38    2.52
   6   2  -1   20.38    2.45
   6  -2   1   19.01    2.82
   6  -2   1   17.17    2.11
   6   2   0    5.80    1.86
   6  -2   0    9.69    2.14
   6   2   0    7.72    1.78
   6   2   0    7.57    1.75
   6  -2   0    7.28    1.85
   6  -2   0    7.54    1.58
   6   2   1   18.14    2.47
   6  -2  -1   20.95    2.90
   6   2   1   20.08    2.54
   6  -2  -1   14.11    2.06
   6   2   1   13.56    2.08
   6  -2  -1   19.93    2.41
   6  -2  -1   18.18    2.29
   6   2   2  135.74    5.76
   6   2   2  133.12    5.81
   6  -2  -2  133.15    6.97
   6  -2  -2  127.31    5.66
   6   2   2  115.63    5.15
   6  -2  -2  129.01    5.70
   6   2   3    5.32    1.38
   6  -2  -3    4.72    2.10
   6   2   3    5.81    1.60
   6  -2  -3    3.62    1.53
   6   2   3    6.63    1.44
   6  -2  -3    4.94    1.45
   6   2   4   16.06    2.34
   6   2   4   21.54    2.60
   6  -2  -4   19.96    3.20
   6   2   5   47.94    3.65
   6  -2  -5   42.29    4.16
   6  -2  -6    5.47    1.95
   6   2   6    7.44    1.70
   6  -2  -7    1.85    1.16
   6   2   7    1.52    1.13
   6  -3   7    0.62    1.06
  -6   3   6   10.17    1.62
   6   3  -6    9.66    1.66
   6  -3   6   12.29    2.14
   6   3  -5   26.96    2.67
   6   3  -5   30.14    2.76
   6  -3   5   25.67    3.29
   6   3  -4    8.23    1.73
   6  -3   4   10.50    2.55
   6   3  -3    7.00    1.73
   6   3  -3    3.55    1.65
   6  -3   3    5.04    1.90
   6   3  -2   10.28    2.41
   6   3  -2   13.06    2.29
   6  -3   2   11.14    2.36
   6   3  -1   29.96    3.28
   6   3  -1   36.23    3.28
   6  -3   1   27.66    3.06
   6  -3   1   29.21    2.81
   6   3   0    1.74    1.10
   6  -3   0    3.52    1.41
   6   3   0    0.54    1.21
   6   3   0    3.26    1.07
   6  -3   0    2.73    1.54
   6  -3   0    2.03    1.31
   6   3   1   32.30    3.16
   6  -3  -1   31.91    3.35
   6   3   1   31.70    3.06
   6   3   1   24.03    2.36
   6  -3  -1   28.86    2.83
   6  -3  -1   32.97    3.23
   6   3   2   10.60    2.07
   6  -3  -2   14.76    2.72
   6   3   2   12.09    1.99
   6  -3  -2   15.38    2.09
   6  -3  -2   12.13    2.00
   6   3   3    6.38    1.84
   6  -3  -3    7.06    2.27
   6   3   3    7.99    1.70
   6  -3  -3    5.31    1.38
   6  -3  -3    6.16    1.57
   6   3   4    8.61    1.80
   6  -3  -4    5.96    1.91
   6   3   4    6.26    1.66
   6  -3  -4    7.91    1.83
   6   3   5   30.30    2.74
   6  -3  -5   20.46    3.28
   6  -3  -6    9.17    2.14
   6   3   6    9.45    1.69
   6  -3  -7    0.04    1.19
   6   3   7    0.78    0.74
   6  -4   6   35.63    3.21
  -6   4   6   32.64    2.50
  -6   4   5    3.90    1.02
   6   4  -5    3.83    1.35
   6  -4   5    5.71    1.64
   6   4  -4  154.26    5.75
   6  -4   4  149.97    6.93
   6   4  -3   13.14    2.09
   6  -4   3   15.45    2.67
   6   4  -2   62.73    4.53
   6   4  -2   65.62    4.06
   6  -4   2   69.00    4.66
   6   4  -1    9.72    2.07
   6   4  -1    9.83    1.95
   6  -4   1    7.49    1.81
   6   4   0   19.53    2.62
   6   4   0   20.27    2.52
   6  -4   0   19.26    2.42
   6  -4   0   17.80    2.51
  -6   4  -1    7.15    1.44
   6   4   1    9.99    2.06
   6  -4  -1    5.72    1.73
   6  -4  -1    7.85    1.78
   6  -4  -1    8.36    1.92
   6   4   2   62.36    4.21
   6   4   2   66.33    4.13
   6  -4  -2   62.61    4.53
   6  -4  -2   66.94    4.42
   6   4   3   13.39    2.14
   6   4   3   11.24    1.90
   6  -4  -3   11.51    2.28
   6  -4  -3   15.26    2.28
   6   4   4  154.70    6.30
   6   4   4  157.82    5.79
   6  -4  -4  139.56    6.97
   6  -4  -4  154.12    6.11
   6  -4  -5    6.08    1.80
   6   4   5    5.74    1.43
   6   4   6   35.45    2.71
   6  -4  -6   34.86    3.14
   6   5  -5    8.87    1.67
   6  -5   5    6.63    1.42
   6   5  -4    5.83    1.21
   6  -5   4    3.87    1.56
   6   5  -3    1.21    1.29
   6   5  -3    2.29    1.18
   6  -5   3    1.86    1.24
   6   5  -2   39.90    3.52
   6  -5   2   38.56    3.17
   6   5  -1   68.55    4.50
   6  -5   1   68.42    3.85
  -6   5   0   11.56    1.95
   6   5   0   12.48    2.14
   6  -5   0   11.33    1.98
  -6   5  -1   70.25    3.98
   6   5   1   67.16    4.14
   6  -5  -1   68.93    4.40
   6   5   2   32.86    2.94
  -6   5  -2   38.70    3.09
   6   5   2   40.93    3.16
   6  -5  -2   36.06    3.06
   6  -5  -2   42.74    3.42
  -6   5  -3   -0.42    1.16
   6   5   3    1.55    0.94
   6  -5  -3    3.43    1.40
   6   5   3   -0.81    1.03
   6  -5  -3   -0.04    1.07
   6   5   4    5.08    1.31
   6  -5  -4    6.47    1.79
   6   5   4    7.05    1.69
   6  -5  -4    5.43    1.41
   6  -5  -5    6.41    1.67
   6   5   5    8.23    1.38
   6   6  -4    7.23    1.37
   6   6  -3   72.54    3.98
   6   6  -2    0.15    1.16
   6   6  -1   65.42    3.87
  -6   6   0   44.80    2.86
   6   6   0   46.05    3.27
   6  -6   0   44.78    3.38
  -6   6  -1   67.62    3.60
   6   6   1   66.24    3.59
   6  -6  -1   67.81    3.92
  -6   6  -2   -2.12    1.13
   6   6   2    0.28    0.96
   6  -6  -2   -1.79    1.07
  -6   6  -3   70.49    3.60
   6   6   3   62.94    3.12
   6  -6  -3   66.81    3.52
  -6   6  -4    4.14    1.15
   6   6   4    5.86    1.19
   6  -6  -4    6.15    1.23
   6  -7   1   16.90    1.87
   6  -7   0   22.90    2.17
   6  -7  -1   14.40    1.77
   7   0   0    0.41    0.52
   7   0   0   -0.93    0.98
   7   0   0   -1.93    1.27
   7   0  -1   49.96    3.57
   7   0  -1   48.22    3.73
   7   0   1   50.96    3.88
   7   0  -2    0.80    1.00
   7   0  -2    1.32    1.31
   7   0   2    3.01    1.44
   7   0  -3   49.30    3.70
   7   0   3   49.70    3.80
   7   0  -4   -0.08    1.20
   7   0   4    0.43    1.25
   7   0  -5   79.57    4.51
   7   0   5   75.26    3.99
   7   0  -6   24.99    2.48
   7   1  -6    4.19    1.20
   7   1  -5   32.03    2.92
   7  -1   5   28.52    2.87
   7   1  -4    7.51    1.73
   7  -1   4    8.45    1.84
   7   1  -3   30.98    3.08
   7  -1   3   29.81    3.22
   7   1  -2   29.80    2.95
   7   1  -2   30.55    2.99
   7  -1   2   29.62    3.20
   7   1  -1    1.21    0.87
   7   1  -1    0.55    0.97
   7   1  -1    2.05    1.42
   7  -1   1    4.01    1.65
   7   1   0    2.81    1.20
   7   1   0    4.09    1.27
   7   1   0    5.70    1.63
   7  -1   0    3.79    1.60
   7   1   1    3.57    1.34
   7   1   1    1.60    0.97
   7  -1  -1    2.72    1.23
   7  -1  -1    3.09    1.58
   7   1   1    1.89    1.25
   7   1   2   32.32    2.86
   7  -1  -2   31.44    3.06
   7  -1  -2   29.32    2.87
   7   1   2   25.60    2.74
   7   1   3   32.84    2.74
   7  -1  -3   33.91    3.28
   7   1   3   29.39    2.73
   7  -1  -4    4.69    1.91
   7   1   4    8.81    1.49
   7  -1  -4    9.07    1.96
   7   1   4   10.33    1.65
   7   1   5   31.29    2.62
   7  -1  -5   23.00    2.73
   7  -1  -6    4.47    1.34
   7   2  -5    0.53    1.22
   7  -2   5    0.90    1.15
   7   2  -4    7.20    1.70
   7  -2   4    7.48    1.64
   7   2  -3   10.68    2.02
   7  -2   3    8.25    2.20
   7   2  -2    6.20    1.32
   7   2  -2    9.37    2.06
   7  -2   2    9.69    2.16
   7   2  -1    2.72    1.10
   7   2  -1    5.99    1.71
   7   2  -1    3.67    1.45
   7  -2   1    4.31    1.69
   7   2   0  197.30    6.86
   7   2   0  211.29    6.95
   7   2   0  196.32    6.63
   7  -2   0  206.00    7.33
   7   2   1    3.16    1.39
   7   2   1    3.35    1.30
   7  -2  -1    4.95    1.67
   7   2   2    9.16    1.67
   7  -2  -2   11.70    1.77
   7   2   2    8.85    1.41
   7  -2  -3    7.87    2.24
   7   2   3    8.26    1.55
   7  -2  -3    6.24    1.69
   7  -2  -4    6.39    1.94
   7   2   4    6.41    1.40
   7  -2  -4    8.27    1.81
   7  -2  -5   -0.35    1.33
   7   2   5    1.89    0.98
   7  -2  -5   -0.02    0.56
   7   3  -5    2.98    0.92
   7  -3   5   -0.23    0.99
   7   3  -4    7.14    1.46
   7  -3   4    7.36    1.74
   7   3  -3   22.47    2.34
   7  -3   3   25.20    2.73
   7   3  -2    8.01    1.67
   7   3  -2   10.16    1.78
   7  -3   2    9.76    1.97
   7   3  -1    0.67    0.93
   7   3  -1    0.58    1.18
   7  -3   1   -0.05    0.99
   7   3   0    0.80    1.04
   7  -3   0    0.48    1.27
   7   3   1   -0.73    1.03
   7  -3  -1    0.81    0.87
   7  -3  -1    1.00    1.14
   7   3   2    8.62    1.70
   7  -3  -2   10.11    1.69
   7  -3  -2    8.16    1.64
   7   3   3   26.14    2.46
   7  -3  -3   22.02    2.64
   7  -3  -4    1.69    1.58
   7   3   4    9.67    1.63
   7  -3  -5   -1.17    0.99
   7   3   5    0.80    0.71
   7   4  -4    1.28    0.84
   7  -4   4    0.05    1.12
   7   4  -3    0.42    0.54
   7   4  -3    0.34    0.75
   7  -4   3    2.11    1.20
   7   4  -2   15.81    1.92
   7  -4   2   13.65    2.13
   7   4  -1    1.99    1.30
   7  -4   1    3.47    1.30
   7   4   0   45.82    3.36
   7  -4   0   42.62    2.91
   7  -4   0   37.43    2.94
   7   4   1    2.01    1.10
   7  -4  -1    4.72    1.32
   7   4   2   19.50    2.10
   7  -4  -2   16.22    2.08
   7   4   3    0.35    0.82
   7  -4  -3    2.91    1.22
   7  -4  -4    1.61    0.83
   7   5  -2    3.66    1.08
   7   5  -1    9.66    1.57
   7   5   0   -0.52    1.09
   7  -5   0    2.27    0.73
   7   5   1    6.97    1.45
   7  -5  -1    7.55    1.47
   7   5   2    6.44    1.29
   7  -5  -2    6.12    1.38
   8   0   0    8.08    1.56
   8   0   1    7.49    1.54
   8   0   2   11.97    1.61
   8   1  -2    3.99    1.08
   8  -1   2    1.71    1.12
   8   1  -1    7.56    1.37
   8  -1   1    8.46    1.57
   8   1   0   20.83    2.25
   8  -1   0   19.20    2.16
   8  -1  -1    8.10    1.69
   8   1   1    6.52    1.38
   8   1   2    3.49    1.17
   8  -2   2    9.08    1.63
   8  -2   1    3.01    1.40
   8  -2   0    1.32    1.07
   8  -2  -1    3.02    1.16
   0   0   0    0.00    0.00


TITL 1a in P2(1)2(1)2(1)
REM P2(1)2(1)2(1) (#19 in standard setting)
CELL 1.54184   7.065114   8.785937  10.090594  90.0000  90.0000  90.0000
ZERR    4.00   0.000183   0.000194   0.000223   0.0000   0.0000   0.0000
LATT -1
SYMM -x+1/2,-y, z+1/2
SYMM -x, y+1/2,-z+1/2
SYMM  x+1/2,-y+1/2,-z
SFAC C H N Cl
UNIT 16.00 8.00 20.00 4.00
TREF
HKLF 4
END
_computing_structure_solution     'SHELXT 2018/2 (Sheldrick, 2018)'
;
_shelx_hkl_checksum              69127
_olex2_submission_special_instructions 'No special instructions were received'
_oxdiff_exptl_absorpt_empirical_details
;
Empirical correction (ABSPACK) includes:
- Absorption correction using spherical harmonics
- Frame scaling
;
_oxdiff_exptl_absorpt_empirical_full_max 1.514
_oxdiff_exptl_absorpt_empirical_full_min 0.820
loop_
_space_group_symop_operation_xyz
'x, y, z'
'-x+1/2, -y, z+1/2'
'-x, y+1/2, -z+1/2'
'x+1/2, -y+1/2, -z'
loop_
_atom_site_label
_atom_site_type_symbol
_atom_site_fract_x
_atom_site_fract_y
_atom_site_fract_z
_atom_site_U_iso_or_equiv
_atom_site_adp_type
_atom_site_occupancy
_atom_site_site_symmetry_order
_atom_site_calc_flag
_atom_site_refinement_flags_posn
_atom_site_refinement_flags_adp
_atom_site_refinement_flags_occupancy
_atom_site_disorder_assembly
_atom_site_disorder_group
Cl1 Cl 0.29048(16) 0.33468(10) 0.32125(12) 0.0758(4) Uani 1 1 d . . . . .
N4 N 0.3556(4) 0.7485(3) 0.4123(3) 0.0481(7) Uani 1 1 d . . . . .
N5 N 0.3659(4) 0.5953(3) 0.4188(3) 0.0525(7) Uani 1 1 d . . . . .
N3 N 0.4277(5) 0.8396(4) 0.5062(3) 0.0686(9) Uani 1 1 d . . . . .
N2 N 0.3893(6) 0.9774(4) 0.4657(4) 0.0783(11) Uani 1 1 d . . . . .
N1 N 0.2970(6) 0.9804(3) 0.3494(3) 0.0674(9) Uani 1 1 d . . . . .
C9 C 0.2765(5) 0.8343(4) 0.3156(3) 0.0484(7) Uani 1 1 d . . . . .
C7 C 0.2014(6) 0.6048(4) 0.2090(3) 0.0568(9) Uani 1 1 d . . . . .
H7 H 0.149172 0.548711 0.139977 0.068 Uiso 1 1 calc R U . . .
C6 C 0.2869(5) 0.5305(4) 0.3177(3) 0.0501(8) Uani 1 1 d . . . . .
C8 C 0.1965(6) 0.7577(4) 0.2068(3) 0.0574(9) Uani 1 1 d . . . . .
H8 H 0.142695 0.810517 0.136344 0.069 Uiso 1 1 calc R U . . .
loop_
_atom_site_aniso_label
_atom_site_aniso_U_11
_atom_site_aniso_U_22
_atom_site_aniso_U_33
_atom_site_aniso_U_23
_atom_site_aniso_U_13
_atom_site_aniso_U_12
Cl1 0.0849(7) 0.0417(5) 0.1009(8) -0.0037(5) 0.0238(6) -0.0018(5)
N4 0.0582(16) 0.0460(15) 0.0401(14) -0.0018(12) -0.0016(13) -0.0028(13)
N5 0.0617(17) 0.0464(15) 0.0494(15) 0.0071(13) 0.0012(15) 0.0017(14)
N3 0.085(2) 0.068(2) 0.0531(17) -0.0105(19) -0.0108(16) -0.014(2)
N2 0.097(3) 0.059(2) 0.079(2) -0.0217(18) 0.005(2) -0.014(2)
N1 0.084(2) 0.0458(15) 0.0728(19) -0.0049(15) 0.008(2) -0.0022(17)
C9 0.0582(18) 0.0418(16) 0.0453(16) 0.0039(14) 0.0065(15) 0.0019(17)
C7 0.067(2) 0.061(2) 0.0418(17) -0.0090(15) -0.0006(19) -0.0055(18)
C6 0.0553(19) 0.0422(16) 0.0529(18) -0.0028(14) 0.0110(18) -0.0003(16)
C8 0.066(2) 0.064(2) 0.0415(17) 0.0080(15) -0.0031(18) 0.0038(19)
loop_
_atom_type_symbol
_atom_type_description
_atom_type_scat_dispersion_real
_atom_type_scat_dispersion_imag
_atom_type_scat_source
C C 0.0181 0.0091 'International Tables Vol C Tables 4.2.6.8 and 6.1.1.4'
H H 0.0000 0.0000 'International Tables Vol C Tables 4.2.6.8 and 6.1.1.4'
N N 0.0311 0.0180 'International Tables Vol C Tables 4.2.6.8 and 6.1.1.4'
Cl Cl 0.3639 0.7018 'International Tables Vol C Tables 4.2.6.8 and 6.1.1.4'
loop_
_geom_angle_atom_site_label_1
_geom_angle_atom_site_label_2
_geom_angle_atom_site_label_3
_geom_angle
_geom_angle_site_symmetry_1
_geom_angle_site_symmetry_3
_geom_angle_publ_flag
N5 N4 C9 127.8(3) . . ?
N3 N4 N5 122.7(3) . . ?
N3 N4 C9 109.5(3) . . ?
C6 N5 N4 112.1(3) . . ?
N2 N3 N4 104.7(3) . . ?
N3 N2 N1 113.1(3) . . ?
C9 N1 N2 104.9(3) . . ?
N4 C9 C8 117.5(3) . . ?
N1 C9 N4 107.8(3) . . ?
N1 C9 C8 134.7(3) . . ?
C6 C7 H7 120.4 . . ?
C8 C7 H7 120.4 . . ?
C8 C7 C6 119.1(3) . . ?
N5 C6 Cl1 114.6(3) . . ?
N5 C6 C7 126.4(3) . . ?
C7 C6 Cl1 119.0(3) . . ?
C9 C8 H8 121.5 . . ?
C7 C8 C9 117.1(3) . . ?
C7 C8 H8 121.5 . . ?
loop_
_geom_bond_atom_site_label_1
_geom_bond_atom_site_label_2
_geom_bond_distance
_geom_bond_site_symmetry_2
_geom_bond_publ_flag
Cl1 C6 1.721(3) . ?
N4 N5 1.350(4) . ?
N4 N3 1.341(4) . ?
N4 C9 1.354(4) . ?
N5 C6 1.295(5) . ?
N3 N2 1.306(5) . ?
N2 N1 1.343(5) . ?
N1 C9 1.336(4) . ?
C9 C8 1.406(5) . ?
C7 H7 0.9300 . ?
C7 C6 1.411(5) . ?
C7 C8 1.344(5) . ?
C8 H8 0.9300 . ?
loop_
_geom_torsion_atom_site_label_1
_geom_torsion_atom_site_label_2
_geom_torsion_atom_site_label_3
_geom_torsion_atom_site_label_4
_geom_torsion
_geom_torsion_site_symmetry_1
_geom_torsion_site_symmetry_2
_geom_torsion_site_symmetry_3
_geom_torsion_site_symmetry_4
_geom_torsion_publ_flag
N4 N5 C6 Cl1 -178.7(2) . . . . ?
N4 N5 C6 C7 1.3(5) . . . . ?
N4 N3 N2 N1 -0.5(5) . . . . ?
N4 C9 C8 C7 1.5(6) . . . . ?
N5 N4 N3 N2 -179.6(3) . . . . ?
N5 N4 C9 N1 179.6(3) . . . . ?
N5 N4 C9 C8 -1.0(6) . . . . ?
N3 N4 N5 C6 179.9(3) . . . . ?
N3 N4 C9 N1 -0.6(4) . . . . ?
N3 N4 C9 C8 178.8(3) . . . . ?
N3 N2 N1 C9 0.1(5) . . . . ?
N2 N1 C9 N4 0.3(4) . . . . ?
N2 N1 C9 C8 -178.9(4) . . . . ?
N1 C9 C8 C7 -179.3(4) . . . . ?
C9 N4 N5 C6 -0.4(5) . . . . ?
C9 N4 N3 N2 0.7(4) . . . . ?
C6 C7 C8 C9 -0.7(6) . . . . ?
C8 C7 C6 Cl1 179.2(3) . . . . ?
C8 C7 C6 N5 -0.7(6) . . . . ?
