#------------------------------------------------------------------------------
#$Date: 2022-03-06 06:37:54 +0200 (Sun, 06 Mar 2022) $
#$Revision: 273468 $
#$URL: file:///home/coder/svn-repositories/cod/cif/1/56/59/1565962.cif $
#------------------------------------------------------------------------------
#
# This file is available in the Crystallography Open Database (COD),
# http://www.crystallography.net/
#
# All data on this site have been placed in the public domain by the
# contributors.
#
data_1565962
loop_
_publ_author_name
'Wildner, Manfred'
'Zakharov, Boris A.'
'Bogdanov, Nikita E.'
'Talla, Dominik'
'Boldyreva, Elena V.'
'Miletich, Ronald'
_publ_section_title
;
 Crystallography relevant to Mars and Galilean icy moons: crystal behavior
 of kieserite-type monohydrate sulfates at extraterrestrial conditions
 down to 15 K
;
_journal_issue                   2
_journal_name_full               IUCrJ
_journal_page_first              194
_journal_page_last               203
_journal_paper_doi               10.1107/S2052252521012720
_journal_volume                  9
_journal_year                    2022
_chemical_formula_sum            'H2 Ni O5 S'
_chemical_formula_weight         172.79
_space_group_crystal_system      monoclinic
_space_group_IT_number           15
_space_group_name_Hall           '-C 2yc'
_space_group_name_H-M_alt        'C 1 2/c 1'
_atom_sites_solution_hydrogens   difmap
_audit_creation_method           SHELXL-2017/1
_cell_angle_alpha                90
_cell_angle_beta                 117.580(10)
_cell_angle_gamma                90
_cell_formula_units_Z            4
_cell_length_a                   6.8037(10)
_cell_length_b                   7.6178(10)
_cell_length_c                   7.4371(10)
_cell_measurement_temperature    113(2)
_cell_volume                     341.66(9)
_computing_structure_refinement  'SHELXL-2017/1 (Sheldrick, 2017)'
_diffrn_ambient_temperature      113(2)
_diffrn_measured_fraction_theta_full 1.000
_diffrn_measured_fraction_theta_max 1.000
_diffrn_radiation_type           MoK\a
_diffrn_radiation_wavelength     0.71073
_diffrn_reflns_av_R_equivalents  0.0235
_diffrn_reflns_av_unetI/netI     0.0105
_diffrn_reflns_Laue_measured_fraction_full 1.000
_diffrn_reflns_Laue_measured_fraction_max 1.000
_diffrn_reflns_limit_h_max       12
_diffrn_reflns_limit_h_min       -12
_diffrn_reflns_limit_k_max       13
_diffrn_reflns_limit_k_min       -13
_diffrn_reflns_limit_l_max       13
_diffrn_reflns_limit_l_min       -13
_diffrn_reflns_number            10699
_diffrn_reflns_point_group_measured_fraction_full 1.000
_diffrn_reflns_point_group_measured_fraction_max 1.000
_diffrn_reflns_theta_full        25.242
_diffrn_reflns_theta_max         39.975
_diffrn_reflns_theta_min         4.297
_exptl_absorpt_coefficient_mu    6.165
_exptl_absorpt_correction_T_max  0.7479
_exptl_absorpt_correction_T_min  0.6624
_exptl_absorpt_correction_type   multi-scan
_exptl_absorpt_process_details
;
 SADABS 2016/2: Krause, L., Herbst-Irmer, R., Sheldrick G.M. & Stalke D.,
 J. Appl. Cryst. 48 (2015) 3-10
;
_exptl_crystal_density_diffrn    3.359
_exptl_crystal_F_000             344
_refine_diff_density_max         0.825
_refine_diff_density_min         -0.666
_refine_diff_density_rms         0.124
_refine_ls_extinction_coef       0.0186(13)
_refine_ls_extinction_expression Fc^*^=kFc[1+0.001xFc^2^\l^3^/sin(2\q)]^-1/4^
_refine_ls_extinction_method     'SHELXL-2017/1 (Sheldrick 2017)'
_refine_ls_goodness_of_fit_ref   1.123
_refine_ls_hydrogen_treatment    refall
_refine_ls_matrix_type           full
_refine_ls_number_parameters     40
_refine_ls_number_reflns         1061
_refine_ls_number_restraints     0
_refine_ls_restrained_S_all      1.123
_refine_ls_R_factor_all          0.0166
_refine_ls_R_factor_gt           0.0161
_refine_ls_shift/su_max          0.000
_refine_ls_shift/su_mean         0.000
_refine_ls_structure_factor_coef Fsqd
_refine_ls_weighting_details
'w=1/[\s^2^(Fo^2^)+(0.0210P)^2^+0.5300P] where P=(Fo^2^+2Fc^2^)/3'
_refine_ls_weighting_scheme      calc
_refine_ls_wR_factor_gt          0.0419
_refine_ls_wR_factor_ref         0.0422
_reflns_Friedel_coverage         0.000
_reflns_number_gt                1034
_reflns_number_total             1061
_reflns_threshold_expression     'I > 2\s(I)'
_cod_data_source_file            lt5044.cif
_cod_data_source_block           NiSO4H2O_N2_113K
_cod_depositor_comments
'Adding full bibliography for 1565934--1565967.cif.'
_cod_original_sg_symbol_H-M      'C 2/c'
_cod_database_code               1565962
_shelx_shelxl_version_number     2017/1
_shelx_space_group_comment
;
The symmetry employed for this shelxl refinement is uniquely defined
by the following loop, which should always be used as a source of
symmetry information in preference to the above space-group names.
They are only intended as comments.
;
_shelx_res_file
;
TITL 1991nikies 113K Apex in C2/c kieserite cell
    latt_corr_for_Nonius20C_nikies113K_0m.res
    created by SHELXL-2017/1 at 09:37:30 on 01-Dec-2018
REM meas. mon  6.7919(1) 7.6061(1) 7.3846(1) 90.0 117.0137(4) 90.0
REM trans. cryscomp 6.7919 7.6061 7.4230 90.0  117.589 90.0
REM meas.trcl 6.7919(1) 7.6061(1) 7.3847(1) 90.0318(5) 117.0141(4) 89.9577(5)
REM trans. cryscomp 6.7919 7.6061 7.4230 90.007 117.588 89.958
REM CELL 0.71073   6.7919 7.6061 7.4230 90.0  117.589 90.0
REM latt corr for Nonius20C +.0118 +.0117 +.0141   -.0088
CELL 0.71073   6.8037 7.6178 7.4371   90.0   117.580     90.0
ZERR    4.00   0.001   0.001   0.001   0.00   0.01   0.00
LATT  7
SYMM -X, Y, .5-Z
SFAC O H S NI
UNIT 20 8 4 4
SHEL 20 0.55285
REM DAMP 10000
L.S. 10
CONN 12 1.8 $O
EQIV $9 -x+1/2, y+1/2, -z+1/2
BOND $H
FMAP 2
PLAN 20
ACTA
HTAB O3 O2_$9
HTAB
WGHT    0.021000    0.530000
EXTI    0.018580
FVAR       0.68523
NI    4    0.000000    0.500000    0.000000    10.50000    0.00272    0.00320 =
         0.00283    0.00010    0.00127   -0.00010
S     3    0.000000    0.157632    0.250000    10.50000    0.00228    0.00297 =
         0.00321    0.00000    0.00121    0.00000
O1    1    0.172569    0.047720    0.404727    11.00000    0.00388    0.00699 =
         0.00673    0.00315    0.00202    0.00183
O2    1    0.105067    0.271076    0.155521    11.00000    0.00510    0.00467 =
         0.00666    0.00181    0.00378    0.00031
O3    1    0.000000    0.630548    0.250000    10.50000    0.00424    0.00559 =
         0.00501    0.00000    0.00223    0.00000
H     2    0.109453    0.694551    0.294234    11.00000    0.01998
HKLF 4 1  -1 0 0 0 -1 0 1 0 1




REM  1991nikies 113K Apex in C2/c kieserite cell
REM R1 =  0.0161 for    1034 Fo > 4sig(Fo)  and  0.0166 for all    1061 data
REM     40 parameters refined using      0 restraints

END

WGHT      0.0210      0.5420

REM Instructions for potential hydrogen bonds
EQIV $5 x+1/2, y+1/2, z
HTAB O3 S_$5
HTAB O3 O2_$9

REM Highest difference peak  0.825,  deepest hole -0.666,  1-sigma level  0.124
Q1    1   0.0663  0.4432  0.0013  11.00000  0.05    0.82
Q2    1   0.0578  0.5697  0.0146  11.00000  0.05    0.79
Q3    1  -0.1219  0.3805 -0.0015  11.00000  0.05    0.65
Q4    1   0.2500  0.2500  0.5000  10.50000  0.05    0.65
Q5    1   0.3224  0.1798  0.4964  11.00000  0.05    0.62
Q6    1  -0.1218  0.6274 -0.0004  11.00000  0.05    0.61
Q7    1   0.2164  0.7230  0.5032  11.00000  0.05    0.58
Q8    1   0.0796  0.0946  0.3350  11.00000  0.05    0.51
Q9    1   0.0726  0.4893  0.0969  11.00000  0.05    0.50
Q10   1   0.1721  0.3338  0.2526  11.00000  0.05    0.46
Q11   1   0.0759  0.2442  0.2334  11.00000  0.05    0.45
Q12   1   0.2546  0.4064  0.2553  11.00000  0.05    0.34
Q13   1   0.1199  0.0524  0.2673  11.00000  0.05    0.31
Q14   1   0.1954 -0.0211  0.2651  11.00000  0.05    0.31
Q15   1   0.0492  0.3434  0.1389  11.00000  0.05    0.29
Q16   1   0.1969  0.2641  0.2046  11.00000  0.05    0.26
Q17   1   0.0000  0.4655  0.2500  10.50000  0.05    0.25
Q18   1   0.1688  0.4985  0.0848  11.00000  0.05    0.22
Q19   1   0.1795  0.4521  0.2039  11.00000  0.05    0.21
Q20   1  -0.0156  0.5744  0.1959  11.00000  0.05    0.21
;
_shelx_res_checksum              24209
_shelx_hkl_file
;
   2   0   0 64.8765 2.45967  12
  -2   0   0 62.3012 2.72085  11
   2   0   0 73.1172 3.10284  14
  -2   0   0 66.6916 2.49889   5
  -2   0   0 63.2081 2.58560   1
  -2   0   0 60.1706 2.45310  16
  -2   0   0 77.9520 4.01252  10
  -2   0   0 63.9382 2.59505   8
   2   0   0 63.4253 2.75677   4
   2   0   0 64.2864 3.75953  10
  -4   0   0 9759.08 223.367  16
  -4   0   0 9999.99 219.854   1
   4   0   0 9647.81 226.424  14
  -4   0   0 9253.25 214.879  11
   4   0   0 9347.03 220.913  12
  -4   0   0 9371.07 217.496   8
   4   0   0 9895.67 239.900  10
  -4   0   0 8960.50 215.209   5
   4   0   0 9631.21 222.318   4
   6   0   0 13.2975 2.57446   4
   6   0   0 13.3015 2.36467  12
   6   0   0 13.5202 3.02697  14
   6   0   0 11.4188 3.48610  10
  -6   0   0 12.2915 2.35001   8
  -6   0   0 14.6034 2.70836  11
  -6   0   0 11.8092 2.59571   1
  -6   0   0 12.6066 2.21470   5
  -6   0   0 10.7143 2.16519  16
  -8   0   0 1853.45 46.1599   1
   8   0   0 1740.21 45.3464  12
   8   0   0 1795.73 46.6069   4
   8   0   0 1714.74 52.4483  10
  -8   0   0 1779.07 46.0360   8
   8   0   0 1813.31 48.4819  14
  -8   0   0 1783.05 47.6915  11
  10   0   0 20.3035 3.89792  12
 -10   0   0 22.8531 5.71942  11
 -10   0   0 27.2815 4.59623   1
  10   0   0 26.2220 5.26226   4
  -1  -1   0 1462.92 33.1576  16
  -1  -1   0 1551.39 37.5830  10
   1  -1   0 1422.35 37.5610  10
  -1   1   0 1491.82 37.9015  10
   1   1   0 1529.53 35.0394  14
  -1   1   0 1405.50 34.2251  13
   1   1   0 1542.41 38.4248  10
  -1   1   0 1462.93 33.5420  16
   3  -1   0 5.40122 1.14022   4
  -3  -1   0 4.63853 1.13592  16
   3  -1   0 2.07337 0.69623   2
  -3  -1   0 3.54223 1.05566  11
  -3  -1   0 3.94108 1.06345   8
  -3  -1   0 4.67031 1.18002   5
  -3  -1   0 3.97899 0.93115   1
   3  -1   0 5.66750 1.05498  12
  -3  -1   0 3.35898 1.12033  10
   3  -1   0 2.00754 1.55404  10
   3   1   0 3.87937 1.01593   4
   3   1   0 3.50331 1.31320  10
   3   1   0 4.51885 0.92267  12
  -3   1   0 4.00371 0.80626   5
  -3   1   0 3.29699 1.51569  10
  -3   1   0 2.46111 0.99020   1
  -3   1   0 2.84700 0.67837  16
  -3   1   0 3.64477 0.87047   8
  -3   1   0 3.31255 1.03738  11
   3   1   0 3.85964 1.11772  14
   5  -1   0 937.406 23.7632  12
  -5  -1   0 970.940 24.5843  16
   5  -1   0 912.013 24.4771   4
  -5  -1   0 905.599 23.8285   1
   5  -1   0 932.620 25.4196  14
  -5  -1   0 920.086 23.7502   5
   5  -1   0 900.398 28.8245  10
  -5  -1   0 912.972 24.7880  11
  -5  -1   0 909.500 23.9157   8
   5  -1   0 888.578 21.4117   2
   5   1   0 906.014 27.1937  10
  -5   1   0 927.964 24.1169   1
   5   1   0 945.617 25.7264  14
   5   1   0 920.739 23.7283  12
  -5   1   0 902.797 22.7370   5
  -5   1   0 921.064 24.6428  11
  -5   1   0 959.122 23.2907  16
   5   1   0 935.988 24.2651   4
  -5   1   0 906.980 23.8561   8
   7  -1   0 21.9278 3.62074   4
   7  -1   0 24.9299 5.44594  10
  -7  -1   0 21.4712 3.35456  16
  -7  -1   0 26.0742 4.34305  11
  -7  -1   0 21.9398 3.33437   1
  -7  -1   0 25.0383 3.45285   5
   7  -1   0 26.9783 3.47264  12
   7  -1   0 23.4108 3.95136  14
  -7  -1   0 39.3497 4.51996   8
  -7   1   0 23.8501 3.35007   8
   7   1   0 19.3601 3.66723  14
  -7   1   0 23.3018 4.04910  11
  -7   1   0 22.5542 3.40427   1
   7   1   0 20.8937 4.35679  10
   7   1   0 21.3396 3.09559  12
   7   1   0 21.7552 3.75584   4
   9  -1   0 125.553 8.16173  12
   9  -1   0 128.394 9.57134  14
   9  -1   0 128.734 9.29450   4
  -9  -1   0 118.482 8.47461   1
  -9  -1   0 141.664 10.2088  11
   9   1   0 132.717 9.83584  14
  -9   1   0 139.086 9.02264   8
  -9   1   0 127.878 8.36192   1
  -9   1   0 136.624 10.0283  11
   9   1   0 118.645 8.06293  12
   9   1   0 118.016 8.84166   4
   0  -2   0 1833.28 47.0247  10
   0  -2   0 1792.78 40.3286   2
   0   2   0 1839.44 43.1829  13
   0   2   0 1844.70 46.7398  10
   0   2   0 1767.25 42.9834  14
   0   2   0 1825.49 40.2804   3
  -2  -2   0 678.156 16.5072  11
   2  -2   0 656.137 16.2234   2
  -2  -2   0 725.300 16.8260  10
  -2  -2   0 660.754 16.1097   1
  -2  -2   0 692.415 17.0386  16
  -2  -2   0 665.456 16.5743   5
   2  -2   0 685.047 16.3126  12
   2  -2   0 650.941 19.1005  10
   2   2   0 668.877 15.9854   4
  -2   2   0 642.131 16.2829   1
  -2   2   0 648.002 16.1976   3
  -2   2   0 652.818 15.7975   7
  -2   2   0 637.831 15.8389   8
  -2   2   0 665.621 15.1018  16
  -2   2   0 669.087 18.9936  10
   2   2   0 684.719 17.0539  14
  -2   2   0 642.058 16.3306  13
   2   2   0 697.065 16.1610  12
   4  -2   0 1948.52 44.7622   2
  -4  -2   0 2005.91 47.0572  16
   4  -2   0 1953.45 45.7965  12
   4  -2   0 2028.44 46.6438   4
   4  -2   0 2006.74 51.6985  10
  -4  -2   0 1952.19 46.1308   8
  -4  -2   0 1924.22 46.2087   5
  -4  -2   0 1950.45 46.6273  11
  -4  -2   0 1965.91 45.7916   1
  -4  -2   0 1980.19 48.4570  10
  -4   2   0 1927.95 44.2423   5
   4   2   0 2012.33 47.6534  14
  -4   2   0 1993.56 46.1947   1
  -4   2   0 1974.63 45.7255   8
   4   2   0 1979.66 45.7154  12
   4   2   0 1911.33 45.8704   4
  -4   2   0 2047.20 44.5295  16
   4   2   0 2018.68 48.1903  10
  -6  -2   0 1360.75 34.6460   1
  -6  -2   0 1393.72 35.9749  16
   6  -2   0 1418.29 36.0436   4
  -6  -2   0 1316.92 33.0318   6
   6  -2   0 1356.64 36.5594  14
  -6  -2   0 1371.14 36.0620  11
  -6  -2   0 1351.68 34.9416   5
   6  -2   0 1372.05 41.9302  10
   6  -2   0 1384.60 34.8470  12
   6   2   0 1403.72 35.1900   4
  -6   2   0 1378.58 34.7902   8
   6   2   0 1371.83 34.7143  12
  -6   2   0 1410.53 35.4386   1
  -6   2   0 1387.17 35.9738  11
   6   2   0 1451.18 37.4177  14
   6   2   0 1324.38 37.9221  10
   8  -2   0 884.517 28.2391  14
  -8  -2   0 882.955 26.0971   1
  -8  -2   0 900.235 28.1812  11
   8  -2   0 870.488 26.0455  12
   8  -2   0 886.009 27.1032   4
  -8  -2   0 886.524 26.1112   5
   8   2   0 928.076 27.0149   4
   8   2   0 898.250 26.2663  12
   8   2   0 859.947 28.2982  14
  -8   2   0 893.198 26.8080   1
  -8   2   0 905.417 26.1104   8
  -8   2   0 904.282 27.9872  11
 -10  -2   0 819.398 26.3256   1
  10  -2   0 828.553 27.6671   4
 -10  -2   0 811.269 28.5753  11
  10   2   0 781.989 26.1223  12
  10   2   0 846.406 26.9642   4
 -10   2   0 816.102 28.8258  11
 -10   2   0 815.821 27.0950   1
   1  -3   0 136.182 6.04039  10
   1  -3   0 130.827 4.71849   2
   1  -3   0 128.489 3.92159   6
   1  -3   0 132.115 4.52330  12
  -1  -3   0 130.641 4.10323  10
  -1  -3   0 124.897 4.27809  11
  -1  -3   0 129.857 4.31139   2
  -1  -3   0 137.714 4.66803   5
   1   3   0 125.635 3.79449   4
  -1   3   0 140.566 4.01614   8
  -1   3   0 128.071 4.47671   3
   1   3   0 137.738 4.72488  14
   1   3   0 129.671 4.59102  13
  -1   3   0 124.589 3.79372   7
  -1   3   0 145.641 5.96117  10
   1   3   0 124.369 4.32603  12
  -1   3   0 130.156 4.54600  13
   1   3   0 124.739 4.50029   3
   3  -3   0 876.805 22.2216  12
  -3  -3   0 896.410 22.0578   1
  -3  -3   0 961.961 22.8548  10
   3  -3   0 868.286 22.0643   2
  -3  -3   0 909.614 22.8116   5
   3  -3   0 876.667 26.5940  10
  -3  -3   0 909.399 22.5271  11
   3  -3   0 871.968 22.3737   4
  -3  -3   0 957.271 23.6733  16
  -3   3   0 891.847 22.4518  13
   3   3   0 918.000 22.1290  12
   3   3   0 928.799 23.5389  14
  -3   3   0 888.192 21.5211   7
   3   3   0 870.912 22.3011   3
  -3   3   0 887.105 20.3179  16
  -3   3   0 890.898 21.7462   8
   3   3   0 887.598 21.7603   4
  -3   3   0 867.902 22.3440   1
  -5  -3   0 18.4190 2.83476  16
  -5  -3   0 27.1861 3.41286   5
   5  -3   0 22.7721 2.52436   2
  -5  -3   0 22.8821 3.28889  11
   5  -3   0 18.9540 2.50414  12
   5  -3   0 16.4255 2.91949   4
  -5  -3   0 18.0251 2.67077   1
   5   3   0 17.3936 2.45472  12
   5   3   0 15.8874 3.10399  14
  -5   3   0 18.9559 2.42170   8
  -5   3   0 18.7007 2.96696   1
   5   3   0 18.7053 2.68735   4
  -5   3   0 17.0377 2.79948  11
  -7  -3   0 135.359 8.62707  11
   7  -3   0 140.376 8.51271  14
   7  -3   0 154.519 12.2767  10
  -7  -3   0 131.556 6.55214   6
  -7  -3   0 145.863 7.92277   1
  -7  -3   0 153.465 8.43867   5
   7  -3   0 142.976 7.57256  12
   7  -3   0 150.062 8.85126   4
   7   3   0 149.468 7.58011  12
   7   3   0 152.990 9.41665  14
  -7   3   0 152.609 7.59757   8
  -7   3   0 144.814 8.73445  11
  -7   3   0 136.039 8.17426   1
   7   3   0 158.575 8.27407   4
  -9  -3   0 2.83055 2.72740   5
   9  -3   0 6.40343 2.78508  12
   9  -3   0 4.74428 3.61015   4
  -9  -3   0 2.05723 2.83035   1
   9  -3   0 1.49996 2.74657  14
  -9  -3   0 2.33055 3.37090  11
  -9   3   0 0.41356 3.25214   1
  -9   3   0 3.44139 2.76643   8
   9   3   0 -0.0855 2.08478  12
   9   3   0 1.36421 3.12629  14
   9   3   0 2.54587 3.05356   4
  -9   3   0 -0.5288 2.10601  11
   0  -4   0 2877.22 64.7125  12
   0  -4   0 2953.29 64.5862   6
   0  -4   0 2906.34 65.1347   2
   0  -4   0 2885.56 73.3568  10
   0   4   0 2891.76 64.9419   7
   0   4   0 2950.52 64.6545  12
   0   4   0 2896.93 65.0147   3
   0   4   0 2916.34 68.1226  13
   0   4   0 2848.73 67.7847  14
   2  -4   0 6422.56 143.164   6
   2  -4   0 6517.98 160.033  10
  -2  -4   0 6213.19 146.222  11
  -2  -4   0 6319.72 146.590   5
   2  -4   0 6490.76 145.207  12
   2  -4   0 6162.75 143.582   2
  -2  -4   0 6158.46 138.400   2
  -2   4   0 6189.40 145.045   3
   2   4   0 6472.38 144.076   4
   2   4   0 6152.85 143.667  14
  -2   4   0 6547.96 143.754  12
   2   4   0 6614.52 147.008   3
  -2   4   0 6133.39 139.581   8
  -2   4   0 6487.59 142.520   7
  -2   4   0 6315.71 149.043  13
   2   4   0 6456.16 146.898  12
  -4  -4   0 788.618 20.7940  11
   4  -4   0 738.685 20.5660   4
   4  -4   0 745.137 20.3547  12
  -4  -4   0 769.295 20.1085   1
  -4  -4   0 784.025 21.8902  16
  -4  -4   0 767.671 21.0575   5
   4  -4   0 738.228 19.9011   2
   4  -4   0 757.569 26.0668  10
  -4   4   0 751.832 19.3810   7
   4   4   0 751.265 19.6066   4
   4   4   0 772.492 20.2537  12
   4   4   0 797.012 22.0124  14
  -4   4   0 747.110 19.5077   8
   4   4   0 739.330 20.3640   3
  -4   4   0 746.003 20.5735  13
  -4   4   0 726.041 20.4281   1
  -6  -4   0 1747.27 43.8786   1
   6  -4   0 1785.43 42.5512   2
  -6  -4   0 1777.08 45.3002   5
  -6  -4   0 1718.52 43.2172   6
   6  -4   0 1848.17 44.8342  12
   6  -4   0 1742.21 52.8168  10
   6  -4   0 1862.03 45.4152   4
  -6  -4   0 1741.81 45.1530  11
  -6   4   0 1826.98 45.5939  11
  -6   4   0 1794.13 43.6964   8
  -6   4   0 1831.14 45.1321   1
   6   4   0 1769.52 44.1911  12
   6   4   0 1803.40 46.9588  14
   6   4   0 1790.31 43.9348   4
   6   4   0 1749.36 44.3455   3
  -8  -4   0 55.7954 5.21531   1
   8  -4   0 71.0819 7.48831   4
   8  -4   0 47.7565 5.70823  14
  -8  -4   0 45.4238 6.14714  11
   8  -4   0 35.5469 4.89877  12
  -8  -4   0 59.2599 6.42842   5
   8   4   0 48.2548 5.74105   4
   8   4   0 46.1381 5.51284   3
  -8   4   0 53.3848 5.00434   8
   8   4   0 55.8620 7.25945  14
  -8   4   0 53.1344 6.51066   1
  -8   4   0 45.7099 5.77399  11
   8   4   0 52.8984 5.37017  12
 -10  -4   0 475.947 20.1437  11
  10  -4   0 540.615 21.0022   4
 -10  -4   0 512.577 19.1109   1
 -10   4   0 506.162 18.8537   8
 -10   4   0 507.265 21.4584  11
  10   4   0 519.973 19.2955   4
  10   4   0 508.897 19.4611  12
  10   4   0 475.862 18.6278   3
 -10   4   0 553.419 20.9218   1
   1  -5   0 87.5194 4.65663   2
  -1  -5   0 81.1262 3.99848   5
  -1  -5   0 82.8288 4.09282   6
   1  -5   0 79.7530 4.00797  12
  -1  -5   0 80.3564 3.77586  10
  -1  -5   0 75.3058 3.98732   2
   1  -5   0 78.0391 3.56458   6
  -1  -5   0 74.8495 3.62159  11
   1   5   0 73.5017 4.00672  14
  -1   5   0 75.8616 3.54291  12
   1   5   0 76.7456 3.19101   7
  -1   5   0 77.8269 3.27653   8
  -1   5   0 82.5891 4.05743  13
   1   5   0 85.1757 3.96035  12
   1   5   0 96.4598 4.57423   3
  -1   5   0 79.4007 4.15635   3
  -1   5   0 81.1544 3.16923   7
  -1   5   0 93.1313 5.24170  10
   1   5   0 85.1293 4.16786  13
  -3  -5   0 87.3946 4.67577  11
  -3  -5   0 93.6917 4.98833   6
   3  -5   0 94.7223 5.00646  12
  -3  -5   0 98.3448 5.57505   5
   3  -5   0 97.9723 7.44776  10
  -3  -5   0 99.2922 3.53585  10
  -3  -5   0 92.2677 3.75735   2
   3  -5   0 99.1799 5.45911   2
   3  -5   0 94.8145 3.25934   6
  -3   5   0 97.6121 4.14851   7
  -3   5   0 100.218 5.23244  13
   3   5   0 93.9470 4.74336  12
  -3   5   0 92.0435 4.95800   3
  -3   5   0 99.7555 3.23820  16
   3   5   0 93.3831 5.55513  14
   3   5   0 91.1044 5.16331   3
   3   5   0 105.141 4.19647   4
  -5  -5   0 23.8862 3.21255   6
  -5  -5   0 17.2388 3.10412   5
  -5  -5   0 22.8548 3.36954  11
   5  -5   0 22.8211 3.52411   4
   5  -5   0 19.0669 2.89309  12
   5  -5   0 20.2331 4.97136  10
   5  -5   0 23.3342 3.28138   2
  -5   5   0 19.3287 3.02557  13
  -5   5   0 26.6780 2.99404   8
   5   5   0 25.3385 3.24765  12
   5   5   0 24.7336 3.64521   3
  -5   5   0 38.9170 4.48505   1
   5   5   0 19.0659 2.56314   4
   7  -5   0 112.759 7.31975  12
  -7  -5   0 107.347 7.81552  11
  -7  -5   0 119.415 7.53415   1
  -7  -5   0 113.544 6.89824   6
  -7  -5   0 131.580 8.11384   5
   7  -5   0 110.286 7.98237   4
   7   5   0 121.572 6.92207   4
  -7   5   0 96.8127 7.10810   1
   7   5   0 115.198 7.67055   3
   7   5   0 113.347 8.75866  14
  -7   5   0 117.324 8.17322  11
  -7   5   0 118.271 6.94691   8
   7   5   0 114.490 7.18697  12
   9  -5   0 14.0069 4.35407   4
  -9  -5   0 12.0557 3.74430   1
  -9  -5   0 13.9608 4.66077  11
  -9   5   0 9.09881 4.26336   1
   9   5   0 10.7323 3.31869  12
   9   5   0 13.9257 3.86635   4
  -9   5   0 20.1516 3.94019   8
   9   5   0 15.8067 4.14470   3
  -9   5   0 11.6596 3.64683  11
   0  -6   0 2385.95 56.1377  10
   0  -6   0 2333.20 54.8809   2
   0  -6   0 2271.86 54.1962  12
   0  -6   0 2409.60 54.1557   6
   0   6   0 2323.58 54.7827   3
   0   6   0 2409.13 54.6910  13
   0   6   0 2355.45 54.5569  14
   0   6   0 2315.16 54.1663  12
   0   6   0 2373.78 52.7022   7
  -2  -6   0 234.831 6.82235  10
  -2  -6   0 201.967 5.76194  10
  -2  -6   0 189.852 7.92144   5
   2  -6   0 206.933 6.54825   6
  -2  -6   0 194.365 7.26925  11
  -2  -6   0 199.276 7.25860   2
   2  -6   0 208.622 8.49092   2
  -2  -6   0 205.710 7.97288   6
   2  -6   0 198.353 7.73415  12
   2  -6   0 194.399 10.1778  10
  -2   6   0 190.612 6.49193   8
  -2   6   0 195.997 6.40152   7
   2   6   0 209.526 8.05680  13
  -2   6   0 207.810 7.97559  13
   2   6   0 200.227 8.14521   3
  -2   6   0 196.391 7.90341   3
  -2   6   0 189.220 7.34286  12
   2   6   0 190.503 7.96532  14
   2   6   0 194.747 7.57505  12
   4  -6   0 2176.48 51.1581   2
   4  -6   0 2108.38 51.1819  12
   4  -6   0 2105.46 50.6684   4
  -4  -6   0 2071.75 51.7086   5
  -4  -6   0 2045.68 50.7301  11
   4  -6   0 2104.64 58.5597  10
  -4  -6   0 2129.54 51.0075   6
   4   6   0 2131.26 51.3984   3
   4   6   0 2095.96 50.7412  12
  -4   6   0 2164.19 49.2018   7
   4   6   0 2101.17 49.1083   4
  -4   6   0 2118.33 51.3239   1
   4   6   0 2131.82 52.5914  14
  -4   6   0 2172.44 51.3753  13
  -4   6   0 2073.75 49.1956   8
  -4   6   0 2147.44 51.0449   3
   6  -6   0 234.067 10.5186  12
  -6  -6   0 256.568 11.1133  11
  -6  -6   0 247.922 10.6443   6
  -6  -6   0 241.288 11.5313   5
   6  -6   0 210.752 10.1809   4
   6  -6   0 247.675 10.3221   2
   6   6   0 250.035 10.9128   3
   6   6   0 237.407 10.3110  12
   6   6   0 247.888 9.69353   4
  -6   6   0 227.550 10.8442  13
   6   6   0 235.988 11.9560  14
  -6   6   0 234.258 10.9292   1
  -6   6   0 241.513 9.58186   8
  -8  -6   0 1287.07 35.8176   6
  -8  -6   0 1278.27 37.8343  11
   8  -6   0 1334.76 38.2005   4
  -8   6   0 1364.27 39.0343  11
   8   6   0 1368.61 37.6767  12
   8   6   0 1347.77 40.3261  14
   8   6   0 1348.96 37.8384   3
  -8   6   0 1360.03 38.6032   1
  -1  -7   0 522.158 15.2754   6
  -1  -7   0 496.873 14.5194  10
   1  -7   0 530.128 14.4067   6
   1  -7   0 529.108 15.9312   2
   1  -7   0 497.478 15.0483  12
   1  -7   0 505.023 17.6832  10
  -1  -7   0 509.061 15.2393   2
  -1   7   0 532.736 15.4732  13
  -1   7   0 519.056 13.3673   7
   1   7   0 495.662 13.4352   7
  -1   7   0 496.735 14.5906  12
   1   7   0 503.312 15.5200   3
   1   7   0 496.450 15.1593  13
   1   7   0 483.989 14.8384  12
   1   7   0 490.038 15.3258  14
  -1   7   0 522.762 15.7280   3
  -1   7   0 483.948 13.5259   8
   3  -7   0 712.947 20.7190  12
  -3  -7   0 692.365 18.8695   2
  -3  -7   0 729.860 20.8761   6
   3  -7   0 689.245 19.5482   4
  -3  -7   0 709.560 20.0953  11
  -3  -7   0 758.500 21.6065   5
   3  -7   0 726.572 21.0461   2
   3  -7   0 754.327 26.4111  10
  -3   7   0 693.756 18.6603   8
   3   7   0 742.572 21.0479  13
  -3   7   0 725.421 18.6138   7
  -3   7   0 731.126 20.9177   3
   3   7   0 717.863 20.5431  12
   3   7   0 727.357 21.2505   3
   3   7   0 707.524 21.3884  14
  -3   7   0 739.222 20.8903  13
   5  -7   0 148.833 8.11922  12
   5  -7   0 167.237 8.65193   2
   5  -7   0 154.320 8.05479   4
  -5  -7   0 157.168 8.44090   6
  -5  -7   0 151.631 8.99782   5
   5  -7   0 157.352 12.5373  10
  -5  -7   0 145.645 8.00430  11
   5   7   0 145.386 8.29594  13
   5   7   0 155.348 8.06221  12
  -5   7   0 155.463 6.98279   7
  -5   7   0 152.225 8.18207  13
  -5   7   0 165.386 8.95856   1
   5   7   0 146.815 8.58391  14
   5   7   0 153.970 8.33202   3
  -7  -7   0 360.302 14.1684   6
   7  -7   0 310.640 13.7265   4
   7  -7   0 331.163 13.0901   2
  -7  -7   0 361.499 14.7588  11
   7   7   0 330.885 15.7758  14
  -7   7   0 336.856 14.9375   1
  -7   7   0 330.542 14.4852  11
   7   7   0 320.371 13.6162  12
   7   7   0 306.116 14.0315   3
   9  -7   0 74.3572 7.11851   4
  -9  -7   0 58.8538 7.57405  11
   9   7   0 74.7580 6.92868   3
  -9   7   0 77.2937 8.81752   1
  -9   7   0 89.2407 8.06895  11
   0  -8   0 1192.79 29.5810   6
   0  -8   0 1145.32 30.3896   2
   0   8   0 1128.33 29.9584  13
   0   8   0 1144.19 27.5957   7
   0   8   0 1135.60 29.9949  12
   0   8   0 1145.41 30.5752   3
   2  -8   0 1500.02 42.4440  10
  -2  -8   0 1411.18 36.0105   2
   2  -8   0 1468.45 34.9832   6
   2  -8   0 1449.03 37.5855   2
  -2  -8   0 1510.38 37.2918   6
   2   8   0 1469.37 37.0864  13
   2   8   0 1430.59 37.5431  14
   2   8   0 1428.81 34.6904   7
   2   8   0 1475.23 37.8050   3
   2   8   0 1384.59 36.5336  12
  -2   8   0 1482.67 37.6590   3
  -2   8   0 1457.34 37.0467  13
  -4  -8   0 738.263 21.8971   6
  -4  -8   0 680.225 20.5991  11
   4  -8   0 718.141 21.8892   2
   4  -8   0 659.224 20.0859   4
   4  -8   0 693.265 27.5908  10
   4   8   0 676.643 21.8819   3
   4   8   0 694.513 22.3148  14
   4   8   0 710.046 21.3491  12
   4   8   0 700.926 21.5833  13
  -4   8   0 702.223 21.3815  13
  -4   8   0 716.330 21.9442   1
  -4   8   0 682.890 21.5233   3
   6  -8   0 552.062 18.6913   4
   6  -8   0 581.889 19.2515   2
  -6  -8   0 557.652 19.1402  11
  -6  -8   0 556.952 19.4014   6
  -6   8   0 566.208 19.6227  13
   6   8   0 546.646 20.7228  14
   6   8   0 557.881 19.6020  13
   6   8   0 554.471 19.7840   3
   6   8   0 548.932 19.1134  12
  -6   8   0 559.692 20.2787   1
  -8  -8   0 309.176 14.3614  11
  -8  -8   0 310.198 13.6411   6
   8  -8   0 253.768 12.8770   4
  -8   8   0 272.712 14.0400  11
  -8   8   0 274.487 14.6039   1
   8   8   0 275.748 13.8863   3
  -1  -9   0 76.5085 5.79715   2
   1  -9   0 77.3268 6.30857   2
   1  -9   0 73.6873 4.90015   6
  -1  -9   0 89.8794 6.09874   6
  -1   9   0 76.1334 5.48962  13
   1   9   0 68.2455 5.43050  14
   1   9   0 81.1418 5.66074  13
  -1   9   0 69.9726 5.96796   3
   1   9   0 68.8816 5.54146   3
   3  -9   0 19.5129 4.57991  10
   3  -9   0 18.6148 4.15672   2
  -3  -9   0 23.7234 4.05102   6
   3   9   0 30.4793 4.46869  14
   3   9   0 24.9702 3.77074  13
   3   9   0 20.2348 4.14297   3
  -3   9   0 24.3191 3.98753  13
  -3   9   0 18.9542 3.88021   3
   3   9   0 21.1354 3.50687  12
   5  -9   0 80.4380 7.32569   2
  -5  -9   0 74.2970 6.95504   6
  -5  -9   0 62.6163 5.72042  11
   5   9   0 74.7255 5.87353  12
   5   9   0 71.0837 6.91971  14
  -5   9   0 69.3858 6.33787  13
  -5   9   0 67.4691 7.37852   1
   5   9   0 68.5844 7.20079   3
   5   9   0 62.5438 5.86885  13
  -7  -9   0 6.22352 2.84900   6
   7  -9   0 0.40005 3.22518   2
  -7   9   0 7.01229 3.35699  11
   7   9   0 12.3840 4.25678   3
   0 -10   0 7.05715 3.10257   2
   0 -10   0 8.59159 2.69563   6
   0  10   0 7.69984 2.72866   3
   0  10   0 14.4868 2.84475  13
  -2 -10   0 1960.26 49.0274   6
   2 -10   0 1957.39 49.7269   2
  -2 -10   0 1861.32 47.4739   2
  -2  10   0 1945.54 48.9859  13
   2  10   0 1867.00 49.1839  14
   2  10   0 1853.34 48.3754  13
   2  10   0 1934.54 49.7847   3
  -2  10   0 1934.11 49.5184   3
  -4 -10   0 11.6578 3.20107   6
   4 -10   0 17.4026 4.51164   2
  -4  10   0 12.4862 3.80539   3
   4  10   0 13.3322 3.20406  13
   4  10   0 11.2677 3.72027  14
   4  10   0 12.8549 4.13669   3
  -4  10   0 17.6920 3.95621   1
  -4  10   0 13.5871 3.60856  13
   6 -10   0 1258.85 36.0189   2
  -6 -10   0 1174.16 35.5184   6
  -6  10   0 1238.66 36.8850   1
   6  10   0 1247.42 36.8109   3
   1 -11   0 268.549 12.2643   2
  -1 -11   0 253.575 11.5404   2
   1 -11   0 229.725 10.2174   6
  -1 -11   0 256.593 11.5984   6
   1  11   0 241.017 12.4160   3
  -1  11   0 246.030 12.4214   3
  -1  11   0 244.472 11.3840  13
   1  11   0 247.329 11.3074  13
  -3 -11   0 195.143 11.0197   6
   3 -11   0 202.538 11.1016   2
   3  11   0 181.798 10.6702  14
  -3  11   0 200.147 11.2088   3
   3  11   0 209.303 11.3172   3
  -3  11   0 191.334 10.2015  13
  -5 -11   0 187.406 10.9277   6
   5 -11   0 207.945 12.0618   2
   5  11   0 197.599 11.4800   3
  -5  11   0 196.428 11.9406   1
   0 -12   0 440.091 17.4054   2
   0 -12   0 445.112 16.2184   6
   0  12   0 448.883 16.7855  13
   0  12   0 430.452 17.6608   3
  -2 -12   0 372.007 15.4652   6
   2 -12   0 392.623 16.8188   2
  -2  12   0 388.396 16.5982   3
  -2  12   0 368.792 15.3371  13
   2  12   0 393.953 16.7826   3
  -4 -12   0 399.474 17.3283   6
   4 -12   0 407.436 17.6989   2
   4  12   0 396.718 17.8438   3
  -4  12   0 413.856 17.9872   1
   1 -13   0 1.91414 3.37160   2
  -1 -13   0 7.40287 3.27467   2
  -1 -13   0 2.10202 3.05289   6
  -1  13   0 4.10976 3.86028   3
   1  13   0 4.85376 3.91330   3
   3 -13   0 10.8484 3.76926   2
  -3 -13   0 10.9231 4.49090   6
   3  13   0 8.78243 4.27841   3
  -3  13   0 11.3599 4.55409   3
  10   0  -1 1.64543 2.67357  12
  10   0  -1 -1.0105 2.16290   4
 -10   0   1 0.63320 3.65220  11
 -10   0   1 0.03859 2.62131   1
  10   0  -1 -0.7261 2.67794  14
   8   0  -1 -0.4904 1.51270  12
  -8   0   1 7.92567 2.80874   8
   8   0  -1 4.47759 2.86735   4
  -8   0   1 -2.2544 1.87457   1
   8   0  -1 1.01431 1.64163  14
  -8   0   1 -2.3890 1.49409   5
  -8   0   1 0.23367 1.41955  16
   8   0  -1 7.35986 3.51430  10
  -8   0   1 4.71058 2.42897  11
   6   0  -1 2.96067 1.86997   4
  -6   0   1 0.93465 1.67378  11
  -6   0   1 7.75823 1.89040   8
  -6   0   1 0.21165 1.32023   1
  -6   0   1 1.41289 1.09531   5
   6   0  -1 0.19772 0.82006   9
   6   0  -1 1.49261 1.62445  14
   6   0  -1 6.75427 1.85159  12
   6   0  -1 0.56544 1.96151  10
  -6   0   1 1.33923 1.26367  16
  -4   0   1 0.57747 0.59904   1
   4   0  -1 0.95818 1.09566   4
  -4   0   1 0.53543 0.59633  16
   4   0  -1 0.40273 0.94620  14
   4   0  -1 -0.2303 0.42642  12
   4   0  -1 0.22533 0.89002  10
  -4   0   1 4.88821 1.22505   8
  -4   0   1 0.19240 0.82139  11
  -4   0   1 0.73285 0.64080   5
  -2   0  -1 3.01171 0.89049  11
  -2   0  -1 1.49807 0.80441  10
   2   0   1 2.83244 1.20433  10
  -2   0  -1 0.76380 0.52942   7
  -2   0  -1 0.44612 0.57169   8
  -2   0  -1 2.47113 0.64789   5
   2   0   1 0.49579 0.75027   4
  -2   0  -1 1.34520 0.61533   1
   2   0   1 1.15748 0.37424  12
   4   0   1 1.07807 1.77130  10
  -4   0  -1 1.32394 0.91937   5
  -4   0  -1 0.93175 1.05974   8
   4   0   1 0.71023 0.79313  12
   4   0   1 0.78158 1.39728   4
  -4   0  -1 2.24641 0.58775   6
  -4   0  -1 0.44809 0.87249  11
  -4   0  -1 1.75726 1.22941   1
   4   0   1 0.51005 1.31612  14
  -6   0  -1 0.04987 1.81166   1
   6   0   1 7.03022 2.70897   4
   6   0   1 0.83508 1.31974  12
   6   0   1 1.47871 1.99172  14
  -6   0  -1 1.09143 1.23118   5
  -6   0  -1 5.36690 1.79176   8
  -6   0  -1 3.70748 2.27576  11
   6   0   1 0.19404 2.16236  10
  -8   0  -1 2.25506 2.88669   1
   8   0   1 -0.3317 1.85084  12
   8   0   1 0.75583 2.84711   4
  -8   0  -1 1.68079 2.92889  11
   8   0   1 0.39146 2.68169  14
  10   0   1 -0.0959 2.32143  12
  10   0   1 -1.0508 3.41114   4
 -10   0  -1 0.43669 3.74338   1
 -10   0  -1 -0.5784 3.82129  11
 -11  -1   1 348.527 17.4902  11
  11  -1  -1 357.441 16.5380   4
  11   1  -1 333.026 15.6045   4
 -11   1   1 306.884 14.6213   1
 -11   1   1 324.376 16.5037  11
   9  -1  -1 433.500 17.6324  14
   9  -1  -1 463.958 16.8434  12
   9  -1  -1 435.950 17.3349   4
  -9  -1   1 468.576 18.5086  11
  -9  -1   1 426.521 15.8287   5
  -9  -1   1 451.800 17.1839   8
  -9  -1   1 452.387 16.2834   1
   9   1  -1 457.637 17.4846   4
  -9   1   1 484.359 18.8525  11
   9   1  -1 441.416 18.2051  14
  -9   1   1 456.015 16.8934   8
   9   1  -1 445.281 16.6595  12
  -9   1   1 464.331 16.9703   1
  -7  -1   1 1292.55 34.6973  11
  -7  -1   1 1261.25 33.1402   5
  -7  -1   1 1289.56 33.0052   1
   7  -1  -1 1302.89 34.4029   4
  -7  -1   1 1296.39 33.7531   8
   7  -1  -1 1265.07 33.4874  12
   7  -1  -1 1305.76 35.1339  14
  -7  -1   1 1307.79 34.0034  16
   7  -1  -1 1232.41 39.6700  10
   7   1  -1 1294.27 35.2895  14
  -7   1   1 1272.73 32.2493   5
   7   1  -1 1298.43 34.0130   4
  -7   1   1 1323.25 32.9306  16
  -7   1   1 1289.94 33.3296   1
   7   1  -1 1275.00 33.3580  12
  -7   1   1 1316.27 35.0272  11
   7   1  -1 1234.15 38.0417  10
  -7   1   1 1302.64 33.6934   8
   5  -1  -1 1396.62 34.8964  14
   5  -1  -1 1408.48 33.9194  12
   5  -1  -1 1336.86 31.6511   2
  -5  -1   1 1391.63 33.3800   1
  -5  -1   1 1349.72 33.7250   5
   5  -1  -1 1426.88 34.5188   4
   5  -1  -1 1386.59 38.8007  10
  -5  -1   1 1355.90 33.8285   8
  -5  -1   1 1455.38 34.5304  16
  -5  -1   1 1369.14 34.3335  11
  -5   1   1 1380.05 33.5197   1
  -5   1   1 1428.78 33.3566  16
   5   1  -1 1381.43 31.4820   9
   5   1  -1 1407.56 34.1897   4
   5   1  -1 1398.07 35.2344  14
   5   1  -1 1366.02 33.7642  12
   5   1  -1 1378.98 37.3865  10
  -5   1   1 1391.54 34.4772  11
  -5   1   1 1406.21 33.0678   5
  -5   1   1 1416.82 33.9424   8
   3  -1  -1 5179.13 119.654  14
  -3  -1   1 4724.42 114.431   5
   3  -1  -1 4932.26 114.733   4
   3  -1  -1 4796.78 113.025   2
  -3  -1   1 5098.78 118.405  16
   3  -1  -1 4997.67 124.977  10
  -3  -1   1 4997.85 111.820  11
  -3  -1   1 5196.03 110.530   1
   3  -1  -1 4928.69 115.212  12
  -3  -1   1 4897.47 123.489  10
  -3  -1   1 4781.42 113.776   8
  -3   1   1 5120.70 117.617  16
  -3   1   1 5049.31 115.991   1
   3   1  -1 5061.98 112.264   9
  -3   1   1 4922.52 114.104   8
  -3   1   1 4953.74 123.954  10
   3   1  -1 5221.50 128.517  10
   3   1  -1 5118.74 116.945  12
   3   1  -1 4908.82 116.192   4
  -3   1   1 4867.17 112.870   5
   3   1  -1 5167.08 122.284  14
  -3   1   1 4967.44 117.604  13
  -1  -1   1 2451.37 55.3003  16
   1  -1  -1 2475.55 62.0658  10
  -1   1   1 2374.28 56.6809  13
   1   1  -1 2604.29 58.4001  14
  -1   1   1 2311.49 60.9305  10
  -1  -1  -1 8080.58 172.126  11
  -1  -1  -1 8363.03 171.140   1
   1  -1   1 7100.76 181.989  10
   1  -1   1 7152.75 167.462   2
   1  -1   1 7145.88 166.407  12
  -1  -1  -1 7201.33 167.846   6
  -1  -1  -1 7154.75 169.446   5
   1   1   1 8449.81 174.659  14
  -1   1  -1 7740.70 170.716   1
  -1   1  -1 7428.76 168.773  11
  -1   1  -1 6946.15 180.085  10
  -1   1  -1 7713.83 169.260   7
   3  -1   1 733.536 17.6435  12
  -3  -1  -1 735.704 20.4071  10
  -3  -1  -1 692.582 18.7959  11
  -3  -1  -1 714.508 18.1023   5
   3  -1   1 719.144 17.1992   2
  -3  -1  -1 689.555 17.2074   6
   3  -1   1 773.413 22.2250  10
   3  -1   1 718.578 18.6778   4
  -3  -1  -1 703.269 18.3918   1
  -3   1  -1 709.052 17.0173   5
  -3   1  -1 705.467 18.6928  11
   3   1   1 718.247 20.3888  10
  -3   1  -1 725.857 18.0076   7
  -3   1  -1 709.286 17.9623   8
   3   1   1 723.309 19.5417  14
   3   1   1 716.342 18.3726   4
   3   1   1 757.861 17.5765  12
  -3   1  -1 725.014 18.5369   1
   5  -1   1 2858.87 64.6289  12
  -5  -1  -1 2861.28 66.5519  11
   5  -1   1 2804.06 65.9339   4
   5  -1   1 2831.84 67.2670  14
  -5  -1  -1 2856.32 65.5093   1
  -5  -1  -1 2670.69 62.8553   6
   5  -1   1 2770.74 71.1396  10
  -5  -1  -1 2758.66 64.7076   5
  -5   1  -1 2789.59 64.8918   8
   5   1   1 2814.97 67.4278  14
   5   1   1 2745.73 68.9569  10
  -5   1  -1 2847.99 66.2457  11
  -5   1  -1 2882.65 65.6906   1
   5   1   1 2805.02 64.3884  12
   5   1   1 2930.08 65.7785   4
  -5   1  -1 2749.63 63.3402   5
   7  -1   1 166.322 9.38618   4
   7  -1   1 162.756 8.17947  12
  -7  -1  -1 171.710 8.63879   1
  -7  -1  -1 163.439 9.52267  11
  -7  -1  -1 159.639 7.73252   5
   7  -1   1 161.082 12.0063  10
   7  -1   1 165.029 9.88379  14
   7   1   1 169.079 8.72940   4
   7   1   1 152.298 10.5501  10
   7   1   1 151.988 9.65147  14
  -7   1  -1 170.305 8.36776   8
   7   1   1 161.928 8.02494  12
  -7   1  -1 171.087 9.06051   1
  -7   1  -1 166.903 9.57359  11
   9  -1   1 979.921 30.0974   4
   9  -1   1 901.428 31.1951  14
  -9  -1  -1 947.785 29.5925   1
  -9  -1  -1 946.765 31.2257  11
   9  -1   1 970.448 29.0266  12
   9   1   1 912.762 31.4847  14
   9   1   1 962.425 29.5079   4
   9   1   1 960.554 29.0221  12
  -9   1  -1 995.712 31.6034  11
  -9   1  -1 991.503 30.1626   1
  10  -2  -1 114.007 8.90056  14
 -10  -2   1 116.894 10.0263  11
 -10  -2   1 120.223 8.44096   1
  10  -2  -1 126.340 9.60642   4
  10   2  -1 114.947 9.71764  14
 -10   2   1 120.974 9.42244  11
 -10   2   1 128.301 8.95131   8
  10   2  -1 136.995 9.18475   4
 -10   2   1 116.965 8.36527   1
  -8  -2   1 363.203 14.2057   8
   8  -2  -1 352.211 14.7620  14
  -8  -2   1 356.615 13.7719   5
  -8  -2   1 365.909 14.5811  16
   8  -2  -1 354.305 14.4926   4
  -8  -2   1 355.479 13.1481   1
  -8  -2   1 367.225 15.0096  11
   8  -2  -1 364.748 13.8357  12
  -8   2   1 366.187 14.0251   1
   8   2  -1 364.059 13.6904  12
   8   2  -1 358.060 15.3983  14
  -8   2   1 377.565 14.0734   8
  -8   2   1 384.016 15.1891  11
   8   2  -1 373.225 14.4067   4
   6  -2  -1 382.152 13.0064  12
  -6  -2   1 423.183 14.0471  16
  -6  -2   1 406.117 12.6913   1
   6  -2  -1 403.772 13.6953   4
   6  -2  -1 395.009 17.6720  10
   6  -2  -1 388.057 13.6950  14
  -6  -2   1 403.496 13.4109   5
   6  -2  -1 390.838 11.1036   2
  -6  -2   1 415.144 13.9412  11
  -6  -2   1 410.390 13.3387   8
  -6   2   1 408.839 13.2473   1
  -6   2   1 393.723 11.7202   5
   6   2  -1 394.861 15.7393  10
   6   2  -1 407.820 13.1746  12
   6   2  -1 413.119 13.4511   4
  -6   2   1 413.332 12.1114  16
  -6   2   1 417.384 14.0558  11
  -6   2   1 427.177 13.3810   8
   6   2  -1 411.190 14.4839  14
  -4  -2   1 1164.56 30.8092  10
  -4  -2   1 1156.40 28.7195   5
   4  -2  -1 1181.55 28.4981  12
   4  -2  -1 1163.04 27.4223   2
  -4  -2   1 1162.03 28.4191   8
  -4  -2   1 1184.45 29.2940  16
   4  -2  -1 1168.28 28.6631   4
  -4  -2   1 1154.84 28.6508  11
  -4  -2   1 1158.35 27.8413   1
   4  -2  -1 1219.27 33.5004  10
   4   2  -1 1153.06 28.3953   4
  -4   2   1 1187.87 28.5596  13
  -4   2   1 1152.53 27.2391   5
   4   2  -1 1158.50 28.3106  12
  -4   2   1 1209.04 28.3782   1
   4   2  -1 1179.08 29.5646  14
  -4   2   1 1196.69 27.4205  16
   4   2  -1 1147.90 26.0634   9
  -4   2   1 1163.39 28.1874   8
  -2  -2   1 2819.50 64.0899   8
   2  -2  -1 2739.99 61.4131   2
  -2  -2   1 2783.87 62.0843   1
  -2  -2   1 2938.22 62.5713   2
   2  -2  -1 2843.52 61.6040  12
  -2  -2   1 2760.83 61.7491   5
   2  -2  -1 2760.72 63.0842   6
   2  -2  -1 2630.17 62.7818   4
   2  -2  -1 2773.80 70.2726  10
  -2  -2   1 2798.09 65.1043  16
  -2  -2   1 2867.51 64.0782  11
  -2   2   1 2706.20 61.3027   8
  -2   2   1 2664.99 66.0978  13
  -2   2   1 2689.58 62.6459   3
   2   2  -1 2807.50 64.4799   3
  -2   2   1 2623.57 62.2160   7
  -2   2   1 2765.24 64.1968  10
  -2   2   1 2752.01 65.7655  16
   2   2  -1 2810.86 63.1270   4
   2   2  -1 2961.22 61.5166  12
  -2   2   1 2699.64 62.7543  12
   2   2  -1 2891.96 65.3719  14
   0  -2   1 2552.94 61.2177  12
   0  -2  -1 2474.50 58.3096   2
   0  -2  -1 2713.00 60.9138  11
   0  -2   1 2651.42 66.5319  10
   0  -2  -1 2554.84 57.3681   6
   0  -2   1 2589.85 60.2066  16
   0  -2   1 2593.10 57.6477   2
   0   2   1 2537.16 61.3282  14
   0   2   1 2696.46 60.6128  12
   0   2  -1 2540.54 59.5266  13
   0   2   1 2640.96 61.8941  10
   0   2   1 2749.98 60.4982   3
   0   2  -1 2639.89 59.0060   3
   0   2  -1 2596.86 59.0749   7
   0   2   1 2622.34 62.0475  13
  -2  -2  -1 3204.75 70.9743   6
  -2  -2  -1 3334.11 71.8436  11
  -2  -2  -1 3150.38 71.5181   5
  -2  -2  -1 3382.35 71.5213   1
  -2  -2  -1 3282.98 79.2244  10
   2  -2   1 3107.81 71.0457   2
   2  -2   1 3126.97 75.1942  10
  -2  -2  -1 3101.32 73.2096  15
   2  -2   1 3095.74 72.9045  12
   2   2   1 3406.63 81.9819  10
   2   2   1 3355.33 75.2084  12
  -2   2  -1 3201.46 74.9954  10
  -2   2  -1 3215.23 71.5049   1
  -2   2  -1 3136.47 70.8415   7
   2   2   1 3177.54 72.8098   4
  -2   2  -1 3141.58 72.1201   8
   2   2   1 3288.41 72.3539  14
  -2   2  -1 3075.08 74.1862  13
  -4  -2  -1 1055.53 29.5762  10
   4  -2   1 1027.85 26.5611   4
  -4  -2  -1 1017.31 26.0734   5
  -4  -2  -1 977.598 24.7828   6
   4  -2   1 1044.09 24.7026   2
   4  -2   1 1028.81 25.3987  12
  -4  -2  -1 1032.79 26.9587  11
   4  -2   1 1045.97 31.4046  10
  -4  -2  -1 988.422 25.8523   1
   4   2   1 1018.26 25.8883   4
   4   2   1 1022.01 27.6928  10
   4   2   1 1027.76 25.2270  12
   4   2   1 1002.82 27.4752  14
  -4   2  -1 1036.79 26.2952   1
  -4   2  -1 1059.86 25.5594   8
  -4   2  -1 1056.36 25.6948   7
  -4   2  -1 1022.42 26.4473  11
  -6  -2  -1 719.894 22.3821  11
  -6  -2  -1 712.986 21.0152   1
   6  -2   1 735.666 21.8428   4
  -6  -2  -1 691.770 20.5346   5
  -6  -2  -1 681.696 18.7413   6
   6  -2   1 715.864 27.1721  10
   6  -2   1 683.883 20.2238  12
   6  -2   1 711.105 22.6975  14
   6   2   1 775.602 20.4628  12
  -6   2  -1 715.589 20.4415   8
   6   2   1 678.958 23.3442  10
   6   2   1 728.282 23.1354  14
  -6   2  -1 708.977 21.8303  11
   6   2   1 725.436 21.0370   4
  -6   2  -1 731.154 21.4329   1
   8  -2   1 451.840 18.6397  14
   8  -2   1 462.037 17.9580   4
   8  -2   1 439.911 16.3462  12
  -8  -2  -1 435.057 16.5784   1
  -8  -2  -1 457.288 18.5595  11
   8   2   1 431.902 16.2023  12
   8   2   1 456.989 18.9763  14
   8   2   1 456.088 16.7584   4
  -8   2  -1 472.416 17.6912   1
  -8   2  -1 493.103 18.6000  11
 -10  -2  -1 198.459 11.0876   1
  10  -2   1 186.989 12.0978   4
  10  -2   1 182.774 10.7405  12
 -10  -2  -1 186.159 12.8758  11
  10   2   1 197.130 11.2477   4
 -10   2  -1 208.015 12.4302   1
 -10   2  -1 200.605 12.9874  11
  10   2   1 176.263 10.5628  12
 -11  -3   1 122.608 10.4907  11
  11  -3  -1 126.269 9.49070   4
  11   3  -1 132.984 9.94031   4
 -11   3   1 128.872 9.19902   8
 -11   3   1 111.653 9.30285   1
 -11   3   1 118.469 10.5375  11
   9  -3  -1 1207.50 35.1473  12
   9  -3  -1 1201.68 35.9828  14
  -9  -3   1 1255.12 35.5725   5
  -9  -3   1 1257.55 36.8876  11
  -9  -3   1 1242.75 34.0356   1
   9  -3  -1 1291.97 36.3016   4
  -9   3   1 1254.60 35.3541   1
  -9   3   1 1287.89 37.1590  11
   9   3  -1 1244.78 35.1945  12
   9   3  -1 1197.96 34.2131   3
   9   3  -1 1234.46 37.5275  14
   9   3  -1 1299.06 35.8219   4
  -9   3   1 1267.15 35.1132   8
   7  -3  -1 216.418 10.0258   4
  -7  -3   1 229.699 10.7998  16
  -7  -3   1 224.219 10.4171  11
   7  -3  -1 211.726 14.0867  10
  -7  -3   1 207.925 9.04334   1
   7  -3  -1 216.030 9.51950  12
  -7  -3   1 224.736 10.1680   5
   7  -3  -1 212.210 10.1136  14
   7   3  -1 225.922 9.65879   4
  -7   3   1 231.046 9.56515   8
  -7   3   1 219.395 10.4201  11
   7   3  -1 216.073 11.0861  14
   7   3  -1 212.518 9.41106  12
  -7   3   1 209.730 9.70333   1
   5  -3  -1 2452.28 62.9548  10
  -5  -3   1 2383.39 55.6414   8
  -5  -3   1 2319.22 54.7393   1
   5  -3  -1 2354.56 55.9487   4
   5  -3  -1 2385.91 54.3750   2
   5  -3  -1 2386.76 55.7738  12
  -5  -3   1 2318.40 55.8616  11
  -5  -3   1 2366.23 56.8511  16
  -5  -3   1 2322.93 56.0962   5
  -5   3   1 2490.76 55.8896   1
  -5   3   1 2401.78 55.3448   8
  -5   3   1 2465.80 53.8493  16
   5   3  -1 2289.56 55.4244  12
  -5   3   1 2434.69 55.9584  13
   5   3  -1 2379.07 55.4947   4
   5   3  -1 2427.57 57.5277  14
  -5   3   1 2287.70 53.5216   5
  -3  -3   1 900.023 21.7537   2
   3  -3  -1 918.894 23.2071  12
  -3  -3   1 1015.24 24.3192  10
   3  -3  -1 928.216 21.5183   6
  -3  -3   1 982.183 22.6856   1
  -3  -3   1 986.982 23.1016  11
  -3  -3   1 946.761 23.6780   5
   3  -3  -1 960.525 27.3757  10
   3  -3  -1 925.034 22.9936   2
  -3  -3   1 985.617 24.2502  16
   3  -3  -1 912.414 22.9150   4
  -3   3   1 906.958 22.7376   8
  -3   3   1 910.578 22.7490   3
   3   3  -1 962.876 22.8915   4
  -3   3   1 956.365 22.1897  16
  -3   3   1 966.941 22.7509  12
   3   3  -1 976.868 24.1250  14
   3   3  -1 952.955 23.0788   3
  -3   3   1 940.560 23.3603  13
  -3   3   1 945.443 22.1785   7
   3   3  -1 967.801 23.1111  12
  -3   3   1 898.103 21.9473   5
  -1  -3   1 3055.49 67.6781   5
   1  -3  -1 3067.57 77.2778  10
  -1  -3   1 3030.97 67.6415  12
   1  -3  -1 3036.28 67.8611   2
  -1  -3   1 3024.54 70.5372  16
   1  -3  -1 3105.58 69.1386   6
  -1  -3   1 2932.72 67.6577   2
  -1   3   1 3108.27 69.9763   3
   1   3  -1 3083.21 70.7802  13
  -1   3   1 3107.06 73.2367  13
   1   3  -1 3071.34 67.7187   3
   1   3  -1 3082.59 69.3130  12
   1   3  -1 3066.61 73.9482  14
  -1   3   1 3048.92 78.4412  10
  -1   3   1 3081.42 70.7459  12
   1   3  -1 3072.48 68.9581   7
   1  -3   1 2501.73 54.6245  12
   1  -3   1 2433.43 55.0507   2
  -1  -3  -1 2386.66 53.9753   2
  -1  -3  -1 2409.89 54.7262   6
  -1  -3  -1 2357.72 55.0189  15
   1  -3   1 2539.29 58.2895  10
  -1  -3  -1 2431.54 54.9648  11
   1   3   1 2474.12 54.3476  12
  -1   3  -1 2477.44 54.9272   3
   1   3   1 2449.91 55.0777  14
  -1   3  -1 2420.68 57.5272  10
  -1   3  -1 2423.54 54.5732  13
   1   3   1 2436.34 54.9470   3
  -1   3  -1 2482.07 54.2030   7
  -3  -3  -1 3183.06 68.9552  10
  -3  -3  -1 3069.08 68.7018   6
  -3  -3  -1 3178.00 69.9122  11
   3  -3   1 2915.67 68.6631   2
  -3  -3  -1 2901.80 66.9953  15
  -3  -3  -1 3052.78 69.5612   5
   3  -3   1 2986.77 74.6626  10
   3  -3   1 3062.13 68.8076  12
  -3  -3  -1 3143.75 69.1740   1
  -3   3  -1 3050.01 68.4908   7
   3   3   1 3026.59 68.3357   4
  -3   3  -1 2999.40 69.3503   1
   3   3   1 3185.41 68.5638  12
  -3   3  -1 2948.12 69.1077  13
   3   3   1 3067.56 71.2057  10
  -3   3  -1 3012.16 68.1095   8
   3   3   1 3139.94 70.6074  14
  -5  -3  -1 987.003 26.7975   5
   5  -3   1 1004.50 33.4348  10
   5  -3   1 1042.49 26.4358  12
  -5  -3  -1 993.769 26.6138   1
   5  -3   1 1005.61 24.9530   2
   5  -3   1 1048.39 27.6228   4
  -5  -3  -1 961.367 25.2990   6
  -5  -3  -1 955.887 27.2736  11
  -5   3  -1 1038.11 27.2031   1
   5   3   1 964.216 27.4290  10
  -5   3  -1 1011.60 27.2942  11
   5   3   1 987.345 28.3335  14
   5   3   1 1019.88 26.0746  12
   5   3   1 1030.70 26.2894   4
  -5   3  -1 1003.79 25.8216   8
   7  -3   1 1326.53 36.4482   4
  -7  -3  -1 1313.30 35.3466   5
  -7  -3  -1 1318.56 36.8894  11
   7  -3   1 1263.55 34.8070  12
  -7  -3  -1 1304.34 35.4285   1
   7  -3   1 1279.99 37.4441  14
   7   3   1 1311.07 34.8070  12
  -7   3  -1 1320.79 34.6473   8
  -7   3  -1 1340.01 36.2884   1
  -7   3  -1 1323.30 36.7536  11
   7   3   1 1292.37 37.7833  14
   7   3   1 1358.21 35.2574   4
   9  -3   1 312.914 14.9930   4
   9  -3   1 289.811 15.1128  14
   9  -3   1 288.958 13.1736  12
  -9  -3  -1 305.872 15.5680  11
  -9  -3  -1 306.524 13.5677   1
   9   3   1 308.133 13.5404  12
   9   3   1 279.115 15.5556  14
  -9   3  -1 318.903 14.6923   1
   9   3   1 313.545 14.1037   4
  -9   3  -1 307.025 15.5473  11
  10  -4  -1 80.0733 8.04719   4
 -10  -4   1 76.4384 7.46803   5
 -10  -4   1 72.7864 8.21756  11
  10   4  -1 82.2931 7.67658   4
  10   4  -1 71.3291 6.29159   3
 -10   4   1 79.8064 8.62561  11
 -10   4   1 76.7593 7.90505   1
 -10   4   1 86.4844 6.81561   8
  -8  -4   1 304.360 11.5256   6
  -8  -4   1 281.905 13.0650  11
   8  -4  -1 293.315 12.7498  12
   8  -4  -1 302.342 13.4253   4
  -8  -4   1 296.945 13.3747   5
  -8  -4   1 307.856 12.2944   1
   8  -4  -1 307.077 13.4275  14
  -8   4   1 321.577 12.5829   8
   8   4  -1 308.228 14.6004  14
   8   4  -1 295.894 12.4027  12
  -8   4   1 326.907 13.9591  11
   8   4  -1 284.475 12.0118   3
   8   4  -1 324.733 13.1477   4
  -8   4   1 299.697 13.1547   1
  -6  -4   1 94.1379 6.62304  16
   6  -4  -1 90.5401 8.83161  10
   6  -4  -1 91.4747 4.91997   2
  -6  -4   1 83.0209 6.00802   5
  -6  -4   1 79.4337 5.56114  11
  -6  -4   1 81.8675 5.15086   1
   6  -4  -1 80.1101 5.31402  12
   6  -4  -1 86.2857 5.66377   4
  -6   4   1 87.3155 5.13943   8
  -6   4   1 82.7712 5.43456   1
   6   4  -1 84.9060 5.18283   4
   6   4  -1 85.0470 6.17655  14
   6   4  -1 80.6115 5.22167  12
   6   4  -1 78.7525 5.00764   3
  -6   4   1 83.5433 5.71691  13
   4  -4  -1 262.062 9.00262   2
  -4  -4   1 288.131 9.25027  11
  -4  -4   1 283.915 10.4240  16
   4  -4  -1 266.066 9.26521  12
   4  -4  -1 263.799 12.9079  10
   4  -4  -1 269.751 7.01673   6
  -4  -4   1 284.997 9.97370   5
   4  -4  -1 260.599 9.11071   4
  -4   4   1 247.941 7.43006   5
  -4   4   1 262.154 8.73365   8
   4   4  -1 271.526 8.81721   4
  -4   4   1 270.152 7.65757  16
  -4   4   1 269.375 9.26273   1
   4   4  -1 276.134 9.22993  12
  -4   4   1 263.362 9.38729  13
   4   4  -1 267.780 9.10850   3
  -4   4   1 259.396 8.84173   3
   4   4  -1 277.071 10.2536  14
   2  -4  -1 252.422 7.06203   6
  -2  -4   1 251.525 8.17708   5
  -2  -4   1 236.187 7.19411  11
   2  -4  -1 268.226 8.07013  12
   2  -4  -1 251.563 10.1513  10
  -2  -4   1 261.962 7.78833  12
   2  -4  -1 237.937 7.10607   4
   2  -4  -1 252.465 8.15947   2
  -2  -4   1 246.520 8.51771  16
  -2  -4   1 246.254 7.51066   2
  -2   4   1 257.400 7.66329  12
  -2   4   1 252.119 9.96175  10
  -2   4   1 251.671 7.52630   8
  -2   4   1 257.782 8.19523  13
  -2   4   1 252.514 7.82877   3
   2   4  -1 245.442 7.59121  13
   2   4  -1 245.064 7.75643  12
   2   4  -1 239.506 7.89943   3
  -2   4   1 260.857 6.61740   7
   2   4  -1 252.163 7.36797   4
   2   4  -1 248.137 8.39270  14
   0  -4   1 1.25753 0.60929  12
   0  -4  -1 1.34680 0.91110   2
   0  -4  -1 3.95756 0.84890  10
   0  -4  -1 4.11815 1.00941  11
   0  -4  -1 2.71810 0.97778   6
   0  -4   1 1.53979 1.15354   2
   0   4  -1 3.54776 0.94628   3
   0   4   1 2.03176 0.45993   7
   0   4  -1 1.32541 0.81292  14
   0   4   1 4.29455 1.22609   3
   0   4  -1 1.23056 0.70135  13
   0   4   1 2.08793 0.75206  14
   0   4   1 9.70088 1.58290  13
   0   4  -1 9.48022 1.17199   7
   0   4   1 2.10840 0.75562  12
   2  -4   1 243.832 11.1711  10
  -2  -4  -1 230.706 7.91529   6
   2  -4   1 241.967 7.88460  12
  -2  -4  -1 230.314 8.03379  11
  -2  -4  -1 225.456 6.45790  15
  -2  -4  -1 229.017 6.67606   2
  -2  -4  -1 240.738 8.30473   5
   2  -4   1 243.601 6.15275   6
   2  -4   1 241.895 8.30512   2
  -2   4  -1 236.303 8.07070   3
   2   4   1 235.501 6.73147   4
  -2   4  -1 244.484 6.82091   8
   2   4   1 234.054 7.59319  12
  -2   4  -1 242.655 7.32525   7
   2   4   1 245.193 8.29296   3
  -2   4  -1 251.325 8.05021  13
   2   4   1 259.570 8.70252  14
  -4  -4  -1 2.18083 1.56624  11
   4  -4   1 1.30962 1.75729  10
  -4  -4  -1 1.17308 1.34653   6
  -4  -4  -1 1.06905 1.46566   1
   4  -4   1 1.60701 1.67377   2
   4  -4   1 0.85902 1.19666   4
  -4  -4  -1 -0.0982 1.47972   5
  -4   4  -1 2.32281 1.43311   1
  -4   4  -1 0.64794 0.96025   8
  -4   4  -1 3.33887 1.42422   7
   4   4   1 1.74119 1.81563  14
   4   4   1 3.44726 1.17974  12
  -4   4  -1 1.97399 1.19126  13
   4   4   1 3.65233 1.38231   4
   4   4   1 2.24720 1.29080   3
   6  -4   1 28.7431 4.41786   4
   6  -4   1 30.4680 3.36142   2
   6  -4   1 29.7492 6.45263  10
  -6  -4  -1 34.9039 4.57659  11
  -6  -4  -1 31.2686 4.34790   5
   6  -4   1 34.5665 4.12501  12
  -6  -4  -1 31.3908 4.04486   1
  -6  -4  -1 34.3097 3.82788   6
   6   4   1 34.2861 5.15921  14
  -6   4  -1 35.7338 4.67318  11
  -6   4  -1 32.8024 3.34240   8
   6   4   1 27.5803 3.54569  12
  -6   4  -1 35.5755 4.49516   1
   6   4   1 34.7327 3.53023   4
   8  -4   1 25.0591 3.93629  12
   8  -4   1 28.0234 4.82151   4
   8  -4   1 28.0207 5.11676  14
  -8  -4  -1 20.2101 4.84825  11
  -8  -4  -1 25.8013 4.29129   1
   8   4   1 27.5630 4.46498   4
  -8   4  -1 23.6040 5.09806   1
   8   4   1 22.2491 5.42825  14
  -8   4  -1 27.9616 4.17076   8
  -8   4  -1 30.2286 5.58509  11
   8   4   1 25.0722 4.13977  12
   8   4   1 27.3905 4.33012   3
 -10  -4  -1 -2.8699 2.97072   1
 -10  -4  -1 -1.0244 3.72755  11
  10  -4   1 2.91206 3.74349   4
  10   4   1 0.81377 2.98337   3
  10   4   1 -0.3205 2.96882   4
 -10   4  -1 1.34641 3.70883  11
 -10   4  -1 0.33174 2.68770   1
  10   4   1 1.92001 2.59864  12
  -9  -5   1 222.491 11.8195   5
  -9  -5   1 221.651 12.1113  11
   9  -5  -1 228.403 11.9093   4
   9   5  -1 195.221 13.3967  12
  -9   5   1 230.816 11.9814   1
  -9   5   1 231.424 11.3011   8
  -9   5   1 242.683 12.9140  11
   9   5  -1 237.618 11.7441   4
   9   5  -1 227.531 13.1693  14
   9   5  -1 220.704 11.2640   3
  -7  -5   1 1146.77 30.7124   6
   7  -5  -1 1115.23 31.9443  14
  -7  -5   1 1113.79 32.5161   5
   7  -5  -1 1138.16 31.8066  12
  -7  -5   1 1128.98 31.9961  11
   7  -5  -1 1132.37 31.9791   4
   7  -5  -1 1196.58 30.0797   2
  -7  -5   1 1148.53 30.6755   1
   7   5  -1 1136.65 31.4400   3
   7   5  -1 1158.89 31.7400  12
   7   5  -1 1129.42 33.6746  14
   7   5  -1 1182.34 31.2094   4
  -7   5   1 1172.80 32.7580  11
  -7   5   1 1179.14 31.0519   8
  -7   5   1 1168.82 32.1641   1
   5  -5  -1 1014.04 28.1388   4
  -5  -5   1 1120.09 29.6389   5
   5  -5  -1 1119.94 28.2864   2
   5  -5  -1 1026.92 28.4747  12
  -5  -5   1 1115.05 28.4755  11
  -5  -5   1 1164.60 30.9254  16
   5  -5  -1 1096.22 35.6236  10
  -5   5   1 1070.92 28.8195  13
  -5   5   1 1051.86 27.5738   8
   5   5  -1 1084.64 28.5450   3
   5   5  -1 1125.29 30.4930  14
   5   5  -1 1124.13 28.7292  12
   5   5  -1 1073.57 27.7322   4
  -5   5   1 1068.13 28.6527   1
  -3  -5   1 3546.28 79.9736  10
  -3  -5   1 3290.73 78.8721   2
  -3  -5   1 3495.88 80.7909   5
   3  -5  -1 3472.58 80.3620  12
   3  -5  -1 3596.21 80.5694   2
   3  -5  -1 3530.94 78.2195   6
  -3  -5   1 3410.66 79.4288  11
   3  -5  -1 3507.97 79.4368   4
   3  -5  -1 3647.30 85.9488  10
  -3  -5   1 3484.61 81.6989  16
  -3   5   1 3631.19 78.3481   7
   3   5  -1 3521.63 80.3769   3
   3   5  -1 3733.58 80.3813  13
  -3   5   1 3613.59 80.7643  13
   3   5  -1 3642.70 81.5770  14
   3   5  -1 3573.32 80.2532  12
   3   5  -1 3614.06 79.2974   4
  -3   5   1 3513.78 79.4313   8
  -3   5   1 3553.80 79.6248  12
  -3   5   1 3640.73 80.2677   3
  -1  -5   1 2069.48 48.1593  10
  -1  -5   1 2059.27 46.4246   5
   1  -5  -1 1967.30 46.7512   2
   1  -5  -1 1975.77 45.9969   6
   1  -5  -1 2031.60 48.5394  10
  -1  -5   1 1937.45 46.6235   2
  -1  -5   1 2022.31 46.5909  12
  -1   5   1 1967.59 46.2380  12
   1   5  -1 1999.79 47.1086  14
  -1   5   1 2119.46 44.6498   7
   1   5  -1 1973.16 46.7662   3
  -1   5   1 2015.23 46.7267   3
   1   5  -1 2026.41 46.1530  13
  -1   5   1 2038.86 47.0873  13
   1   5  -1 2011.04 46.3185  12
  -1   5   1 2034.50 48.0311  10
   1   5  -1 2018.26 45.5719   7
  -1  -5  -1 3193.76 73.5308   2
  -1  -5  -1 3276.05 74.2800   6
   1  -5   1 3304.29 72.9139   6
   1  -5   1 3219.27 74.1603  12
  -1  -5  -1 3302.05 74.2794  11
   1  -5   1 3310.93 74.9161   2
   1  -5   1 3389.19 78.6599  10
  -1   5  -1 3203.58 72.2190   8
   1   5   1 3243.96 74.3566  14
   1   5   1 3364.90 75.0332  13
   1   5   1 3293.31 74.6247   3
  -1   5  -1 3296.80 74.0380  13
   1   5   1 3332.77 74.0643  12
  -1   5  -1 3341.38 74.5891   3
  -1   5  -1 3345.38 73.1675   7
  -3  -5  -1 664.416 19.4576  11
  -3  -5  -1 707.893 20.0956   5
   3  -5   1 734.936 25.0705  10
   3  -5   1 710.634 19.4080  12
   3  -5   1 720.521 19.7841   2
  -3  -5  -1 693.782 19.3775   6
  -3   5  -1 717.014 19.4300  13
  -3   5  -1 702.739 18.2992   7
   3   5   1 666.645 17.5652   4
   3   5   1 713.502 20.3518  14
   3   5   1 690.652 18.9574  12
  -3   5  -1 721.716 17.8168   8
  -3   5  -1 723.892 19.6957   3
  -3   5  -1 725.073 19.8443   1
   3   5   1 706.386 19.7938   3
   5  -5   1 1120.98 30.5635   4
   5  -5   1 1034.48 37.1501  10
  -5  -5  -1 1191.66 31.0390  11
   5  -5   1 1077.13 28.8246   2
  -5  -5  -1 1146.43 29.3986   6
  -5  -5  -1 1176.19 30.9500   5
  -5  -5  -1 1157.92 29.9773   1
   5  -5   1 1043.31 29.4036  12
  -5   5  -1 1064.37 30.2443   1
   5   5   1 1084.95 28.2897   4
  -5   5  -1 1083.03 28.1911   8
  -5   5  -1 1131.24 28.7692   7
  -5   5  -1 1115.80 30.1866  11
   5   5   1 1152.20 29.5324  12
   5   5   1 1134.39 30.3485   3
   5   5   1 1139.14 31.8634  14
   7  -5   1 160.469 8.84540  12
  -7  -5  -1 172.804 9.52678   1
   7  -5   1 168.762 9.62818   4
  -7  -5  -1 159.034 8.23291   6
  -7  -5  -1 162.425 9.63971  11
   7   5   1 166.598 10.3669  14
  -7   5  -1 179.791 10.3018  11
  -7   5  -1 147.882 9.61537   8
   7   5   1 168.092 8.64125   4
   7   5   1 172.702 9.04624  12
   7   5   1 178.384 9.80048   3
  -7   5  -1 164.938 10.0248   1
  -9  -5  -1 446.194 17.3695   1
   9  -5   1 420.129 17.6156  12
   9  -5   1 483.788 19.4168   4
  -9  -5  -1 436.095 18.8079  11
  -9   5  -1 456.654 19.2032  11
   9   5   1 421.510 16.9073  12
   9   5   1 436.498 17.9330   3
  -9   5  -1 470.086 19.2587   1
 -10  -6   1 152.727 10.0137  11
  10  -6  -1 151.335 10.4949   4
 -10   6   1 163.044 11.6406  11
 -10   6   1 149.753 10.1635   1
  10   6  -1 144.350 9.66783   3
  -8  -6   1 26.8542 4.23994   6
  -8  -6   1 26.9214 4.66454  11
   8  -6  -1 25.3581 4.16022   4
  -8  -6   1 20.4053 4.69078   5
  -8   6   1 21.1089 4.22918   1
   8   6  -1 22.4074 4.37709   3
   8   6  -1 23.1546 4.75264  14
   8   6  -1 25.6426 4.21719   4
  -8   6   1 24.0445 5.01710  11
  -8   6   1 24.3437 3.70041   8
   8   6  -1 19.9995 3.85240  12
  -6  -6   1 300.126 12.6877   5
  -6  -6   1 302.582 11.2794   6
   6  -6  -1 287.634 11.0547   2
  -6  -6   1 273.658 11.0854  11
   6  -6  -1 271.766 11.3110   4
   6  -6  -1 257.798 11.4695  12
   6  -6  -1 267.462 16.3138  10
   6   6  -1 273.729 11.3223   3
   6   6  -1 274.744 11.1173  12
   6   6  -1 292.350 13.0939  14
  -6   6   1 269.213 10.4064   8
  -6   6   1 275.089 11.6461  13
  -6   6   1 276.138 11.8148   1
   6   6  -1 263.015 10.2781   4
  -4  -6   1 70.2647 5.57049  16
   4  -6  -1 66.9039 4.28228   4
   4  -6  -1 74.0306 7.54014  10
   4  -6  -1 68.0022 4.63523  12
  -4  -6   1 63.7174 4.23501  11
  -4  -6   1 70.9781 5.38884   5
   4  -6  -1 72.8308 5.17106   2
  -4   6   1 69.2560 4.66203   3
   4   6  -1 69.1228 4.61410  13
  -4   6   1 76.2217 4.32161   8
  -4   6   1 73.3337 3.60090   7
   4   6  -1 66.9057 3.97408   4
  -4   6   1 79.5515 5.09762  13
   4   6  -1 76.8126 5.66465  14
   4   6  -1 73.9006 5.08926   3
   4   6  -1 65.5278 4.46061  12
   2  -6  -1 30.5760 3.58184   2
  -2  -6   1 27.2197 3.16813   5
  -2  -6   1 29.6836 2.70007  10
   2  -6  -1 30.1393 4.02689  10
   2  -6  -1 25.6969 1.94830   4
   2  -6  -1 30.4962 2.39713   6
  -2  -6   1 25.8622 2.14547  11
   2  -6  -1 28.1059 2.67705  12
  -2  -6   1 33.5383 2.80829  12
  -2  -6   1 25.9296 2.96832   2
  -2   6   1 27.4789 2.33326  12
  -2   6   1 31.4742 3.14139  13
   2   6  -1 28.3931 2.59712  12
  -2   6   1 29.3041 1.80451   7
   2   6  -1 27.7700 2.56945  13
  -2   6   1 25.0041 2.27127   8
   2   6  -1 26.6813 3.16283   3
   2   6  -1 27.1849 2.27322   7
  -2   6   1 28.5159 2.96160   3
   0  -6  -1 212.654 7.85964   2
   0  -6   1 221.866 9.69126  10
   0  -6   1 208.238 7.70802  12
   0  -6   1 215.518 7.29900   6
   0  -6  -1 215.026 7.66403  10
   0  -6  -1 219.475 7.81793   6
   0  -6   1 207.658 8.32021   2
   0   6   1 212.356 8.08425  13
   0   6  -1 216.381 7.59544  13
   0   6  -1 219.225 8.19386   3
   0   6   1 214.476 8.06205   3
   0   6   1 203.165 7.45055  14
   0   6  -1 208.168 7.36718  12
   0   6   1 207.930 6.10229   7
   0   6   1 216.424 7.59898  12
   0   6  -1 214.269 6.85054   7
  -2  -6  -1 48.0682 3.82244   6
   2  -6   1 38.3109 3.68994   2
   2  -6   1 39.8454 4.89571  10
   2  -6   1 39.0149 2.25739   6
   2  -6   1 39.5650 3.34630  12
  -2  -6  -1 37.3122 3.31655  11
  -2  -6  -1 36.9841 2.24709  15
  -2  -6  -1 32.6616 2.62340   2
  -2   6  -1 34.2061 2.60076   7
   2   6   1 32.5688 3.10405  14
   2   6   1 33.1292 2.99992  12
   2   6   1 36.0068 3.90551   3
  -2   6  -1 36.5301 3.59714   3
   2   6   1 36.1739 3.46480  13
  -2   6  -1 37.5348 3.27239  13
  -4  -6  -1 69.0145 5.26880  11
   4  -6   1 67.3064 7.47321  10
   4  -6   1 74.2594 5.31763   4
   4  -6   1 80.1342 5.73969   2
   4  -6   1 69.6836 5.05504  12
  -4  -6  -1 68.8297 5.17363   6
   4   6   1 68.0012 5.37338  14
   4   6   1 68.2068 4.71516  12
   4   6   1 72.0085 5.62872   3
  -4   6  -1 76.0515 5.22720   8
  -4   6  -1 65.9664 5.38890   1
  -4   6  -1 81.3803 5.44213  13
  -4   6  -1 68.4311 4.33951   7
   6  -6   1 -0.0857 2.23441   2
   6  -6   1 5.39730 2.48293  12
  -6  -6  -1 0.47621 1.47690   6
   6  -6   1 -0.6846 2.25215   4
  -6  -6  -1 1.46269 2.46738  11
   6   6   1 3.55992 2.94287   3
   6   6   1 1.84406 1.86860  12
   6   6   1 3.03231 2.86621  14
  -6   6  -1 0.36734 2.74302   1
  -6   6  -1 0.30321 2.10475  11
   8  -6   1 3.01652 3.40460   4
   8  -6   1 2.17865 2.73097  14
  -8  -6  -1 3.94435 2.95003  11
   8  -6   1 3.05050 2.17662  12
   8   6   1 2.12935 3.42670  14
  -8   6  -1 1.02221 3.10728  11
  -8   6  -1 1.83479 3.89996   1
   8   6   1 0.84614 3.32539   3
   8   6   1 3.76764 2.56892  12
  -9  -7   1 198.162 11.4750  11
   9  -7  -1 220.523 11.8417   4
  -9  -7   1 205.911 11.0571   6
  -9   7   1 207.705 12.5610  11
   9   7  -1 205.732 11.5081   3
  -9   7   1 236.177 13.0746   1
   7  -7  -1 888.536 27.0415   4
  -7  -7   1 939.156 27.0651   6
  -7  -7   1 932.653 27.1557  11
  -7  -7   1 935.058 28.6200   5
   7  -7  -1 899.141 26.1930   2
   7   7  -1 911.654 27.5168   3
  -7   7   1 944.431 28.4743   1
  -7   7   1 857.329 25.6478   8
   7   7  -1 897.420 29.2672  14
   7   7  -1 899.429 27.1415  12
  -7   7   1 914.201 27.9238  13
  -5  -7   1 196.163 9.76700   5
   5  -7  -1 203.170 9.53913   2
  -5  -7   1 190.194 8.52311  11
   5  -7  -1 186.546 8.34441   4
  -5  -7   1 209.185 9.47176   6
   5  -7  -1 197.630 13.5468  10
  -5   7   1 193.360 9.34396  13
   5   7  -1 182.334 8.70855  12
  -5   7   1 185.487 8.04006   8
  -5   7   1 190.278 8.94551   3
   5   7  -1 186.676 8.81307  13
   5   7  -1 188.354 9.33540   3
  -5   7   1 224.203 10.0601   1
   5   7  -1 188.649 7.84375   4
   5   7  -1 200.761 10.3160  14
  -3  -7   1 1072.57 28.2519   5
   3  -7  -1 1073.37 32.9231  10
  -3  -7   1 1033.85 26.5812   2
   3  -7  -1 1015.04 25.8331   4
  -3  -7   1 1004.30 26.2380  11
   3  -7  -1 1065.16 25.5160   6
   3  -7  -1 1069.49 28.2446   2
   3   7  -1 1064.73 27.3053  13
  -3   7   1 1011.39 26.1122   8
   3   7  -1 1042.13 27.9571   3
  -3   7   1 1064.88 28.0011  13
   3   7  -1 1015.45 27.3370  12
  -3   7   1 1068.75 27.7813   3
   3   7  -1 1035.04 28.5722  14
   1  -7  -1 457.472 13.5281   6
  -1  -7   1 460.287 15.2571  10
  -1  -7   1 460.743 13.8637   6
   1  -7  -1 462.457 14.4988   2
  -1  -7   1 519.779 15.9847  12
   1  -7  -1 467.348 15.7198  10
  -1  -7   1 457.330 14.4443   2
  -1   7   1 472.161 14.6650  13
  -1   7   1 461.223 13.8458  12
   1   7  -1 450.854 14.4346   3
   1   7  -1 456.219 12.8110   7
   1   7  -1 444.231 13.6559  13
   1   7  -1 452.812 14.5544  14
  -1   7   1 447.115 13.0981   8
  -1   7   1 442.704 14.2464   3
   1   7  -1 446.708 13.6871  12
  -1  -7  -1 1489.65 36.8304   2
   1  -7   1 1531.32 35.9862   6
   1  -7   1 1508.68 41.8653  10
  -1  -7  -1 1553.99 37.6019   6
   1  -7   1 1548.77 38.3988   2
   1  -7   1 1506.31 37.5268  12
  -1   7  -1 1498.86 35.6819   7
   1   7   1 1504.75 37.5354  14
  -1   7  -1 1525.85 37.9500   3
   1   7   1 1521.89 38.0231  13
   1   7   1 1486.65 34.9015   7
   1   7   1 1532.36 37.3606  12
   1   7   1 1504.62 37.9145   3
  -1   7  -1 1528.57 37.2180  13
   3  -7   1 789.068 23.1609  12
  -3  -7  -1 838.640 23.4775   6
   3  -7   1 807.220 28.9575  10
  -3  -7  -1 813.031 23.1366  11
   3  -7   1 862.395 24.0337   2
  -3   7  -1 837.426 23.7032   1
   3   7   1 826.997 23.9237  13
  -3   7  -1 825.493 21.3865   7
  -3   7  -1 834.505 23.5253   3
  -3   7  -1 835.390 23.0745  13
   3   7   1 796.876 23.7857  14
   3   7   1 788.748 22.7441  12
   3   7   1 824.451 23.7892   3
   5  -7   1 1343.30 36.5780  12
  -5  -7  -1 1355.41 36.9447  11
  -5  -7  -1 1367.91 36.5466   6
   5  -7   1 1384.10 36.2292   2
   5  -7   1 1340.78 36.5506   4
  -5   7  -1 1398.17 37.5172   1
   5   7   1 1323.02 38.2287  14
   5   7   1 1382.82 37.9047  13
   5   7   1 1372.99 37.3833   3
   5   7   1 1364.67 36.1070  12
  -5   7  -1 1396.00 36.9214  13
  -5   7  -1 1361.76 36.3044  11
  -5   7  -1 1360.70 34.7031   7
  -7  -7  -1 636.635 20.4418   6
   7  -7   1 593.027 21.2485   4
   7  -7   1 570.428 20.7019  12
  -7  -7  -1 628.824 21.8007  11
  -7   7  -1 575.563 21.2791   1
   7   7   1 592.032 20.4047  12
   7   7   1 612.516 23.1756  14
   7   7   1 578.988 21.4725   3
  -7   7  -1 578.355 21.1983  11
  -9  -7  -1 537.353 21.8145  11
   9  -7   1 567.753 21.7331   4
  -9   7  -1 548.258 22.1633  11
   9   7   1 545.307 21.3951   3
  -9   7  -1 575.354 22.5943   1
   9   7   1 559.987 20.8026  12
   8  -8  -1 22.0255 4.37279   2
   8  -8  -1 24.7362 6.08409   4
  -8  -8   1 28.1680 4.84145   6
  -8   8   1 23.4773 4.65632   1
   8   8  -1 22.5743 4.26869   3
  -8   8   1 21.8157 4.96904  11
  -6  -8   1 393.555 15.1535   6
  -6  -8   1 388.421 16.2690   5
   6  -8  -1 406.375 15.2631   2
  -6  -8   1 381.238 14.5893  11
  -6   8   1 412.859 15.7635  13
  -6   8   1 399.981 15.8587   1
   6   8  -1 388.193 16.6261  14
   6   8  -1 405.005 15.6846   3
  -4  -8   1 240.160 10.9201   5
  -4  -8   1 247.721 10.7348   6
  -4  -8   1 223.697 9.15760  11
   4  -8  -1 258.156 11.1063   2
   4  -8  -1 232.073 14.1182  10
   4   8  -1 243.728 10.7462   3
   4   8  -1 221.075 9.84034  12
  -4   8   1 225.311 8.75664   8
  -4   8   1 255.934 10.9223  13
   4   8  -1 223.690 10.8945  14
  -4   8   1 241.966 10.2435   3
   4   8  -1 229.553 9.87163  13
  -2  -8   1 335.471 11.9325   2
  -2  -8   1 329.619 11.9600   6
   2  -8  -1 328.702 10.8655   6
   2  -8  -1 332.790 12.4825   2
   2   8  -1 330.719 10.4759   7
  -2   8   1 330.492 12.0464  13
   2   8  -1 334.666 12.4896   3
   2   8  -1 314.739 12.3375  14
  -2   8   1 330.495 12.2531   3
  -2   8   1 327.149 10.6895   8
   2   8  -1 332.275 11.5089  13
   0  -8   1 920.536 24.1975   6
   0  -8  -1 919.969 25.1325   2
   0  -8   1 959.447 26.1204   2
   0  -8   1 911.592 27.9022  10
   0  -8  -1 940.374 24.9008   6
   0   8   1 943.884 25.7134  13
   0   8  -1 895.797 23.0968   7
   0   8   1 920.836 24.9168  12
   0   8  -1 905.944 24.6436  13
   0   8   1 952.322 25.7893   3
   0   8   1 892.295 24.6099  14
   0   8  -1 912.116 25.6704   3
   2  -8   1 202.583 9.53906   2
  -2  -8  -1 206.814 9.07165   6
   2  -8   1 201.828 12.2130  10
  -2  -8  -1 203.509 8.69814  11
  -2  -8  -1 204.287 7.96475   2
   2  -8   1 200.367 8.99654  12
   2   8   1 189.701 8.59738  12
   2   8   1 198.796 9.06398  14
   2   8   1 196.597 9.21422   3
   2   8   1 201.824 9.22060  13
  -2   8  -1 209.828 9.63435   3
  -2   8  -1 207.796 7.55617   7
  -2   8  -1 207.523 8.88639  13
  -4  -8  -1 686.183 21.8966  11
  -4  -8  -1 734.296 22.3364   6
   4  -8   1 713.956 21.5861   4
   4  -8   1 707.982 29.2208  10
   4  -8   1 699.757 22.1480  12
   4  -8   1 737.308 22.6229   2
   4   8   1 730.731 21.8751  12
   4   8   1 697.895 22.9363  14
  -4   8  -1 720.373 22.1613  13
   4   8   1 715.909 22.8226  13
  -4   8  -1 754.460 20.2990   7
  -4   8  -1 718.363 22.4518   1
   4   8   1 709.680 22.8966   3
  -4   8  -1 745.620 22.5959   3
   6  -8   1 273.626 12.6335   4
   6  -8   1 276.654 12.4033   2
  -6  -8  -1 269.772 12.4797   6
  -6  -8  -1 257.494 12.5437  11
  -6   8  -1 269.547 12.9851   1
   6   8   1 256.765 12.9840  13
   6   8   1 259.240 13.0777   3
  -6   8  -1 268.242 12.4165  11
   6   8   1 255.865 13.3964  14
   6   8   1 267.247 12.1744  12
   8  -8   1 162.614 10.8358   4
  -8  -8  -1 176.897 11.3619  11
  -8  -8  -1 185.560 10.3805   6
  -8   8  -1 180.412 11.2904  11
   8   8   1 172.064 10.2004  12
   8   8   1 176.547 11.5302   3
  -8   8  -1 192.687 12.5990   1
   7  -9  -1 129.462 8.94391   2
  -7  -9   1 135.299 8.86265   6
   7   9  -1 141.555 9.66153   3
  -7   9   1 162.323 10.8573   1
  -7   9   1 137.333 9.51543  13
   7   9  -1 134.067 10.2554  14
  -5  -9   1 1886.57 48.6489   6
   5  -9  -1 1902.40 48.5566   2
   5   9  -1 1805.27 49.6086  14
   5   9  -1 1831.68 48.4317   3
  -5   9   1 1910.57 48.9283   1
  -5   9   1 1874.36 48.1135   3
  -5   9   1 1822.43 48.3667  13
   3  -9  -1 326.862 13.0450   2
  -3  -9   1 322.951 12.8728   6
  -3  -9   1 304.176 11.4421   2
   3   9  -1 316.761 10.8813   7
   3   9  -1 326.966 12.0221  13
  -3   9   1 321.990 12.8087  13
   3   9  -1 309.515 12.8237   3
  -3   9   1 324.801 12.9756   3
   3   9  -1 312.951 13.2765  14
   1  -9  -1 2996.82 70.6233   2
   1  -9  -1 3002.48 69.1430   6
  -1  -9   1 2889.53 70.2595   2
  -1  -9   1 2963.22 69.4816   6
  -1   9   1 2862.82 68.0791   8
   1   9  -1 2967.82 70.8915   3
  -1   9   1 2929.66 70.4374  13
   1   9  -1 2954.20 69.2969  13
  -1   9   1 3020.44 70.8614   3
   1  -9   1 85.9035 7.04826   2
   1  -9   1 86.0695 5.06516   6
  -1  -9  -1 104.546 6.34538   2
  -1  -9  -1 80.4232 6.07537   6
   1   9   1 84.4621 6.71426   3
   1   9   1 92.1241 6.39497  13
   1   9   1 93.3909 6.02909  14
  -1   9  -1 93.6428 5.92092  13
  -1   9  -1 93.6434 6.36612   3
   1   9   1 93.5151 5.77603  12
   3  -9   1 1726.67 52.8160  10
  -3  -9  -1 1727.88 44.4566  11
   3  -9   1 1780.97 45.8196   2
  -3  -9  -1 1725.73 45.2007   6
  -3   9  -1 1787.96 45.6442   3
   3   9   1 1791.30 46.1017   3
   3   9   1 1798.54 45.9139  13
   3   9   1 1716.51 45.5438  14
   3   9   1 1729.23 44.7920  12
  -3   9  -1 1761.96 44.7925  13
  -5  -9  -1 5.21417 2.96177  11
   5  -9   1 9.38151 3.92853   2
   5  -9   1 9.98476 4.73928   4
  -5  -9  -1 12.2225 3.65190   6
   5   9   1 9.54564 2.90974  12
   5   9   1 15.9671 3.91670   3
   5   9   1 14.4531 3.65675  13
  -5   9  -1 9.03981 3.11565  13
  -5   9  -1 15.7602 4.25126   1
   5   9   1 9.93571 3.69179  14
  -7  -9  -1 785.174 25.8642   6
  -7  -9  -1 769.991 26.2692  11
   7  -9   1 781.831 29.8449   4
   7   9   1 804.872 27.0667   3
  -7   9  -1 803.895 27.5450   1
   6 -10  -1 66.3482 7.13228   2
  -6 -10   1 62.8337 7.32831   6
  -6  10   1 56.3262 6.89553  13
   6  10  -1 58.4955 6.62653  14
   6  10  -1 61.8454 6.96602   3
   6  10  -1 62.0065 5.63155   7
  -6  10   1 52.7260 6.76364   1
   4 -10  -1 1.45780 2.36910   2
  -4 -10   1 -2.7041 2.75055   6
   4  10  -1 0.40454 2.50135  14
  -4  10   1 1.35221 2.77036   3
   4  10  -1 -2.6183 1.50254   3
  -4  10   1 -0.1117 2.32115  13
   2 -10  -1 2.11372 1.95650   6
   2 -10  -1 1.44832 2.66479   2
  -2 -10   1 -1.9437 2.23802   2
  -2 -10   1 1.48223 1.85211   6
   2  10  -1 1.68233 2.73015   3
   2  10  -1 2.08220 1.76722  13
  -2  10   1 1.77079 2.29440  13
   2  10  -1 0.04662 2.04135  14
  -2  10   1 6.62648 3.14025   3
   0 -10   1 87.0545 5.91831   6
   0 -10  -1 75.5015 6.06861   6
   0 -10   1 92.7669 7.30006   2
   0 -10  -1 84.8454 6.14217   2
   0  10  -1 87.8139 7.10666   3
   0  10   1 77.8409 5.93206  13
   0  10   1 76.5759 6.87710   3
   0  10  -1 80.5923 5.73820  13
   2 -10   1 40.4168 5.78929   2
  -2 -10  -1 28.6317 4.63916   2
  -2 -10  -1 32.6912 4.52127   6
  -2  10  -1 39.7745 4.22808  13
   2  10   1 41.7117 5.29472  13
   2  10   1 39.3517 5.33029   3
   2  10   1 36.5104 4.50257  12
   2  10   1 33.1589 4.43079  14
  -2  10  -1 30.4285 4.94492   3
  -4 -10  -1 60.7375 6.70998   6
   4 -10   1 57.8744 6.51609   2
  -4  10  -1 49.9179 6.43367   1
  -4  10  -1 43.4977 5.95886   3
   4  10   1 55.0354 6.27731  14
   4  10   1 45.5033 5.88339   3
   4  10   1 44.0590 5.37974  12
  -4  10  -1 52.3265 5.57260  13
   4  10   1 44.0958 5.48007  13
   6 -10   1 0.80828 2.51440   2
  -6 -10  -1 1.20455 2.32585   6
   6  10   1 1.18055 2.60803   3
  -6  10  -1 -1.2842 3.18986   1
   7 -11  -1 357.389 15.6966   2
  -7 -11   1 339.814 15.9523   6
  -7  11   1 370.480 17.5028   1
   7  11  -1 320.726 15.4070   3
  -5 -11   1 178.852 11.2885   6
   5 -11  -1 179.851 11.1914   2
   5  11  -1 153.321 10.4991  14
  -5  11   1 155.716 10.2131   3
  -5  11   1 169.519 11.6530  13
   5  11  -1 174.659 11.0866   3
  -5  11   1 170.105 11.1822   1
  -3 -11   1 231.091 12.0215   6
   3 -11  -1 233.812 12.1282   2
  -3  11   1 208.891 11.6007   3
  -3  11   1 227.092 11.3383  13
   3  11  -1 225.529 11.6330   3
   3  11  -1 215.864 11.7675  14
  -1 -11   1 322.766 13.0980   6
   1 -11  -1 325.327 12.9165   6
   1 -11  -1 305.603 13.5766   2
  -1 -11   1 320.776 13.6508   2
  -1  11   1 316.148 13.4859  13
  -1  11   1 325.924 14.4089   3
   1  11  -1 326.108 14.1356   3
   1 -11   1 345.369 14.8504   2
  -1 -11  -1 317.932 13.6523   6
  -1 -11  -1 308.511 12.8792   2
   1  11   1 344.137 14.9559   3
   1  11   1 308.203 13.4074  13
  -1  11  -1 335.409 13.2433  13
  -1  11  -1 330.132 14.3356   3
  -3 -11  -1 703.527 23.5500   6
   3 -11   1 743.370 24.4530   2
  -3  11  -1 686.775 24.0275   3
   3  11   1 701.541 24.3728   3
  -3  11  -1 709.367 23.0300  13
  -3  11  -1 703.074 24.0067   1
   5 -11   1 456.168 18.4499   2
  -5 -11  -1 470.083 18.7288   6
  -5  11  -1 438.649 19.0256   1
   5  11   1 451.467 19.0605   3
  -4 -12   1 113.583 9.31419   6
   4 -12  -1 120.718 9.71908   2
   4  12  -1 116.477 9.44384   3
  -2 -12   1 145.292 8.88479   2
  -2 -12   1 136.513 9.19664   6
   2 -12  -1 150.263 9.96756   2
   2  12  -1 144.266 10.1587   3
  -2  12   1 135.216 8.77972  13
  -2  12   1 142.776 9.41954   3
   0 -12  -1 27.2411 4.81956   2
   0 -12  -1 29.8739 4.95111   6
   0 -12   1 19.2115 4.71011   2
   0  12   1 19.5495 3.70166  13
   0  12   1 16.4923 4.10583   3
   0  12  -1 25.4947 5.20279   3
  -2 -12  -1 293.705 13.5074   6
   2 -12   1 291.578 14.3454   2
   2  12   1 279.500 14.3499   3
   2  12   1 278.389 13.1195  13
  -2  12  -1 268.248 13.8955   3
   4 -12   1 23.4241 5.81700   2
  -4 -12  -1 20.5264 5.08152   6
   4  12   1 22.4526 4.73527   3
  -4  12  -1 22.0738 5.25294   1
  -3 -13   1 1134.54 33.8772   6
   3 -13  -1 1126.42 34.4478   2
   3  13  -1 1107.49 34.9031   3
  -3  13   1 1084.16 34.2354   3
   1 -13  -1 231.532 11.9993   2
  -1 -13   1 215.064 11.3611   6
  -1  13   1 221.730 12.8677   3
   1  13  -1 215.092 12.7824   3
  -1 -13  -1 781.382 26.1282   6
   1 -13   1 790.489 27.0294   2
  -1  13  -1 814.509 27.7582   3
   1  13   1 803.273 27.6870   3
   3 -13   1 91.8913 8.98096   2
  -3 -13  -1 71.5585 8.25501   6
  -3  13  -1 88.6230 8.92108   3
  -3  13  -1 82.3764 8.75152   1
   3  13   1 82.3871 8.62663   3
 -10   0   2 1114.51 34.6668  11
 -10   0   2 1102.89 32.9702   8
  10   0  -2 1148.50 33.8953   4
   8   0  -2 575.357 18.6697  12
  -8   0   2 625.481 20.1568  11
  -8   0   2 602.409 18.2719   1
  -8   0   2 591.412 19.0246   8
   8   0  -2 590.680 19.9526  14
   8   0  -2 611.209 19.6060   4
   8   0  -2 570.329 24.0280  10
  -8   0   2 581.670 18.1531   5
  -8   0   2 584.489 18.6965  16
   6   0  -2 4282.41 94.5485   9
  -6   0   2 4361.95 96.8934  16
  -6   0   2 4292.79 97.3501  11
  -6   0   2 4137.74 96.2974   5
   6   0  -2 4365.14 97.2763   4
  -6   0   2 4329.37 95.7749   1
   6   0  -2 4253.74 97.6404  14
  -6   0   2 4263.68 96.7866   8
   6   0  -2 4251.03 102.528  10
   6   0  -2 4246.08 96.7696  12
  -4   0   2 2554.70 55.5517   1
  -4   0   2 2473.40 56.3762   8
  -4   0   2 2390.85 56.1768   5
  -4   0   2 2530.94 56.6053  16
   4   0  -2 2475.58 56.6119   4
   4   0  -2 2509.61 56.4593  12
   4   0  -2 2496.24 56.7002  14
  -4   0   2 2460.19 55.8099  12
   4   0  -2 2497.50 55.3534   9
   4   0  -2 2501.87 60.3242  10
  -2   0   2 7996.27 184.008  13
  -2   0   2 7666.78 187.361   5
   2   0  -2 8581.81 184.501   9
  -2   0   2 8789.10 202.819  10
  -2   0   2 8320.21 190.259  16
   2   0  -2 8369.07 186.845   4
  -2   0   2 8196.96 186.606   8
   2   0  -2 8494.62 185.735  14
  -2   0   2 8123.84 185.129  12
   0   0  -2 147.791 4.24506  11
   0   0  -2 141.782 4.10370   9
   0   0  -2 149.204 4.27404   1
   0   0  -2 152.614 4.16129   6
   0   0  -2 140.507 4.41770  15
  -2   0  -2 4067.45 97.9366  11
  -2   0  -2 4216.70 96.4214   6
   2   0   2 4285.83 113.659  10
  -2   0  -2 4431.80 94.8197   1
   2   0   2 4243.37 94.9375  12
   2   0   2 4340.14 96.2361  12
  -2   0  -2 4310.05 94.1224   7
  -2   0  -2 4332.29 97.3390  10
   2   0   2 4266.69 96.2996   2
  -2   0  -2 4269.93 96.8433  15
  -4   0  -2 31.8499 3.47652   1
   4   0   2 17.4633 2.91448  14
  -4   0  -2 17.8348 2.73884  11
   4   0   2 29.1403 3.34276   4
   4   0   2 22.6883 4.04326  10
   4   0   2 18.4781 1.95660  12
   6   0   2 2104.11 50.2240  12
   6   0   2 2115.03 51.8979   4
  -6   0  -2 2053.81 52.6329  11
  -6   0  -2 2137.24 52.0737   1
   6   0   2 2006.14 56.6882  10
   6   0   2 2094.74 54.1653  14
   8   0   2 16.4058 4.63642  14
  -8   0  -2 14.7074 3.69775   1
   8   0   2 5.96244 2.68006  12
  -8   0  -2 5.41518 3.63118  11
   8   0   2 7.98572 3.74972   4
  10   0   2 1363.01 39.8487   4
  10   0   2 1369.87 39.0961  12
 -10   0  -2 1308.43 39.3405   1
 -11  -1   2 134.500 10.7357  11
  11  -1  -2 125.431 9.29058   4
  11   1  -2 133.155 10.0885   4
 -11   1   2 125.415 9.54029   8
 -11   1   2 125.095 10.7604  11
  -9  -1   2 1.64401 1.68322  16
   9  -1  -2 1.78493 1.73926  14
   9  -1  -2 -0.4858 2.63229   4
  -9  -1   2 1.39410 2.59627   8
  -9  -1   2 0.32559 2.27130   5
  -9  -1   2 -2.7723 2.58550  11
  -9  -1   2 -0.1385 1.48196   1
   9   1  -2 1.36076 2.65346  14
  -9   1   2 2.02345 2.35148   1
   9   1  -2 -1.5837 2.56431   4
  -9   1   2 6.48929 3.48851  11
   9   1  -2 3.11591 2.08811  12
  -9   1   2 3.00673 2.13346   8
  -7  -1   2 122.683 6.05021   1
   7  -1  -2 124.161 9.49447  10
  -7  -1   2 149.009 7.37403  16
   7  -1  -2 119.458 6.49547  12
   7  -1  -2 124.930 7.10474  14
  -7  -1   2 110.254 6.44785   5
   7  -1  -2 115.909 5.16453   9
   7  -1  -2 122.977 6.81637   4
  -7  -1   2 130.043 6.69115   8
  -7  -1   2 117.821 6.71731  11
   7   1  -2 122.399 7.32888  14
   7   1  -2 120.604 6.51460  12
  -7   1   2 114.745 5.93796   5
  -7   1   2 120.138 7.13780  11
  -7   1   2 125.373 6.87999   8
  -7   1   2 123.867 6.24573  16
   7   1  -2 110.514 6.49979   4
   7   1  -2 113.050 8.82692  10
  -7   1   2 118.637 6.19627   1
   5  -1  -2 208.627 7.85739  14
   5  -1  -2 209.124 7.64644  12
   5  -1  -2 218.326 7.93055   4
  -5  -1   2 212.229 7.75165   8
  -5  -1   2 221.449 8.21236  16
  -5  -1   2 210.349 7.89216   5
  -5  -1   2 212.242 7.81934  11
  -5  -1   2 212.048 7.50689  12
   5  -1  -2 217.102 11.0819  10
  -5  -1   2 214.207 6.97649   1
   5   1  -2 208.255 6.22476   9
  -5   1   2 208.335 7.23782   5
  -5   1   2 219.763 7.83529   8
  -5   1   2 202.360 7.11055   1
   5   1  -2 208.521 7.80334   4
   5   1  -2 213.531 10.1036  10
  -5   1   2 210.142 7.43464  16
   5   1  -2 208.164 7.67256  12
   5   1  -2 223.363 8.36404  14
  -5   1   2 209.454 7.05130  12
   3  -1  -2 247.725 6.84190  14
   3  -1  -2 228.638 6.75850   9
  -3  -1   2 250.326 6.45633   1
  -3  -1   2 232.966 8.80376  10
   3  -1  -2 235.385 6.75845   2
   3  -1  -2 236.896 7.11549   4
   3  -1  -2 245.750 9.53350  10
  -3  -1   2 250.950 7.57025  16
  -3  -1   2 236.411 6.99581   8
  -3  -1   2 241.149 7.31457   5
  -3  -1   2 241.159 6.88548  12
  -3   1   2 242.709 6.96392  13
  -3   1   2 241.987 6.59846   1
  -3   1   2 239.999 7.13178   8
   3   1  -2 249.367 7.45171  14
  -3   1   2 228.570 6.91182   5
   3   1  -2 236.339 7.23026   4
   3   1  -2 240.233 7.02917  12
  -3   1   2 248.868 7.23244  16
  -3   1   2 229.359 9.28220  10
  -3   1   2 249.354 6.91143  12
   3   1  -2 231.423 6.36469   9
  -1  -1   2 2022.45 42.1375  13
   1  -1  -2 1833.54 42.5466  15
  -1  -1   2 1992.15 42.4620   5
  -1  -1   2 1973.05 42.6349  16
   1  -1  -2 1861.06 42.4196   6
   1  -1  -2 1822.65 42.2392   9
  -1   1   2 1830.85 44.3105  13
   1   1  -2 1971.53 42.6298   4
   1   1  -2 1945.24 42.3847   9
   1   1  -2 1989.22 42.3256   7
   1   1  -2 1887.51 42.3425  15
   1   1  -2 1943.04 44.6858  14
  -1   1   2 1840.00 43.7902  12
   1  -1   2 195.911 4.55284  12
  -1  -1  -2 206.016 5.69524   7
   1  -1   2 195.972 4.55059  12
  -1  -1  -2 201.605 5.95033  15
  -1  -1  -2 198.898 5.21255   9
  -1  -1  -2 204.762 6.19815   1
  -1  -1  -2 206.348 5.77320   6
   1  -1   2 204.872 8.09759  10
  -1  -1  -2 204.807 6.36123  11
  -1   1  -2 196.770 5.76593   9
  -1   1  -2 193.744 5.83974   7
  -1   1  -2 191.599 6.06513  15
  -1   1  -2 207.529 6.03117  11
   1   1   2 218.190 7.02879  10
  -1   1  -2 197.236 6.14181   1
  -3  -1  -2 219.699 6.80080   6
   3  -1   2 236.349 6.94991   2
  -3  -1  -2 271.779 11.2162  10
  -3  -1  -2 235.377 8.63580  11
   3  -1   2 247.838 11.1321  10
  -3  -1  -2 236.966 7.34923  15
   3  -1   2 238.588 7.01863  12
  -3  -1  -2 230.811 8.21001   1
  -3   1  -2 225.772 8.25044  11
   3   1   2 236.593 9.21132  14
   3   1   2 231.987 9.64390  10
  -3   1  -2 234.525 7.71788   7
  -3   1  -2 228.828 7.52064   8
   3   1   2 234.041 7.98287   4
  -3   1  -2 221.332 8.09050   1
   3   1   2 233.510 6.80782  12
  -5  -1  -2 271.046 11.1127  11
  -5  -1  -2 254.869 10.2559   1
   5  -1   2 269.038 14.0520  10
   5  -1   2 274.434 10.7479   4
   5  -1   2 266.332 9.28931  12
   5  -1   2 250.817 11.3557  14
  -5   1  -2 263.259 10.3120   1
   5   1   2 258.614 10.1893   4
   5   1   2 261.442 11.6129  14
   5   1   2 243.678 12.2014  10
   5   1   2 263.161 9.14877  12
  -5   1  -2 274.843 10.8512  11
   7  -1   2 9.86365 4.32768  10
   7  -1   2 8.76460 3.55715  14
  -7  -1  -2 9.34526 2.84972   1
  -7  -1  -2 10.3508 3.56606  11
   7  -1   2 9.46846 2.96498   4
   7  -1   2 7.78403 2.49457  12
   7   1   2 8.97948 2.46770  12
   7   1   2 5.97057 3.13290   4
   7   1   2 7.89833 3.45070  14
  -7   1  -2 6.22555 3.28043   1
  -7   1  -2 7.24754 3.39984  11
   9  -1   2 208.310 10.9035  12
  -9  -1  -2 218.884 13.1568  11
  -9  -1  -2 213.911 12.2028   1
   9  -1   2 200.473 12.3290   4
   9   1   2 229.857 12.5117   4
  -9   1  -2 229.667 13.7396  11
   9   1   2 211.579 11.1550  12
  -9   1  -2 202.766 12.3254   1
 -10  -2   2 73.1190 8.16787  16
 -10  -2   2 77.2600 8.08211  11
  10  -2  -2 84.4442 7.99245   4
 -10  -2   2 71.3941 6.84048   5
 -10   2   2 66.0084 6.90848   1
  10   2  -2 68.3836 7.37568  14
 -10   2   2 84.6467 8.63077  11
  10   2  -2 74.4254 7.62101   4
 -10   2   2 84.3397 7.51372   8
  -8  -2   2 1120.56 29.1314   1
   8  -2  -2 1045.87 37.2741  10
   8  -2  -2 1095.79 31.1684  14
  -8  -2   2 1074.37 31.1037  16
  -8  -2   2 1099.34 31.2200  11
  -8  -2   2 1077.63 30.3588   5
  -8  -2   2 1118.60 30.6506   8
   8  -2  -2 1113.67 31.0292   4
   8  -2  -2 1073.90 27.9449   9
   8  -2  -2 1075.79 30.3886  12
   8   2  -2 1051.99 30.1149  12
   8   2  -2 1132.90 32.3635  14
   8   2  -2 1136.73 31.1231   4
  -8   2   2 1113.79 30.5650   8
  -8   2   2 1122.40 31.6673  11
  -8   2   2 1142.51 30.1221   1
   6  -2  -2 65.0883 7.02077  10
   6  -2  -2 71.7353 4.71334  14
   6  -2  -2 64.1985 4.22662  12
   6  -2  -2 72.9010 5.00414   4
  -6  -2   2 71.5788 4.55968   8
  -6  -2   2 70.6204 4.85080  16
  -6  -2   2 69.6017 4.03953   1
  -6  -2   2 74.2930 4.72396  11
   6  -2  -2 65.3686 3.48777   2
  -6  -2   2 66.3139 4.60306   5
  -6   2   2 70.1627 4.11117  16
   6   2  -2 74.5062 5.41517  14
  -6   2   2 86.0153 4.83065   8
   6   2  -2 67.6419 4.85293   4
   6   2  -2 71.7684 4.50990  12
  -6   2   2 70.1138 4.38052   1
  -6   2   2 71.2673 4.04651   5
  -4  -2   2 2790.54 64.4173  12
  -4  -2   2 2908.01 65.9148  16
   4  -2  -2 2939.78 70.0346  10
  -4  -2   2 2888.22 63.8513   1
   4  -2  -2 2890.12 64.6321  14
   4  -2  -2 2888.02 65.1149  12
  -4  -2   2 2850.90 64.7728  11
  -4  -2   2 2837.82 64.8027   8
  -4  -2   2 2938.98 65.6139   5
   4  -2  -2 2923.13 64.3182   2
   4  -2  -2 2881.67 65.0389   4
   4   2  -2 2950.38 65.2195   4
  -4   2   2 2848.05 64.9172  13
  -4   2   2 2865.39 64.9780   8
   4   2  -2 2738.69 64.0386   3
  -4   2   2 2791.90 64.3495  12
   4   2  -2 2933.85 65.9996  14
  -4   2   2 2998.31 64.6840  16
   4   2  -2 2845.39 64.9481  12
   4   2  -2 2894.14 63.2507   9
  -4   2   2 2915.67 64.4976   1
  -4   2   2 2815.82 64.3015   5
  -2  -2   2 696.000 16.2496  12
  -2  -2   2 699.160 15.8283   8
   2  -2  -2 652.205 15.9558   6
   2  -2  -2 646.047 15.7204   4
  -2  -2   2 707.909 16.6961   5
   2  -2  -2 658.444 18.4938  10
   2  -2  -2 663.733 16.4224   2
  -2  -2   2 707.512 16.8951  16
   2   2  -2 679.249 15.8309   9
  -2   2   2 654.122 16.4162   8
  -2   2   2 648.738 16.0279  12
  -2   2   2 652.540 18.5334  10
   2   2  -2 684.572 16.4511   4
   2   2  -2 697.911 16.8689  14
   2   2  -2 684.021 15.9141   3
  -2   2   2 652.968 15.6745   3
  -2   2   2 696.056 16.5925  13
   0  -2   2 7552.86 187.255  10
   0  -2   2 7600.60 166.566  16
   0  -2  -2 7173.26 168.563   6
   0  -2  -2 7299.74 164.606   9
   0  -2   2 7093.60 168.390   2
   0  -2  -2 7402.15 171.447  11
   0  -2  -2 7512.50 169.480  15
   0  -2   2 7092.52 165.071  12
   0  -2  -2 7186.63 166.791   2
   0  -2  -2 7757.28 169.874   1
   0   2   2 7532.42 169.432  14
   0   2  -2 7316.45 170.097  15
   0   2   2 7953.04 170.972   3
   0   2  -2 8114.89 168.940   7
   0   2  -2 7227.70 165.723  13
   0   2  -2 7678.29 169.095   3
   0   2  -2 6881.46 168.159   9
   0   2  -2 7336.82 166.366   1
  -2  -2  -2 3247.80 70.5009  11
   2  -2   2 3014.80 69.2638   2
  -2  -2  -2 3128.13 69.1758   6
   2  -2   2 3049.45 74.0416  10
  -2  -2  -2 3064.78 68.8572  15
   2  -2   2 2999.69 72.2032  12
   2  -2   2 3053.53 69.0807  16
  -2  -2  -2 3148.71 69.9157   1
   2   2   2 3285.46 69.3541  12
   2   2   2 3174.78 79.9384  10
   2   2   2 3375.89 71.2248  14
  -2   2  -2 3000.59 69.8298   1
  -2   2  -2 3003.48 69.5883  11
  -2   2  -2 3014.77 68.5920   8
   2   2   2 3150.33 69.1921   4
  -2   2  -2 3052.35 69.3153   7
   4  -2   2 3464.06 78.1461   4
   4  -2   2 3263.33 83.5331  10
  -4  -2  -2 3341.67 77.5971   1
  -4  -2  -2 3149.15 75.5503   6
   4  -2   2 3448.84 76.2609  12
  -4  -2  -2 3400.59 78.5626  11
  -4   2  -2 3369.86 76.4747   8
  -4   2  -2 3436.92 77.9417   1
   4   2   2 3467.40 79.6492  14
  -4   2  -2 3352.82 77.8503  11
   4   2   2 3312.40 79.4475  10
   4   2   2 3406.02 77.1682   4
  -4   2  -2 3475.83 76.9797   7
   4   2   2 3495.14 76.1115  12
  -6  -2  -2 1000.85 28.0971   1
   6  -2   2 961.884 29.7497  14
   6  -2   2 943.140 33.8158  10
   6  -2   2 1008.96 28.6209   4
   6  -2   2 988.510 26.8292  12
  -6  -2  -2 1010.12 29.3322  11
   6   2   2 1001.00 26.6825  12
  -6   2  -2 1018.03 28.5206   1
   6   2   2 979.479 29.9295  14
   6   2   2 992.308 27.5149   4
  -6   2  -2 1011.80 29.0009  11
   8  -2   2 653.285 24.6158  14
  -8  -2  -2 661.750 23.9934  11
   8  -2   2 672.162 21.9919  12
   8  -2   2 707.418 24.0116   4
  -8  -2  -2 692.510 23.0525   1
   8   2   2 690.570 22.4982   4
  -8   2  -2 713.486 24.4353  11
   8   2   2 654.621 24.7894  14
  -8   2  -2 704.868 23.6934   1
   8   2   2 678.919 21.9811  12
  11  -3  -2 149.186 10.5014   4
 -11  -3   2 106.632 8.94107  11
  11   3  -2 128.136 9.78987   4
 -11   3   2 114.581 8.92167   8
 -11   3   2 129.739 10.2380  11
  -9  -3   2 3.59857 3.25152  11
  -9  -3   2 3.99547 2.41315   5
   9  -3  -2 0.98153 1.73890   9
  -9  -3   2 0.79735 2.20403  16
   9  -3  -2 -0.2197 2.68443   4
   9   3  -2 8.66743 3.56141  14
  -9   3   2 -0.0402 2.49004   1
  -9   3   2 3.69193 3.34055  11
   9   3  -2 1.16420 1.99994   3
  -9   3   2 0.02945 2.38038   8
   9   3  -2 0.14743 2.78349   4
  -7  -3   2 92.1651 6.19905   8
  -7  -3   2 93.1981 6.23041  11
   7  -3  -2 95.4467 4.76888   2
  -7  -3   2 95.4199 5.26991   1
   7  -3  -2 101.804 6.24936  14
   7  -3  -2 89.8960 6.29910   4
   7  -3  -2 96.8091 9.50468  10
  -7  -3   2 97.0730 6.74404  16
   7  -3  -2 94.6543 5.97614  12
  -7  -3   2 105.088 6.85257   5
  -7   3   2 103.803 6.15949   1
   7   3  -2 90.2498 5.75068  12
   7   3  -2 97.2930 5.49925   3
   7   3  -2 100.274 6.42559   4
   7   3  -2 88.0729 6.78122  14
  -7   3   2 102.081 6.02280   8
  -5  -3   2 236.914 9.43351  16
  -5  -3   2 234.502 8.43758  11
  -5  -3   2 221.334 7.43718   1
   5  -3  -2 228.857 8.48626   4
   5  -3  -2 234.267 12.3307  10
  -5  -3   2 238.154 8.35411   8
  -5  -3   2 232.146 9.03390   5
   5  -3  -2 229.035 7.79476   2
   5  -3  -2 215.707 8.24408  12
   5  -3  -2 234.908 8.28855  14
   5   3  -2 229.923 8.38380  12
  -5   3   2 223.421 7.38983   5
  -5   3   2 229.999 7.71298  12
  -5   3   2 230.939 8.54574  13
   5   3  -2 232.327 8.54159   4
   5   3  -2 214.584 7.72913   3
  -5   3   2 231.631 8.22882   1
  -5   3   2 220.284 8.28999   8
  -5   3   2 236.089 7.65475  16
   5   3  -2 238.555 9.46454  14
  -3  -3   2 7.51806 1.17279   2
  -3  -3   2 11.0539 1.38885   8
   3  -3  -2 8.69074 1.29764   4
   3  -3  -2 10.6154 1.53471  12
  -3  -3   2 9.22989 1.24114  11
   3  -3  -2 8.74398 2.29000  10
   3  -3  -2 10.0747 1.19533   6
   3  -3  -2 8.43287 1.49455   2
  -3  -3   2 10.3897 1.48246  12
  -3  -3   2 8.23043 1.51110  16
  -3  -3   2 7.97301 1.48270   5
   3   3  -2 10.0502 1.52779   4
  -3   3   2 18.6163 2.03781   8
   3   3  -2 10.4149 1.44774  12
  -3   3   2 11.3731 1.40821   3
   3   3  -2 11.2743 0.98907   9
  -3   3   2 7.85065 1.56834  13
  -3   3   2 9.25141 1.39223  16
   3   3  -2 8.75773 1.57170  14
  -3   3   2 14.6646 1.43019  12
   3   3  -2 12.0634 1.58089   3
  -1  -3   2 1505.38 34.4197  16
   1  -3  -2 1478.68 34.4598   2
   1  -3  -2 1521.03 34.3704   6
  -1  -3   2 1478.77 34.2541  12
  -1  -3   2 1439.64 34.6306   2
  -1  -3   2 1539.93 34.2264   5
   1  -3  -2 1518.04 35.4369  10
  -1   3   2 1502.96 34.2618   3
   1   3  -2 1477.42 34.0754   9
  -1   3   2 1550.55 35.0519  13
  -1   3   2 1515.35 34.0125  12
  -1   3   2 1471.06 35.4640  10
   1   3  -2 1515.57 33.4164  13
   1   3  -2 1501.94 34.1585   7
  -1   3   2 1486.55 33.2941  14
   1   3  -2 1519.07 34.3979   3
   1   3  -2 1534.75 35.1418  14
  -1  -3  -2 92.0265 4.09415   1
  -1  -3  -2 89.7212 3.26792   2
   1  -3   2 98.0426 3.70970  12
  -1  -3  -2 87.2349 2.75269   9
   1  -3   2 90.1948 5.84879  10
  -1  -3  -2 83.3442 4.13011  11
  -1  -3  -2 100.840 4.10487   6
  -1  -3  -2 93.1471 3.56242  15
   1  -3   2 92.7055 4.26074   2
   1   3   2 90.3440 4.16070  14
  -1   3  -2 101.444 4.09062   1
  -1   3  -2 99.2620 4.15306   3
  -1   3  -2 96.2330 3.79625   7
  -1   3  -2 98.9999 3.84272  13
   1   3   2 90.1561 3.05342   4
   1   3   2 91.3013 4.10712   3
   1   3   2 98.4267 2.68299  10
   1   3   2 94.6396 3.35868  12
   3  -3   2 23.9823 2.71119   2
  -3  -3  -2 26.5702 2.93738  11
  -3  -3  -2 26.9160 2.56131   1
   3  -3   2 24.5509 4.26275  10
   3  -3   2 19.3270 2.09438  12
  -3  -3  -2 25.8773 1.84698  15
   3   3   2 23.2580 2.28638   4
   3   3   2 27.3778 3.48292  14
  -3   3  -2 22.6594 2.53765   7
  -3   3  -2 36.3920 2.30483   8
  -3   3  -2 24.2197 2.52526  11
   3   3   2 23.0513 2.05837  12
  -3   3  -2 26.0225 3.05418   1
   3   3   2 28.0092 2.41796  10
   5  -3   2 7.29442 2.08980   2
  -5  -3  -2 6.12817 2.39163   1
  -5  -3  -2 6.36850 2.24708  11
   5  -3   2 4.54112 1.71995  12
   5  -3   2 4.07311 1.92437   4
  -5  -3  -2 3.12722 1.40057   6
   5  -3   2 2.89847 3.19104  10
  -5   3  -2 3.94148 2.01860  11
  -5   3  -2 4.28711 1.92230   1
   5   3   2 3.07860 1.80865   4
  -5   3  -2 4.65393 1.68179   8
   5   3   2 5.81027 1.73022  12
  -5   3  -2 4.49598 2.15140   7
   5   3   2 6.84821 2.66406  14
   7  -3   2 69.7839 6.34423   4
  -7  -3  -2 61.0121 6.53007   1
   7  -3   2 64.4132 5.20089  12
  -7  -3  -2 62.8409 6.96367  11
   7  -3   2 66.9287 7.13027  14
  -7   3  -2 64.5683 6.92607   1
   7   3   2 67.5370 5.47064  12
  -7   3  -2 71.3703 6.86525  11
   7   3   2 70.9433 6.17785   4
   7   3   2 65.9314 7.36104  14
  -9  -3  -2 10.1677 4.71634  11
   9  -3   2 11.2949 3.41597  12
  -9  -3  -2 11.3864 4.30150   1
   9  -3   2 15.5226 4.85169   4
   9   3   2 15.5729 3.68510  12
  -9   3  -2 8.51374 4.58069   1
   9   3   2 12.1795 3.93046   4
  -9   3  -2 15.8566 4.11957  11
  10  -4  -2 78.8359 7.30797   4
 -10  -4   2 86.2987 7.46684  11
 -10  -4   2 83.1861 7.98378   5
 -10   4   2 92.7232 7.80939   8
 -10   4   2 78.2967 7.53642   1
  10   4  -2 90.2086 8.02670   4
 -10   4   2 98.6276 8.53857  11
  10   4  -2 89.0855 8.55903  14
  -8  -4   2 2398.11 57.3681   1
  -8  -4   2 2394.30 59.6546  11
  -8  -4   2 2307.04 59.7492   5
  -8  -4   2 2432.53 61.6680  16
   8  -4  -2 2356.62 59.4082   4
   8   4  -2 2437.26 59.2925   4
   8   4  -2 2401.99 61.3547  14
  -8   4   2 2466.25 59.2767   1
  -8   4   2 2421.83 60.6314  11
   8   4  -2 2320.18 58.0762   3
  -8   4   2 2439.50 58.9953   8
   8   4  -2 2309.50 58.8396  12
   6  -4  -2 451.336 13.5575   2
   6  -4  -2 441.715 14.5158  12
   6  -4  -2 441.401 14.1187  14
  -6  -4   2 439.335 15.2325   5
   6  -4  -2 437.979 14.4347   4
  -6  -4   2 445.227 14.3763  11
  -6  -4   2 454.172 13.4308   1
   6  -4  -2 458.569 20.1393  10
  -6  -4   2 455.051 15.8885  16
   6   4  -2 434.134 15.5513  14
   6   4  -2 457.435 14.5253   4
   6   4  -2 418.606 13.6470   3
   6   4  -2 436.943 14.2072  12
  -6   4   2 458.834 12.8344  16
  -6   4   2 459.280 14.5579   1
  -6   4   2 467.340 14.9349  13
  -6   4   2 442.693 14.2071   8
   4  -4  -2 6021.40 133.965   2
  -4  -4   2 6235.00 138.375  11
  -4  -4   2 6391.96 135.850  16
  -4  -4   2 5793.77 132.463   2
  -4  -4   2 6087.78 133.664  12
   4  -4  -2 5984.55 133.629   6
  -4  -4   2 6136.71 134.815   5
   4  -4  -2 5811.31 134.117  12
   4  -4  -2 6141.53 140.184  10
   4  -4  -2 5980.60 133.553   4
  -4   4   2 5770.46 132.755   5
  -4   4   2 5930.86 133.797   8
  -4   4   2 5926.65 139.339  13
  -4   4   2 5891.13 137.445  16
   4   4  -2 6267.55 137.821   4
   4   4  -2 6315.83 146.969  14
   4   4  -2 6408.58 134.130  12
  -4   4   2 5811.10 133.450  12
  -4   4   2 6124.67 136.489   3
   4   4  -2 6200.12 133.726   3
  -2  -4   2 550.141 14.6892   2
  -2  -4   2 538.282 15.1318  16
   2  -4  -2 562.007 14.1672   6
  -2  -4   2 532.900 13.2072  11
  -2  -4   2 547.597 14.5912  12
   2  -4  -2 542.577 14.8410   2
  -2  -4   2 571.225 14.8869   5
   2  -4  -2 565.732 16.9219  10
  -2   4   2 570.325 15.2492  13
   2   4  -2 529.165 14.4886   3
  -2   4   2 548.057 14.5743   8
   2   4  -2 569.566 15.5359  14
  -2   4   2 572.401 14.4693   3
  -2   4   2 561.054 14.4387  12
   2   4  -2 553.008 14.2293   7
   2   4  -2 558.012 13.6831  13
   2   4  -2 569.137 14.4821  12
  -2   4   2 558.517 16.9694  10
   2   4  -2 547.273 14.5041   4
   0  -4   2 4731.05 104.265   5
   0  -4  -2 5026.53 112.794  11
   0  -4   2 4786.26 110.448  12
   0  -4   2 4879.35 106.267   2
   0  -4   2 4747.19 122.090  10
   0  -4   2 4492.34 110.334  16
   0  -4  -2 4713.70 108.979   6
   0  -4  -2 4674.89 105.259   2
   0   4   2 4599.62 109.590  10
   0   4   2 4939.13 109.332   3
   0   4  -2 5013.00 112.847  13
   0   4   2 4803.55 113.225  14
   0   4   2 4653.88 110.873  13
   0   4  -2 4830.23 105.821   3
   0   4  -2 4910.90 107.999   7
   0   4   2 4780.31 110.150  12
   2  -4   2 67.4016 3.65529  12
   2  -4   2 71.0434 6.29871  10
  -2  -4  -2 66.3021 3.02650  15
  -2  -4  -2 73.1386 4.03605   1
  -2  -4  -2 65.6811 4.02624  11
   2  -4   2 72.2027 4.40880   2
  -2  -4  -2 78.1265 4.12213   6
  -2  -4  -2 65.6491 2.77429   2
  -2   4  -2 61.9671 3.94525   1
   2   4   2 69.9701 4.06620   3
  -2   4  -2 66.2881 4.02773   3
  -2   4  -2 68.6346 3.60835   7
   2   4   2 74.7579 4.44103  14
  -2   4  -2 67.8244 3.77325  13
   2   4   2 74.4726 3.53328  12
   2   4   2 70.8717 2.98042   4
  -2   4  -2 69.6397 2.76732   8
  -4  -4  -2 1883.29 44.9015   6
   4  -4   2 1798.47 44.7320   2
   4  -4   2 1767.50 52.5428  10
  -4  -4  -2 1989.55 46.9288  11
   4  -4   2 1873.87 45.1095  12
  -4  -4  -2 1949.07 46.0313   1
   4   4   2 1946.80 47.6537  14
  -4   4  -2 1873.49 44.8404   7
  -4   4  -2 1849.15 45.6336  11
  -4   4  -2 1820.50 43.7935   8
   4   4   2 1938.65 44.6633  12
  -4   4  -2 1850.32 46.1065   1
   4   4   2 1901.96 44.3287   4
  -6  -4  -2 44.7030 5.12802   1
   6  -4   2 60.0204 6.28934   4
  -6  -4  -2 52.6502 4.41306   6
   6  -4   2 60.5110 4.74763  12
  -6  -4  -2 46.6443 5.75942  11
  -6   4  -2 53.2806 5.57072  11
  -6   4  -2 55.9689 4.52179   8
   6   4   2 66.8641 5.33159   4
   6   4   2 54.9893 4.64878  12
  -6   4  -2 55.6216 6.03813   1
   6   4   2 60.0271 6.44693  14
   8  -4   2 876.136 28.6891   4
  -8  -4  -2 865.067 27.4148   1
  -8  -4  -2 878.026 29.0769  11
   8  -4   2 839.983 26.5844  12
   8  -4   2 815.718 29.0103  14
  -8   4  -2 885.171 28.9215  11
  -8   4  -2 873.683 28.3475   1
   8   4   2 875.111 27.7810   3
   8   4   2 880.156 26.4192   4
   8   4   2 860.135 26.4291  12
   8   4   2 844.652 29.8013  14
   9  -5  -2 412.403 16.3351   4
  -9  -5   2 415.048 15.0156   6
  -9  -5   2 383.217 16.1339  11
  -9  -5   2 408.275 16.8407   5
   9   5  -2 417.832 16.3161   4
   9   5  -2 421.685 15.7247   3
  -9   5   2 394.610 17.0935  11
  -9   5   2 415.665 16.5445   1
   9   5  -2 412.737 18.2055  14
  -9   5   2 407.255 15.6735   8
   7  -5  -2 324.675 18.2523  10
  -7  -5   2 308.131 12.4320  11
  -7  -5   2 346.090 14.0128   5
  -7  -5   2 350.114 14.8471  16
   7  -5  -2 320.602 12.7250   4
   7  -5  -2 326.414 11.6739   2
  -7   5   2 327.743 12.3571   8
  -7   5   2 346.831 13.0788   1
   7   5  -2 313.888 12.2411   3
   7   5  -2 343.099 14.6558  14
  -7   5   2 331.995 12.9683  13
   7   5  -2 306.480 12.4996  12
   7   5  -2 352.163 12.9433   4
  -5  -5   2 393.555 12.0534  11
  -5  -5   2 407.591 13.5683   5
  -5  -5   2 407.945 14.1839  16
   5  -5  -2 377.083 12.1190   4
   5  -5  -2 385.871 17.4634  10
   5  -5  -2 382.719 12.4554   2
   5  -5  -2 368.752 12.5823  12
  -5   5   2 319.876 10.5464   5
  -5   5   2 370.441 12.0878   8
  -5   5   2 386.235 12.9470  13
  -5   5   2 378.675 11.0035  16
   5   5  -2 382.622 12.2287   4
  -5   5   2 374.963 12.5987   1
   5   5  -2 377.614 12.4542  12
   5   5  -2 379.728 13.5321  14
   5   5  -2 370.532 12.2440   3
  -3  -5   2 1176.62 28.4533  12
   3  -5  -2 1153.99 28.7609   2
   3  -5  -2 1110.50 27.0471   4
  -3  -5   2 1152.90 28.9804   5
  -3  -5   2 1094.08 27.0061  11
   3  -5  -2 1142.14 28.3343  12
   3  -5  -2 1192.88 32.8242  10
   3  -5  -2 1168.11 27.2455   6
  -3  -5   2 1146.71 29.5696  16
  -3  -5   2 1126.83 27.9108   2
  -3   5   2 1173.19 28.1928  12
   3   5  -2 1135.76 27.9775   4
  -3   5   2 1185.93 28.2259   3
  -3   5   2 1187.61 29.0887  13
   3   5  -2 1106.29 28.3070   3
  -3   5   2 1132.76 28.1292   8
   3   5  -2 1173.21 27.6101  13
   3   5  -2 1119.56 28.2385  12
   3   5  -2 1171.19 29.5741  14
  -1  -5   2 72.5430 4.26342   2
  -1  -5   2 66.6257 3.68731  16
  -1  -5   2 63.1366 3.38098   5
  -1  -5   2 71.2393 3.74164  12
   1  -5  -2 71.7615 4.14451  10
   1  -5  -2 66.2346 3.61807   6
  -1  -5   2 76.6247 4.96244  10
   1  -5  -2 74.0749 3.92030   2
  -1   5   2 64.3391 3.03566  14
   1   5  -2 64.6185 3.12540  13
  -1   5   2 70.4672 3.75178   3
  -1   5   2 70.8131 3.61175  12
   1   5  -2 68.6224 3.33359   7
  -1   5   2 69.8680 4.01738  10
   1   5  -2 68.4833 4.03853  14
  -1   5   2 70.7808 4.17371  13
   1   5  -2 69.3101 3.94258   3
  -1  -5  -2 722.752 18.8096  15
   1  -5   2 784.464 20.8352   2
  -1  -5  -2 728.479 17.8841   9
  -1  -5  -2 768.155 20.1839   6
   1  -5   2 786.489 20.0117  12
  -1  -5  -2 774.431 20.5572  11
  -1  -5  -2 749.252 19.0946   2
   1  -5   2 790.779 24.5928  10
   1   5   2 791.530 19.6572  12
  -1   5  -2 766.773 19.2905   7
   1   5   2 765.757 20.1477  14
   1   5   2 753.983 20.9643  13
   1   5   2 758.854 20.3745   3
  -1   5  -2 785.850 19.6634  13
  -1   5  -2 778.562 20.4804   3
   3  -5   2 135.440 10.0122  10
  -3  -5  -2 146.865 6.50929   6
  -3  -5  -2 131.989 6.91852  11
   3  -5   2 141.425 6.37994  12
   3  -5   2 140.652 6.94202   2
   3   5   2 138.697 7.04776   3
   3   5   2 133.169 5.98888  12
   3   5   2 129.954 7.08186  14
   3   5   2 128.291 5.01252   4
  -3   5  -2 138.597 6.93000   1
  -3   5  -2 131.650 6.03958  11
  -3   5  -2 135.752 6.30215  13
  -3   5  -2 136.762 5.94066   7
   5  -5   2 60.5924 5.72218   4
   5  -5   2 58.6190 4.84405   2
  -5  -5  -2 52.9930 5.20195   1
  -5  -5  -2 53.6306 4.61550   6
   5  -5   2 55.4210 8.16474  10
   5  -5   2 61.3948 4.91878  12
  -5  -5  -2 53.1285 5.47898  11
  -5   5  -2 57.4064 4.43886   7
   5   5   2 52.5949 5.36672  14
   5   5   2 56.9398 4.53708  12
  -5   5  -2 53.0737 5.03947  11
   5   5   2 50.5361 5.48704   3
   5   5   2 62.5235 4.35798   4
  -5   5  -2 56.7234 5.56127   1
   7  -5   2 151.356 8.93740  12
   7  -5   2 140.915 9.19517   4
  -7  -5  -2 149.215 9.38497   1
  -7  -5  -2 143.352 10.0171  11
  -7   5  -2 149.193 9.75157  11
   7   5   2 145.012 9.47651   3
   7   5   2 125.946 9.44015  14
  -7   5  -2 152.800 10.0442   1
   7   5   2 145.839 8.44964  12
  -9  -5  -2 2.48928 3.61402   1
   9  -5   2 3.88352 4.02039   4
   9  -5   2 3.69914 2.78441  12
  -9  -5  -2 3.84112 4.16843  11
   9   5   2 2.80838 1.98860  12
  -9   5  -2 2.43505 3.99265   1
   9   5   2 5.09430 3.57328   3
  -9   5  -2 6.81533 3.98970  11
 -10  -6   2 847.642 28.6023   5
  10  -6  -2 833.240 27.5837   4
  10  -6  -2 863.706 25.9656   9
 -10   6   2 838.036 26.5696   8
 -10   6   2 871.181 29.8370  11
 -10   6   2 875.998 28.3072   1
  -8  -6   2 22.2724 4.92115   5
   8  -6  -2 22.2511 4.21806   4
  -8  -6   2 15.1079 3.13795   6
  -8  -6   2 23.8868 3.81350  11
   8  -6  -2 15.4264 3.41312   2
   8   6  -2 20.7048 4.21869  14
  -8   6   2 21.5239 4.12455   1
   8   6  -2 20.1717 3.86491   3
  -8   6   2 19.6059 3.80685   8
   8   6  -2 26.9918 4.25240   4
  -6  -6   2 1759.47 45.2529  16
  -6  -6   2 1723.81 41.6283  11
   6  -6  -2 1634.00 41.6328   4
  -6  -6   2 1670.39 43.5429   5
   6  -6  -2 1603.69 50.2211  10
   6  -6  -2 1684.39 41.9307   2
   6   6  -2 1620.66 42.0337  12
  -6   6   2 1646.00 42.6829  13
   6   6  -2 1666.74 41.5359   4
   6   6  -2 1639.80 41.8831   3
  -6   6   2 1674.31 42.4256   1
   6   6  -2 1666.38 44.3506  14
  -6   6   2 1682.41 41.7600   8
  -4  -6   2 65.8232 3.77799  11
  -4  -6   2 72.9053 5.03851   5
  -4  -6   2 63.3925 3.90920   2
   4  -6  -2 69.8816 6.88443  10
   4  -6  -2 66.9838 3.87032   4
  -4  -6   2 75.3888 5.48118  16
   4  -6  -2 70.1033 5.01424   2
   4  -6  -2 71.0911 3.51433   6
  -4   6   2 79.7633 5.23456  13
  -4   6   2 67.2044 3.84318  16
   4   6  -2 81.5933 5.01569   3
   4   6  -2 74.6027 4.15771  13
   4   6  -2 59.7788 4.15777  12
   4   6  -2 58.5673 4.73670  14
   4   6  -2 65.8975 4.11453   4
  -4   6   2 75.8471 4.36262  12
  -4   6   2 68.4527 4.37289   8
  -4   6   2 66.4812 4.34038   3
  -2  -6   2 3282.19 76.9671  12
  -2  -6   2 3332.09 77.1449   2
   2  -6  -2 3487.50 76.3841   6
   2  -6  -2 3431.22 80.1286  10
  -2  -6   2 3286.65 77.6917  16
  -2  -6   2 3407.15 76.9751   5
  -2  -6   2 3279.32 78.8502  10
   2  -6  -2 3379.99 77.4734   2
  -2   6   2 3364.61 76.7050  12
   2   6  -2 3363.79 77.2970   3
   2   6  -2 3463.32 78.2907  14
  -2   6   2 3454.25 77.1269   3
  -2   6   2 3491.30 77.9100  13
   2   6  -2 3374.11 76.6145  12
   2   6  -2 3445.89 76.1777   7
  -2   6   2 3389.89 76.6480   8
   2   6  -2 3380.76 75.8693  13
   0  -6  -2 464.310 13.5893   6
   0  -6   2 453.666 14.2875   2
   0  -6  -2 442.945 13.1911   2
   0  -6   2 465.448 13.5568  12
   0  -6   2 444.032 16.5169  10
   0   6  -2 458.760 12.6908   7
   0   6   2 446.788 14.1126  13
   0   6   2 443.634 13.7095   3
   0   6   2 456.811 13.1675  12
   0   6  -2 455.842 12.7916  13
   0   6   2 445.870 12.8515  14
   0   6  -2 437.230 13.6825   3
  -2  -6  -2 3649.86 84.1006  15
   2  -6   2 3900.15 87.4001   2
   2  -6   2 3816.53 86.5493  12
   2  -6   2 3826.95 93.7932  10
  -2  -6  -2 3576.82 84.3232   2
  -2  -6  -2 3739.07 86.5758   6
  -2  -6  -2 3808.86 87.1035  11
  -2   6  -2 3922.28 85.4888   7
   2   6   2 3808.27 87.1095  14
  -2   6  -2 3859.10 86.1750  13
   2   6   2 3890.23 87.2490   3
  -2   6  -2 3790.31 86.8718   3
  -2   6  -2 3858.11 86.9380   1
   2   6   2 3719.97 87.7973  13
   2   6   2 3775.27 85.9365  12
   4  -6   2 407.578 13.7579   2
  -4  -6  -2 371.060 14.0773  11
  -4  -6  -2 356.865 12.9120   6
   4  -6   2 384.931 13.3658  12
   4  -6   2 367.397 18.7146  10
  -4   6  -2 380.793 13.0671  11
  -4   6  -2 374.588 13.9717   1
   4   6   2 365.702 12.7093  12
  -4   6  -2 378.155 12.4814   7
   4   6   2 374.079 13.9843   3
   4   6   2 358.634 14.0962  14
   6  -6   2 1754.65 47.4933  12
   6  -6   2 1796.12 48.5788   4
  -6  -6  -2 1908.88 47.0973   6
   6  -6   2 1774.26 45.9467   2
  -6  -6  -2 1973.92 49.7920  11
   6   6   2 1885.47 47.4252  12
  -6   6  -2 1869.64 49.0772   1
   6   6   2 1830.53 48.6998   3
  -6   6  -2 1819.50 48.2303  11
   6   6   2 1905.51 50.5957  14
  -8  -6  -2 97.1339 9.18913  11
   8  -6   2 108.711 8.73217   4
  -8   6  -2 116.940 9.79154   1
  -8   6  -2 116.987 9.33873  11
   8   6   2 113.053 9.15141   3
   8   6   2 112.160 8.12170  12
  -9  -7   2 37.9137 5.80690   5
   9  -7  -2 36.6250 5.15835   4
  -9  -7   2 35.6717 5.17692   6
  -9   7   2 40.1400 5.28203   8
  -9   7   2 44.9740 6.39106  11
   9   7  -2 40.2034 5.57623   3
  -9   7   2 39.6483 6.07991   1
   7  -7  -2 11.8948 3.12236   2
  -7  -7   2 13.4067 4.23421   5
   7  -7  -2 13.5466 3.11996   4
  -7  -7   2 10.1605 3.18272   6
   7   7  -2 12.1770 3.86904  14
  -7   7   2 14.8369 2.83652   8
   7   7  -2 10.4558 3.14848   3
   7   7  -2 11.4426 2.88143   4
  -7   7   2 15.5523 3.86611  13
  -7   7   2 10.4649 3.13084   1
  -5  -7   2 17.5675 3.42899   5
   5  -7  -2 14.7953 3.63334   4
   5  -7  -2 13.0523 4.26462  10
   5  -7  -2 18.4226 3.57142   2
  -5  -7   2 14.6862 3.25384  16
   5   7  -2 15.4053 3.51851  14
  -5   7   2 19.0664 2.76179   8
  -5   7   2 16.4338 3.06242   3
   5   7  -2 15.2411 2.58792   4
   5   7  -2 16.2480 3.25266   3
   5   7  -2 17.0959 2.73154  13
  -5   7   2 13.2870 3.12469  13
   3  -7  -2 182.431 6.86932   6
  -3  -7   2 173.178 8.51882  16
  -3  -7   2 171.616 7.62364   2
   3  -7  -2 183.342 10.3175  10
  -3  -7   2 183.156 8.24591   5
   3  -7  -2 170.265 7.88445   2
   3   7  -2 177.184 6.98217  13
  -3   7   2 180.141 7.86281   3
   3   7  -2 178.260 8.63295  14
  -3   7   2 184.282 8.35700  13
  -3   7   2 180.687 7.37160   8
  -3   7   2 177.950 7.38416  12
   3   7  -2 188.087 7.28852   7
   3   7  -2 187.032 8.02445   3
   1  -7  -2 5.13005 1.73103   6
  -1  -7   2 7.29277 1.71258  12
  -1  -7   2 6.07030 1.60947   5
  -1  -7   2 12.2312 2.92508   2
  -1  -7   2 7.42809 2.25985  10
   1  -7  -2 8.59765 1.91777  10
   1  -7  -2 10.5341 2.42937   2
   1   7  -2 11.6331 1.97167  13
   1   7  -2 6.87639 1.89124   3
   1   7  -2 11.0583 1.89331   7
  -1   7   2 10.6397 2.44455   3
  -1   7   2 8.51905 2.09862  13
   1   7  -2 7.72756 2.20951  14
  -1   7   2 9.45872 1.77386  12
  -1  -7  -2 262.885 9.35579   2
   1  -7   2 284.313 10.2767  12
   1  -7   2 258.862 8.55590   6
  -1  -7  -2 265.980 8.64779  15
  -1  -7  -2 269.134 10.1397  11
   1  -7   2 269.448 13.4814  10
   1  -7   2 282.503 11.1506   2
  -1  -7  -2 286.753 10.4665   6
   1   7   2 260.148 9.69907  14
   1   7   2 262.113 10.3681   3
  -1   7  -2 291.679 10.6602   3
  -1   7  -2 296.538 9.96201  13
  -1   7  -2 268.507 9.08480   7
   1   7   2 276.001 9.89048  12
   1   7   2 274.374 10.7954  13
  -3  -7  -2 112.075 6.64803  11
   3  -7   2 106.747 7.16529   2
   3  -7   2 109.903 9.91897  10
   3  -7   2 121.045 6.77552  12
  -3  -7  -2 114.142 6.74992   6
   3   7   2 110.263 7.17167   3
  -3   7  -2 110.751 6.33591  13
   3   7   2 105.385 6.97988  13
  -3   7  -2 117.757 6.97063   1
  -3   7  -2 107.587 5.63738   7
   3   7   2 93.6987 6.51657  14
  -3   7  -2 102.730 6.69086   3
   3   7   2 101.342 6.00305  12
   5  -7   2 119.982 7.70237   4
  -5  -7  -2 118.759 8.35567  11
   5  -7   2 125.168 7.42912   2
   5  -7   2 116.403 7.61414  12
  -5  -7  -2 123.203 7.83525   6
  -5   7  -2 130.832 7.28232   7
   5   7   2 115.622 8.50862  14
   5   7   2 116.152 7.25679  12
  -5   7  -2 123.085 7.51091  11
  -5   7  -2 117.293 7.89943   1
   5   7   2 118.140 8.50108  13
   5   7   2 126.453 8.21869   3
   7  -7   2 190.415 11.5592   4
  -7  -7  -2 234.412 12.4544  11
   7  -7   2 197.240 11.1327  12
  -7  -7  -2 216.258 10.8405   6
   7   7   2 198.572 12.4961  14
  -7   7  -2 207.631 12.4931   1
   7   7   2 208.300 12.1668   3
  -7   7  -2 212.881 11.6210  11
   7   7   2 209.547 10.5996  12
  -8  -8   2 337.936 15.6249   5
   8  -8  -2 288.761 12.8376   2
  -8  -8   2 322.924 13.7272   6
   8   8  -2 299.525 15.4252  14
  -8   8   2 294.944 14.4143   1
  -8   8   2 289.923 14.2018  13
   8   8  -2 287.199 13.4127   3
  -6  -8   2 1265.85 36.5703   5
   6  -8  -2 1319.03 35.2822   2
  -6  -8   2 1272.55 35.0259   6
  -6   8   2 1297.62 35.8800  13
  -6   8   2 1242.47 33.6572   8
  -6   8   2 1335.75 35.9165   1
   6   8  -2 1229.70 35.0208   3
   6   8  -2 1283.64 37.0298  14
   4  -8  -2 526.610 21.7769  10
  -4  -8   2 548.622 18.2239   5
  -4  -8   2 507.196 16.0548   2
   4  -8  -2 567.391 18.2676   2
   4   8  -2 562.649 19.0745  14
  -4   8   2 564.457 18.3709  13
  -4   8   2 534.723 16.3587   8
   4   8  -2 537.250 17.7678   3
  -4   8   2 544.533 17.3737   3
   4   8  -2 549.465 16.4142   7
   2  -8  -2 1598.83 40.2075   2
  -2  -8   2 1599.58 39.3446   5
   2  -8  -2 1607.12 38.9330   6
  -2  -8   2 1594.06 40.2467   2
   2   8  -2 1591.23 40.3304   3
  -2   8   2 1606.53 40.6904  13
   2   8  -2 1600.92 41.1714  14
   2   8  -2 1609.50 38.5079   7
  -2   8   2 1592.22 40.0845   3
  -2   8   2 1530.74 38.8277   8
  -2   8   2 1541.72 39.2664  12
   0  -8   2 524.177 16.5526  12
   0  -8   2 515.888 19.9119  10
   0  -8   2 524.587 15.4080   6
   0  -8  -2 526.907 16.2807   2
   0  -8  -2 535.823 16.5820   6
   0  -8   2 534.996 17.6294   2
   0   8   2 537.242 17.3783  13
   0   8   2 526.260 17.0035   3
   0   8   2 527.745 16.3401  12
   0   8  -2 535.699 15.7267  13
   0   8  -2 543.086 17.1082   3
   0   8  -2 525.806 15.1547   7
  -2  -8  -2 868.523 24.6659   6
   2  -8   2 868.262 25.4834   2
   2  -8   2 840.215 30.3878  10
  -2  -8  -2 829.001 22.3466   2
  -2  -8  -2 848.879 24.4648  11
   2  -8   2 842.587 24.3506  12
  -2   8  -2 871.451 23.8932  13
   2   8   2 862.952 25.1367   3
  -2   8  -2 863.457 22.7403   7
   2   8   2 867.609 25.7394  13
   2   8   2 827.574 23.8306  12
  -2   8  -2 864.401 24.9651   3
   2   8   2 804.855 24.0116  14
  -4  -8  -2 305.564 13.3568  11
  -4  -8  -2 329.612 13.4671   6
   4  -8   2 330.888 13.3992  12
   4  -8   2 332.918 13.2793   4
   4  -8   2 336.293 13.9156   2
   4   8   2 332.147 12.9077  12
   4   8   2 324.830 13.8911  14
  -4   8  -2 341.455 12.0518   7
  -4   8  -2 338.162 13.2574  13
  -4   8  -2 330.889 13.7757   1
   4   8   2 311.800 13.4918   3
   4   8   2 305.197 13.8108  13
  -6  -8  -2 382.032 15.4412   6
   6  -8   2 390.224 15.1269   2
  -6  -8  -2 382.272 16.4203  11
   6  -8   2 353.516 15.3918  12
   6  -8   2 373.893 15.6002   4
   6   8   2 385.326 16.5146   3
   6   8   2 368.135 15.2084  12
   6   8   2 368.175 16.6330  13
   6   8   2 351.897 16.4605  14
  -6   8  -2 391.157 16.8549   1
   8   8   2 277.746 13.5578  12
  -9  -9   2 6.30365 3.71108   6
  -9   9   2 5.43782 4.47363   1
  -9   9   2 1.25798 2.45986  11
   7  -9  -2 0.19047 3.01472   2
  -7  -9   2 7.39203 4.14606   5
  -7  -9   2 -1.1206 2.11853   6
  -7   9   2 1.22558 2.80548  13
  -7   9   2 0.44506 2.49653   1
   7   9  -2 -1.2351 2.78843  14
   7   9  -2 0.01609 1.90085   3
   5  -9  -2 1.85589 3.07123   2
  -5  -9   2 4.13983 2.30903   6
  -5  -9   2 4.23905 2.61697   5
  -5   9   2 7.11829 2.98899   3
   5   9  -2 7.63918 3.19790   3
   5   9  -2 6.18698 2.59524   7
   5   9  -2 9.24256 3.07758  14
  -5   9   2 5.71628 2.91277  13
   3  -9  -2 4.23021 1.71936   6
  -3  -9   2 10.1532 2.94932   2
   3  -9  -2 4.65988 2.22762   2
  -3  -9   2 5.50970 2.76709   6
  -3  -9   2 12.9487 3.25303   5
   3   9  -2 8.41008 2.54020   3
  -3   9   2 4.59073 2.75837   3
  -3   9   2 4.13086 2.07581  13
   3   9  -2 3.60743 2.09904  14
   3   9  -2 4.86106 1.95413   7
  -3   9   2 2.79274 1.68164   8
  -1  -9   2 36.3706 5.04735   2
  -1  -9   2 41.5162 4.37710   6
   1  -9  -2 35.3308 4.30249   2
   1  -9  -2 37.6845 4.40389   6
  -1   9   2 35.0605 3.99959  12
   1   9  -2 36.2307 4.43895   3
   1   9  -2 37.4089 3.53060  13
  -1   9   2 36.5873 4.75160  13
  -1   9   2 36.3002 4.46084   3
  -1   9   2 28.0899 3.41562   8
   1   9  -2 36.0389 3.43361   7
  -1  -9  -2 0.48823 1.53379   6
   1  -9   2 2.90758 3.16791   2
  -1  -9  -2 -1.4150 1.67711   2
   1  -9   2 1.06271 2.23765  10
  -1   9  -2 0.81217 1.65175  13
   1   9   2 -0.7632 1.24243  13
   1   9   2 0.84080 1.57105  14
   1   9   2 3.36674 2.72441   3
  -1   9  -2 0.68004 1.44851   7
  -1   9  -2 1.64770 2.45623   3
   1   9   2 9.21586 2.51154  12
  -3  -9  -2 25.4510 3.96016   6
   3  -9   2 21.6103 3.88427  12
   3  -9   2 25.0413 4.44929   2
  -3  -9  -2 26.6932 4.33306  11
   3   9   2 22.5050 3.74747  14
   3   9   2 23.6797 3.80493  12
  -3   9  -2 28.7331 3.95656  13
   3   9   2 36.4210 5.23586  13
  -3   9  -2 23.5698 4.44068   1
  -3   9  -2 23.1263 4.38770   3
  -3   9  -2 20.1286 3.10833   7
   3   9   2 38.3102 5.70422   3
  -5  -9  -2 22.1243 4.71485  11
   5  -9   2 17.7108 3.91455   4
  -5  -9  -2 24.4851 4.28505   6
   5  -9   2 17.4432 4.69111   2
   5   9   2 18.2953 4.42191  13
   5   9   2 21.9572 4.70820  14
  -5   9  -2 29.5139 5.01874   1
   5   9   2 26.0460 4.83440   3
   5   9   2 19.9192 3.68290  12
   7  -9   2 3.04570 3.33310   4
  -7  -9  -2 0.63898 3.50167  11
  -7  -9  -2 4.91732 3.35498   6
   7   9   2 0.46286 2.45192  12
   7   9   2 3.32253 3.99849   3
  -8 -10   2 449.118 18.4136   6
  -8  10   2 463.456 19.5105   1
   8  10  -2 416.834 17.5875   3
   8  10  -2 468.353 17.1628   7
  -6 -10   2 194.714 11.3043   6
   6 -10  -2 171.627 10.7216   2
  -6  10   2 182.614 11.2727   1
   6  10  -2 179.501 10.6611   3
   6  10  -2 188.506 9.42744   7
   6  10  -2 161.036 10.9439  14
  -6  10   2 172.650 10.4452  13
  -4 -10   2 866.738 26.6552   6
   4 -10  -2 909.778 27.4887   2
  -4  10   2 893.219 27.1384  13
  -4  10   2 870.612 26.5536   3
   4  10  -2 876.628 27.2200   3
   4  10  -2 885.712 24.7835   7
   4  10  -2 854.907 27.7696  14
   2 -10  -2 208.611 9.33657   6
   2 -10  -2 206.266 10.5517   2
  -2 -10   2 197.291 9.86912   2
  -2 -10   2 209.260 10.1731   6
  -2  10   2 206.350 9.99366   8
   2  10  -2 216.086 10.8708   3
   2  10  -2 203.769 8.61220   7
  -2  10   2 222.073 10.8359   3
  -2  10   2 213.996 10.6180  13
   0 -10  -2 1299.35 35.5211   6
   0 -10  -2 1312.25 35.4649   2
   0 -10   2 1356.19 34.5908   6
   0 -10   2 1296.10 36.8728   2
   0  10   2 1317.68 35.6739  12
   0  10   2 1378.01 37.2515  13
   0  10  -2 1316.54 36.7213   3
   0  10   2 1337.48 36.8437   3
   2 -10   2 165.254 10.5278   2
  -2 -10  -2 164.447 9.56710   6
   2  10   2 156.136 9.39233  13
  -2  10  -2 152.916 8.17675  13
   2  10   2 167.948 9.03003  12
   2  10   2 166.466 9.73573   3
  -2  10  -2 161.476 9.79811   3
  -4 -10  -2 1160.40 33.8756  11
  -4 -10  -2 1173.34 34.6179   6
   4 -10   2 1244.30 35.2803   2
   4  10   2 1182.05 35.4761   3
  -4  10  -2 1209.99 35.4892   1
   4  10   2 1140.71 35.0485  13
   4  10   2 1119.40 34.3957  14
  -4  10  -2 1249.85 34.2991  13
   4  10   2 1189.66 34.0720  12
  -6 -10  -2 57.3017 7.10070  11
  -6 -10  -2 57.8300 6.39989   6
   6 -10   2 66.3330 7.24172   2
  -6  10  -2 68.4327 7.78157   1
   6  10   2 85.4715 7.85153   3
   6  10   2 67.8587 6.68790  12
  -7 -11   2 118.633 9.63711   6
   7 -11  -2 108.450 9.28932   2
  -7  11   2 108.022 10.0153   1
   7  11  -2 94.4978 8.47279   3
   5 -11  -2 156.020 10.5393   2
  -5 -11   2 151.658 10.2332   6
  -5  11   2 160.796 9.62304   3
  -5  11   2 159.756 9.75873  13
   5  11  -2 140.389 9.37624   3
   5  11  -2 135.901 10.1714  14
  -3 -11   2 170.222 9.03719   2
  -3 -11   2 151.180 9.70229   6
   3 -11  -2 163.990 10.0644   2
  -3  11   2 150.342 9.44985  13
  -3  11   2 155.900 9.72592   3
   3  11  -2 149.981 9.81020   3
   3  11  -2 142.548 9.70875  14
   1 -11  -2 208.199 10.7918   2
  -1 -11   2 220.613 10.4495   6
  -1 -11   2 190.692 10.9501   2
   1 -11  -2 192.688 9.91472   6
  -1  11   2 195.035 11.0340   3
   1  11  -2 206.015 11.3355   3
  -1  11   2 200.411 10.7247  13
  -1 -11  -2 151.408 8.34283   2
   1 -11   2 148.562 10.1994   2
  -1 -11  -2 158.521 9.62450   6
   1  11   2 150.303 9.50666  13
  -1  11  -2 160.170 10.0695   3
   1  11   2 171.771 10.5814   3
   3 -11   2 174.312 11.2351   2
  -3 -11  -2 169.223 10.5806   6
   3  11   2 172.457 10.5461  12
  -3  11  -2 160.454 10.0208   3
   3  11   2 160.978 10.9018   3
   3  11   2 166.811 10.2929  13
  -3  11  -2 152.166 9.72992   1
   5 -11   2 114.041 9.61537   2
  -5 -11  -2 110.884 9.09687   6
   5  11   2 104.379 9.31513   3
  -5  11  -2 108.583 9.01083   1
  -6 -12   2 705.527 25.2990   6
   6 -12  -2 733.005 25.5376   2
   6  12  -2 693.079 24.7530   3
  -6  12   2 728.645 25.9371   1
   4 -12  -2 113.529 9.20849   2
  -4 -12   2 95.0425 8.96081   6
  -4  12   2 86.1662 7.45690   3
   4  12  -2 102.042 8.74439   3
   2 -12  -2 822.356 26.5878   2
  -2 -12   2 839.136 26.1340   6
  -2 -12   2 840.615 26.2290   2
   2  12  -2 842.123 27.5285   3
  -2  12   2 828.934 26.9957  13
  -2  12   2 815.998 27.0680   3
   0 -12  -2 157.146 9.29442   2
   0 -12   2 149.225 10.2619   2
   0 -12  -2 160.133 9.76996   6
   0  12   2 156.895 10.6000   3
   0  12   2 153.813 9.74171  13
   0  12  -2 155.828 10.4924   3
   2 -12   2 691.014 23.9691   2
  -2 -12  -2 662.431 23.4194   6
   2  12   2 674.270 24.3164   3
   2  12   2 622.506 25.1288  13
  -2  12  -2 640.434 23.6013   3
  -2  12  -2 657.449 23.4147   1
  -4 -12  -2 186.133 11.2196   6
   4 -12   2 177.413 12.0050   2
  -4  12  -2 196.943 12.3556   1
   4  12   2 181.066 12.1310   3
  -3 -13   2 80.3521 7.29656   6
   3 -13  -2 86.4200 8.93918   2
   3  13  -2 77.9896 8.19091   3
  -3  13   2 90.9790 8.63506   3
  -1 -13   2 58.1320 6.95441   2
   1 -13  -2 53.4438 5.90627   6
   1 -13  -2 51.5492 6.34078   2
   1  13  -2 56.0196 7.33021   3
  -1  13   2 49.3778 6.45178   3
  -1 -13  -2 55.4967 6.84341   6
   1 -13   2 52.7173 7.38014   2
   1  13   2 54.4510 6.75856   3
  -1  13  -2 45.2040 6.61263   3
 -10   0   3 -0.4247 2.37989  11
 -10   0   3 4.88610 2.77934   5
  10   0  -3 4.44162 2.86711  14
 -10   0   3 -1.5513 2.57847   8
  10   0  -3 1.68741 3.00916   4
  -8   0   3 4.47053 2.32615   5
   8   0  -3 0.07989 1.74390  14
  -8   0   3 1.10875 1.62443  11
  -8   0   3 0.60673 2.14981   8
  -8   0   3 0.39271 1.48899   1
  -8   0   3 2.35761 1.87744  16
   8   0  -3 -0.9127 1.90679   4
   6   0  -3 0.58981 1.21746  14
   6   0  -3 13.4874 1.65423   9
  -6   0   3 4.63552 1.80702   5
   6   0  -3 0.03653 1.42319   4
  -6   0   3 0.80988 1.43682   8
   6   0  -3 8.81863 3.03473  10
  -6   0   3 1.65502 0.80527  12
  -6   0   3 5.81724 1.75737  16
  -4   0   3 1.51604 0.53623   1
   4   0  -3 4.91465 1.13605   4
  -4   0   3 2.78402 0.92671   8
   4   0  -3 1.19996 0.73917  14
  -4   0   3 1.80858 0.80770  16
  -4   0   3 0.74957 0.76972   5
  -4   0   3 0.78966 0.58755  13
  -2   0   3 1.79566 0.44596  13
   2   0  -3 0.32280 0.40542   7
  -2   0   3 0.26927 0.53946  16
   2   0  -3 1.03501 0.58702   6
   2   0  -3 0.93062 0.41510  14
   2   0  -3 0.75638 0.45153   4
   2   0  -3 1.32448 0.50291  15
  -2   0   3 0.54132 0.54517   8
  -2   0   3 0.72044 0.70694   5
   0   0  -3 1.27823 0.55697  11
   0   0  -3 1.85679 0.53114   6
   0   0  -3 0.28340 0.54953   1
   0   0  -3 0.27441 0.38746   7
   0   0  -3 0.12478 0.51614  15
   0   0  -3 0.71395 0.41081   9
  -2   0  -3 0.88722 0.93876   7
  -2   0  -3 1.32258 1.03695  11
   2   0   3 1.33598 1.43057  10
  -2   0  -3 5.16656 1.34757   1
  -2   0  -3 0.06106 0.42314   6
  -2   0  -3 0.24838 0.80078  15
   4   0   3 9.33743 1.52293  12
   4   0   3 0.88031 1.80263  14
  -4   0  -3 3.12192 1.81776  11
   4   0   3 2.93122 1.82631   4
   4   0   3 1.99404 2.06070  10
  -4   0  -3 0.22907 1.62948   1
   6   0   3 0.17859 1.41048  12
  -6   0  -3 13.2882 3.70423  11
  -6   0  -3 1.48997 1.90491   1
   6   0   3 0.43778 1.73772   4
   6   0   3 2.67519 2.71007  14
   6   0   3 3.26980 2.94372  10
   8   0   3 0.67621 3.21522   4
  -8   0  -3 1.25967 3.49335   1
   8   0   3 -0.4034 2.09143  12
   8   0   3 -1.3014 2.84184  14
  -8   0  -3 -0.3614 2.18303  11
 -11  -1   3 412.266 18.2520  11
  11  -1  -3 391.390 17.3996   4
 -11  -1   3 396.161 17.1188   8
  11   1  -3 405.641 17.6799  14
  11   1  -3 404.259 17.2280   4
 -11   1   3 386.831 18.1499  11
 -11   1   3 393.905 16.8197   8
  -9  -1   3 684.569 21.6378   5
  -9  -1   3 674.465 22.3840  11
   9  -1  -3 689.067 22.0205  14
   9  -1  -3 689.015 22.2398   4
  -9  -1   3 679.573 22.0346  16
  -9  -1   3 660.579 21.5986   8
  -9   1   3 664.166 21.0054  16
   9   1  -3 647.138 22.3703  14
  -9   1   3 690.522 23.0379  11
  -9   1   3 661.927 21.7611   8
  -9   1   3 687.515 20.5482   1
  -9   1   3 619.406 20.1608   5
   9   1  -3 692.053 22.2313   4
   7  -1  -3 1359.95 41.7236  10
   7  -1  -3 1377.79 35.0711  14
   7  -1  -3 1268.65 34.3495  12
  -7  -1   3 1386.07 35.6194  16
  -7  -1   3 1373.38 34.9948   8
  -7  -1   3 1401.58 35.5292  11
   7  -1  -3 1396.27 33.1954   9
  -7  -1   3 1374.30 35.1796   5
  -7  -1   3 1361.38 33.1761   1
   7  -1  -3 1391.40 35.4697   4
   7   1  -3 1305.88 34.6294  12
  -7   1   3 1363.60 35.5372  11
  -7   1   3 1398.45 35.1843   8
  -7   1   3 1388.97 33.7344   1
   7   1  -3 1378.77 35.9128  14
   7   1  -3 1387.65 35.5685   4
  -7   1   3 1315.62 34.2234   5
  -7   1   3 1392.83 34.8503  16
  -5  -1   3 1221.79 30.4020   8
  -5  -1   3 1254.70 30.4950  11
   5  -1  -3 1271.29 35.7640  10
   5  -1  -3 1241.67 29.7524   9
   5  -1  -3 1221.94 30.4643  12
  -5  -1   3 1236.95 28.9024   1
  -5  -1   3 1280.58 31.2879  16
   5  -1  -3 1261.24 30.7868   4
   5  -1  -3 1271.47 30.2338  14
  -5  -1   3 1229.37 30.8302   5
  -5  -1   3 1233.02 30.0354  12
  -5   1   3 1270.68 30.7729   8
  -5   1   3 1243.78 30.4130   5
  -5   1   3 1259.78 30.0423  12
  -5   1   3 1236.74 30.0566  13
   5   1  -3 1252.19 29.2142   9
   5   1  -3 1215.02 30.3547  12
   5   1  -3 1245.12 30.8662   4
  -5   1   3 1271.37 29.4495   1
  -5   1   3 1296.18 30.7946  16
   5   1  -3 1271.03 31.0676  14
   3  -1  -3 4872.17 108.908   6
   3  -1  -3 4761.88 109.360  14
  -3  -1   3 4823.49 110.624   5
  -3  -1   3 4774.87 109.919  12
  -3  -1   3 4663.12 109.671   8
   3  -1  -3 4683.49 108.748   4
  -3  -1   3 4812.23 114.559  16
   3  -1  -3 4513.66 104.483   9
  -3   1   3 4651.14 108.245   5
  -3   1   3 4820.31 111.574  13
  -3   1   3 4887.02 114.064  10
   3   1  -3 4940.47 114.444  14
  -3   1   3 4779.55 109.578  12
  -3   1   3 4883.23 108.155   8
  -3   1   3 4780.56 112.372  16
   3   1  -3 4564.50 110.007   4
   3   1  -3 4734.14 106.066  15
   3   1  -3 4967.89 105.965   9
  -1  -1   3 1162.82 24.4238   8
   1  -1  -3 1028.33 24.1979   7
  -1  -1   3 1177.77 25.2422   5
   1  -1  -3 1073.95 25.2167  11
  -1  -1   3 1129.09 25.3768  16
   1  -1  -3 1024.85 25.2903  15
  -1  -1   3 1119.10 24.8003  12
   1  -1  -3 1064.06 24.6310   1
   1  -1  -3 1061.27 24.8853   9
   1  -1  -3 1038.51 25.0532   6
   1   1  -3 1064.32 25.0312   9
   1   1  -3 1127.17 24.9239   7
   1   1  -3 1070.92 25.2367  15
  -1   1   3 1048.96 25.1871  13
  -1  -1  -3 4163.51 91.5936   6
  -1  -1  -3 4077.21 89.4216   7
  -1  -1  -3 4326.93 90.3705   1
   1  -1   3 4023.10 101.305  10
  -1  -1  -3 4101.61 93.4781  11
  -1  -1  -3 4107.16 93.6566   9
  -1  -1  -3 4159.31 93.2718  15
  -1   1  -3 3946.77 90.8161   6
  -1   1  -3 4014.35 89.5983   9
  -1   1  -3 3810.13 90.0914  15
  -1   1  -3 3930.62 92.2218   7
   1   1   3 4246.94 99.4334  10
  -1   1  -3 4001.61 94.2209  11
  -1   1  -3 4094.74 90.2087   1
  -3  -1  -3 1134.71 28.2073  15
  -3  -1  -3 1141.28 29.6350  11
  -3  -1  -3 1161.16 29.3481   1
  -3  -1  -3 1079.75 27.1727   6
   3  -1   3 1181.54 33.8668  10
   3  -1   3 1146.40 26.9124  12
   3  -1   3 1177.77 27.5509   2
  -3   1  -3 1158.62 29.3904   1
   3   1   3 1137.80 26.6338  12
  -3   1  -3 1143.06 28.4835   7
   3   1   3 1178.91 31.9329  10
   3   1   3 1224.26 27.4286  12
  -3   1  -3 1239.64 29.6706  11
   3   1   3 1137.91 30.6508  14
   3   1   3 1142.65 28.8297   4
   5  -1   3 961.917 27.0245   4
   5  -1   3 952.513 32.0158  10
   5  -1   3 958.233 24.6796  12
  -5  -1  -3 968.844 26.7848   1
  -5  -1  -3 955.745 27.6825  11
   5   1   3 928.651 29.6346  10
   5   1   3 922.341 28.4903  14
  -5   1  -3 935.230 26.7928   1
   5   1   3 957.112 24.6029  12
   5   1   3 975.639 26.4662   4
  -5   1  -3 935.543 27.0986  11
   7  -1   3 625.557 19.8890  12
   7  -1   3 636.709 21.9047   4
  -7  -1  -3 625.424 22.4213  11
   7  -1   3 617.260 23.4864  14
  -7  -1  -3 644.139 21.7641   1
   7   1   3 645.629 21.4766   4
   7   1   3 601.547 23.2217  14
  -7   1  -3 621.812 21.5195   1
  -7   1  -3 633.342 22.5487  11
   7   1   3 628.774 19.7924  12
   9  -1   3 329.822 15.4096   4
   9  -1   3 314.226 14.0731  12
  -9  -1  -3 307.317 15.8394  11
  -9  -1  -3 307.099 15.3694   1
   9   1   3 307.596 14.4382   4
  -9   1  -3 338.229 16.6644  11
  -9   1  -3 311.536 15.5575   1
   9   1   3 310.850 14.1170  12
 -10  -2   3 180.023 10.5785   8
 -10  -2   3 173.926 10.4955  16
  10  -2  -3 185.658 10.9417   4
 -10  -2   3 176.174 9.85337   5
 -10  -2   3 168.941 10.6226  11
 -10   2   3 164.686 11.0789  11
  10   2  -3 176.372 10.7572   4
 -10   2   3 195.322 10.7993   8
  10   2  -3 162.935 10.0874  14
  -8  -2   3 270.152 11.4639   5
  -8  -2   3 268.680 11.0622   8
   8  -2  -3 257.576 15.7886  10
  -8  -2   3 259.037 11.6859  16
   8  -2  -3 263.863 11.3009   4
   8  -2  -3 260.251 9.61815   9
  -8  -2   3 269.737 11.3122  11
   8  -2  -3 266.425 10.9486  14
  -8   2   3 248.979 10.0889   1
   8   2  -3 251.403 11.3459   4
   8   2  -3 227.176 9.15349   3
   8   2  -3 254.387 11.7058  14
  -8   2   3 282.137 12.1565  11
  -8   2   3 261.541 10.2998  16
  -8   2   3 268.129 11.2999   8
  -8   2   3 254.575 10.0851   5
   6  -2  -3 219.376 8.51498   4
   6  -2  -3 204.290 7.53220   9
   6  -2  -3 216.871 8.03017  14
  -6  -2   3 204.613 8.15821  11
  -6  -2   3 211.639 8.21848   8
  -6  -2   3 208.263 6.95627   1
   6  -2  -3 213.612 12.1733  10
  -6  -2   3 227.697 9.24352  16
  -6  -2   3 217.526 8.93785   5
   6  -2  -3 211.648 8.27472  12
   6   2  -3 207.605 8.91019  14
   6   2  -3 220.069 8.68005   4
   6   2  -3 206.109 6.50345   9
  -6   2   3 217.656 7.77436   1
  -6   2   3 220.988 8.11733  16
   6   2  -3 194.725 7.95687  12
  -6   2   3 208.912 8.15307  13
   6   2  -3 188.144 6.97473   3
  -6   2   3 205.910 7.79141   5
  -6   2   3 211.423 7.69027  12
  -6   2   3 226.307 8.52672   8
   4  -2  -3 599.458 15.7423   9
   4  -2  -3 611.455 15.8906   4
   4  -2  -3 624.098 20.2590  10
  -4  -2   3 603.193 15.7529   8
  -4  -2   3 599.993 16.7673  16
  -4  -2   3 626.508 16.6489   5
  -4  -2   3 614.648 15.8137  12
  -4  -2   3 593.025 14.3133   1
  -4  -2   3 614.657 15.5129  11
   4  -2  -3 633.243 15.8900   2
   4  -2  -3 617.854 15.2203   6
   4  -2  -3 618.810 14.9304  14
   4   2  -3 603.605 16.3497   4
  -4   2   3 644.249 16.4934  16
  -4   2   3 619.826 16.0855   5
  -4   2   3 603.226 16.1870   8
   4   2  -3 589.270 15.8055  12
  -4   2   3 614.832 15.9803  13
   4   2  -3 612.657 15.0398   9
   4   2  -3 582.071 14.8577   3
  -4   2   3 622.919 15.7551  12
   4   2  -3 585.364 14.2951  15
   4   2  -3 592.054 16.4233  14
  -2  -2   3 318.376 8.48584  12
   2  -2  -3 316.400 8.72211   6
   2  -2  -3 299.662 8.57602   9
  -2  -2   3 325.840 9.16829  16
  -2  -2   3 322.900 7.95490   8
   2  -2  -3 308.763 8.02249   4
  -2  -2   3 331.874 9.05532   5
   2   2  -3 319.015 8.58486   9
  -2   2   3 300.036 10.6335  10
  -2   2   3 315.519 8.95348  13
   2   2  -3 324.777 8.16403   3
   2   2  -3 328.673 8.36886  15
  -2   2   3 306.838 7.90881   3
   2   2  -3 328.722 9.17556   4
   2   2  -3 315.173 8.64099   7
  -2   2   3 314.433 8.27767  12
  -2   2   3 297.310 8.87066   8
   2   2  -3 324.878 9.19371  14
   0  -2  -3 575.472 14.3428   1
   0  -2   3 563.287 13.4362  16
   0  -2   3 546.171 13.2187   5
   0  -2   3 558.508 12.9784  12
   0  -2  -3 565.532 13.1832   7
   0  -2  -3 550.748 14.2944  15
   0  -2  -3 546.920 14.5636  11
   0  -2  -3 569.265 14.2449   6
   0  -2  -3 551.706 13.4160   9
   0   2  -3 560.205 14.1151   9
   0   2  -3 551.433 14.3175  15
   0   2  -3 568.716 14.1456   7
   0   2   3 546.968 14.1698  14
   0   2  -3 559.700 13.9643   1
   2  -2   3 545.568 13.6045  12
  -2  -2  -3 555.591 14.5398   6
  -2  -2  -3 535.977 13.0715   9
  -2  -2  -3 555.946 15.3681   1
   2  -2   3 531.298 14.7073   2
  -2  -2  -3 545.974 14.5932  15
  -2  -2  -3 563.733 15.8146  11
   2  -2   3 550.045 19.3182  10
   2   2   3 585.475 16.4453  14
  -2   2  -3 519.023 14.8813  11
   2   2   3 595.204 16.4427  10
   2   2   3 568.893 12.8996  12
   2   2   3 541.614 14.5323   4
  -2   2  -3 537.326 15.3553   1
   2   2   3 571.406 12.9809  12
  -2   2  -3 533.361 14.7600   7
  -4  -2  -3 195.279 7.21789   6
  -4  -2  -3 220.129 9.68795  11
   4  -2   3 219.980 7.55946   2
   4  -2   3 221.667 12.8134  10
   4  -2   3 209.798 7.55638  12
  -4  -2  -3 211.547 8.99164   1
   4   2   3 213.244 8.49972   4
   4   2   3 220.205 7.37895  12
  -4   2  -3 225.613 9.39652   1
   4   2   3 209.349 10.0311  14
  -4   2  -3 215.556 9.13743  11
  -4   2  -3 225.212 8.60618   7
   6  -2   3 296.089 11.4333  12
  -6  -2  -3 300.930 12.5972   1
  -6  -2  -3 314.666 13.6306  11
   6  -2   3 308.816 13.3656   4
   6  -2   3 294.367 17.2040  10
   6  -2   3 291.354 13.9578  14
   6   2   3 305.765 12.4550   4
  -6   2  -3 314.609 13.2240   1
   6   2   3 302.852 14.2570  14
   6   2   3 294.954 11.0818  12
  -6   2  -3 306.853 13.0870  11
  -8  -2  -3 127.967 10.0775  11
   8  -2   3 122.556 9.05018   4
  -8  -2  -3 107.772 9.01842   1
   8  -2   3 112.391 9.36821  14
   8  -2   3 114.529 7.89898  12
   8   2   3 127.216 8.11894  12
   8   2   3 118.075 8.85008   4
  -8   2  -3 119.563 9.77822  11
  -8   2  -3 111.097 8.63858   1
   8   2   3 97.8784 9.55264  14
 -11  -3   3 716.394 24.6552   5
 -11  -3   3 718.309 25.8256  11
  11  -3  -3 717.619 25.2018   4
 -11   3   3 757.290 27.0288  11
 -11   3   3 738.064 25.2162   8
  11   3  -3 742.635 25.3547   4
   9  -3  -3 53.6580 6.08786   4
  -9  -3   3 50.4777 5.26626  11
   9  -3  -3 57.5094 4.79348   9
  -9  -3   3 53.7821 5.93638  16
  -9  -3   3 53.0869 6.09155   5
  -9  -3   3 55.5075 6.15484   8
  -9   3   3 56.0575 6.20665   8
  -9   3   3 61.0038 6.86382  11
  -9   3   3 48.5396 5.44306   1
   9   3  -3 49.9589 5.87054   4
   9   3  -3 59.4137 5.89598  14
  -7  -3   3 2126.08 51.4499   8
   7  -3  -3 2102.78 59.7692  10
  -7  -3   3 2095.55 52.3699   5
   7  -3  -3 2164.41 50.5129   9
   7  -3  -3 2130.67 51.1104  14
   7  -3  -3 2129.69 51.8625   4
  -7  -3   3 2106.66 53.2430  16
  -7  -3   3 2118.13 51.6703  11
  -7  -3   3 2388.92 53.9333   1
   7   3  -3 2131.94 53.2001  14
  -7   3   3 2112.12 51.7048  13
  -7   3   3 2178.32 51.9434   8
   7   3  -3 2014.28 51.4014  12
   7   3  -3 2014.85 50.0595   3
  -7   3   3 2038.79 50.0610   5
  -7   3   3 2158.08 50.9800   1
   7   3  -3 2117.78 52.0650   4
  -5  -3   3 240.166 8.31894   8
   5  -3  -3 237.343 12.1323  10
   5  -3  -3 256.291 8.39559   2
  -5  -3   3 237.996 8.24077  12
  -5  -3   3 228.975 8.06015  11
  -5  -3   3 248.394 9.39596   5
  -5  -3   3 245.932 9.46205  16
   5  -3  -3 242.528 8.39363   4
   5  -3  -3 235.472 8.41991  12
   5  -3  -3 238.644 7.66801  14
   5   3  -3 235.950 6.97110   9
   5   3  -3 229.766 7.73196   3
  -5   3   3 238.485 8.17110  12
   5   3  -3 238.923 8.85353   4
  -5   3   3 246.972 8.40207  16
  -5   3   3 239.451 8.18349   1
   5   3  -3 235.599 8.47857  12
  -5   3   3 256.200 8.96934   8
  -5   3   3 242.852 8.75192  13
  -5   3   3 239.358 8.09405   5
   5   3  -3 237.423 9.37170  14
   3  -3  -3 5926.17 142.385   4
   3  -3  -3 6246.66 160.567  10
  -3  -3   3 6384.89 141.467  11
  -3  -3   3 6108.65 141.832  12
  -3  -3   3 6185.62 141.191   5
   3  -3  -3 6259.31 144.180   2
  -3  -3   3 6090.84 141.694   8
  -3  -3   3 6353.25 146.331  16
   3  -3  -3 6211.86 143.219   6
   3   3  -3 5890.19 139.519  15
   3   3  -3 6598.69 144.475   3
   3   3  -3 6900.04 140.689  13
  -3   3   3 6103.25 143.844   8
   3   3  -3 6643.94 150.323  14
  -3   3   3 6203.37 141.498   3
  -3   3   3 5778.51 143.300  12
   3   3  -3 6330.80 143.554   9
   3   3  -3 6423.40 144.089   4
  -3   3   3 6192.79 143.288  13
   1  -3  -3 881.153 21.8742  15
  -1  -3   3 911.086 21.4791  16
  -1  -3   3 910.148 21.2581   5
  -1  -3   3 907.281 21.3115  12
   1  -3  -3 883.304 21.7718   6
   1  -3  -3 894.108 21.1869   9
   1  -3  -3 879.563 21.6943   2
  -1   3   3 917.549 22.5966  13
   1   3  -3 901.859 20.2654  13
  -1   3   3 903.638 20.9221  12
  -1   3   3 864.979 22.6518  10
   1   3  -3 914.454 21.6262   7
   1   3  -3 897.678 21.5704   3
  -1   3   3 874.234 21.3687   3
   1   3  -3 915.602 21.4915  15
  -1   3   3 900.920 20.4711  14
   1   3  -3 900.454 21.5948   9
  -1  -3  -3 5623.53 130.709  11
  -1  -3  -3 5694.54 126.048   6
   1  -3   3 5643.57 133.248  12
   1  -3   3 5613.53 126.274   2
   1  -3   3 5642.24 126.615  16
  -1  -3  -3 5810.82 130.628   1
   1  -3   3 5845.59 148.978  10
  -1  -3  -3 5751.44 133.016  15
  -1  -3  -3 5686.00 127.806   9
   1   3   3 5875.35 137.315  14
  -1   3  -3 5563.86 129.432   1
   1   3   3 5793.58 127.949  12
  -1   3  -3 5986.00 129.207   7
  -1   3  -3 5576.94 131.228  11
   1   3   3 5743.39 133.440  10
   1   3   3 5801.49 128.510  12
   1   3   3 5572.27 128.980   4
  -3  -3  -3 498.100 14.8673   1
  -3  -3  -3 483.122 13.7123   6
   3  -3   3 466.148 13.2011  12
   3  -3   3 461.089 19.2064  10
  -3  -3  -3 505.473 15.4682  11
   3  -3   3 456.990 13.7763   2
  -3  -3  -3 466.274 13.0901  15
  -3   3  -3 471.133 14.8130   1
   3   3   3 491.353 15.8313  14
   3   3   3 487.454 14.6106  10
   3   3   3 472.630 12.6998  12
  -3   3  -3 469.053 14.2947  11
   3   3   3 463.861 13.4960   4
  -3   3  -3 480.605 14.1022   7
  -5  -3  -3 2042.48 50.8889   1
   5  -3   3 2049.42 49.0934  12
   5  -3   3 2069.24 51.4120   4
  -5  -3  -3 2021.34 51.8371  11
   5  -3   3 1951.78 58.0428  10
  -5  -3  -3 1945.98 48.2599   6
   5   3   3 2087.35 49.6879   4
  -5   3  -3 2090.44 50.0694   7
  -5   3  -3 2076.73 51.3319   1
  -5   3  -3 2070.20 51.2050  11
   5   3   3 2053.58 52.9690  14
   5   3   3 2024.31 48.6180  12
   7  -3   3 91.2859 6.57285  12
  -7  -3  -3 84.9879 6.98940   1
   7  -3   3 86.8855 8.49528  14
  -7  -3  -3 91.0540 8.40967  11
   7  -3   3 105.865 8.51282   4
  -7   3  -3 99.0605 8.17098  11
   7   3   3 94.3768 8.16613  14
   7   3   3 111.245 7.66574   4
  -7   3  -3 91.5557 8.04261   1
   7   3   3 85.3581 6.35356  12
  -9  -3  -3 547.282 21.4712   1
   9  -3   3 560.383 22.3127   4
  -9  -3  -3 561.407 23.1507  11
   9  -3   3 539.311 20.2499  12
  -9   3  -3 608.268 23.1662  11
   9   3   3 574.873 20.4434  12
   9   3   3 556.275 20.1997   4
 -10  -4   3 203.954 11.7707   5
  10  -4  -3 200.739 9.31460   9
 -10  -4   3 193.677 11.2169  11
  10  -4  -3 199.101 11.4784   4
 -10   4   3 208.930 10.9919   1
 -10   4   3 206.842 11.3043   8
  10   4  -3 201.760 11.5488   4
 -10   4   3 220.204 12.8475  11
  10   4  -3 197.434 12.2296  14
   8  -4  -3 384.432 14.4251   4
  -8  -4   3 376.170 14.0657   8
  -8  -4   3 384.289 15.4344  16
  -8  -4   3 364.272 14.1130  11
  -8  -4   3 363.369 14.6192   5
   8  -4  -3 368.531 13.0877   9
  -8   4   3 372.135 13.9022   8
   8   4  -3 385.712 15.6370  14
  -8   4   3 373.275 13.7580   1
   8   4  -3 379.289 14.4856   4
   8   4  -3 347.626 12.7439   3
   6  -4  -3 311.742 11.3432  14
  -6  -4   3 311.212 10.7749  11
  -6  -4   3 324.087 12.5697  16
   6  -4  -3 329.190 10.8268   2
  -6  -4   3 314.547 10.9536   8
  -6  -4   3 318.346 11.9262   5
   6  -4  -3 316.794 10.9732   4
   6  -4  -3 315.833 16.1972  10
   6   4  -3 308.184 12.2053  14
  -6   4   3 315.502 11.2236   8
   6   4  -3 317.298 11.4148   4
   6   4  -3 295.710 10.9709  12
   6   4  -3 288.454 10.2364   3
  -6   4   3 304.438 10.0875   5
  -6   4   3 320.992 10.9659   1
  -6   4   3 327.115 11.5148  13
  -6   4   3 321.192 10.3589  16
   4  -4  -3 1388.29 32.4905  14
  -4  -4   3 1404.86 33.1501  11
  -4  -4   3 1479.44 34.6264  12
  -4  -4   3 1420.76 33.8749   2
   4  -4  -3 1415.36 33.3530   6
  -4  -4   3 1479.95 35.4418   5
  -4  -4   3 1486.59 36.0184  16
   4  -4  -3 1339.08 33.4731   4
   4  -4  -3 1435.95 39.6889  10
  -4  -4   3 1483.77 33.8299   8
   4  -4  -3 1436.77 34.7925   2
   4   4  -3 1442.79 32.9457   9
   4   4  -3 1443.77 34.7345   4
   4   4  -3 1498.06 35.9721  14
  -4   4   3 1388.04 34.6564   8
  -4   4   3 1376.79 33.4287   3
  -4   4   3 1419.99 34.2702  12
   4   4  -3 1422.99 33.9795   3
  -4   4   3 1444.89 35.1098  13
   4   4  -3 1437.34 34.4291  12
  -4   4   3 1480.28 34.9260  16
   2  -4  -3 829.770 20.6027   6
   2  -4  -3 838.069 21.1161   2
  -2  -4   3 861.685 20.9415   5
  -2  -4   3 821.783 21.1684   2
  -2  -4   3 819.813 21.1335  16
  -2  -4   3 832.108 20.7437  12
  -2   4   3 811.433 20.9974   8
  -2   4   3 813.152 23.0423  10
   2   4  -3 844.497 19.0169  13
   2   4  -3 803.534 20.4558   7
  -2   4   3 827.882 20.4392  12
  -2   4   3 839.406 21.4780  13
  -2   4   3 832.214 20.3664   3
   2   4  -3 822.305 20.6082   3
   2   4  -3 820.596 21.6737  14
   2   4  -3 854.612 20.3947   9
   0  -4   3 1359.26 32.3377   2
   0  -4   3 1327.71 29.8820   5
   0  -4  -3 1275.30 30.9027   2
   0  -4  -3 1286.99 31.2071  15
   0  -4   3 1274.77 30.1012  16
   0  -4  -3 1339.58 32.2470  11
   0  -4  -3 1257.60 30.0734   9
   0  -4   3 1337.71 31.0958  12
   0  -4   3 1318.98 35.7473  10
   0  -4  -3 1370.92 31.9698   6
   0   4   3 1348.76 32.7830  13
   0   4   3 1286.04 30.9334  14
   0   4  -3 1323.90 31.6562   3
   0   4  -3 1352.31 30.5652  13
   0   4  -3 1329.31 31.2083   7
   0   4   3 1284.50 30.3658  10
   0   4   3 1356.77 31.7901   3
   0   4  -3 1320.50 31.2548   1
   0   4   3 1334.35 30.6326  12
  -2  -4  -3 932.828 23.3927  15
  -2  -4  -3 945.420 25.4501  11
   2  -4   3 951.668 24.7726   2
   2  -4   3 973.255 23.8131  12
  -2  -4  -3 940.258 24.8733   1
  -2  -4  -3 960.377 24.5414   6
   2  -4   3 959.287 30.2009  10
  -2   4  -3 955.514 24.0610   7
  -2   4  -3 942.347 24.8839   1
  -2   4  -3 969.923 23.9077  11
   2   4   3 946.442 23.2274  12
   2   4   3 920.483 25.2673  14
   2   4   3 926.103 22.6864   4
   2   4   3 1046.14 25.3561   3
   4  -4   3 271.144 15.6214  10
  -4  -4  -3 279.834 11.1077   1
   4  -4   3 262.666 9.88692  12
  -4  -4  -3 299.481 11.8462  11
   4  -4   3 272.466 10.2055   2
  -4  -4  -3 279.341 10.0205   6
  -4   4  -3 276.559 10.2944   7
   4   4   3 287.339 9.68875  12
   4   4   3 277.341 11.7910  14
   4   4   3 283.802 9.57706   4
  -4   4  -3 276.760 10.7257  11
  -4   4  -3 265.538 11.1762   1
  -6  -4  -3 346.655 14.4613   1
   6  -4   3 373.350 15.3601   4
   6  -4   3 343.336 13.2747  12
  -6  -4  -3 333.415 15.1759  11
   6   4   3 361.480 13.1714   4
   6   4   3 359.303 13.0416  12
  -6   4  -3 379.452 15.0982  11
  -6   4  -3 347.690 14.8721   1
   6   4   3 360.851 16.0274  14
   8  -4   3 81.1945 6.93705  12
  -8  -4  -3 78.7125 8.69395  11
  -8  -4  -3 78.9788 8.25405   1
   8  -4   3 87.0770 8.79422   4
  -8   4  -3 90.7095 8.85159   1
  -8   4  -3 95.9715 8.69865  11
   8   4   3 74.6105 6.55562  12
   8   4   3 81.1974 7.31923   3
 -11  -5   3 319.408 15.5904   5
  11  -5  -3 297.551 14.6906   4
  11   5  -3 289.078 14.3871   4
 -11   5   3 316.880 16.7050  11
 -11   5   3 324.586 14.7646   8
  -9  -5   3 963.380 29.3558  11
  -9  -5   3 1000.74 30.8185   5
   9  -5  -3 994.783 28.3569   9
  -9  -5   3 996.716 32.0466  16
   9   5  -3 965.061 31.1699  14
  -9   5   3 992.769 31.3282  11
  -9   5   3 1074.19 30.1600   1
  -9   5   3 1028.53 29.9471   8
   9   5  -3 1034.27 30.0765   4
   7  -5  -3 721.308 20.2540   2
   7  -5  -3 704.708 28.6010  10
  -7  -5   3 659.984 20.1654  11
  -7  -5   3 695.964 22.2416   5
   7  -5  -3 703.888 20.8036   4
  -7  -5   3 700.690 22.9891  16
  -7   5   3 714.037 21.0994   1
   7   5  -3 702.772 21.1352   4
  -7   5   3 696.513 21.5052  13
   7   5  -3 718.711 22.9311  14
   7   5  -3 643.247 19.8359   3
  -7   5   3 693.376 20.9317   8
   5  -5  -3 1819.23 45.6342   4
  -5  -5   3 1974.62 45.5237  11
   5  -5  -3 2006.09 47.1145   2
   5  -5  -3 1959.77 44.8008   6
   5  -5  -3 1941.52 53.9319  10
  -5  -5   3 2084.09 48.3964   5
  -5  -5   3 1890.85 45.2829   2
  -5  -5   3 2015.54 48.9869  16
  -5   5   3 1988.43 46.2959  16
  -5   5   3 1835.64 45.5622   5
  -5   5   3 1895.49 46.2406  12
  -5   5   3 1941.56 45.7629   3
   5   5  -3 1976.98 46.5256   3
   5   5  -3 1998.54 48.6850  14
  -5   5   3 1930.55 47.4126  13
   5   5  -3 1969.98 46.8831   4
  -5   5   3 1978.47 47.0073   8
  -3  -5   3 803.990 21.0613   2
   3  -5  -3 788.182 24.2225  10
  -3  -5   3 804.218 21.9260  16
   3  -5  -3 808.022 20.3133   6
  -3  -5   3 807.263 21.3604   5
   3  -5  -3 821.916 21.4190   2
  -3  -5   3 798.021 20.9618  12
  -3   5   3 813.630 21.7176  13
   3   5  -3 812.002 22.1016  14
   3   5  -3 777.660 20.7154   3
  -3   5   3 798.721 20.3962   3
  -3   5   3 798.173 20.6813  12
   3   5  -3 801.592 20.5549   7
   3   5  -3 800.694 21.0199   4
  -3   5   3 784.692 20.9782   8
   1  -5  -3 1764.53 41.1670   9
  -1  -5   3 1800.77 41.3089   5
  -1  -5   3 1776.94 42.0485  12
  -1  -5   3 1823.13 43.0793   2
  -1  -5   3 1765.15 46.1330  10
   1  -5  -3 1781.74 42.1597   2
  -1  -5   3 1740.98 41.6531  16
   1  -5  -3 1818.21 42.3121   6
  -1   5   3 1761.08 42.3318  10
   1   5  -3 1792.34 42.3201   3
  -1   5   3 1820.48 42.2191   3
   1   5  -3 1781.00 41.6482   7
  -1   5   3 1776.77 40.6349  14
  -1   5   3 1839.65 43.2977  13
   1   5  -3 1844.41 40.7044  13
  -1   5   3 1831.63 41.7229  12
  -1  -5  -3 562.573 15.8718   6
   1  -5   3 558.302 15.3837  12
  -1  -5  -3 537.962 14.4482   2
  -1  -5  -3 512.474 13.2064   9
  -1  -5  -3 527.770 14.6152  15
   1  -5   3 565.235 16.4343   2
  -1  -5  -3 539.432 16.2694  11
   1   5   3 542.402 15.5411  14
  -1   5  -3 544.238 15.6383   1
   1   5   3 528.822 15.8950   3
  -1   5  -3 571.841 15.0717  13
  -1   5  -3 561.121 16.0173   3
   1   5   3 554.795 16.9948  13
   1   5   3 550.922 14.8395  12
  -1   5  -3 541.005 15.0672   7
   3  -5   3 1245.86 30.8853   2
   3  -5   3 1156.99 37.5346  10
   3  -5   3 1170.08 29.8119  12
  -3  -5  -3 1167.59 31.5733  11
  -3  -5  -3 1142.57 30.1750   6
   3   5   3 1169.46 31.0791   3
   3   5   3 1153.20 31.5350  14
  -3   5  -3 1187.59 29.8713  11
   3   5   3 1127.99 29.0592  12
  -3   5  -3 1154.26 30.9188   1
  -3   5  -3 1189.59 29.7288   7
  -5  -5  -3 439.489 15.7472   1
   5  -5   3 408.667 14.4357  12
  -5  -5  -3 428.404 14.2678   6
  -5  -5  -3 418.083 16.1457  11
   5  -5   3 397.976 15.5285   4
   5  -5   3 380.167 13.7247   2
  -5   5  -3 402.653 15.7670   1
  -5   5  -3 416.394 15.1657  11
   5   5   3 426.377 16.7259  14
  -5   5  -3 389.446 14.1677   7
   5   5   3 401.488 15.3004   3
   5   5   3 421.690 14.0590  12
   7  -5   3 779.627 24.9930  12
  -7  -5  -3 788.353 27.3970  11
  -7  -5  -3 777.861 25.6933   1
   7  -5   3 832.806 27.1710   4
  -7   5  -3 837.242 26.7927  11
   7   5   3 759.250 27.7601  14
   7   5   3 790.330 26.2038   3
  -7   5  -3 786.572 26.7186   1
   7   5   3 788.785 24.5466  12
  10  -6  -3 77.4878 7.35037   4
 -10  -6   3 79.0710 8.62262   5
  10  -6  -3 85.3309 7.09442   9
 -10   6   3 76.8522 7.06680   1
 -10   6   3 93.0783 8.49602  11
 -10   6   3 87.6317 7.04576   8
  10   6  -3 85.3282 7.24520   4
   8  -6  -3 149.871 8.09066   2
  -8  -6   3 143.374 9.69713  16
  -8  -6   3 144.478 9.28591   5
   8  -6  -3 138.642 8.25548   4
   8   6  -3 148.645 9.98336  14
  -8   6   3 156.961 9.23654   1
   8   6  -3 139.367 7.77560   3
  -8   6   3 140.419 8.89886  13
  -8   6   3 150.522 8.59021   8
   8   6  -3 150.965 8.89159   4
   6  -6  -3 568.634 17.6134   4
  -6  -6   3 656.703 20.5413   5
   6  -6  -3 637.771 18.9977   2
   6  -6  -3 605.270 25.3493  10
  -6  -6   3 644.756 21.1896  16
   6   6  -3 599.881 18.4434   3
  -6   6   3 602.803 19.3815  13
   6   6  -3 610.242 20.4037  14
  -6   6   3 623.860 19.0888   1
   6   6  -3 629.515 18.8830   4
  -6   6   3 591.494 18.5860   8
  -4  -6   3 211.131 8.17264   2
   4  -6  -3 234.361 9.25010   2
  -4  -6   3 243.442 9.43784   5
  -4  -6   3 215.438 9.48582  16
   4  -6  -3 219.228 11.7966  10
   4  -6  -3 210.025 7.35207   6
  -4  -6   3 220.865 8.53437  12
   4   6  -3 205.055 7.11018  13
  -4   6   3 221.629 9.26668  13
  -4   6   3 222.278 8.54958   8
   4   6  -3 216.614 8.39371   4
  -4   6   3 211.772 8.08793   3
   4   6  -3 201.624 8.24316   3
  -4   6   3 209.333 8.18018  12
   4   6  -3 212.325 9.66668  14
  -2  -6   3 1052.52 27.3821   2
  -2  -6   3 1032.63 30.2249  10
  -2  -6   3 1044.53 27.0005  12
  -2  -6   3 1030.72 26.4549   5
   2  -6  -3 1096.58 26.7280   6
  -2  -6   3 992.128 26.8897  16
   2  -6  -3 1079.84 27.3041   2
   2  -6  -3 1058.00 28.6371  10
  -2   6   3 1039.03 26.4920  12
  -2   6   3 1080.07 26.9734   8
   2   6  -3 1073.86 25.1334  13
   2   6  -3 1045.82 26.9848   3
   2   6  -3 1054.56 26.2112   7
   2   6  -3 1064.18 28.1181  14
  -2   6   3 1048.13 27.8181  13
  -2   6   3 1053.29 26.7356   3
   0  -6  -3 506.422 14.5385   2
   0  -6   3 496.027 15.6467   2
   0  -6  -3 483.324 14.1194  15
   0  -6  -3 509.758 15.1205   6
   0  -6   3 494.352 18.7785  10
   0  -6  -3 489.017 13.1629   9
   0  -6   3 515.758 15.0142  12
   0   6  -3 511.182 13.9212  13
   0   6   3 481.525 13.8962  14
   0   6   3 496.938 15.8959  13
   0   6   3 519.405 14.5183  12
   0   6   3 528.879 15.4842   3
   0   6  -3 491.004 15.0791   3
   0   6  -3 521.354 14.3941   7
  -2  -6  -3 282.992 10.6843   6
   2  -6   3 278.200 14.9897  10
  -2  -6  -3 268.268 8.89370  15
   2  -6   3 287.018 10.3680  12
  -2  -6  -3 291.354 11.1539  11
   2  -6   3 291.396 11.2498   2
   2   6   3 284.791 11.8446  13
  -2   6  -3 278.778 10.8139   3
  -2   6  -3 279.451 10.6690   1
  -2   6  -3 291.226 9.86988   7
   2   6   3 279.565 9.84510  12
   2   6   3 265.401 10.4587  14
   2   6   3 281.429 10.9750   3
  -2   6  -3 293.106 10.1589  13
   4  -6   3 501.790 16.6543   2
   4  -6   3 443.096 22.4013  10
  -4  -6  -3 495.629 17.7454  11
   4  -6   3 487.393 16.2531  12
  -4  -6  -3 482.448 16.1899   6
  -4   6  -3 491.946 17.2228   1
  -4   6  -3 494.438 16.0269  11
   4   6   3 480.231 17.6362  14
  -4   6  -3 512.518 15.9449   7
   4   6   3 497.106 15.8008  12
   4   6   3 493.396 17.3947   3
   6  -6   3 43.2929 4.71808  12
   6  -6   3 40.3766 5.97431   4
  -6  -6  -3 47.1161 5.36384   6
  -6  -6  -3 50.1438 6.62147  11
   6   6   3 42.9488 5.01682  12
  -6   6  -3 44.9693 6.02477   1
   6   6   3 41.4873 5.66066   3
   6   6   3 32.3315 5.68229  14
  -8  -6  -3 132.657 10.9732  11
   8  -6   3 140.157 10.7945   4
  -8   6  -3 145.513 11.0903   1
   8   6   3 154.042 10.6386   3
   8   6   3 135.035 9.00896  12
   9  -7  -3 559.919 19.5262   9
  -9  -7   3 547.845 21.6513   5
  -9  -7   3 542.935 19.4456   6
  -9   7   3 559.132 19.6728   8
   9   7  -3 547.503 19.7469   4
  -9   7   3 550.516 20.0664   1
  -7  -7   3 86.3712 7.64694   5
  -7  -7   3 85.3773 7.74199  16
   7  -7  -3 85.5296 6.61621   2
   7   7  -3 79.1583 6.09674   3
  -7   7   3 71.6989 6.45340  13
   7   7  -3 73.9615 6.67045  14
  -7   7   3 82.3752 6.35032   1
   7   7  -3 75.8917 6.09266   4
  -7   7   3 72.8054 6.03010   8
  -5  -7   3 1632.43 42.2620   5
  -5  -7   3 1584.57 43.3544  16
   5  -7  -3 1670.03 48.4231  10
   5  -7  -3 1671.11 41.6565   2
  -5   7   3 1580.13 39.9809   3
   5   7  -3 1560.96 40.5798   3
   5   7  -3 1646.55 43.0984  14
   5   7  -3 1583.64 40.3888   4
  -5   7   3 1645.25 40.6545   8
  -5   7   3 1631.04 41.8057  13
  -3  -7   3 463.922 14.9317  12
  -3  -7   3 486.022 15.0712   5
  -3  -7   3 465.911 15.8255  16
  -3  -7   3 456.084 14.8182   2
  -3  -7   3 464.076 16.9723  10
   3  -7  -3 488.672 17.7896  10
   3  -7  -3 482.057 15.5038   2
   3  -7  -3 478.126 14.1352   6
  -3   7   3 482.035 14.7158  12
   3   7  -3 473.949 14.2816   7
   3   7  -3 462.614 15.9602  14
  -3   7   3 471.971 14.6885   3
  -3   7   3 484.757 15.8177  13
   3   7  -3 507.226 15.3773   3
  -3   7   3 469.616 14.7105   8
   1  -7  -3 3187.90 72.9737   6
  -1  -7   3 3032.09 77.5304  10
  -1  -7   3 3149.53 71.3445   5
   1  -7  -3 3104.25 72.8558   2
  -1  -7   3 3075.85 73.0669  12
  -1  -7   3 3150.54 73.9488   2
   1   7  -3 3241.31 71.3812  13
  -1   7   3 3198.46 73.1478   3
   1   7  -3 3226.10 72.0857   7
  -1   7   3 3164.14 72.6887  12
  -1   7   3 3176.81 74.2462  13
   1   7  -3 3141.68 73.3307   3
   1  -7   3 642.039 24.1275  10
   1  -7   3 618.041 18.6056  12
  -1  -7  -3 614.825 17.2904  15
  -1  -7  -3 634.005 19.0627   6
   1  -7   3 653.043 20.0311   2
  -1  -7  -3 652.529 19.5729  11
  -1  -7  -3 643.607 17.8205   2
   1   7   3 648.719 20.4506  13
  -1   7  -3 645.773 19.4626   3
   1   7   3 615.873 18.2643  14
  -1   7  -3 634.561 18.9999   1
  -1   7  -3 671.884 18.1753  13
   1   7   3 651.442 18.5497  12
   1   7   3 667.203 19.6500   3
  -1   7  -3 646.590 17.9789   7
   3  -7   3 2054.09 50.8967   2
  -3  -7  -3 2005.06 51.1734  11
   3  -7   3 2056.27 50.0231  12
  -3  -7  -3 2009.54 50.2465   6
   3  -7   3 1981.78 59.1714  10
   3   7   3 1965.39 50.7329  14
  -3   7  -3 1985.68 50.5869   1
  -3   7  -3 2032.19 48.7871   7
   3   7   3 1987.07 51.9874  13
   3   7   3 2091.39 51.4783   3
   3   7   3 2014.75 49.3381  12
  -5  -7  -3 182.185 10.9210  11
   5  -7   3 190.817 10.0517   2
   5  -7   3 208.572 10.2866  12
   5  -7   3 205.779 11.1046   4
  -5  -7  -3 179.122 9.63471   6
   5   7   3 190.214 11.1648  13
   5   7   3 183.484 10.8450  14
  -5   7  -3 192.232 10.5825   1
   5   7   3 182.282 9.39098  12
  -5   7  -3 193.775 9.47207   7
   5   7   3 190.024 10.9473   3
  -7  -7  -3 673.044 24.2430  11
   7  -7   3 570.573 21.4540  12
   7  -7   3 595.524 22.6582   4
   7   7   3 580.816 20.6489  12
   7   7   3 605.859 22.7696   3
  -7   7  -3 598.959 22.7609   1
  -8  -8   3 58.0828 7.06680   5
   8  -8  -3 66.8941 7.02271   2
  -8  -8   3 54.5625 6.25259   6
   8   8  -3 58.6606 5.89944   3
   8   8  -3 51.8113 7.06018  14
  -8   8   3 67.4799 6.40785  13
  -8   8   3 39.6866 5.03366   8
  -6  -8   3 271.037 12.9918   5
  -6  -8   3 274.238 13.5962  16
   6  -8  -3 267.087 12.1410   2
  -6   8   3 275.022 12.4734   1
   6   8  -3 278.657 11.3621   4
   6   8  -3 263.751 11.6011   3
  -6   8   3 261.945 11.1270   8
  -6   8   3 271.704 12.3993  13
   6   8  -3 261.345 13.1835  14
   4  -8  -3 10.1649 2.09931   6
  -4  -8   3 9.90158 2.79011   2
  -4  -8   3 12.4113 3.32738   5
   4  -8  -3 12.7795 3.57475  10
  -4  -8   3 14.4340 3.28774  16
   4  -8  -3 12.7227 3.26924   2
  -4   8   3 11.6922 2.65948   8
  -4   8   3 13.2230 3.27066  13
   4   8  -3 28.9579 4.38361  14
   4   8  -3 11.2082 2.33423   7
   4   8  -3 10.3406 2.51195   3
  -4   8   3 18.5107 3.25524   3
   2  -8  -3 307.503 11.7299   2
  -2  -8   3 306.967 11.6843  12
  -2  -8   3 314.338 10.9788   5
   2  -8  -3 316.762 11.2153   6
  -2  -8   3 309.550 13.7938  10
  -2  -8   3 306.174 12.1804   2
   2   8  -3 314.505 11.9924   3
   2   8  -3 311.920 12.6405  14
  -2   8   3 321.116 11.4700   8
   2   8  -3 307.303 10.8114   7
  -2   8   3 313.717 11.7724   3
  -2   8   3 335.628 12.7949  13
  -2   8   3 294.323 11.0631  12
   0  -8  -3 100.970 5.96483   2
   0  -8   3 105.057 5.35953   6
   0  -8  -3 113.110 6.78070   6
   0  -8  -3 98.5027 5.35844  15
   0  -8   3 96.6426 8.31314  10
   0  -8   3 102.877 6.22277  12
   0  -8   3 125.590 7.88230   2
   0   8  -3 118.324 5.66228  13
   0   8   3 101.367 5.98843  12
   0   8  -3 134.051 7.32138   3
   0   8   3 112.753 6.59523   3
   0   8   3 106.926 6.99327  13
   0   8  -3 107.796 5.67459   7
   2  -8   3 66.5197 8.19683  10
  -2  -8  -3 65.6056 5.75679   6
  -2  -8  -3 65.5767 5.85377  11
   2  -8   3 67.5128 5.50683  12
   2  -8   3 66.5934 6.83625   2
   2   8   3 74.0257 6.45448  13
   2   8   3 69.4210 5.00897  12
  -2   8  -3 79.6506 6.06160   1
   2   8   3 71.8579 6.51021   3
  -2   8  -3 72.3172 5.75079   3
  -2   8  -3 63.9047 4.81907   7
  -2   8  -3 74.1387 5.15451  13
   2   8   3 61.7020 5.09372  14
   4  -8   3 294.350 12.6868  12
   4  -8   3 282.510 13.0048   2
  -4  -8  -3 261.763 12.2158   6
  -4  -8  -3 276.549 13.2156  11
   4   8   3 278.619 11.9214  12
  -4   8  -3 291.001 11.5484   7
   4   8   3 278.508 13.5802  13
   4   8   3 269.688 12.6989  14
   4   8   3 271.831 12.8922   3
  -4   8  -3 303.049 13.6288   1
  -6  -8  -3 22.6945 4.46690   6
   6  -8   3 30.3956 5.15542  12
  -6  -8  -3 21.6476 5.29606  11
   6  -8   3 16.3483 4.51369   4
   6   8   3 17.3670 3.71151  12
   6   8   3 16.8618 4.13200   3
   6   8   3 15.9396 5.91133  14
  -6   8  -3 20.5137 5.21511   1
  -9  -9   3 357.381 15.7786   6
   9  -9  -3 345.623 14.9658   9
  -9  -9   3 344.555 17.1754   5
  -7  -9   3 1098.69 32.3425   6
  -7  -9   3 1144.84 34.1299   5
   7  -9  -3 1086.07 31.9976   2
  -7   9   3 1075.59 32.7058  13
   7   9  -3 1053.14 34.4107  14
   7   9  -3 1124.67 31.1037   7
   7   9  -3 1041.29 31.5224   3
  -7   9   3 1098.12 32.7289   1
   5  -9  -3 349.540 14.2779   2
  -5  -9   3 324.962 13.9442   5
  -5   9   3 347.323 14.2508  13
  -5   9   3 321.882 12.5428   8
   5   9  -3 333.436 13.6605   3
   5   9  -3 324.016 14.7862  14
   5   9  -3 326.313 12.4741   7
   3  -9  -3 949.670 27.6222   2
   3  -9  -3 944.020 25.7294   6
  -3  -9   3 930.146 27.0163   2
  -3  -9   3 954.713 26.6399   5
  -3   9   3 971.896 27.1532   3
  -3   9   3 931.909 26.2308   8
  -3   9   3 955.429 27.9433  13
   3   9  -3 923.988 27.3381   3
  -3   9   3 1000.64 28.7605  12
   3   9  -3 956.304 25.8051   7
   3   9  -3 918.524 28.3221  14
  -1  -9   3 148.707 9.09512   2
   1  -9  -3 156.762 8.23552   2
  -1  -9   3 145.983 7.44185   6
   1  -9  -3 154.816 8.13219   6
  -1   9   3 141.330 8.04338   3
   1   9  -3 147.601 7.14932   7
  -1   9   3 149.945 7.94586  12
  -1   9   3 154.032 8.59460  13
   1   9  -3 182.465 9.07499   3
  -1  -9  -3 616.820 18.9276   2
   1  -9   3 681.690 22.1894   2
   1  -9   3 659.912 20.7948  12
  -1  -9  -3 644.938 20.6893   6
  -1   9  -3 659.734 21.2764   3
   1   9   3 631.735 21.4989  13
   1   9   3 644.158 20.2334  12
   1   9   3 673.086 21.4252   3
  -1   9  -3 665.758 19.1065   7
  -1   9  -3 631.620 19.5608  13
   3  -9   3 105.670 8.71648   2
  -3  -9  -3 107.238 7.78994   6
   3  -9   3 101.652 7.13208  12
  -3  -9  -3 100.399 7.74346  11
   3   9   3 104.428 7.09007  12
  -3   9  -3 106.360 6.59454   7
   3   9   3 105.045 7.33478  14
  -3   9  -3 106.080 7.06879  13
  -3   9  -3 97.5004 7.96539   1
   3   9   3 111.277 8.43426  13
   3   9   3 106.290 8.61181   3
  -5  -9  -3 670.391 23.9683  11
   5  -9   3 682.502 23.4106  12
   5  -9   3 694.141 23.5119   4
  -5  -9  -3 695.309 23.5308   6
   5  -9   3 735.169 23.6142   2
   5   9   3 619.512 23.3551  14
  -5   9  -3 689.072 24.3073   1
  -5   9  -3 699.534 21.6529   7
   5   9   3 669.645 22.7628  12
   5   9   3 664.271 24.4396  13
   5   9   3 687.843 24.2837   3
  -8 -10   3 6.08331 3.83524   6
   8 -10  -3 3.75052 3.76352   2
  -8 -10   3 2.16304 4.36328   5
  -8  10   3 -0.5863 3.86713   1
   8  10  -3 -0.5679 2.78945   7
  -6 -10   3 84.5424 8.71898   5
  -6 -10   3 83.5638 8.27774   6
   6 -10  -3 90.0927 7.52130   2
   6  10  -3 82.1934 6.81494   3
  -6  10   3 96.4175 8.46152   1
   6  10  -3 72.6757 7.88948  14
  -6  10   3 78.0540 7.38558  13
  -6  10   3 112.226 7.73110   3
   6  10  -3 85.3124 6.70393   7
   4 -10  -3 14.1760 4.02547   2
  -4 -10   3 20.6659 4.73871   2
  -4 -10   3 13.1109 3.74487   5
  -4 -10   3 16.0212 4.07247   6
   4  10  -3 12.9769 3.05904   7
  -4  10   3 13.9982 3.04106   8
  -4  10   3 18.4674 4.24821  13
   4  10  -3 12.0952 3.80750  14
   4  10  -3 21.8692 4.47555   3
  -4  10   3 7.87636 3.12989   3
   2 -10  -3 98.7979 6.38060   6
  -2 -10   3 97.3522 7.80521   2
  -2 -10   3 109.176 7.31683   6
   2 -10  -3 102.543 7.04956   2
  -2  10   3 99.7754 7.57593  13
  -2  10   3 99.3614 6.57079   8
   2  10  -3 94.9104 7.30637   3
  -2  10   3 105.483 7.63501   3
   2  10  -3 110.715 6.39660   7
   0 -10  -3 4.38169 2.30521   6
   0 -10   3 4.75488 3.93296   2
   0 -10  -3 3.91992 1.93783   2
   0  10   3 4.21083 2.17294  12
   0  10   3 3.84774 3.18273   3
   0  10  -3 5.86543 3.15044   3
   0  10  -3 3.82096 2.12317   7
   0  10   3 4.62508 2.97648  13
  -2 -10  -3 0.09502 2.86367   6
   2 -10   3 -0.1601 3.80633   2
   2  10   3 0.01082 3.13387   3
  -2  10  -3 1.73041 2.24634   3
  -2  10  -3 -1.9632 2.38286   1
   2  10   3 0.89233 1.91562  12
   2  10   3 -0.0197 2.14083  13
  -2  10  -3 0.10609 1.99829   7
   4 -10   3 73.0300 8.07472   2
  -4 -10  -3 69.2135 7.74435   6
  -4 -10  -3 63.9216 7.01019  11
   4  10   3 73.8900 8.22530   3
   4  10   3 65.1835 6.64760  13
   4  10   3 69.2453 6.06091  12
  -4  10  -3 77.4095 8.19025   1
  -7 -11   3 67.0356 8.06285   6
   7 -11  -3 101.583 8.13894   2
   7  11  -3 57.6788 6.88611   3
  -7  11   3 72.5643 8.55465   1
   7  11  -3 52.1640 5.96844   7
   5 -11  -3 707.436 24.2880   2
  -5 -11   3 694.806 23.8735   6
  -5  11   3 687.379 22.9408   3
   5  11  -3 685.843 21.6161   7
   5  11  -3 701.313 25.8084  14
   5  11  -3 662.366 23.4249   3
  -3 -11   3 246.802 12.2154   6
  -3 -11   3 239.357 11.8362   2
   3 -11  -3 252.999 12.4654   2
  -3  11   3 247.078 12.2845   3
   3  11  -3 256.926 12.6393   3
   3  11  -3 251.461 10.6039   7
  -3  11   3 255.167 12.4838  13
  -1 -11   3 1384.08 38.3667   2
   1 -11  -3 1345.45 36.4959   6
   1 -11  -3 1323.99 36.6474   2
  -1 -11   3 1294.32 35.0692   6
  -1  11   3 1345.38 37.6902   3
  -1  11   3 1283.26 35.5482   8
   1  11  -3 1297.39 37.6106   3
  -1  11   3 1318.69 37.8860  13
  -1 -11  -3 411.037 16.2131   6
   1 -11   3 411.418 17.5340   2
  -1  11  -3 392.037 16.7038   3
   1  11   3 383.562 16.6147  13
   1  11   3 419.044 17.2995   3
  -1  11  -3 394.573 16.2287   1
   3 -11   3 979.253 30.6399   2
  -3 -11  -3 1017.10 31.1003   6
   3  11   3 966.435 31.0980   3
   3  11   3 920.891 29.4594  12
  -3  11  -3 926.409 30.1903   1
   6 -12  -3 -4.5254 3.33360   2
  -6 -12   3 -3.2370 3.58637   6
   6  12  -3 1.90878 3.02357   3
  -6  12   3 -1.6229 3.72879   1
   4 -12  -3 151.762 9.81419   2
  -4 -12   3 133.070 9.94466   6
   4  12  -3 138.627 9.33968   3
  -4  12   3 132.770 9.39722   3
  -2 -12   3 1.68818 2.38756   2
   2 -12  -3 4.09004 2.96911   6
   2 -12  -3 7.00822 3.64901   2
  -2 -12   3 1.70116 2.39141   6
  -2  12   3 2.30758 3.03298  13
   2  12  -3 0.15038 3.06936   3
  -2  12   3 3.22484 3.48588   3
   0 -12  -3 44.0320 5.43580   2
   0 -12  -3 45.8960 6.15571   6
   0 -12   3 44.5334 6.33427   2
   0  12   3 57.3565 6.86803   3
   0  12  -3 54.8829 6.94227   3
  -2 -12  -3 67.7863 7.89524   6
   2 -12   3 85.7019 9.53893   2
   2  12   3 80.0785 8.83900   3
  -2  12  -3 64.8823 6.83181   3
  -2  12  -3 67.3668 7.49829   1
   3 -13  -3 9.59673 4.09926   2
  -3 -13   3 4.06690 3.65524   6
  -3  13   3 7.30962 4.07371   3
   3  13  -3 10.2889 4.06579   3
  -1 -13   3 699.148 24.6862   2
   1 -13  -3 718.550 23.9065   6
   1 -13  -3 711.553 24.0795   2
   1  13  -3 743.473 25.7817   3
  -1  13   3 732.415 25.6134   3
  -1 -13  -3 7.13450 3.99695   6
   1 -13   3 11.2794 4.83713   2
  -1  13  -3 7.63728 3.26654   3
  -1  13  -3 9.52430 4.05899   1
   1  13   3 12.6905 4.88926   3
  12   0  -4 1616.39 46.5765   4
 -12   0   4 1650.91 47.7584  11
 -12   0   4 1640.77 46.2522   8
 -10   0   4 92.6944 6.71108   5
 -10   0   4 84.0497 7.20763  11
  10   0  -4 90.9842 7.85402   4
 -10   0   4 81.1629 6.74517  16
 -10   0   4 82.1623 6.85571   8
  -8   0   4 2787.48 67.2209  11
   8   0  -4 2796.81 66.7599  14
   8   0  -4 2751.66 67.1984   4
  -8   0   4 2821.38 67.3502  16
  -8   0   4 2786.87 66.7434   5
  -8   0   4 2802.92 66.9364   8
  -6   0   4 76.6990 4.69268   5
  -6   0   4 83.0681 4.34058  12
   6   0  -4 80.1623 4.80461   4
  -6   0   4 79.9391 4.79383  16
   6   0  -4 76.5270 4.36966  14
  -6   0   4 79.9323 4.67195   8
  -6   0   4 71.3219 3.40017   1
   6   0  -4 73.1448 3.87168   9
  -4   0   4 2936.53 66.5895   5
   4   0  -4 2855.55 65.5333  15
  -4   0   4 2945.17 66.0430   8
  -4   0   4 2849.78 66.5685  13
   4   0  -4 3018.68 65.7645   9
  -4   0   4 2900.75 65.5538  12
   4   0  -4 2941.54 66.1793   4
  -4   0   4 2958.63 66.9350  16
   4   0  -4 2976.96 65.3656  14
  -2   0   4 45.5977 2.92710  16
  -2   0   4 50.2108 2.50754   8
   2   0  -4 57.3578 2.72340   9
  -2   0   4 45.9033 1.85415  12
   2   0  -4 46.0756 2.21098   7
  -2   0   4 49.7019 2.09065  13
   2   0  -4 50.5857 2.75158  15
   2   0  -4 44.9759 2.48922   6
   0   0  -4 3177.80 69.9768   6
   0   0  -4 3158.34 69.9609   7
   0   0  -4 3186.62 70.2905   1
   0   0  -4 3064.75 70.8522  15
   0   0  -4 3230.40 70.4296  11
   0   0  -4 3116.29 69.9920   9
   2   0   4 526.941 18.0511  10
  -2   0  -4 502.287 14.1579   7
  -2   0  -4 509.614 15.0442   1
  -2   0  -4 511.312 13.2325   6
  -2   0  -4 522.521 14.6874  15
  -2   0  -4 505.795 14.9796  11
  -4   0  -4 2350.15 58.1424  11
   4   0   4 2438.33 57.7412   4
  -4   0  -4 2391.77 58.0630   1
   4   0   4 2366.06 62.6856  10
   4   0   4 2398.06 60.2108  14
   4   0   4 2438.01 54.7030  12
   6   0   4 409.688 18.3109  14
   6   0   4 459.313 16.8507   4
  -6   0  -4 433.336 16.8198   1
   6   0   4 443.286 14.7211  12
  -6   0  -4 448.570 17.4354  11
   8   0   4 1164.83 33.1503  12
  -8   0  -4 1164.44 36.3153  11
  -8   0  -4 1153.01 35.5434   1
   8   0   4 1160.86 35.1063   4
 -11  -1   4 114.989 9.03634   8
  11  -1  -4 111.124 9.20627   4
 -11  -1   4 107.399 9.53726  11
 -11   1   4 114.366 9.12519   8
 -11   1   4 118.669 9.90860  11
  11   1  -4 124.387 9.58474   4
  -9  -1   4 9.25135 2.56697  16
  -9  -1   4 16.7530 3.48339  11
  -9  -1   4 3.54137 2.09912   5
   9  -1  -4 7.84878 3.08934   4
  -9  -1   4 4.58985 2.76817   8
   9  -1  -4 7.85611 2.11007   9
  -9   1   4 4.07165 2.17518  16
   9   1  -4 7.29181 2.74374  14
  -9   1   4 8.67304 2.83835  11
   9   1  -4 5.12343 2.91508   4
  -9   1   4 14.3084 2.95933   5
  -9   1   4 13.7148 3.63484   8
   7  -1  -4 479.689 14.8199  14
  -7  -1   4 495.913 15.4015   8
  -7  -1   4 475.043 15.6628   5
   7  -1  -4 514.817 15.9569   4
   7  -1  -4 474.412 13.9808   9
  -7  -1   4 487.047 16.0845  16
  -7  -1   4 472.753 15.1458  11
   7   1  -4 477.932 15.5157  14
   7   1  -4 492.932 15.9020   4
  -7   1   4 471.185 15.3455   8
  -7   1   4 480.475 15.4790  16
   7   1  -4 478.629 13.4686   9
  -7   1   4 467.887 13.6192   1
  -7   1   4 477.983 15.1986   5
  -5  -1   4 1.29104 1.18846   8
   5  -1  -4 4.08380 1.24093   9
   5  -1  -4 1.89421 0.82073  14
  -5  -1   4 2.60503 0.92196  12
  -5  -1   4 1.55822 1.54235   5
  -5  -1   4 0.76616 1.13630  16
   5  -1  -4 0.21375 1.07751   4
   5   1  -4 2.00774 0.88118   9
  -5   1   4 1.15628 1.27093   8
  -5   1   4 3.57229 1.16166  12
  -5   1   4 0.65520 1.03065  16
  -5   1   4 0.82110 0.66272   1
   5   1  -4 0.91683 0.95213  14
  -5   1   4 1.63271 1.29542   5
   5   1  -4 2.17704 1.35282   4
  -5   1   4 0.06377 0.80218  13
   5   1  -4 1.38011 0.68129  15
   3  -1  -4 201.587 5.71965   7
  -3  -1   4 194.882 5.03657  13
   3  -1  -4 197.617 6.45189   4
   3  -1  -4 205.543 6.60885   6
   3  -1  -4 202.121 6.58775   9
  -3  -1   4 213.591 7.31798  16
  -3  -1   4 201.670 6.18537  12
  -3  -1   4 212.931 6.42592   8
   3  -1  -4 205.778 6.80383  15
  -3  -1   4 207.857 7.09266   5
  -3   1   4 220.212 7.59094  16
  -3   1   4 214.659 6.23550  12
  -3   1   4 212.855 6.32978  13
   3   1  -4 213.154 6.67187  14
   3   1  -4 209.734 6.98996   4
   3   1  -4 200.411 6.43997   9
   3   1  -4 208.552 6.46061  15
  -3   1   4 212.774 6.85410   8
   3   1  -4 200.630 6.30744   7
   1  -1  -4 341.429 9.19160   1
  -1  -1   4 358.884 9.94890  16
   1  -1  -4 324.579 9.23860   9
   1  -1  -4 341.048 9.99180  15
  -1  -1   4 363.286 7.54826  12
   1  -1  -4 338.439 9.60321   6
   1  -1  -4 330.199 9.58283  11
  -1  -1   4 341.285 7.52866  12
   1  -1  -4 317.854 8.67926   7
   1   1  -4 336.640 9.86560  15
   1   1  -4 353.628 9.40482   6
   1   1  -4 345.937 8.74747  11
   1   1  -4 352.036 8.93923   1
   1   1  -4 349.207 9.36625   7
  -1   1   4 344.506 9.85439  13
   1   1  -4 351.340 9.60141   9
  -1  -1  -4 81.0193 3.24363   9
  -1  -1  -4 76.4065 4.09436  11
  -1  -1  -4 80.8580 3.60008   6
  -1  -1  -4 77.4758 4.05352   1
   1  -1   4 74.3703 5.60906  10
  -1  -1  -4 77.1849 3.52168   7
  -1   1  -4 67.8206 3.56224  11
  -1   1  -4 76.3640 3.98008  15
  -1   1  -4 76.0722 3.63900   7
   1   1   4 80.3778 5.15217  10
  -1   1  -4 72.4360 3.51316   9
  -1   1  -4 68.9863 3.81586   1
  -1   1  -4 74.4605 3.03937   6
  -3  -1  -4 367.530 10.8227   6
  -3  -1  -4 377.294 12.8147   1
   3  -1   4 407.133 11.3797   2
  -3  -1  -4 373.928 11.9216  15
   3  -1   4 385.929 16.5129  10
  -3  -1  -4 378.695 13.1577  11
   3  -1   4 385.682 10.2172  12
  -3   1  -4 384.339 12.1373   7
   3   1   4 392.931 14.1669  14
   3   1   4 387.363 15.0175  10
   3   1   4 383.594 9.89963  12
  -3   1  -4 377.821 12.8208  11
   3   1   4 388.657 12.4640   4
  -3   1  -4 369.459 12.7791   1
   5  -1   4 1.53343 1.28412  12
  -5  -1  -4 3.71772 2.50314  11
   5  -1   4 2.82097 3.00739  10
   5  -1   4 2.88048 2.74307  14
   5  -1   4 1.41916 2.48913   4
  -5  -1  -4 1.61478 2.33752   1
   5   1   4 -0.0966 2.49250  14
  -5   1  -4 1.85333 2.19109  11
   5   1   4 -0.0827 2.27837   4
   5   1   4 -0.0421 1.14332  12
  -5   1  -4 1.84709 2.47075   1
  -7  -1  -4 54.8457 6.85042   1
   7  -1   4 49.0523 5.01248  12
  -7  -1  -4 49.9788 6.91146  11
   7  -1   4 53.8477 6.34543   4
   7  -1   4 43.3079 7.07610  14
   7   1   4 51.6981 6.40975   4
  -7   1  -4 60.7471 7.14556  11
   7   1   4 44.5866 4.82039  12
   7   1   4 51.1575 7.42410  14
  -7   1  -4 46.1602 6.12796   1
  12  -2  -4 111.237 9.34144   4
 -12  -2   4 108.751 9.85295  11
  12   2  -4 106.735 9.51097   4
 -12   2   4 109.591 9.66816  11
 -12   2   4 121.966 8.94971   8
 -10  -2   4 415.010 16.6812   5
 -10  -2   4 407.006 17.1096  16
 -10  -2   4 401.781 15.9338   8
  10  -2  -4 415.205 16.7968   4
 -10  -2   4 417.982 16.8536  11
  10   2  -4 413.794 17.0401   4
 -10   2   4 430.460 17.4507  11
 -10   2   4 409.498 16.3613   8
  10   2  -4 409.940 17.0492  14
   8  -2  -4 414.592 13.3623   9
  -8  -2   4 432.492 14.8786   8
  -8  -2   4 434.162 14.9179  11
  -8  -2   4 399.624 15.2487  16
   8  -2  -4 411.315 14.9240   4
  -8  -2   4 426.050 15.3133   5
   8  -2  -4 397.385 20.2111  10
  -8   2   4 426.657 14.9797   8
   8   2  -4 410.193 15.0397   4
   8   2  -4 426.711 15.5872  14
  -8   2   4 411.262 14.1224   5
  -8   2   4 414.582 14.3323  16
  -8   2   4 397.783 13.2385   1
  -6  -2   4 2527.92 60.5021  16
  -6  -2   4 2520.67 58.7578  11
  -6  -2   4 2476.55 58.5939  12
   6  -2  -4 2560.39 66.5414  10
   6  -2  -4 2569.37 58.5576   9
   6  -2  -4 2526.46 57.7599  14
  -6  -2   4 2487.94 58.9077   8
   6  -2  -4 2574.58 59.4243   4
  -6  -2   4 2539.42 60.0486   5
   6   2  -4 2368.29 56.8396   3
   6   2  -4 2564.89 59.8257  14
   6   2  -4 2566.67 57.3511   9
  -6   2   4 2519.94 58.5876  12
   6   2  -4 2559.88 59.8421   4
  -6   2   4 2483.45 58.9581   5
  -6   2   4 2612.62 59.4939  16
  -6   2   4 2586.39 59.6499   8
  -6   2   4 2591.89 57.8088   1
  -6   2   4 2505.80 58.7411  13
  -4  -2   4 2008.90 46.8184   8
   4  -2  -4 2020.83 47.0321   4
  -4  -2   4 2036.09 47.1923  12
  -4  -2   4 2049.78 48.1079   5
   4  -2  -4 2059.62 47.1740  14
   4  -2  -4 2065.49 46.9646   6
  -4  -2   4 1977.27 46.2586  11
   4  -2  -4 2098.77 47.4050   9
  -4  -2   4 2049.35 48.3730  16
   4   2  -4 2098.71 48.0647   4
  -4   2   4 2121.62 48.5513  16
  -4   2   4 2063.34 47.9576   5
   4   2  -4 2007.92 46.0960  15
  -4   2   4 2122.97 47.3660  13
  -4   2   4 2072.53 47.1291  12
   4   2  -4 2051.31 46.7489   9
  -4   2   4 2099.25 47.9183   8
   4   2  -4 2016.09 45.6195   3
   4   2  -4 2066.34 47.9570  14
  -2  -2   4 7607.75 171.986  12
   2  -2  -4 7710.53 178.551  15
  -2  -2   4 7734.99 169.651   8
   2  -2  -4 6491.04 167.534   7
   2  -2  -4 7215.56 172.646   9
  -2  -2   4 7925.84 174.141   5
  -2  -2   4 8037.82 178.446  16
   2  -2  -4 7176.45 174.502   6
  -2   2   4 7870.18 168.222   3
  -2   2   4 7283.36 166.335  14
  -2   2   4 7495.97 176.264  13
   2   2  -4 7652.30 174.081  15
   2   2  -4 8056.46 175.046   7
  -2   2   4 7111.13 179.211  10
   2   2  -4 7732.53 174.007   9
   2   2  -4 8004.55 170.487   3
  -2   2   4 7346.11 171.645  12
   0  -2  -4 1421.05 34.1054  15
   0  -2   4 1507.42 33.2653  16
   0  -2  -4 1439.74 33.8921   1
   0  -2  -4 1424.01 33.8255   6
   0  -2  -4 1448.69 34.3949  11
   0  -2   4 1441.50 32.8373   5
   0  -2   4 1484.73 31.8772  12
   0  -2   4 1443.78 31.8649  12
   0  -2   4 1501.71 38.9586  10
   0  -2  -4 1420.92 32.9674   9
   0  -2  -4 1424.62 32.6525   7
   0   2  -4 1427.30 33.7167   9
   0   2  -4 1439.93 34.2555  15
   0   2  -4 1422.29 33.5765   1
   0   2  -4 1444.99 33.6840   7
   0   2   4 1445.75 34.1368  14
   0   2  -4 1365.51 32.6249  11
  -2  -2  -4 3849.35 84.8474   1
   2  -2   4 3701.71 85.1792  12
   2  -2   4 3740.73 83.9026   2
  -2  -2  -4 3760.20 85.1571  11
  -2  -2  -4 3699.42 83.7845  15
   2  -2   4 3587.33 90.2058  10
  -2  -2  -4 3753.87 83.4942   6
  -2  -2  -4 3653.91 81.8642   9
   2   2   4 3803.37 86.3832  10
   2   2   4 3805.78 85.9401  14
   2   2   4 3747.50 82.8524  12
  -2   2  -4 3655.66 83.8259   7
   2   2   4 3749.51 83.6457   4
  -2   2  -4 3624.19 84.5794   1
   2   2   4 3881.06 83.5181  12
  -2   2  -4 3651.94 84.1520  11
   4  -2   4 151.598 6.07637  12
   4  -2   4 143.383 10.8094  10
  -4  -2  -4 139.439 7.95848  11
  -4  -2  -4 141.987 7.73257   1
  -4  -2  -4 124.196 5.60324   6
   4   2   4 134.978 5.58573  12
  -4   2  -4 134.536 6.93640   7
  -4   2  -4 140.196 7.46297   1
  -4   2  -4 139.839 7.49532  11
   4   2   4 136.838 8.20083  14
   4   2   4 148.790 7.25487   4
  -6  -2  -4 803.583 25.6688   1
   6  -2   4 846.214 26.2405   4
   6  -2   4 784.406 27.9899  14
   6  -2   4 874.373 24.1253  12
  -6  -2  -4 808.632 26.7583  11
  -6   2  -4 826.147 26.3553   1
   6   2   4 789.963 27.6338  14
  -6   2  -4 872.082 26.8949  11
   6   2   4 824.281 23.3609  12
   6   2   4 834.174 24.9619   4
  -8  -2  -4 15.6593 4.93747   1
  -8  -2  -4 23.1637 4.90889  11
   8  -2   4 30.3042 5.41946   4
   8  -2   4 22.6250 4.00565  12
  -8   2  -4 27.3793 5.29084   1
   8   2   4 21.8166 4.09831  12
   8   2   4 37.8635 5.64482   4
  -8   2  -4 22.3173 5.30530  11
 -11  -3   4 2.51146 3.37102  11
 -11  -3   4 2.69901 2.51905   5
  11  -3  -4 -2.3353 2.81344   4
  11   3  -4 6.80320 3.23163   4
 -11   3   4 0.28674 3.92387  11
 -11   3   4 2.59114 2.50081   8
  -9  -3   4 55.6921 6.02720  16
   9  -3  -4 58.0406 4.94416   9
  -9  -3   4 53.5740 5.69322  11
  -9  -3   4 59.4025 5.83809   8
   9  -3  -4 60.1417 5.57085   4
  -9  -3   4 67.0542 6.68704   5
  -9   3   4 65.0388 6.32074   8
  -9   3   4 65.4089 6.82394  11
   9   3  -4 58.5568 6.06110  14
   9   3  -4 62.3338 5.81740   4
  -7  -3   4 106.247 6.16972   8
   7  -3  -4 116.134 6.49718   4
   7  -3  -4 111.434 5.80285   9
  -7  -3   4 109.276 6.96709  16
  -7  -3   4 105.902 5.93462  11
   7  -3  -4 119.293 9.76557  10
  -7  -3   4 105.434 6.97616   5
  -7   3   4 109.900 6.74888   8
  -7   3   4 103.394 6.08060  13
  -7   3   4 114.412 6.02543  16
  -7   3   4 102.239 5.78426   5
   7   3  -4 110.341 6.55777   4
   7   3  -4 105.489 6.46358  14
  -7   3   4 108.962 5.66649   1
   5  -3  -4 25.9435 4.11221  10
  -5  -3   4 26.3298 3.46273   5
   5  -3  -4 29.3808 2.66637   4
  -5  -3   4 28.7401 2.49010  12
   5  -3  -4 25.8828 2.86320   9
  -5  -3   4 26.4939 2.22822  11
  -5  -3   4 33.2685 2.56318   8
  -5  -3   4 29.6262 3.41752  16
   5  -3  -4 29.0415 2.39689   6
   5   3  -4 34.0626 2.30510   9
  -5   3   4 31.2305 2.65436  12
   5   3  -4 36.1263 3.14898   4
   5   3  -4 26.0543 2.07116   3
  -5   3   4 30.6692 2.95396  16
  -5   3   4 29.6286 3.20538   5
  -5   3   4 28.2853 2.83855   8
   5   3  -4 28.3382 3.13253  14
  -5   3   4 38.4296 3.16222  13
  -3  -3   4 168.605 5.19589   8
  -3  -3   4 162.910 5.87065  12
  -3  -3   4 173.663 6.44422   5
   3  -3  -4 160.096 5.93446   9
   3  -3  -4 150.381 5.05729   4
  -3  -3   4 170.319 6.61200  16
   3  -3  -4 154.902 5.84566   6
  -3   3   4 160.101 6.31207  13
   3   3  -4 164.013 6.57761  14
   3   3  -4 166.181 5.82349   9
  -3   3   4 167.018 6.41670   8
   3   3  -4 193.239 6.79938   4
  -3   3   4 160.214 5.66669  12
   3   3  -4 172.931 6.12505   7
   3   3  -4 161.599 5.25079  15
   3   3  -4 172.119 5.43868   3
  -3   3   4 169.271 5.14192   3
   1  -3  -4 380.405 11.4169  11
  -1  -3   4 391.422 10.3378   5
   1  -3  -4 353.959 10.9552  15
  -1  -3   4 376.714 10.4723  16
  -1  -3   4 393.043 10.1608  12
   1  -3  -4 372.280 10.2704   9
   1  -3  -4 383.276 11.0475   6
  -1   3   4 369.236 9.84117  14
  -1   3   4 395.700 11.7582  13
  -1   3   4 379.994 10.5223   3
  -1   3   4 366.879 11.9779  10
   1   3  -4 371.229 10.7635   9
   1   3  -4 385.802 10.8340   7
   1   3  -4 385.910 10.6948   3
   1   3  -4 380.567 10.1746   1
   1   3  -4 375.451 10.7958  15
  -1   3   4 392.850 9.67233  12
  -1  -3  -4 4.97290 1.44299   6
   1  -3   4 7.17976 1.20478  12
  -1  -3  -4 4.60164 1.42213  11
  -1  -3  -4 6.23394 1.30867  15
   1  -3   4 6.31094 1.92582   2
   1  -3   4 4.25251 1.98208  10
   1  -3   4 5.80054 0.76089  16
  -1  -3  -4 4.26953 1.40098   1
  -1  -3  -4 4.57053 0.84297   9
  -1   3  -4 5.50698 1.55290   1
   1   3   4 5.86640 1.17274   4
   1   3   4 4.88025 0.71794  12
   1   3   4 4.27746 1.55070  14
   1   3   4 4.61071 0.69521  12
  -1   3  -4 4.50623 1.45360   7
   1   3   4 9.23953 1.68934  10
  -3  -3  -4 350.090 12.0312   1
  -3  -3  -4 314.010 10.3333  15
   3  -3   4 304.853 15.8250  10
  -3  -3  -4 340.887 12.4772  11
   3  -3   4 321.372 9.97489  12
  -3  -3  -4 322.531 10.6204   6
   3  -3   4 309.042 10.7453   2
   3   3   4 334.577 12.8643  14
  -3   3  -4 313.040 11.0945  11
   3   3   4 314.225 10.4503   4
  -3   3  -4 317.330 11.0462   7
  -3   3  -4 308.854 11.7389   1
   3   3   4 337.365 9.54302  12
  -5  -3  -4 1.66681 2.44655   1
   5  -3   4 1.68779 2.66673   4
  -5  -3  -4 -0.4278 2.36290  11
   5  -3   4 3.81703 1.73557  12
   5   3   4 2.09617 2.13005   4
  -5   3  -4 3.76809 2.34088  11
   5   3   4 0.98111 1.35757  12
   5   3   4 1.27768 2.64301  14
  -5   3  -4 0.06232 2.40929   1
  -5   3  -4 0.88157 2.40486   7
   7  -3   4 34.2275 5.94773  14
  -7  -3  -4 40.7731 6.03316  11
  -7  -3  -4 34.9153 5.21665   1
   7  -3   4 33.3280 5.30322   4
   7  -3   4 36.2675 4.61630  12
   7   3   4 33.8880 5.86965  14
  -7   3  -4 33.8103 5.51639  11
  -7   3  -4 38.0836 5.74565   1
   7   3   4 36.2712 5.14035   4
   7   3   4 34.4474 4.35639  12
 -10  -4   4 1318.55 39.8205  16
  10  -4  -4 1314.22 35.4508   9
  10  -4  -4 1338.43 37.9572   4
 -10  -4   4 1310.77 38.5008   5
 -10  -4   4 1296.23 37.3355  11
 -10   4   4 1379.38 39.7315  11
 -10   4   4 1345.19 37.8004   8
  10   4  -4 1321.77 39.2367  14
  10   4  -4 1338.93 38.0931   4
  -8  -4   4 180.708 9.51477   5
  -8  -4   4 168.248 9.62470  16
   8  -4  -4 183.526 8.56809   9
  -8  -4   4 172.580 8.78210   8
   8  -4  -4 175.774 8.72059   4
  -8  -4   4 168.768 8.48798  11
  -8   4   4 178.546 9.07995  13
  -8   4   4 174.331 8.45521   1
   8   4  -4 165.904 9.42460  14
  -8   4   4 178.421 9.04754   8
   8   4  -4 173.877 9.24194   4
   6  -4  -4 2292.98 52.7817   9
   6  -4  -4 2232.25 60.9949  10
  -6  -4   4 2192.24 52.0913   8
  -6  -4   4 2111.94 51.4759  11
   6  -4  -4 2249.03 52.6368   2
   6  -4  -4 2138.79 52.1683   4
  -6  -4   4 2197.72 54.6280  16
  -6  -4   4 2267.39 54.1162   5
   6   4  -4 2251.83 54.4823  14
   6   4  -4 2109.97 51.3053   3
  -6   4   4 2263.18 53.2739  13
  -6   4   4 2253.26 52.7114  16
  -6   4   4 2269.05 53.4244   8
   6   4  -4 2250.09 53.5090   4
  -6   4   4 2248.47 52.1680   1
  -6   4   4 2199.08 52.3279  12
  -6   4   4 2145.95 52.1466   5
   4  -4  -4 43.1238 2.97812   6
  -4  -4   4 42.5730 3.19048  12
   4  -4  -4 40.8173 3.19548   9
  -4  -4   4 49.7972 4.01671  16
  -4  -4   4 54.1077 2.87667   8
   4  -4  -4 42.7962 2.55807   4
   4  -4  -4 36.3927 3.25090   2
  -4  -4   4 48.9949 4.07260   5
  -4   4   4 47.5986 3.71514  16
   4   4  -4 53.7546 2.95632   9
  -4   4   4 37.0455 2.89660  12
  -4   4   4 47.6769 2.67091   3
  -4   4   4 42.4235 3.27157  13
  -4   4   4 43.7546 3.38936   8
   4   4  -4 58.9859 3.92584   4
   4   4  -4 55.0050 4.11585  14
   4   4  -4 44.4872 2.87799   3
  -2  -4   4 3009.64 68.2713  16
  -2  -4   4 2915.80 68.6084   2
   2  -4  -4 3004.73 68.3520   2
  -2  -4   4 3003.69 67.8458  12
   2  -4  -4 2995.60 67.6129   9
  -2  -4   4 3080.56 67.9471   5
   2  -4  -4 3034.04 68.2026   6
   2   4  -4 2977.55 67.6288   3
   2   4  -4 3094.84 68.0485   7
  -2   4   4 3015.58 67.3551   3
  -2   4   4 3031.77 67.3030  12
   2   4  -4 2959.11 67.7155   9
  -2   4   4 2896.31 70.4234  10
  -2   4   4 3095.74 69.0650  13
   0  -4   4 45.0676 2.31728   5
   0  -4   4 46.9344 3.59916   2
   0  -4  -4 48.9585 3.06516  15
   0  -4  -4 51.5500 3.57588   6
   0  -4  -4 42.9009 2.36852   9
   0  -4   4 47.7936 5.12533  10
   0  -4   4 44.2851 2.78856  12
   0  -4  -4 42.9703 3.36175  11
   0  -4   4 45.1716 2.33628  16
   0   4  -4 47.8228 3.11507   1
   0   4   4 50.3352 2.56850  12
   0   4  -4 45.6442 3.13773   3
   0   4  -4 52.6453 3.22286   7
   0   4   4 48.9138 3.23531   3
   0   4   4 51.1697 3.81198  13
   0   4   4 42.8164 2.84987  14
   0   4   4 43.4936 2.86831  10
  -2  -4  -4 2991.31 70.2700   1
  -2  -4  -4 3064.95 71.2012  11
   2  -4   4 3031.25 68.4665  12
   2  -4   4 3045.77 70.0303   2
  -2  -4  -4 2926.46 69.4510   6
  -2  -4  -4 3001.74 68.8247  15
   2  -4   4 3070.13 77.7485  10
  -2   4  -4 2946.62 68.6781  11
   2   4   4 3046.62 70.8683  14
  -2   4  -4 3025.71 69.3518   7
  -2   4  -4 3020.15 70.1508   1
   2   4   4 3081.29 67.7681  12
   4  -4   4 171.547 7.66579  12
   4  -4   4 177.219 8.17237   2
   4  -4   4 171.119 13.0448  10
  -4  -4  -4 178.983 9.56954  11
  -4  -4  -4 187.060 9.02545   1
  -4  -4  -4 179.522 7.92698   6
   4   4   4 180.542 9.58793  14
  -4   4  -4 174.944 8.95435   1
   4   4   4 178.676 7.27738  12
  -4   4  -4 171.145 8.33686  11
  -4   4  -4 166.435 7.99199   7
  -6  -4  -4 1811.93 49.7412  11
   6  -4   4 1803.87 46.2555  12
   6  -4   4 1852.26 49.2471   4
  -6  -4  -4 1816.75 48.1525   1
   6   4   4 1794.38 45.5358  12
   6   4   4 1765.62 50.1596  14
  -6   4  -4 1831.37 48.8541   1
  -6   4  -4 1835.06 48.2743  11
  -8  -4  -4 141.790 11.1415  11
   8  -4   4 146.637 11.2046   4
  -8  -4  -4 145.971 10.6271   1
   8  -4   4 148.298 9.30976  12
   8   4   4 137.510 8.74317  12
  -8   4  -4 127.246 10.6304   1
   8   4   4 145.052 10.4957   3
  -8   4  -4 159.220 11.1031  11
  11  -5  -4 7.86665 3.21092   9
  11  -5  -4 4.95035 2.71684   4
 -11  -5   4 7.52400 4.10646   5
 -11   5   4 9.09061 4.83849  11
 -11   5   4 3.21387 3.23637   8
  11   5  -4 7.01559 3.79838   4
  -9  -5   4 179.694 11.1333  16
  -9  -5   4 186.771 11.1939   5
   9  -5  -4 174.038 9.03088   9
   9  -5  -4 173.381 9.57913   4
   9   5  -4 179.533 11.0079  14
  -9   5   4 183.882 9.82863   8
  -9   5   4 192.512 9.88360   1
   9   5  -4 187.308 10.5916   4
   7  -5  -4 25.5692 3.47772   4
  -7  -5   4 28.7664 4.74974   5
  -7  -5   4 28.7651 4.57342  16
   7  -5  -4 23.1262 3.60380   2
   7  -5  -4 24.4765 3.61284   9
   7  -5  -4 22.5495 5.50544  10
  -7   5   4 24.9120 3.62688   8
  -7   5   4 21.3147 3.38734   1
   7   5  -4 28.2792 3.88750   4
  -7   5   4 25.6458 3.77512  13
  -7   5   4 22.9668 3.07272   5
   7   5  -4 26.3477 3.39028   3
   7   5  -4 29.4917 4.59240  14
  -7   5   4 27.3287 3.02269  16
   5  -5  -4 516.499 15.8966   2
  -5  -5   4 537.771 15.7864  12
   5  -5  -4 551.743 16.0247   9
  -5  -5   4 553.734 16.9239   5
   5  -5  -4 511.618 14.4907   4
  -5  -5   4 510.822 15.0548   2
  -5  -5   4 540.693 17.3875  16
   5  -5  -4 511.712 14.4512   6
   5  -5  -4 517.027 20.7369  10
  -5   5   4 502.640 15.2509  12
  -5   5   4 513.135 14.4300   3
   5   5  -4 523.941 13.9836   9
  -5   5   4 508.818 15.9940   8
  -5   5   4 531.802 15.8989  16
   5   5  -4 538.170 16.2354   4
  -5   5   4 511.363 16.2759  13
   5   5  -4 538.852 17.1965  14
   5   5  -4 529.795 15.0352   3
   3  -5  -4 322.044 10.7923   2
  -3  -5   4 320.569 10.8419   2
  -3  -5   4 322.917 10.5169  12
  -3  -5   4 316.309 10.9765  16
  -3  -5   4 313.791 10.5124   5
   3  -5  -4 306.130 10.0708   6
   3  -5  -4 314.886 10.1919   9
   3   5  -4 315.540 10.1635   7
  -3   5   4 317.920 10.0590  12
   3   5  -4 335.489 9.99630   9
  -3   5   4 320.580 11.0690  13
  -3   5   4 315.863 9.75025   3
  -3   5   4 316.602 10.8856   8
   3   5  -4 323.407 11.5492  14
   3   5  -4 321.673 10.0922   3
  -1  -5   4 331.346 14.3279  10
   1  -5  -4 311.583 10.2519  15
   1  -5  -4 328.391 10.4063   2
  -1  -5   4 321.232 10.1439  12
  -1  -5   4 316.783 9.30529   5
  -1  -5   4 309.164 9.59245  16
  -1  -5   4 338.833 11.4136   2
   1  -5  -4 317.181 10.5094   6
   1  -5  -4 316.330 9.39182   9
   1   5  -4 329.260 8.72143  13
  -1   5   4 313.011 10.2681   3
  -1   5   4 334.550 11.5302  13
  -1   5   4 326.212 9.77449  12
   1   5  -4 312.758 10.0451   7
   1   5  -4 313.167 10.3462   3
  -1   5   4 293.830 8.63052  14
   1   5  -4 317.752 9.74934   1
  -1  -5  -4 944.221 25.1396   6
   1  -5   4 997.339 24.4751  12
  -1  -5  -4 925.262 24.0792  15
   1  -5   4 951.155 25.6605   2
   1  -5   4 951.404 30.9967  10
  -1  -5  -4 932.859 25.8542  11
   1   5   4 942.204 25.2894   3
   1   5   4 924.765 24.8022  14
  -1   5  -4 965.312 24.5925   7
  -1   5  -4 933.225 24.8950   1
   1   5   4 941.238 23.5575  12
   1   5   4 957.980 26.7884  13
  -3  -5  -4 152.471 7.40647   6
  -3  -5  -4 154.449 8.12673   1
  -3  -5  -4 147.113 6.20814  15
   3  -5   4 155.336 8.07265   2
   3  -5   4 160.680 12.1238  10
   3  -5   4 183.810 7.55514  12
  -3  -5  -4 153.120 8.64389  11
  -3   5  -4 153.431 7.06377  11
   3   5   4 165.748 8.60248   3
   3   5   4 149.919 6.57205  12
   3   5   4 150.340 8.34704  14
  -3   5  -4 153.517 7.20450   7
  -3   5  -4 150.678 8.09802   1
  -5  -5  -4 580.422 20.6022  11
  -5  -5  -4 551.645 19.0887   1
  -5  -5  -4 533.595 17.2520   6
   5  -5   4 511.181 17.3678  12
   5  -5   4 506.026 19.2218   4
  -5   5  -4 525.727 19.2490   1
  -5   5  -4 516.772 17.5741   7
  -5   5  -4 525.394 18.2597  11
   5   5   4 533.168 20.0748  14
   5   5   4 522.790 18.8658   3
   5   5   4 547.698 17.0906  12
   7  -5   4 163.683 11.3291   4
  -7  -5  -4 141.934 10.2842   1
   7  -5   4 145.683 9.21249  12
  -7  -5  -4 155.303 11.5272  11
   7   5   4 143.469 9.78070   3
  -7   5  -4 139.198 10.4074   1
   7   5   4 155.906 8.90380  12
 -10  -6   4 41.4193 6.07641   5
  10  -6  -4 36.2315 5.09071   4
  10  -6  -4 38.7537 5.00432   9
 -10   6   4 40.4406 6.63274  11
  10   6  -4 38.3174 5.59694   4
 -10   6   4 37.9017 5.25236   8
   8  -6  -4 1344.62 35.5010   9
   8  -6  -4 1226.49 34.4732   4
   8  -6  -4 1333.06 35.0363   2
  -8  -6   4 1280.37 38.4016  16
  -8  -6   4 1294.36 37.3610   5
   8   6  -4 1295.30 36.0295   4
  -8   6   4 1373.08 35.8682   1
  -8   6   4 1333.40 35.9116   8
  -8   6   4 1286.78 36.1397  13
   8   6  -4 1281.82 37.7811  14
  -6  -6   4 252.804 11.5111   5
  -6  -6   4 260.860 12.0520  16
   6  -6  -4 235.825 14.4083  10
   6  -6  -4 249.651 10.2529   2
  -6   6   4 232.093 9.22400   5
   6   6  -4 247.144 10.4033   4
   6   6  -4 254.385 9.54637   3
   6   6  -4 261.050 11.7411  14
  -6   6   4 240.874 10.2809   8
  -6   6   4 248.792 10.7019  13
  -6   6   4 251.930 9.66912  16
  -4  -6   4 3278.70 77.7508   5
  -4  -6   4 3261.21 78.5279  16
   4  -6  -4 3408.78 77.9482   2
   4  -6  -4 3411.66 82.8727  10
  -4  -6   4 3360.70 77.4495  12
  -4  -6   4 3256.00 77.1739   2
   4  -6  -4 3428.15 76.2955   6
  -4   6   4 3398.51 77.6533   8
   4   6  -4 3458.31 79.3375  14
  -4   6   4 3379.63 78.2204  13
  -4   6   4 3327.88 76.9676  12
   4   6  -4 3273.78 76.7748   3
   4   6  -4 3372.65 76.8750   7
  -4   6   4 3369.66 76.2001   3
   2  -6  -4 573.063 15.9811   9
   2  -6  -4 583.816 16.7543   6
  -2  -6   4 551.230 20.6128  10
  -2  -6   4 623.373 17.9405   2
   2  -6  -4 565.875 16.9024   2
  -2  -6   4 599.894 16.3821   5
  -2  -6   4 575.716 16.7511  12
  -2  -6   4 547.322 16.4794  16
  -2   6   4 587.553 16.5126   3
   2   6  -4 587.873 16.4832   7
  -2   6   4 592.010 16.5445  12
   2   6  -4 571.815 16.7225   3
  -2   6   4 576.630 17.7647  13
   0  -6   4 3551.38 81.7064   2
   0  -6  -4 3477.55 79.5983   2
   0  -6   4 3548.05 80.3170  12
   0  -6   4 3411.87 87.1348  10
   0  -6  -4 3413.72 79.7519  15
   0  -6  -4 3406.51 78.0090   9
   0  -6  -4 3483.20 80.8182   6
   0  -6  -4 3552.51 81.5159  11
   0   6   4 3541.56 79.5553  12
   0   6   4 3563.14 80.8114   3
   0   6  -4 3578.13 78.7888  13
   0   6  -4 3585.33 80.0262   7
   0   6  -4 3416.12 80.0222   1
   0   6   4 3618.34 82.6499  13
   0   6  -4 3518.01 80.8515   3
   2  -6   4 175.309 12.3369  10
  -2  -6  -4 172.883 8.36958   6
  -2  -6  -4 171.379 8.96982  11
  -2  -6  -4 169.406 6.85334  15
   2  -6   4 197.959 7.98521  12
   2  -6   4 190.527 8.91999   2
   2   6   4 171.785 7.24488  12
   2   6   4 170.952 8.64618   3
   2   6   4 156.111 8.02811  14
   2   6   4 180.395 9.40650  13
  -2   6  -4 172.706 7.57813   7
  -2   6  -4 164.599 8.35254   1
  -4  -6  -4 1416.02 38.5674   6
   4  -6   4 1522.73 39.2753   2
  -4  -6  -4 1475.64 40.8490  11
   4  -6   4 1499.05 38.8113  12
  -4   6  -4 1474.60 38.3854   7
   4   6   4 1488.09 38.0183  12
   4   6   4 1471.67 40.7700  14
   4   6   4 1511.03 40.7729   3
  -4   6  -4 1515.82 40.4307   1
   6  -6   4 15.3050 3.64826  12
   6  -6   4 20.6106 4.45521   4
  -6  -6  -4 24.7814 5.65058  11
   6   6   4 21.2325 3.81179  12
  -6   6  -4 19.0269 4.25964   1
   6   6   4 18.6370 4.49894  14
   6   6   4 17.3888 4.20312   3
  -9  -7   4 188.860 11.8068   5
  -9  -7   4 163.134 11.9364  16
   9  -7  -4 195.032 10.4793   9
  -9   7   4 184.092 10.3036   8
  -9   7   4 168.424 10.5494  13
   9   7  -4 187.126 10.6766   4
  -9   7   4 192.259 10.7478   1
   9   7  -4 154.893 11.1756  14
   7  -7  -4 34.6507 4.76034   9
  -7  -7   4 31.2859 5.66127  16
   7  -7  -4 32.4729 4.69127   2
  -7  -7   4 33.5102 5.62780   5
  -7   7   4 29.4843 4.48840   1
   7   7  -4 34.8965 5.35568  14
  -7   7   4 39.0371 5.20617  13
   7   7  -4 41.2852 4.90894   4
   7   7  -4 38.5334 4.60022   3
  -7   7   4 34.7105 4.80077   8
  -5  -7   4 200.394 8.64916   2
   5  -7  -4 217.779 9.82310   2
  -5  -7   4 208.245 10.4200  16
   5  -7  -4 213.317 8.05321   6
  -5  -7   4 196.171 9.55864   5
  -5   7   4 210.987 9.38419   8
  -5   7   4 196.913 8.22540   3
   5   7  -4 190.362 8.73328   3
  -5   7   4 210.711 9.00034  16
   5   7  -4 212.184 10.4722  14
  -5   7   4 204.879 9.77928  13
   5   7  -4 214.639 9.10153   7
  -5   7   4 198.766 8.63259  12
   3  -7  -4 65.9952 4.34293   9
   3  -7  -4 69.3790 4.75433   6
  -3  -7   4 69.2804 4.97993  12
   3  -7  -4 72.7692 5.37988   2
  -3  -7   4 73.9301 5.59168   2
  -3  -7   4 75.8876 6.65072  10
  -3  -7   4 69.2059 5.11805  16
  -3  -7   4 68.1014 4.95268   5
   3   7  -4 68.2481 4.63262   3
   3   7  -4 65.6570 5.54713  14
  -3   7   4 70.7900 5.18072   8
  -3   7   4 71.4968 5.58735  13
   3   7  -4 62.1362 4.51259   7
  -3   7   4 75.0007 4.76507  12
  -3   7   4 67.8032 4.67022   3
   1  -7  -4 25.0656 3.17775  15
   1  -7  -4 20.5006 3.11032   2
   1  -7  -4 20.0203 3.16203   6
   1  -7  -4 24.0310 2.60390   9
  -1  -7   4 23.0442 3.60786   2
  -1  -7   4 26.4148 4.82164  10
  -1   7   4 23.3741 3.71192  13
  -1   7   4 23.5068 3.05599  12
   1   7  -4 23.5554 3.11351   7
  -1   7   4 26.3319 3.49166   3
   1   7  -4 22.1854 3.38313   3
   1  -7   4 122.354 10.0909  10
   1  -7   4 121.963 7.41768   2
   1  -7   4 110.878 6.34210  12
  -1  -7  -4 118.621 6.74432   6
  -1  -7  -4 111.251 5.59310  15
  -1  -7  -4 120.549 7.39454  11
   1   7   4 113.531 7.07427   3
  -1   7  -4 107.432 6.44595   1
   1   7   4 118.389 7.71987  13
   1   7   4 115.119 6.09801  12
  -1   7  -4 121.524 6.34153   7
  -1   7  -4 106.998 6.80631   3
  -3  -7  -4 9.10278 3.45280  11
   3  -7   4 -0.5190 3.17580   2
   3  -7   4 0.46576 1.85046  12
  -3  -7  -4 0.50217 2.21128   6
  -3   7  -4 -0.8867 2.25557   1
   3   7   4 5.51306 2.07537  12
   3   7   4 -1.6028 2.74533   3
   3   7   4 -0.8164 1.89056  14
  -3   7  -4 -0.5289 2.04876   7
   3   7   4 7.82602 3.18877  13
  -5  -7  -4 44.9170 5.07528   6
   5  -7   4 43.8269 5.36931  12
   5  -7   4 42.8765 5.79756   4
   5  -7   4 43.4466 5.54720   2
  -5  -7  -4 37.2042 6.10909  11
   5   7   4 41.1846 4.43546  12
  -5   7  -4 44.6097 5.48231   7
   5   7   4 44.6739 6.00709   3
  -5   7  -4 49.3040 6.63711   1
   5   7   4 46.5575 6.89842  13
   5   7   4 39.7494 5.74760  14
   7  -7   4 14.6544 4.91826   4
  -7  -7  -4 5.78559 4.36354  11
   7  -7   4 3.44801 3.01387  12
   7   7   4 7.65046 4.29673   3
  -7   7  -4 8.88377 4.51492   1
   7   7   4 6.71890 2.92343  12
 -10  -8   4 367.801 15.7373   6
  10  -8  -4 359.447 15.7158   9
 -10  -8   4 380.219 17.4018   5
 -10   8   4 358.809 17.5064  11
 -10   8   4 324.716 15.3008   8
  -8  -8   4 565.100 22.5765  16
   8  -8  -4 584.078 20.3237   2
   8  -8  -4 565.234 20.0352   9
  -8  -8   4 622.834 22.2708   5
  -8   8   4 567.747 20.8292  13
  -8   8   4 570.781 19.8137   8
   8   8  -4 569.498 20.0213   4
  -8   8   4 568.824 20.4889   1
   8   8  -4 585.000 22.7089  14
  -6  -8   4 385.274 15.6250   5
   6  -8  -4 404.958 15.0875   2
  -6  -8   4 367.386 16.1061  16
  -6   8   4 363.107 13.9856   8
   6   8  -4 360.153 13.8161   7
  -6   8   4 381.440 15.2973  13
   6   8  -4 371.563 15.9552  14
   6   8  -4 382.764 14.1683   3
  -4  -8   4 830.744 23.8089   2
   4  -8  -4 846.511 22.7396   6
  -4  -8   4 765.513 24.6013  16
   4  -8  -4 813.348 24.3261   2
  -4  -8   4 819.853 24.0270   5
   4   8  -4 820.157 23.1473   7
  -4   8   4 817.052 23.6068   8
   4   8  -4 801.370 25.4651  14
   4   8  -4 795.238 23.5190   3
  -4   8   4 819.088 23.1098   3
  -4   8   4 826.836 24.7810  13
  -4   8   4 844.337 23.5866  12
  -2  -8   4 291.477 14.6322  10
   2  -8  -4 305.869 11.7021   2
  -2  -8   4 307.614 12.6239   2
   2  -8  -4 295.350 10.5194   9
   2  -8  -4 300.616 11.5540   6
  -2  -8   4 313.591 12.0278  12
   2   8  -4 310.928 12.0192   3
  -2   8   4 307.237 12.8027  13
  -2   8   4 322.100 11.8998   3
  -2   8   4 302.232 11.6827   8
   2   8  -4 301.509 11.0666   7
  -2   8   4 316.661 11.3830  12
   0  -8  -4 990.843 27.7566   6
   0  -8   4 962.394 27.2791  12
   0  -8   4 956.530 33.3966  10
   0  -8  -4 949.607 26.0471  15
   0  -8   4 1031.79 29.0108   2
   0  -8  -4 1020.00 26.6661   2
   0   8  -4 995.977 26.5078   7
   0   8   4 992.528 26.9086  12
   0   8  -4 962.100 26.9802   1
   0   8   4 989.872 27.8523   3
   0   8  -4 1014.89 28.0391   3
   0   8   4 965.777 28.6842  13
  -2  -8  -4 265.340 12.2918  11
   2  -8   4 285.198 11.7324  12
   2  -8   4 254.248 12.4384   2
  -2  -8  -4 278.520 12.0186   6
  -2   8  -4 272.466 11.9394   1
  -2   8  -4 265.186 10.7344   7
   2   8   4 263.552 12.9078  13
   2   8   4 258.458 10.8676  12
   2   8   4 267.203 12.0781   3
  -4  -8  -4 873.366 26.9919   6
  -4  -8  -4 864.600 28.1982  11
   4  -8   4 847.966 26.5900  12
   4  -8   4 911.500 27.6753   2
   4   8   4 874.380 26.1503  12
   4   8   4 891.972 28.1816   3
   4   8   4 858.168 28.9601  13
  -4   8  -4 884.336 25.7227   7
  -4   8  -4 843.630 27.5648   1
   4   8   4 872.500 27.6315  14
   6  -8   4 215.034 12.2639   4
  -6  -8  -4 221.983 13.4979  11
  -6  -8  -4 209.222 11.3437   6
   6  -8   4 219.179 11.8775  12
  -6   8  -4 223.566 12.7461   1
   6   8   4 228.005 11.5019  12
   6   8   4 211.843 12.8921   3
   9  -9  -4 1.06462 2.23332   9
  -9  -9   4 0.28637 4.14326   5
  -9  -9   4 -0.3453 3.12242   6
   9   9  -4 -1.6591 2.86206   7
  -9   9   4 2.73318 3.76660   1
  -7  -9   4 33.8200 6.25215   5
   7  -9  -4 25.1700 4.51380   9
   7  -9  -4 26.8348 5.25689   2
  -7   9   4 24.7372 3.93322   8
   7   9  -4 21.3928 4.11490   3
   7   9  -4 18.1707 4.71984  14
  -7   9   4 31.6259 5.58892  13
   7   9  -4 23.3066 4.54871   7
   5  -9  -4 1.27169 2.97130   2
  -5  -9   4 5.78275 2.75769   5
  -5   9   4 2.74410 2.27521  13
   5   9  -4 -1.8688 1.48277  14
  -5   9   4 4.88340 1.95891   3
  -5   9   4 4.50843 2.49415   8
   5   9  -4 1.95544 1.73965   3
   5   9  -4 2.56733 2.41070   7
  -3  -9   4 10.2409 3.46869   2
   3  -9  -4 7.01965 2.95974   2
   3  -9  -4 7.24105 2.37038   9
  -3  -9   4 6.01690 2.15174   5
   3  -9  -4 14.0070 3.03202   6
  -3   9   4 8.35044 2.83776   3
  -3   9   4 4.94785 2.09451  12
   3   9  -4 7.68872 2.35537   3
  -3   9   4 11.1261 3.45451  13
   3   9  -4 10.6019 2.74336   7
  -3   9   4 10.7605 2.87025   8
   1  -9  -4 3.76896 1.88789  15
  -1  -9   4 8.09139 2.33166  12
   1  -9  -4 4.51064 2.67932   6
  -1  -9   4 0.78379 3.22927   2
   1  -9  -4 3.87876 2.34851   2
  -1  -9   4 3.33132 2.61072  10
   1   9  -4 4.92513 2.18712   3
  -1   9   4 4.97324 2.85142   3
  -1   9   4 1.64188 1.79894  12
  -1   9   4 3.58725 2.67275  13
   1   9  -4 2.37728 2.06192   7
   1  -9   4 5.18764 3.97298   2
  -1  -9  -4 1.38047 2.67012   6
   1  -9   4 8.16405 2.86828  12
   1   9   4 2.04379 1.94998  12
  -1   9  -4 1.20783 2.57523   3
  -1   9  -4 4.15771 1.85629   7
  -1   9  -4 3.34816 2.64396   1
   1   9   4 2.79357 2.35999   3
   1   9   4 5.07876 3.02442  13
   3  -9   4 10.0994 4.58118   2
  -3  -9  -4 9.24351 3.19206  11
   3  -9   4 9.47573 3.17003  12
  -3  -9  -4 8.34733 3.53169   6
  -3   9  -4 12.2853 3.32846   7
   3   9   4 13.5653 3.24756  12
   3   9   4 5.50643 3.94568   3
  -3   9  -4 3.03538 3.18069   1
   3   9   4 8.48831 3.56854  13
   5  -9   4 2.24307 2.03120  12
   5  -9   4 9.14059 4.33375   2
   5  -9   4 7.14048 3.59835   4
  -5  -9  -4 5.05423 3.35079   6
  -5  -9  -4 6.41745 4.10766  11
   5   9   4 5.95728 2.90154  12
  -5   9  -4 12.9998 3.28553   7
   5   9   4 9.56146 4.51188   3
  -5   9  -4 7.04553 4.00028   1
  -8 -10   4 61.9789 7.47133   6
  -8 -10   4 52.9484 7.44416   5
   8 -10  -4 78.4485 8.25542   2
   8 -10  -4 64.6780 7.02268   9
  -8  10   4 72.4286 8.32844   1
   8  10  -4 72.6788 7.37576   7
   6 -10  -4 1054.72 31.6914   2
   6 -10  -4 1028.37 30.3593   9
  -6 -10   4 1044.51 31.1289   6
  -6 -10   4 1029.36 31.6073   5
   6  10  -4 984.266 30.1616   3
   6  10  -4 997.263 32.8436  14
  -6  10   4 1021.45 31.8110  13
   6  10  -4 1051.78 29.7723   7
   4 -10  -4 187.450 9.19622   9
   4 -10  -4 205.083 10.5129   2
  -4 -10   4 199.756 10.0845   5
  -4 -10   4 191.059 10.2094   2
  -4  10   4 190.736 10.8357  13
  -4  10   4 200.201 9.63984   8
   4  10  -4 188.550 11.2096  14
  -4  10   4 193.178 9.61719   3
   4  10  -4 191.590 9.36695   7
   4  10  -4 178.607 9.99067   3
  -2 -10   4 1168.10 32.1205   6
  -2 -10   4 1175.89 34.3528   2
   2 -10  -4 1211.08 32.8943   6
   2 -10  -4 1182.56 33.3575   2
   2 -10  -4 1173.00 32.5764  15
  -2  10   4 1194.60 32.9544  12
   2  10  -4 1211.32 33.9160   3
   2  10  -4 1212.69 31.8452   7
  -2  10   4 1157.13 34.3878  13
  -2  10   4 1199.04 33.4716   3
  -2  10   4 1164.56 32.9635   8
   0 -10   4 268.122 13.7709   2
   0 -10  -4 282.554 12.7513   6
   0 -10  -4 276.031 11.4834   2
   0  10  -4 263.206 11.8887   1
   0  10  -4 269.916 12.7807   3
   0  10   4 268.756 11.9539  12
   0  10   4 285.817 13.1596   3
   0  10  -4 267.521 10.8415   7
   0  10   4 266.204 13.1864  13
   2 -10   4 742.559 25.0061  12
  -2 -10  -4 795.471 25.6389   6
   2 -10   4 811.123 27.0537   2
   2  10   4 780.579 26.6794  13
  -2  10  -4 820.362 24.0049   7
   2  10   4 786.653 24.9595  12
   2  10   4 811.917 26.4743   3
  -2  10  -4 809.164 25.9409   1
  -4 -10  -4 182.188 11.0361   6
  -4 -10  -4 177.334 10.9763  11
   4 -10   4 181.750 10.8886   4
   4 -10   4 179.122 11.4231   2
   4  10   4 184.522 10.1109  12
  -4  10  -4 180.705 11.5362   1
   4  10   4 180.646 11.4033   3
  -4  10  -4 180.135 9.40748   7
  -7 -11   4 135.773 10.4331   6
   7 -11  -4 152.964 9.33637   9
   7 -11  -4 139.540 9.62716   2
   7  11  -4 144.140 9.20903   7
  -7  11   4 128.005 9.35970   1
   5 -11  -4 147.599 9.69012   2
  -5 -11   4 157.578 10.3720   6
   5 -11  -4 154.140 9.18613   9
   5  11  -4 145.008 8.23831   7
   5  11  -4 140.373 9.35268   3
  -5  11   4 148.725 9.23094   3
  -3 -11   4 162.439 10.3367   2
   3 -11  -4 173.712 8.83730   9
  -3 -11   4 180.371 10.2093   6
   3 -11  -4 177.307 9.44494   6
   3 -11  -4 174.097 10.3681   2
  -3  11   4 187.229 9.65982   8
   3  11  -4 172.995 10.2724   3
  -3  11   4 169.476 10.4976  13
  -3  11   4 172.029 10.2162   3
   1 -11  -4 181.250 9.95308   2
  -1 -11   4 193.830 11.6548   2
   1 -11  -4 196.316 10.6705   6
   1  11  -4 190.875 10.9019   3
  -1  11   4 181.722 11.0599  13
  -1  11   4 179.890 10.8385   3
  -1  11   4 187.412 9.81901  12
  -1  11   4 176.584 9.72594   8
  -1 -11  -4 139.691 9.67524   6
   1 -11   4 141.769 10.0722   2
   1  11   4 137.574 8.79517  12
  -1  11  -4 129.545 9.53737   3
   1  11   4 139.796 9.47876   3
   1  11   4 131.801 9.70909  13
  -1  11  -4 131.767 9.02339   1
   3 -11   4 131.745 9.82325   2
  -3 -11  -4 129.211 9.74655   6
   3  11   4 142.339 9.27950  12
   3  11   4 131.918 10.2970   3
  -3  11  -4 137.384 10.0811   1
   6 -12  -4 160.356 9.89093   9
   6 -12  -4 163.178 11.2682   2
  -6 -12   4 154.894 10.4332   6
   6  12  -4 153.684 9.69812   3
  -6  12   4 161.905 10.7898   1
   4 -12  -4 708.922 22.5288   9
  -4 -12   4 747.554 24.4356   6
   4 -12  -4 699.745 24.6558   2
   4  12  -4 692.273 24.1986   3
  -4  12   4 705.035 24.1070   3
   2 -12  -4 122.043 8.35192   2
   2 -12  -4 119.263 8.49395   6
  -2 -12   4 112.951 9.32583   2
   2  12  -4 113.102 8.44843   3
  -2  12   4 127.012 9.34356   3
   0 -12  -4 808.605 26.2740   6
   0 -12   4 792.904 27.4138   2
   0  12  -4 767.100 25.3410   1
   0  12  -4 763.488 26.1464   3
   2 -12   4 73.3721 9.12735   2
  -2 -12  -4 68.7664 7.47610   6
   2  12   4 57.9263 6.26813  12
  -2  12  -4 59.5881 6.81521   1
   3 -13  -4 46.3774 6.65117   2
  -3 -13   4 45.9079 6.40534   6
  -3 -13   4 44.8760 5.93408   2
  -3  13   4 50.9734 7.02011   3
   3  13  -4 66.3950 7.77758   3
  -1 -13   4 45.9179 7.08339   2
   1 -13  -4 40.7119 5.45567   6
   1  13  -4 40.3214 6.16359   3
  -1  13   4 52.2117 7.33334   3
  12   0  -5 -1.3790 3.00446   4
 -12   0   5 -0.0842 3.45246   8
 -12   0   5 1.72061 3.96812  11
 -10   0   5 3.45614 2.44827  16
 -10   0   5 0.80544 2.92144  11
 -10   0   5 3.86486 2.94000   5
  10   0  -5 10.3290 3.01510   4
 -10   0   5 2.42716 2.37590   8
  -8   0   5 0.29914 1.95661  11
   8   0  -5 0.89491 1.30520   9
  -8   0   5 0.38230 1.86778  16
  -8   0   5 0.83035 1.60761   8
   8   0  -5 1.26128 1.40362  14
   8   0  -5 13.3918 2.83817   4
  -8   0   5 3.14933 2.31249   5
  -6   0   5 3.92048 1.46014  16
   6   0  -5 3.91994 1.42005   4
   6   0  -5 3.92410 1.25583  15
   6   0  -5 1.29669 0.84024   9
  -6   0   5 4.73794 1.69603   5
  -6   0   5 1.09773 1.13618   8
   6   0  -5 5.65018 1.43701  14
  -4   0   5 0.80948 0.75838   8
   4   0  -5 2.13199 0.88790   7
   4   0  -5 3.49782 0.97095   9
  -4   0   5 0.67803 0.96035  16
  -4   0   5 2.42416 1.35272   5
   4   0  -5 0.46853 0.58070  14
  -4   0   5 0.52068 0.62539  12
   4   0  -5 0.82326 0.94921   4
  -4   0   5 0.53055 0.50881  13
   2   0  -5 0.67021 0.42704   1
  -2   0   5 0.97671 0.92025  16
   2   0  -5 0.90042 0.85556   6
   2   0  -5 0.36266 0.57942   9
   2   0  -5 1.25919 0.77166  15
  -2   0   5 0.19418 0.31389  12
  -2   0   5 1.22667 0.39148  12
   2   0  -5 0.66463 0.63857   7
  -2   0   5 0.27825 0.47022  13
  -2   0   5 0.84538 0.77553   8
   0   0  -5 9.41306 1.50792   7
   0   0  -5 8.67016 1.71875  15
   0   0  -5 1.00480 0.82730   6
   0   0  -5 11.7665 1.76157   1
  -2   0  -5 0.92072 1.50987   1
  -2   0  -5 0.53676 1.21485  15
   2   0   5 -0.0203 1.68812  10
  -2   0  -5 0.35349 1.16812  11
  -2   0  -5 -0.3415 0.62114   6
  -2   0  -5 -0.2646 1.30852   7
   4   0   5 0.52489 1.70422  14
  -4   0  -5 0.20819 1.83161  11
   4   0   5 0.32965 2.29410  10
   4   0   5 1.14261 1.03302  12
   4   0   5 1.03129 1.62803   4
  -4   0  -5 1.32389 2.23672   1
  -6   0  -5 -2.0083 2.79145   1
   6   0   5 3.25012 1.93094  12
  -6   0  -5 -0.2209 1.89423  11
   6   0   5 1.96719 2.32177  14
   6   0   5 -2.1184 2.78668   4
  -8   0  -5 -0.8018 3.19564  11
  -8   0  -5 7.54851 4.52500   1
   8   0   5 -0.9391 3.35624   4
   8   0   5 3.70886 2.56474  12
 -11  -1   5 938.592 30.2638  11
 -11  -1   5 950.927 29.9497   8
  11  -1  -5 984.117 30.5948   4
 -11  -1   5 916.981 29.2591   5
 -11   1   5 935.895 29.7463   8
  11   1  -5 953.814 30.3177   4
 -11   1   5 964.303 30.7095  11
   9  -1  -5 158.603 7.43810   9
  -9  -1   5 161.309 9.06129  16
   9  -1  -5 156.702 9.10362   4
  -9  -1   5 159.994 8.92900   5
  -9  -1   5 160.407 9.05424   8
  -9  -1   5 179.972 9.44499  11
  -9   1   5 152.382 8.63994   5
  -9   1   5 146.539 8.51071  16
  -9   1   5 152.877 8.69949   8
  -9   1   5 157.588 8.90949  11
   9   1  -5 144.156 8.99718   4
  -7  -1   5 1975.74 49.4378   5
  -7  -1   5 1973.88 48.3720  11
   7  -1  -5 1970.14 49.0928   4
  -7  -1   5 1976.57 49.8630  16
  -7  -1   5 2043.01 48.8372   8
   7  -1  -5 2069.04 47.9206   9
  -7  -1   5 2005.94 48.2132  12
  -7   1   5 2004.13 49.0585   8
  -7   1   5 2008.47 49.1138   5
   7   1  -5 2024.11 49.6603   4
   7   1  -5 2031.49 48.8501  14
  -7   1   5 2049.02 49.6165  16
   7   1  -5 2024.04 47.1638   9
  -5  -1   5 536.208 14.8771   8
  -5  -1   5 544.221 15.8309   5
  -5  -1   5 521.264 15.9161  16
   5  -1  -5 524.321 14.7606   9
   5  -1  -5 511.307 14.8230  15
  -5  -1   5 541.019 14.7359  12
   5  -1  -5 511.776 14.8824   4
   5  -1  -5 536.065 13.4780  14
  -5   1   5 526.548 14.0770  13
  -5   1   5 534.500 15.3354   8
  -5   1   5 523.644 14.5606  12
   5   1  -5 539.653 15.5851   4
   5   1  -5 516.954 14.0921  15
  -5   1   5 532.113 15.9408  16
  -5   1   5 515.830 15.4986   5
   5   1  -5 539.625 14.9330  14
   5   1  -5 522.673 14.4468   9
  -3  -1   5 3293.49 72.0085   8
   3  -1  -5 3238.71 73.0740  15
  -3  -1   5 3187.28 73.7036  12
   3  -1  -5 3219.93 72.3613   4
  -3  -1   5 3279.83 73.5861  16
   3  -1  -5 3175.92 71.2133   7
   3  -1  -5 3229.31 72.6900   6
  -3  -1   5 3126.78 72.1189  13
   3  -1  -5 3276.71 72.6672   9
  -3  -1   5 3131.21 72.9502   5
   3   1  -5 3214.95 72.5350   9
  -3   1   5 3328.91 75.6499  12
  -3   1   5 3331.97 74.3071  16
  -3   1   5 3309.30 71.9682  13
   3   1  -5 3217.56 72.0690   7
   3   1  -5 3170.79 72.9732   4
  -3   1   5 3267.25 72.7991   8
   3   1  -5 3232.68 72.6577  15
   1  -1  -5 1259.59 30.8146  15
   1  -1  -5 1225.42 29.6915   9
   1  -1  -5 1221.55 29.0177   7
   1  -1  -5 1205.39 29.9666   6
   1  -1  -5 1219.19 30.0407  11
   1  -1  -5 1195.51 29.3733   1
  -1  -1   5 1287.28 30.5607  16
   1   1  -5 1305.39 29.8087   6
   1   1  -5 1312.88 29.8557   7
   1   1  -5 1284.80 29.2588   1
  -1   1   5 1271.11 30.5061  13
   1   1  -5 1276.13 30.0645   9
   1   1  -5 1285.21 29.1373  11
   1   1  -5 1272.82 30.5794  15
  -1  -1  -5 2316.84 52.4988   1
   1  -1   5 2231.13 57.5692  10
  -1  -1  -5 2372.97 52.9004  11
  -1  -1  -5 2309.23 51.4421   6
  -1  -1  -5 2226.37 50.6847   9
  -1  -1  -5 2257.16 52.4752  15
  -1  -1  -5 2249.75 51.2244   7
   1   1   5 2367.54 56.1337  10
  -1   1  -5 2093.35 50.4159   6
  -1   1  -5 2230.30 51.7695   7
  -1   1  -5 2178.49 52.2006   1
  -1   1  -5 2194.70 51.3810   9
  -1   1  -5 2069.44 51.4894  11
  -1   1  -5 2221.45 52.5545  15
   3  -1   5 817.980 28.2348  10
  -3  -1  -5 800.347 23.3862   1
  -3  -1  -5 847.498 22.7209  15
  -3  -1  -5 815.569 23.7267  11
   3  -1   5 833.435 19.8603  12
   3  -1   5 834.196 21.4713   2
  -3  -1  -5 765.681 20.7212   6
   3   1   5 819.851 22.8501   4
   3   1   5 796.758 24.9150  14
  -3   1  -5 814.280 23.2579  11
   3   1   5 811.935 26.4375  10
   3   1   5 820.409 19.3820  12
  -3   1  -5 844.079 23.7779   1
  -3   1  -5 834.803 22.4620   7
   5  -1   5 760.148 24.4053   4
   5  -1   5 717.566 26.1790  14
   5  -1   5 768.568 21.1991  12
  -5  -1  -5 760.967 24.3747   1
  -5  -1  -5 766.943 24.9048  11
   5   1   5 795.227 23.9940   4
   5   1   5 777.226 21.1341  12
   5   1   5 770.479 26.4442  14
  -5   1  -5 775.142 24.5764   1
  -5   1  -5 788.585 24.5676  11
  -7  -1  -5 420.696 18.3389  11
  -7  -1  -5 394.669 17.3043   1
   7  -1   5 408.757 15.4369  12
   7  -1   5 400.553 17.5693   4
   7   1   5 401.198 14.8244  12
  -7   1  -5 387.093 17.5719  11
   7   1   5 415.300 17.0843   4
  -7   1  -5 384.568 16.9016   1
  12  -2  -5 193.953 12.1444   4
 -12  -2   5 184.673 11.8781  11
 -12  -2   5 209.201 12.4729   8
 -12  -2   5 203.687 11.4640   5
 -12   2   5 204.907 11.8934   8
 -12   2   5 198.205 13.0194  11
  12   2  -5 201.654 11.8757   4
  10  -2  -5 465.299 17.9345   4
 -10  -2   5 463.671 17.9930   5
 -10  -2   5 435.444 17.1858  11
 -10  -2   5 455.239 18.3519  16
  10  -2  -5 465.775 15.4222   9
 -10  -2   5 458.095 17.2691   8
  10   2  -5 468.436 17.7720  14
 -10   2   5 478.403 18.7400  11
 -10   2   5 466.570 17.8406   8
  10   2  -5 462.697 18.1095   4
 -10   2   5 454.750 16.6608   5
  -8  -2   5 500.723 16.5457   8
  -8  -2   5 488.285 17.2409   5
   8  -2  -5 501.184 16.7739   4
   8  -2  -5 506.846 15.5659   9
  -8  -2   5 474.036 16.0067  11
  -8  -2   5 502.356 17.7453  16
   8   2  -5 511.338 17.4912   4
  -8   2   5 506.251 16.7628  16
  -8   2   5 505.934 16.9633   8
  -8   2   5 491.288 16.3736   5
   8   2  -5 504.894 17.0963  14
  -6  -2   5 792.363 20.9474  11
   6  -2  -5 837.520 21.6845   9
  -6  -2   5 805.249 23.0055  16
  -6  -2   5 804.000 21.5276  12
  -6  -2   5 775.794 22.4767   5
  -6  -2   5 794.166 21.4675   8
   6  -2  -5 798.489 21.8257   4
  -6   2   5 815.712 22.3166   8
  -6   2   5 794.317 21.4313  12
   6   2  -5 811.695 22.2655  14
  -6   2   5 845.937 22.8127  16
   6   2  -5 807.406 20.7051   9
  -6   2   5 782.708 22.1400   5
   6   2  -5 811.310 22.6188   4
  -6   2   5 810.993 21.2885  13
   4  -2  -5 1063.96 25.5364   7
  -4  -2   5 1107.29 28.4627  16
  -4  -2   5 1123.29 26.8534   8
  -4  -2   5 1118.70 28.2486   5
   4  -2  -5 1121.69 27.5809   9
   4  -2  -5 1136.25 27.4652   6
   4  -2  -5 1106.84 27.9936  15
   4  -2  -5 1099.15 27.0122   4
  -4  -2   5 1122.51 27.1137  12
  -4   2   5 1131.35 28.0024   8
   4   2  -5 1101.34 26.7100  15
  -4   2   5 1130.89 27.2199  13
   4   2  -5 1136.55 28.2268   4
  -4   2   5 1153.97 28.9745  16
   4   2  -5 1121.95 27.8717  14
   4   2  -5 1133.40 27.2640   9
   4   2  -5 1107.44 27.2030   7
  -4   2   5 1134.74 27.0055  12
  -2  -2   5 831.700 20.9603  16
   2  -2  -5 787.888 20.3007   9
   2  -2  -5 804.841 21.1358  15
  -2  -2   5 834.067 19.3678  12
  -2  -2   5 864.505 19.2675   8
  -2  -2   5 864.528 20.7840   5
  -2  -2   5 821.072 17.9305  13
   2  -2  -5 752.209 18.7513   7
   2  -2  -5 788.647 20.7019   6
  -2   2   5 803.876 18.9496  12
   2   2  -5 851.340 20.4408   7
   2   2  -5 810.433 20.6234  15
  -2   2   5 805.215 20.7905  13
  -2   2   5 804.414 19.3115   3
   2   2  -5 824.783 20.6159   9
  -2   2   5 803.355 19.1064  12
   0  -2  -5 991.149 25.5286  11
   0  -2  -5 977.649 24.8849   1
   0  -2   5 986.063 24.2432  16
   0  -2   5 1075.57 31.0204  10
   0  -2  -5 992.748 23.7258   7
   0  -2   5 1002.54 23.9933   5
   0  -2  -5 987.905 24.0511   9
   0  -2  -5 1001.44 25.0309   6
   0  -2   5 1029.32 22.4519  12
   0  -2  -5 989.812 25.4324  15
   0  -2   5 1008.69 22.4378  12
   0   2  -5 998.812 24.8578   9
   0   2  -5 1005.56 24.8501   7
   0   2  -5 974.369 23.7617  11
   0   2  -5 1021.86 25.5978  15
   0   2  -5 964.466 24.5961   1
  -2  -2  -5 466.257 14.7559  11
  -2  -2  -5 428.971 11.6776   9
  -2  -2  -5 439.754 14.2344   1
  -2  -2  -5 437.907 13.5499  15
   2  -2   5 433.870 11.2701  12
  -2  -2  -5 421.187 12.8288   6
   2  -2   5 420.672 18.3514  10
   2  -2   5 421.698 13.2949   2
   2   2   5 451.499 15.3500  14
  -2   2  -5 420.535 13.8723   1
   2   2   5 460.076 15.8949  10
   2   2   5 454.389 9.99170  12
   2   2   5 448.685 9.95691  12
  -2   2  -5 439.202 13.4086   7
  -2   2  -5 415.256 13.2993  11
   4  -2   5 322.887 10.4180  12
   4  -2   5 310.455 17.1483  10
  -4  -2  -5 334.432 13.5962  11
  -4  -2  -5 308.181 12.7645   1
   4   2   5 292.292 13.5291  14
  -4   2  -5 310.424 12.9475   1
  -4   2  -5 336.266 12.1628   7
  -4   2  -5 299.842 12.2749  11
   4   2   5 324.266 12.1368   4
   4   2   5 325.856 10.0043  12
   6  -2   5 204.424 13.0350  14
   6  -2   5 205.792 9.58683  12
  -6  -2  -5 196.315 11.8716  11
  -6  -2  -5 191.116 11.2725   1
   6  -2   5 186.379 10.8231   4
  -6   2  -5 194.898 11.1301  11
   6   2   5 200.477 10.5745   4
   6   2   5 191.814 12.2832  14
  -6   2  -5 193.985 11.4711   1
   6   2   5 185.601 8.78837  12
   8  -2   5 58.5188 6.04280  12
   8   2   5 72.0107 6.32849  12
  11  -3  -5 214.801 12.0996   4
 -11  -3   5 218.854 12.5318   5
 -11  -3   5 220.902 12.1481   8
 -11   3   5 209.801 13.0119  11
 -11   3   5 224.404 12.4206   8
  11   3  -5 235.901 12.4105   4
  -9  -3   5 1019.10 30.1127   5
  -9  -3   5 1019.36 28.8819   8
  -9  -3   5 969.074 28.3151  11
   9  -3  -5 984.665 27.3468   9
  -9  -3   5 1000.57 30.7177  16
   9  -3  -5 1010.27 29.1564   4
   9   3  -5 999.531 29.6070   4
  -9   3   5 960.991 28.0507  16
  -9   3   5 1004.04 29.1446   8
   9   3  -5 1039.26 30.3036  14
  -9   3   5 950.300 27.7718   5
  -7  -3   5 653.182 21.0655  16
   7  -3  -5 643.268 19.2714   4
  -7  -3   5 641.484 18.5846  11
  -7  -3   5 665.226 20.7910   5
  -7  -3   5 684.631 19.3471   8
   7  -3  -5 695.742 19.3643   9
  -7   3   5 651.922 19.4484   5
   7   3  -5 675.467 20.4748   4
   7   3  -5 675.127 20.5107  14
  -7   3   5 558.089 18.4885   1
  -7   3   5 684.065 19.8414  16
   7   3  -5 654.911 17.4965   9
  -7   3   5 672.496 19.3091  13
  -7   3   5 638.105 18.8476  12
  -7   3   5 691.454 20.3300   8
  -5  -3   5 2521.47 59.2440   8
  -5  -3   5 2576.11 61.6395  16
   5  -3  -5 2562.88 59.5829   4
   5  -3  -5 2660.30 59.7183   6
   5  -3  -5 2627.27 60.2874   9
  -5  -3   5 2543.52 61.1548   5
  -5  -3   5 2606.33 60.1099  12
   5   3  -5 2648.22 61.3346  14
  -5   3   5 2660.43 61.4966  16
  -5   3   5 2648.48 60.9681   8
  -5   3   5 2575.80 59.8797  12
  -5   3   5 2626.38 60.9912   5
   5   3  -5 2592.05 59.2388   9
   5   3  -5 2568.17 61.0102   4
  -5   3   5 2611.64 60.2058  13
   3  -3  -5 1224.89 29.9514   6
  -3  -3   5 1278.66 29.4736  12
  -3  -3   5 1247.96 30.5120  16
   3  -3  -5 1191.43 29.6625   9
   3  -3  -5 1183.92 28.4253   4
   3  -3  -5 1191.47 30.4284  15
  -3  -3   5 1231.16 28.1148   8
  -3  -3   5 1264.04 30.1933   5
  -3   3   5 1239.29 30.5414   8
   3   3  -5 1231.51 29.6946   9
  -3   3   5 1206.90 28.9716  12
   3   3  -5 1256.30 29.8206   7
   3   3  -5 1258.32 28.5367   3
   3   3  -5 1198.94 29.1160  15
  -3   3   5 1208.83 28.1067   3
  -3   3   5 1213.23 30.1407  13
   1  -3  -5 2737.51 62.9647   7
   1  -3  -5 2863.44 65.5579   6
  -1  -3   5 2883.59 64.3467   5
  -1  -3   5 2850.27 64.6110  16
   1  -3  -5 2805.93 64.3920   9
   1  -3  -5 2833.51 65.8291  15
  -1  -3   5 2915.01 63.8198  12
   1  -3  -5 2894.88 66.1274  11
  -1   3   5 2846.42 64.2949  14
   1   3  -5 2900.23 65.5039  15
   1   3  -5 2907.76 65.1864   7
  -1   3   5 2929.42 66.4356  13
   1   3  -5 2758.96 64.2052   1
   1   3  -5 2882.09 65.2821   9
  -1   3   5 2890.00 63.1161  12
  -1   3   5 2935.27 65.7940  12
  -1   3   5 2962.76 64.8833   3
  -1  -3  -5 383.316 10.7923   9
  -1  -3  -5 418.808 13.1032   1
  -1  -3  -5 396.466 13.4024  11
  -1  -3  -5 392.139 12.4275   6
   1  -3   5 401.831 12.9330   2
  -1  -3  -5 407.599 12.6378  15
   1  -3   5 408.038 17.5640  10
   1  -3   5 416.114 10.8884  12
   1   3   5 396.342 13.2216  14
   1   3   5 420.844 9.67469  12
   1   3   5 406.665 9.68407  12
   1   3   5 410.672 13.5114  10
  -1   3  -5 420.345 12.6321   7
  -1   3  -5 381.507 11.3987  11
  -1   3  -5 410.879 12.8060   1
   3  -3   5 1642.60 40.3169   2
  -3  -3  -5 1625.83 41.5178   1
   3  -3   5 1525.42 48.2371  10
  -3  -3  -5 1650.72 39.9178   6
   3  -3   5 1646.36 38.8249  12
  -3  -3  -5 1728.88 42.8817  11
  -3  -3  -5 1667.19 40.1155  15
  -3   3  -5 1604.84 40.5480   7
   3   3   5 1631.96 39.8721   4
   3   3   5 1708.76 38.0265  12
  -3   3  -5 1550.19 40.4904  11
  -3   3  -5 1574.09 41.5017   1
   3   3   5 1660.73 43.1179  14
   5  -3   5 73.8722 5.32306  12
  -5  -3  -5 70.3587 6.69642   1
   5  -3   5 79.1763 7.48858   4
  -5  -3  -5 77.0319 6.93283  11
   5   3   5 86.2262 6.36191   4
  -5   3  -5 80.2783 6.77909   7
   5   3   5 77.3367 5.00189  12
   5   3   5 72.4200 7.50690  14
  -5   3  -5 84.1823 6.79709  11
  -5   3  -5 77.2788 7.16614   1
  -7  -3  -5 761.127 26.4260   1
   7  -3   5 780.337 26.9902   4
  -7  -3  -5 771.179 27.5223  11
   7  -3   5 755.626 24.0318  12
   7   3   5 738.200 23.2623  12
  -7   3  -5 778.312 26.8354   1
  -7   3  -5 770.730 26.3765  11
 -10  -4   5 46.6384 6.33471  16
  10  -4  -5 48.1324 5.23682   9
 -10  -4   5 56.7486 6.66152   5
 -10  -4   5 50.6544 5.72705   8
  10  -4  -5 47.3575 5.72636   4
 -10   4   5 46.0403 6.78666  11
  10   4  -5 55.1557 6.94274   4
 -10   4   5 49.9622 6.34033   8
  10   4  -5 54.9430 6.38808  14
  -8  -4   5 4.96066 2.22897   8
  -8  -4   5 14.1558 3.84089   5
   8  -4  -5 2.91397 1.65764   4
   8  -4  -5 2.91363 2.25837   9
  -8  -4   5 6.42596 3.09898  16
  -8   4   5 5.17212 2.04563  16
  -8   4   5 3.69170 2.12926   5
   8   4  -5 2.38376 2.27271  14
  -8   4   5 0.39156 2.32721   8
   8   4  -5 0.89191 2.40200   4
  -8   4   5 1.17154 2.08531  13
  -6  -4   5 55.4061 5.12619  16
  -6  -4   5 51.4510 3.56746   8
  -6  -4   5 60.9244 5.49370   5
   6  -4  -5 51.9384 3.80227   4
  -6  -4   5 54.3265 3.95069  12
   6  -4  -5 49.7875 3.63440   6
   6  -4  -5 54.6310 4.41348   9
   6   4  -5 48.9892 4.58120   4
   6   4  -5 47.0422 3.18682   9
  -6   4   5 51.2749 4.28251  16
  -6   4   5 62.1753 4.67939   8
  -6   4   5 52.0484 3.82196   1
  -6   4   5 46.7197 4.21068  13
   6   4  -5 48.2974 4.34842  14
  -6   4   5 60.2095 4.21306  12
  -6   4   5 51.4929 4.31049   5
   4  -4  -5 126.234 5.76971   9
  -4  -4   5 134.903 6.55393   5
  -4  -4   5 138.127 6.76114  16
  -4  -4   5 130.940 5.82070  12
   4  -4  -5 122.231 5.62205   6
  -4  -4   5 127.120 4.68999   8
   4   4  -5 138.892 6.79455  14
  -4   4   5 125.582 6.17140  13
   4   4  -5 124.803 5.33961   9
  -4   4   5 126.852 5.53812  12
   4   4  -5 135.442 6.50476   4
  -4   4   5 136.288 6.84207  16
   4   4  -5 131.469 5.89793   7
  -4   4   5 120.586 4.85622   3
   4   4  -5 123.461 4.53304  15
   4   4  -5 122.738 4.92912   3
  -4   4   5 128.053 6.23895   8
   2  -4  -5 21.4841 2.84672  15
   2  -4  -5 21.2082 2.36659   9
  -2  -4   5 20.9808 2.11596  16
  -2  -4   5 21.2435 2.45841   5
  -2  -4   5 25.0497 2.16475  12
   2  -4  -5 19.9074 2.43260   6
  -2   4   5 25.1324 2.67223  13
   2   4  -5 20.2866 2.11758   3
  -2   4   5 22.7353 2.00723  12
   2   4  -5 21.6965 2.58261   7
   2   4  -5 21.8427 2.60013   9
   2   4  -5 20.3128 2.10972  15
   2   4  -5 21.0699 1.78916   1
  -2   4   5 22.1001 2.00619   3
   0  -4   5 368.836 10.6393  12
   0  -4  -5 349.252 10.1500   9
   0  -4  -5 379.867 11.8856  15
   0  -4  -5 359.321 11.8669   6
   0  -4   5 377.702 16.2743  10
   0  -4  -5 381.085 12.6002  11
   0  -4   5 362.957 12.2700   2
   0  -4   5 356.943 9.98626  16
   0   4  -5 358.231 11.2790   1
   0   4   5 368.887 11.8058   3
   0   4   5 334.419 10.9757  14
   0   4   5 374.377 9.94680  12
   0   4   5 379.320 13.0871  13
   0   4  -5 382.330 11.7018   7
  -2  -4  -5 127.019 7.04410   1
   2  -4   5 123.618 5.46808  12
  -2  -4  -5 115.559 6.19901   6
  -2  -4  -5 116.755 5.82282  15
   2  -4   5 122.430 10.1977  10
   2  -4   5 128.343 7.00890   2
  -2  -4  -5 127.105 7.37301  11
  -2   4  -5 118.236 6.43293   1
   2   4   5 120.375 4.91379  12
  -2   4  -5 121.207 6.52101   7
   2   4   5 119.905 7.07209  14
  -4  -4  -5 199.019 10.2071   1
  -4  -4  -5 185.965 8.30517   6
  -4  -4  -5 192.870 10.6264  11
   4  -4   5 174.393 7.97269  12
   4  -4   5 165.568 8.41232   2
  -4   4  -5 164.144 9.48303   1
  -4   4  -5 164.106 8.63370  11
   4   4   5 186.182 10.4863  14
   4   4   5 187.200 7.57809  12
  -4   4  -5 172.823 8.83293   7
   6  -4   5 202.997 9.89116  12
   6  -4   5 201.662 12.2010   4
  -6  -4  -5 216.141 12.3496  11
  -6  -4  -5 204.382 11.5553   1
   6   4   5 200.711 9.49816  12
  -6   4  -5 179.829 10.9476  11
   6   4   5 184.980 12.1862  14
  -6   4  -5 206.547 11.9542   1
 -11  -5   5 599.227 23.0647   5
  11  -5  -5 573.196 21.2026   4
  11  -5  -5 584.008 20.0683   9
  11   5  -5 620.004 22.6943   4
 -11   5   5 603.850 22.0860   8
  -9  -5   5 215.871 12.5059  16
  -9  -5   5 227.048 12.5074   5
   9  -5  -5 248.273 11.0486   9
   9  -5  -5 207.212 10.1293   4
  -9   5   5 229.031 11.6113   8
   9   5  -5 218.146 11.8843  14
   9   5  -5 211.002 11.4137   4
  -9   5   5 223.346 11.1762  13
  -7  -5   5 844.347 23.3007   8
  -7  -5   5 852.649 25.6739   5
   7  -5  -5 905.912 24.7119   9
   7  -5  -5 818.660 23.1818   4
  -7  -5   5 849.323 26.4188  16
  -7   5   5 845.960 23.4293   1
  -7   5   5 843.856 23.7372   5
  -7   5   5 859.747 24.9863   8
   7   5  -5 862.231 26.0866  14
  -7   5   5 816.360 24.2692  13
  -7   5   5 842.255 23.9874  16
   7   5  -5 817.829 24.7710   4
  -5  -5   5 315.057 11.3121   2
   5  -5  -5 338.142 11.7457   9
   5  -5  -5 326.904 10.8103   6
  -5  -5   5 348.696 12.8250  16
  -5  -5   5 348.800 12.4088   5
  -5  -5   5 339.640 11.6792  12
   5   5  -5 330.101 10.4152   9
   5   5  -5 351.050 10.7188   3
   5   5  -5 334.161 11.5303   7
   5   5  -5 363.945 13.1500  14
  -5   5   5 316.533 11.1922  12
  -5   5   5 320.801 11.9270  13
   5   5  -5 339.555 12.1855   4
  -5   5   5 330.895 12.1554   8
  -5   5   5 329.347 12.2227  16
   3  -5  -5 1642.89 38.5467   6
  -3  -5   5 1528.37 38.6873  16
   3  -5  -5 1552.81 37.9402   9
  -3  -5   5 1615.15 38.5141   5
   3  -5  -5 1595.10 39.1920  15
  -3  -5   5 1576.02 39.1630   2
  -3  -5   5 1572.37 38.2046  12
   3   5  -5 1542.94 37.6093   3
  -3   5   5 1571.02 37.7153  12
  -3   5   5 1577.90 39.0797   8
  -3   5   5 1573.71 39.3046  13
  -3   5   5 1573.83 37.1390   3
   3   5  -5 1561.06 37.7247   9
   3   5  -5 1562.24 38.1756   7
  -1  -5   5 730.803 19.1030  12
   1  -5  -5 707.905 19.7681  15
  -1  -5   5 685.425 18.2994  16
  -1  -5   5 736.664 20.7893   2
   1  -5  -5 689.329 18.2497   9
   1  -5  -5 706.908 19.8777   6
  -1  -5   5 682.468 24.6574  10
   1   5  -5 729.195 19.6125   3
  -1   5   5 683.278 19.0815   3
  -1   5   5 758.465 21.3472  13
   1   5  -5 678.039 18.5456   1
  -1   5   5 732.926 18.4755  12
   1   5  -5 704.338 19.3000   7
  -1  -5  -5 1678.78 42.7075  11
   1  -5   5 1692.22 40.4458  12
   1  -5   5 1630.48 48.9225  10
  -1  -5  -5 1647.53 40.7961  15
  -1  -5  -5 1676.43 41.7080   6
   1  -5   5 1770.69 42.6891   2
   1   5   5 1747.44 42.2057   3
  -1   5  -5 1627.40 41.2762   1
  -1   5  -5 1729.31 41.2589   7
   1   5   5 1657.09 43.6708  13
   1   5   5 1663.26 39.4775  12
   1   5   5 1641.22 41.2204  14
  -3  -5  -5 666.510 20.3354   6
  -3  -5  -5 653.162 21.2633   1
   3  -5   5 685.430 19.7166  12
  -3  -5  -5 669.703 19.0533  15
   3  -5   5 711.375 21.0927   2
  -3  -5  -5 688.301 22.2862  11
   3   5   5 658.259 21.5639  14
   3   5   5 715.975 21.9773   3
   3   5   5 661.917 18.7934  12
  -3   5  -5 701.881 20.6551   7
  -3   5  -5 696.725 21.4914   1
  -5  -5  -5 1038.09 31.8181  11
   5  -5   5 954.290 27.8683  12
  -5  -5  -5 962.839 29.7603   1
   5  -5   5 983.038 30.5972   4
   5   5   5 947.368 30.7336  14
   5   5   5 1034.93 30.5034   3
  -5   5  -5 958.104 30.1947   1
  -5   5  -5 930.388 28.3491   7
   5   5   5 999.508 27.4508  12
  -7  -5  -5 266.996 14.4059   1
   7  -5   5 302.781 13.5777  12
   7  -5   5 280.357 15.1466   4
  -7  -5  -5 295.889 15.9738  11
   7   5   5 274.818 12.3112  12
  -7   5  -5 289.424 15.2637   1
   7   5   5 297.187 15.1666   3
  10  -6  -5 11.4384 3.17373   9
 -10  -6   5 13.2932 4.11235   5
  10   6  -5 13.7551 4.25021   4
 -10   6   5 21.9117 4.87893   8
  -8  -6   5 41.4951 6.11452   5
  -8  -6   5 40.6103 5.84677  16
   8  -6  -5 41.5543 5.19246   9
  -8   6   5 36.1189 4.74175   1
   8   6  -5 31.8618 5.29670  14
  -8   6   5 34.8676 4.74323   8
   8   6  -5 38.2376 5.00086   4
  -8   6   5 36.8992 5.26380  13
  -6  -6   5 10.8963 3.40685   5
  -6  -6   5 7.95089 2.28028   2
   6  -6  -5 10.2020 2.14683   6
  -6  -6   5 6.70735 2.91084  16
   6  -6  -5 8.14886 2.56474   9
   6  -6  -5 5.65359 2.24601   2
  -6   6   5 9.45887 2.25880  16
  -6   6   5 8.34833 2.38120   5
  -6   6   5 10.3871 2.42397  12
   6   6  -5 9.11768 2.58462  14
   6   6  -5 10.5410 2.91113   4
  -6   6   5 6.82444 2.66268   8
   6   6  -5 6.95262 2.50160   7
  -6   6   5 15.4987 3.31032  13
   4  -6  -5 3.08001 1.65439   6
  -4  -6   5 5.59759 2.20359  16
   4  -6  -5 3.95841 1.83727   9
  -4  -6   5 3.13463 1.70557  12
  -4  -6   5 3.26812 1.71762   2
   4  -6  -5 4.58476 2.20234   2
  -4  -6   5 7.42676 2.07862   5
   4   6  -5 3.65659 1.61229   3
   4   6  -5 3.13065 1.47234   9
  -4   6   5 3.08988 2.01223   8
  -4   6   5 4.69120 1.50721   3
  -4   6   5 3.62573 2.19025  13
  -4   6   5 4.57976 1.68013  12
   4   6  -5 5.19373 2.27742  14
   2  -6  -5 205.165 8.59037   6
  -2  -6   5 195.027 11.7527  10
  -2  -6   5 213.214 9.21742   2
  -2  -6   5 204.770 7.60036   5
  -2  -6   5 184.847 7.77976  16
   2  -6  -5 198.624 8.50712  15
   2  -6  -5 204.132 7.64315   9
  -2  -6   5 197.917 8.16197  12
  -2   6   5 210.284 7.89460  12
  -2   6   5 204.269 9.23369  13
   2   6  -5 196.927 7.20780   1
   2   6  -5 195.317 8.09514   7
  -2   6   5 206.887 7.98293   3
   2   6  -5 199.403 8.11198   3
   0  -6  -5 6.89146 2.10658  11
   0  -6   5 6.59434 2.87029  10
   0  -6   5 3.23041 2.63859   2
   0  -6   5 8.30180 2.00987  12
   0  -6  -5 6.03455 2.22781   6
   0  -6  -5 5.63770 1.79813  15
   0   6   5 2.87184 1.29436  12
   0   6   5 7.81017 2.16639   3
   0   6  -5 5.92362 1.74448   7
   0   6   5 6.32598 2.60219  13
   0   6  -5 3.18553 1.93946   3
   0   6  -5 3.46484 1.68140   1
  -2  -6  -5 227.713 10.9361  11
  -2  -6  -5 202.643 9.58375   6
   2  -6   5 207.491 8.82810  12
  -2  -6  -5 209.220 8.32258  15
   2  -6   5 200.872 13.7799  10
   2  -6   5 212.984 10.0259   2
   2   6   5 211.336 11.1497  13
  -2   6  -5 203.710 9.18193   7
   2   6   5 203.913 9.46484  14
   2   6   5 200.506 8.19188  12
  -2   6  -5 216.982 9.91291   1
   2   6   5 210.236 9.88198   3
   4  -6   5 102.008 7.70499   2
   4  -6   5 92.5002 6.51671  12
  -4  -6  -5 88.1554 8.07228  11
  -4  -6  -5 81.6139 6.13088   6
   4   6   5 80.1761 5.75029  12
   4   6   5 95.2311 8.33170   3
  -4   6  -5 93.2952 7.85536   1
   4   6   5 85.3905 7.44394  14
  -4   6  -5 83.3438 6.69832   7
   6  -6   5 58.0532 6.02841  12
  -6  -6  -5 65.1971 8.37061  11
   6  -6   5 55.0016 7.32461   4
   6   6   5 64.2150 7.97373   3
   6   6   5 65.6998 5.94508  12
  -6   6  -5 55.4715 7.29589   1
  -9  -7   5 378.385 16.8802   5
  -9  -7   5 360.074 17.6659  16
   9  -7  -5 387.987 15.3805   9
  -9   7   5 375.704 15.8011   8
   9   7  -5 397.697 16.2974   4
  -9   7   5 373.184 15.9770  13
   7  -7  -5 1201.59 33.8169   2
   7  -7  -5 1202.74 33.4436   9
  -7  -7   5 1246.01 36.2118  16
  -7  -7   5 1258.03 35.3197   5
  -7   7   5 1164.75 33.4413   8
  -7   7   5 1174.07 32.9290   1
   7   7  -5 1242.22 35.8210  14
   7   7  -5 1217.82 33.2162   7
  -7   7   5 1192.49 34.1012  13
   7   7  -5 1245.07 34.1467   4
   5  -7  -5 865.492 24.3806   9
   5  -7  -5 850.778 25.0619   2
  -5  -7   5 840.543 25.9827  16
  -5  -7   5 834.347 24.1776   2
   5  -7  -5 868.314 23.1670   6
  -5  -7   5 858.595 25.3115   5
  -5   7   5 851.007 24.8612   8
  -5   7   5 833.960 24.0371  12
  -5   7   5 869.681 25.4523  13
   5   7  -5 856.281 24.0573   7
   5   7  -5 872.892 26.4231  14
   5   7  -5 810.510 23.4129   3
   3  -7  -5 1725.86 42.4756   2
  -3  -7   5 1654.43 42.6684   2
  -3  -7   5 1598.23 47.3440  10
   3  -7  -5 1674.43 40.9669   9
  -3  -7   5 1678.46 41.3125   5
  -3  -7   5 1597.52 41.9100  16
   3  -7  -5 1725.49 41.7335   6
  -3  -7   5 1669.78 41.8509  12
  -3   7   5 1706.75 43.3725  13
   3   7  -5 1696.71 41.4524   7
  -3   7   5 1646.29 41.1221  12
  -3   7   5 1679.90 40.8962   3
   3   7  -5 1648.23 41.3623   3
  -3   7   5 1667.51 42.4222   8
   1  -7  -5 544.100 17.1271   6
  -1  -7   5 488.269 21.4390  10
   1  -7  -5 522.220 16.3094  15
  -1  -7   5 537.653 17.9774   2
   1  -7  -5 531.722 14.8735   9
  -1  -7   5 519.868 16.4894  12
  -1   7   5 527.185 16.4608   3
   1   7  -5 508.850 15.6096   1
  -1   7   5 516.206 15.8599  12
   1   7  -5 525.780 16.8292   3
   1   7  -5 532.580 16.1998   7
  -1   7   5 529.113 18.0000  13
  -1  -7  -5 907.940 25.0608  15
  -1  -7  -5 942.250 27.7074  11
   1  -7   5 870.011 33.4516  10
   1  -7   5 915.827 25.8144  12
  -1  -7  -5 950.983 26.9872   6
   1  -7   5 968.670 27.7418   2
  -1   7  -5 951.010 25.8725   7
   1   7   5 963.997 28.9144  13
  -1   7  -5 939.999 26.5483   1
   1   7   5 939.825 27.0738   3
   1   7   5 923.197 25.2369  12
   3  -7   5 94.6000 6.71064  12
  -3  -7  -5 107.245 7.16440   6
  -3  -7  -5 101.102 8.22392  11
   3  -7   5 118.820 8.52006   2
  -3   7  -5 108.700 7.85991   1
   3   7   5 104.021 8.47774  13
   3   7   5 114.113 8.05365   3
   3   7   5 109.090 6.54826  12
  -3   7  -5 105.723 7.15378   7
   3   7   5 107.063 9.72042  14
   5  -7   5 454.569 18.7851   4
   5  -7   5 450.108 17.2824  12
  -5  -7  -5 476.983 19.8710  11
  -5  -7  -5 430.837 16.8599   6
   5   7   5 409.852 18.1079  14
   5   7   5 468.810 16.7244  12
   5   7   5 466.083 18.7952   3
  -5   7  -5 478.013 19.2772   1
  -5   7  -5 477.055 17.2210   7
 -10  -8   5 80.6202 8.35111   5
  10  -8  -5 83.2007 7.78977   9
  10   8  -5 59.3554 6.78151   7
 -10   8   5 75.0599 7.47706   8
  -8  -8   5 452.743 19.5680  16
   8  -8  -5 451.246 17.2964   9
  -8  -8   5 463.326 18.6703   5
  -8   8   5 473.785 17.5094   1
  -8   8   5 437.801 17.8006  13
   8   8  -5 466.893 19.4913  14
   8   8  -5 479.072 17.2496   7
   8   8  -5 477.178 17.9157   4
  -8   8   5 453.643 17.2420   8
  -6  -8   5 318.519 13.9517   5
  -6  -8   5 307.969 14.4548  16
   6  -8  -5 304.243 13.3870   2
   6  -8  -5 301.397 12.3593   9
   6   8  -5 284.621 11.7612   3
   6   8  -5 307.711 12.4654   7
  -6   8   5 310.730 12.6940   8
  -6   8   5 297.221 13.2568  13
   6   8  -5 289.746 13.9300  14
  -4  -8   5 230.996 10.7679   2
   4  -8  -5 252.677 10.1867   9
  -4  -8   5 253.299 10.7796   5
   4  -8  -5 228.707 10.5109   2
   4  -8  -5 231.080 9.60280   6
  -4  -8   5 226.984 10.9579  16
  -4   8   5 234.599 10.7456   8
  -4   8   5 234.127 11.2259  13
  -4   8   5 237.770 9.71091   3
   4   8  -5 227.987 10.0364   3
  -4   8   5 234.755 10.0701  12
   4   8  -5 239.775 11.5429  14
   4   8  -5 233.319 10.1669   7
   2  -8  -5 638.515 18.4727   9
  -2  -8   5 678.628 21.4486   2
  -2  -8   5 642.968 20.1855  12
   2  -8  -5 663.636 20.3575   2
   2  -8  -5 657.968 20.2307   6
   2  -8  -5 636.265 19.9175  15
  -2  -8   5 620.635 24.9198  10
  -2   8   5 659.780 19.6246  12
  -2   8   5 635.805 19.6528   3
   2   8  -5 633.908 20.0799   3
  -2   8   5 649.164 21.3425  13
   2   8  -5 655.295 19.4997   7
  -2   8   5 662.533 20.5822   8
   0  -8  -5 80.4574 5.33932  15
   0  -8   5 76.6481 8.76063  10
   0  -8  -5 78.6556 5.97213   6
   0  -8   5 79.9434 7.39533   2
   0  -8   5 82.3074 6.00889  12
   0   8   5 80.3039 5.52926  12
   0   8   5 81.1002 6.91311  13
   0   8  -5 78.5419 5.68578   1
   0   8  -5 78.0138 5.87106   3
   0   8   5 77.2136 5.92435   3
   0   8  -5 76.0229 5.71768   7
   2  -8   5 312.897 12.9550  12
   2  -8   5 316.241 14.5024   2
  -2  -8  -5 316.155 14.3136  11
  -2  -8  -5 318.913 13.4062   6
   2   8   5 313.294 14.9247  13
   2   8   5 314.705 12.3915  12
  -2   8  -5 328.945 13.6598   1
  -2   8  -5 312.451 12.6059   7
   2   8   5 308.820 13.8921   3
  -4  -8  -5 111.163 9.41943  11
   4  -8   5 104.731 7.52445  12
  -4  -8  -5 107.001 8.27631   6
   4  -8   5 109.243 8.95674   2
   4   8   5 110.134 9.30873  13
   4   8   5 113.790 7.55383  12
  -4   8  -5 109.423 8.90516   1
  -4   8  -5 111.693 7.87779   7
   4   8   5 105.110 8.37999   3
   9  -9  -5 964.481 30.5787   9
  -9  -9   5 1071.22 33.8746   5
   9   9  -5 1002.13 30.7896   7
  -7  -9   5 10.6872 4.02875  16
  -7  -9   5 11.9190 4.51436   5
   7  -9  -5 10.2014 3.55213   9
   7  -9  -5 14.1519 4.47933   2
  -7   9   5 13.0129 4.02338   1
  -7   9   5 8.54199 3.67638  13
   7   9  -5 8.13992 3.64863  14
  -7   9   5 16.0064 3.88778   8
   7   9  -5 13.7817 3.94802   7
   5  -9  -5 1190.59 33.1790   2
  -5  -9   5 1111.33 31.8530   2
  -5  -9   5 1147.23 32.6388   5
   5  -9  -5 1185.43 32.0833   9
  -5  -9   5 1079.47 33.4443  16
   5   9  -5 1163.45 31.7009   7
   5   9  -5 1157.44 34.5851  14
   5   9  -5 1115.49 31.6336   3
  -5   9   5 1157.47 32.4565   8
  -5   9   5 1122.12 33.3804  13
   3  -9  -5 10.1931 2.63455   9
   3  -9  -5 8.23057 2.45262  15
  -3  -9   5 15.4573 3.60822   2
   3  -9  -5 8.04976 3.17673   2
   3  -9  -5 10.7925 3.03441   6
   3   9  -5 8.76816 2.89057   7
  -3   9   5 8.95915 2.93252   3
  -3   9   5 11.3797 3.30925  13
   3   9  -5 12.3365 2.93632   3
  -3   9   5 11.0930 2.80235   8
  -3   9   5 9.11007 2.53647  12
   1  -9  -5 1531.36 40.6340   6
  -1  -9   5 1540.78 42.0301   2
  -1  -9   5 1455.95 40.0980  12
  -1   9   5 1546.36 40.6132   3
  -1   9   5 1542.07 39.7631  12
   1   9  -5 1548.04 39.4764   7
   1   9  -5 1525.78 39.4480   1
   1   9  -5 1492.96 40.6084   3
  -1   9   5 1541.88 42.3358  13
  -1  -9  -5 155.000 9.42626   6
   1  -9   5 159.716 10.5352   2
   1  -9   5 142.404 8.71176  12
  -1   9  -5 144.888 8.73763   1
   1   9   5 139.412 9.31303  13
   1   9   5 148.995 8.32336  12
   1   9   5 142.892 8.95264   3
  -1   9  -5 156.178 8.51161   7
  -3  -9  -5 1310.80 37.8846   6
  -3  -9  -5 1361.96 39.3740  11
   3  -9   5 1281.77 37.2476  12
   3  -9   5 1386.56 38.9310   2
  -3   9  -5 1288.74 38.0307   1
   3   9   5 1256.25 39.9308  13
   3   9   5 1341.04 38.9911   3
   3   9   5 1347.72 36.7715  12
  -3   9  -5 1338.78 36.3276   7
  -5  -9  -5 230.804 11.9747   6
   5  -9   5 215.542 12.0513  12
  -5  -9  -5 229.394 13.7195  11
   5  -9   5 224.872 13.1116   4
   5   9   5 234.463 13.6854   3
   5   9   5 213.863 11.5056  12
  -5   9  -5 224.519 11.5817   7
  -5   9  -5 231.958 13.0026   1
  -8 -10   5 37.3541 6.06974   5
   8 -10  -5 43.7032 6.24185   9
  -8 -10   5 29.7460 5.73273   6
  -8  10   5 30.2110 5.51009   8
  -8  10   5 29.9713 5.03066   1
   8  10  -5 31.2253 5.51591   7
  -6 -10   5 4.82979 3.60271   5
   6 -10  -5 0.40110 2.69483   9
   6 -10  -5 6.01042 3.90864   2
   6  10  -5 1.94537 3.26110  14
  -6  10   5 2.11068 2.57421   8
   6  10  -5 -0.0315 2.61964   7
  -6  10   5 2.46903 3.19031  13
   4 -10  -5 -0.0163 1.98699   9
   4 -10  -5 0.26547 2.07427   2
  -4 -10   5 0.77189 3.07247   2
   4 -10  -5 0.93621 1.66099   6
  -4  10   5 1.94213 2.69751   3
  -4  10   5 2.53873 3.12124  13
  -4  10   5 0.75809 2.34834   8
   4  10  -5 4.18623 2.72994   7
   4  10  -5 3.38626 2.75549   3
  -2 -10   5 89.0731 7.56904   2
   2 -10  -5 85.1972 7.09320   6
   2 -10  -5 98.4189 7.49197   2
   2  10  -5 75.3858 6.90196   3
  -2  10   5 81.1648 7.41271  13
   2  10  -5 81.0616 5.91161   7
  -2  10   5 90.7306 7.16435   8
  -2  10   5 75.1476 6.26789  12
  -2  10   5 81.3976 7.03792   3
   0 -10   5 7.92863 3.09126  12
   0 -10  -5 14.3870 4.03092   6
   0 -10   5 17.2592 5.37506   2
   0  10   5 12.6769 3.15943  12
   0  10  -5 10.0739 3.22619   1
   0  10  -5 12.1098 3.32296   7
   0  10  -5 16.0521 3.62786   3
   0  10   5 13.6682 4.15518  13
   0  10   5 16.8834 4.42731   3
  -2 -10  -5 44.5941 6.19504   6
   2 -10   5 57.4381 7.97673   2
   2 -10   5 47.3690 6.10472  12
   2  10   5 57.3577 5.79697  12
  -2  10  -5 60.6163 6.52368   1
   2  10   5 49.8892 6.48253   3
  -2  10  -5 61.6130 6.42121   7
   4 -10   5 5.03614 3.51180   4
  -4 -10  -5 4.87556 3.46448   6
   4 -10   5 2.82046 4.02926   2
   4 -10   5 3.70841 3.04176  12
  -4  10  -5 3.12279 2.92981   7
  -4  10  -5 3.28219 2.90887   1
   4  10   5 -0.5491 3.92142   3
   4  10   5 2.41431 2.52034  12
  -7 -11   5 415.189 18.3385   5
   7 -11  -5 456.704 18.5571   2
   7 -11  -5 464.641 17.9633   9
   7  11  -5 427.674 16.9841   7
  -7  11   5 442.977 18.5748   1
  -5 -11   5 792.486 25.5876   6
   5 -11  -5 791.628 26.2815   2
  -5  11   5 799.262 25.0426   8
   5  11  -5 752.274 23.7534   7
   5  11  -5 729.712 24.7971   3
   3 -11  -5 602.157 20.1043   6
  -3 -11   5 539.935 19.4777   6
   3 -11  -5 593.261 21.0129   2
   3 -11  -5 582.385 20.2684  15
  -3 -11   5 567.236 21.2261   2
   3  11  -5 559.654 20.5183   3
  -3  11   5 567.107 21.3826  13
  -3  11   5 564.451 20.0907   8
  -3  11   5 595.149 20.1801   3
   3  11  -5 581.377 19.2891   7
   1 -11  -5 416.569 16.9774   6
  -1 -11   5 425.419 18.0294   2
  -1  11   5 404.565 16.0214  12
  -1  11   5 448.700 17.4518   3
  -1  11   5 418.087 16.6337   8
   1  11  -5 409.198 15.4327   7
   1  11  -5 412.024 17.0277   3
  -1  11   5 427.279 18.5199  13
   1 -11   5 314.615 15.5637   2
  -1 -11  -5 300.589 14.7536   6
   1  11   5 307.719 13.9194  12
  -1  11  -5 301.830 12.9042   7
   1  11   5 348.150 15.8026   3
  -1  11  -5 311.081 14.2815   1
   3 -11   5 101.770 9.90048   2
  -3 -11  -5 95.6454 8.76283   6
   3  11   5 95.2081 9.24928   3
   3  11   5 97.2385 7.75819  12
   4 -12  -5 161.506 9.70196  15
   4 -12  -5 169.630 10.9740   2
  -4 -12   5 119.089 10.0113   2
   4 -12  -5 153.902 9.07598   9
  -4 -12   5 161.871 10.4551   6
   4  12  -5 167.520 9.45635   7
   4  12  -5 147.453 9.49165   3
  -2 -12   5 11.7302 4.94615   2
   2 -12  -5 11.6629 3.97701   2
   2 -12  -5 14.4376 4.14267   6
  -2  12   5 11.2909 4.18229   3
   2  12  -5 9.10413 3.79452   3
  -2  12   5 13.7779 3.73822   8
   2  12  -5 10.2298 3.23883   7
   0 -12   5 224.504 13.7121   2
   0 -12  -5 215.535 12.4186   6
   0  12   5 212.516 11.9073   3
   0  12  -5 219.829 12.0895   3
   0  12   5 202.819 11.4244   8
   0  12   5 215.461 11.4710  12
 -12   0   6 8.85730 4.35958  11
  12   0  -6 10.9628 3.36355   4
 -12   0   6 9.46517 4.39196   8
 -10   0   6 1467.13 40.9421  16
  10   0  -6 1425.39 40.8150   4
 -10   0   6 1492.52 40.4740   8
 -10   0   6 1484.39 40.6852  11
 -10   0   6 1467.34 40.4982   5
  -8   0   6 128.531 7.67290  16
   8   0  -6 132.618 6.53339   9
  -8   0   6 121.516 7.44029   5
   8   0  -6 134.423 7.48560   4
  -8   0   6 126.561 7.42782   8
  -6   0   6 3725.18 86.7663   5
  -6   0   6 3861.56 86.0555   8
   6   0  -6 3715.75 85.0393  15
   6   0  -6 3780.76 85.2091   9
   6   0  -6 3797.68 86.4658   4
  -6   0   6 3767.08 87.2564  16
   6   0  -6 3745.31 84.4035  14
  -6   0   6 3704.34 85.4114  12
   4   0  -6 22.7582 1.97020   7
  -4   0   6 17.7420 1.46794  13
   4   0  -6 25.3512 2.50846   9
  -4   0   6 17.9902 1.84561  12
  -4   0   6 18.2659 2.73036  16
  -4   0   6 19.8212 2.89700   5
  -4   0   6 16.5061 2.28349   8
   4   0  -6 21.3021 2.24995   4
   4   0  -6 18.2531 2.34560  15
   2   0  -6 7053.08 165.540   1
   2   0  -6 7219.56 168.747   9
   2   0  -6 7513.76 164.857   6
  -2   0   6 7566.65 163.320  12
   2   0  -6 7378.85 170.698  15
  -2   0   6 7281.20 168.147   8
  -2   0   6 7209.63 172.616  16
  -2   0   6 7140.52 159.886  13
  -2   0   6 7603.67 163.477  12
   2   0  -6 7265.18 162.640   7
   0   0  -6 169.550 6.69759  11
   0   0   6 172.130 9.79534  10
   0   0  -6 162.443 6.59915   1
   0   0  -6 163.437 6.33912   7
   0   0  -6 165.352 7.16430  15
   0   0  -6 166.071 6.35846   9
   0   0  -6 164.678 6.36645   6
  -2   0  -6 4725.43 108.934  11
   2   0   6 4769.06 115.061  10
  -2   0  -6 4946.25 107.910   7
  -2   0  -6 4768.81 108.661  15
  -2   0  -6 4723.06 108.876   1
  -4   0  -6 72.7059 6.38560   1
  -4   0  -6 63.5190 6.02679  11
   4   0   6 70.4007 4.03933  12
   4   0   6 60.2496 7.03484  14
   4   0   6 59.5931 5.58011   4
   6   0   6 1410.64 36.5184  12
   6   0   6 1419.26 39.6670   4
  -6   0  -6 1378.81 40.1016   1
  -6   0  -6 1369.39 40.4292  11
 -11  -1   6 15.3574 4.54833   8
 -11  -1   6 13.3649 3.86748  16
 -11  -1   6 19.0020 4.54649   5
 -11  -1   6 16.3538 4.43067  11
  11  -1  -6 17.6643 4.48846   4
 -11   1   6 16.9748 4.09102   5
 -11   1   6 11.9030 4.55515  11
 -11   1   6 16.3343 4.56828   8
  11   1  -6 12.8516 4.09654   4
  -9  -1   6 150.730 9.26185   5
   9  -1  -6 134.919 8.51448   4
   9  -1  -6 140.661 7.28295   9
  -9  -1   6 143.553 9.06190  16
  -9  -1   6 137.843 8.20654  11
  -9  -1   6 151.922 8.78384   8
  -9   1   6 142.561 8.60974  16
   9   1  -6 148.046 6.93620   9
  -9   1   6 151.539 8.55111  11
   9   1  -6 157.018 9.07173   4
  -9   1   6 150.554 8.53845   8
  -9   1   6 152.598 8.91187   5
  -7  -1   6 328.780 12.8918  16
  -7  -1   6 345.771 12.0984   8
   7  -1  -6 336.733 11.5294  15
   7  -1  -6 342.014 11.6992   9
  -7  -1   6 327.360 11.5052  12
   7  -1  -6 340.173 12.2439   4
  -7  -1   6 330.786 11.4268  11
  -7  -1   6 353.562 12.9161   5
  -7   1   6 337.525 12.7337  16
  -7   1   6 330.300 12.4242   5
   7   1  -6 329.299 11.0075   9
   7   1  -6 341.463 11.6685  14
  -7   1   6 323.711 10.7007  13
  -7   1   6 346.874 12.3408   8
  -7   1   6 339.054 11.7816  12
   7   1  -6 344.098 12.7493   4
  -5  -1   6 15.5889 2.80028   5
  -5  -1   6 17.8403 2.82152  16
   5  -1  -6 20.0501 2.58622   4
   5  -1  -6 18.8025 2.59487  15
   5  -1  -6 18.3256 1.77846   7
   5  -1  -6 18.7913 2.39663   9
  -5  -1   6 20.3281 2.58913   8
   5   1  -6 20.9282 2.42799   7
   5   1  -6 18.5312 2.30636  14
  -5   1   6 16.5379 2.41673   8
  -5   1   6 19.3968 2.33820  12
   5   1  -6 19.5984 2.82639   4
  -5   1   6 19.8992 2.89065   5
  -5   1   6 17.0852 2.62149  16
   5   1  -6 18.0590 2.36812   9
  -5   1   6 18.6921 1.88987  13
   5   1  -6 19.0237 2.31830  15
  -3  -1   6 947.119 23.0239   8
  -3  -1   6 956.510 24.4697   5
   3  -1  -6 954.586 23.9442   6
   3  -1  -6 933.470 23.7039   9
  -3  -1   6 962.937 22.4325  12
   3  -1  -6 902.307 22.2672   7
   3  -1  -6 939.244 24.4070  15
  -3  -1   6 928.379 21.5461  13
  -3  -1   6 962.877 24.9047  16
  -3   1   6 942.913 23.9116   8
   3   1  -6 905.925 23.8789  15
  -3   1   6 955.783 23.0162  13
   3   1  -6 898.289 23.0215   7
  -3   1   6 959.593 22.2696  12
   3   1  -6 947.191 23.8760   9
  -3   1   6 940.924 25.4648  16
   1  -1  -6 48.4704 3.22003   6
   1  -1  -6 48.8949 2.77511   7
   1  -1  -6 41.9442 2.85597   1
   1  -1  -6 49.0191 3.16268   9
   1  -1  -6 46.2987 3.24490  11
  -1  -1   6 46.4286 3.38236  16
   1  -1  -6 47.3463 3.48069  15
   1   1  -6 48.5884 3.17388   7
   1   1  -6 50.9021 3.72793  15
   1   1  -6 50.7458 3.23332   9
  -1   1   6 45.0255 3.40748  13
   1   1  -6 43.3642 2.68030   1
   1   1  -6 47.4980 3.11190   6
   1   1  -6 49.7806 2.81787  11
  -1  -1  -6 240.949 9.03301   1
   1  -1   6 232.023 12.6614  10
  -1  -1  -6 241.454 9.34586  11
  -1  -1  -6 226.030 7.71875   9
  -1  -1  -6 231.061 9.07743  15
  -1  -1  -6 239.770 8.31642   6
  -1  -1  -6 226.208 8.08551   7
  -1   1  -6 210.134 7.37383   6
  -1   1  -6 211.242 8.68249   1
  -1   1  -6 258.871 8.86403   7
  -1   1  -6 229.234 9.24046  15
   1   1   6 232.616 11.5698  10
  -1   1  -6 208.330 8.21293  11
  -1   1  -6 219.241 8.23728   9
   3  -1   6 235.143 14.1883  10
  -3  -1  -6 232.026 10.4375   1
  -3  -1  -6 234.137 9.76479  15
   3  -1   6 244.753 7.43594  12
  -3  -1  -6 230.128 10.7415  11
   3   1   6 251.860 10.4605   4
  -3   1  -6 231.387 10.4167   1
   3   1   6 241.070 12.0229  14
  -3   1  -6 241.205 9.71393   7
  -3   1  -6 234.007 10.0680  11
   3   1   6 241.697 7.03574  12
  -5  -1  -6 5.09909 2.70587   1
   5  -1   6 5.70067 3.72133  14
  -5  -1  -6 7.77161 3.34640  11
   5  -1   6 7.26378 2.15756  12
   5  -1   6 6.88429 2.97351   4
  -5   1  -6 10.4011 3.27405   1
  -5   1  -6 6.25176 3.23059  11
   5   1   6 11.3197 4.39138  14
   5   1   6 4.53276 1.75196  12
   5   1   6 6.39701 3.41158   4
  -7  -1  -6 145.826 10.8694   1
   7  -1   6 152.748 11.1292   4
   7  -1   6 141.811 8.49717  12
  -7  -1  -6 146.438 10.4881  11
  -7   1  -6 144.719 10.6126  11
  -7   1  -6 153.184 11.0450   1
   7   1   6 153.139 8.56020  12
   7   1   6 140.992 10.1665   4
 -12  -2   6 468.781 19.5610   5
 -12  -2   6 490.855 19.3064   8
  12  -2  -6 496.849 20.0580   4
 -12   2   6 494.902 19.7119   8
  12   2  -6 503.389 20.2502   4
 -12   2   6 463.979 20.3412  11
 -10  -2   6 762.330 25.3595   5
 -10  -2   6 750.126 25.8211  16
 -10  -2   6 755.678 24.4296   8
  10  -2  -6 811.701 25.3551   4
  10  -2  -6 781.615 22.9193   9
 -10  -2   6 778.910 24.7665  11
 -10   2   6 738.181 24.1250   5
 -10   2   6 763.369 25.1647   8
 -10   2   6 794.102 25.9488  11
  10   2  -6 760.983 25.4085   4
  -8  -2   6 1264.37 35.1199  16
   8  -2  -6 1260.26 32.4168   9
  -8  -2   6 1258.62 34.5606   5
  -8  -2   6 1189.82 32.1418  11
   8  -2  -6 1219.22 33.2467   4
  -8  -2   6 1200.21 32.7589   8
  -8   2   6 1257.82 33.8356   8
  -8   2   6 1234.97 33.8021  16
  -8   2   6 1255.65 33.5099   5
   8   2  -6 1249.91 33.3407  14
   8   2  -6 1245.37 31.0663   9
   8   2  -6 1241.44 34.1858   4
  -6  -2   6 1765.67 44.3210  16
   6  -2  -6 1721.90 42.4932   4
  -6  -2   6 1731.26 42.0296   8
  -6  -2   6 1668.42 41.2289  11
   6  -2  -6 1778.36 42.5780   9
  -6  -2   6 1789.77 43.9454   5
   6  -2  -6 1766.53 43.0155  15
  -6  -2   6 1772.75 42.4730  12
  -6   2   6 1801.22 43.2954   8
   6   2  -6 1788.70 43.7192   4
   6   2  -6 1759.69 41.8169   9
  -6   2   6 1776.70 44.0678  16
   6   2  -6 1709.68 40.9080  15
  -6   2   6 1733.79 41.6735  13
   6   2  -6 1774.92 42.9382  14
  -6   2   6 1742.22 42.2047  12
  -6   2   6 1731.01 43.4864   5
  -4  -2   6 1325.64 33.9265  16
   4  -2  -6 1356.89 33.6059  15
  -4  -2   6 1368.56 33.6713   5
   4  -2  -6 1278.26 30.6598   7
  -4  -2   6 1345.64 31.8453   8
   4  -2  -6 1304.94 32.2305   4
   4  -2  -6 1354.77 32.9323   9
   4  -2  -6 1353.91 33.0003   6
  -4  -2   6 1367.50 32.2599  12
  -4   2   6 1364.73 32.4138  13
   4   2  -6 1344.28 32.4920  15
  -4   2   6 1384.82 32.1311  12
  -4   2   6 1383.97 33.5384   8
   4   2  -6 1318.99 32.4988   7
  -4   2   6 1346.17 34.6493  16
   4   2  -6 1358.48 32.8408   9
  -2  -2   6 1309.69 29.7866  12
  -2  -2   6 1352.01 29.9223   8
   2  -2  -6 1210.67 29.5297   7
  -2  -2   6 1277.70 31.8315  16
  -2  -2   6 1330.96 31.4846   5
   2  -2  -6 1264.06 31.6930   6
   2  -2  -6 1251.89 31.1244   9
   2  -2  -6 1295.59 32.4112  15
  -2   2   6 1257.13 29.3367  12
   2   2  -6 1322.85 31.6994   9
   2   2  -6 1311.90 31.2913   7
  -2   2   6 1301.67 29.2338  12
   2   2  -6 1319.45 31.9585  15
  -2   2   6 1298.77 31.9194  13
   0  -2   6 606.599 14.0144  12
   0  -2  -6 620.124 17.1108   6
   0  -2  -6 585.244 15.5678   7
   0  -2  -6 590.913 15.8513   9
   0  -2   6 598.072 22.0806  10
   0  -2  -6 605.808 17.5421  15
   0  -2  -6 587.332 16.8802   1
   0  -2   6 612.638 16.0185   5
   0  -2   6 599.078 16.2714  16
   0  -2  -6 595.277 17.5408  11
   0  -2   6 592.159 13.9716  12
   0   2  -6 628.087 17.7467  15
   0   2  -6 601.821 16.7420   7
   0   2  -6 579.656 16.5276   1
   0   2  -6 597.050 16.7559   9
   2  -2   6 412.977 19.3527  10
  -2  -2  -6 440.148 15.1697  11
   2  -2   6 415.878 11.1806  12
  -2  -2  -6 400.323 12.9799   6
  -2  -2  -6 422.223 13.9459  15
   2  -2   6 417.674 13.6803   2
  -2  -2  -6 431.239 14.5675   1
   2   2   6 435.014 9.74068  12
  -2   2  -6 389.033 13.2927  11
  -2   2  -6 403.771 13.5986   7
  -2   2  -6 409.561 14.3641   1
   2   2   6 480.266 16.1176  14
   2   2   6 435.056 9.74458  12
   4  -2   6 463.293 14.0258  12
   4  -2   6 467.481 17.7181   4
  -4  -2  -6 434.812 17.0808  11
  -4  -2  -6 456.977 17.0953   1
   4   2   6 470.191 18.8254  14
  -4   2  -6 466.409 16.6089  11
   4   2   6 468.262 13.4567  12
  -4   2  -6 483.767 17.5657   1
   4   2   6 481.715 16.3888   4
  -4   2  -6 460.793 16.1047   7
  -6  -2  -6 249.563 13.3498   1
   6  -2   6 297.628 14.7537   4
   6  -2   6 279.651 11.5043  12
  -6  -2  -6 257.487 13.6388  11
   6   2   6 280.952 11.1908  12
  -6   2  -6 252.334 13.1550  11
  -6   2  -6 267.058 13.8687   1
  11  -3  -6 59.0886 6.85696   4
  11  -3  -6 63.6507 5.96501   9
 -11  -3   6 59.1558 7.46604   5
 -11  -3   6 68.2576 6.49683   8
  11   3  -6 67.8062 6.97108   4
 -11   3   6 67.6521 7.27811  11
 -11   3   6 59.0410 7.01916   8
   9  -3  -6 15.5788 3.12955   4
  -9  -3   6 14.8039 4.17624   5
  -9  -3   6 14.5438 3.96042  16
   9  -3  -6 13.0164 3.10620   9
  -9  -3   6 14.1220 3.37996   8
  -9   3   6 18.4252 3.28138  16
   9   3  -6 19.0761 4.25685   4
  -9   3   6 17.7463 3.57220   5
   9   3  -6 18.9851 3.75287  14
  -9   3   6 24.1556 4.07746   8
  -7  -3   6 6.84041 2.12276   8
  -7  -3   6 11.5729 3.40856   5
  -7  -3   6 10.0949 2.30427  12
   7  -3  -6 22.4448 3.42862   9
   7  -3  -6 8.02639 1.98528   4
  -7  -3   6 8.55140 2.86142  16
  -7   3   6 8.83082 2.27182  13
   7   3  -6 8.11296 2.34521   4
  -7   3   6 9.06415 2.22520   5
  -7   3   6 10.5726 2.30952  12
   7   3  -6 11.7423 2.75970  14
   7   3  -6 10.8623 2.01302   9
  -7   3   6 8.81447 2.20337  16
  -7   3   6 5.78111 2.57063   8
   5  -3  -6 305.564 10.3357   6
  -5  -3   6 315.895 11.7119  16
   5  -3  -6 312.464 11.1374  15
  -5  -3   6 331.431 10.5390  12
  -5  -3   6 290.535 9.39461   8
   5  -3  -6 296.088 9.72290   4
   5  -3  -6 284.981 10.3582   9
  -5  -3   6 302.144 11.2958   5
  -5   3   6 306.980 11.2021   8
  -5   3   6 312.726 11.3151   5
   5   3  -6 314.407 11.4133   4
   5   3  -6 289.707 9.08497  15
  -5   3   6 304.259 11.7009  16
  -5   3   6 307.231 10.2253  12
  -5   3   6 309.802 10.3776  13
   5   3  -6 305.455 10.0568   9
   5   3  -6 286.979 10.2124   7
   5   3  -6 315.984 11.2410  14
   3  -3  -6 12.5660 2.36231  15
   3  -3  -6 14.4249 2.07324   9
   3  -3  -6 11.8408 2.16917   6
  -3  -3   6 11.8398 1.73060  12
   3   3  -6 15.7402 2.16293   9
   3   3  -6 11.0086 2.03469   7
  -3   3   6 15.3583 2.39460  13
  -3   3   6 15.8140 1.69641  12
  -3   3   6 11.4752 2.09293   8
   3   3  -6 11.6230 1.91747  15
   1  -3  -6 236.246 9.03221  15
  -1  -3   6 231.186 8.01055  16
   1  -3  -6 241.076 8.00268   9
   1  -3  -6 250.039 9.38131  11
  -1  -3   6 231.009 7.80291   5
   1  -3  -6 236.945 8.87959   6
  -1  -3   6 241.047 7.25630  12
  -1   3   6 240.564 8.21649   3
  -1   3   6 246.016 6.46218  12
   1   3  -6 245.750 8.70627   7
  -1   3   6 229.524 6.43917  12
   1   3  -6 240.616 8.94827  15
  -1   3   6 229.628 9.31080  13
   1   3  -6 255.848 8.89946   9
  -1   3   6 231.083 7.98969  14
   1   3  -6 230.984 7.74071   1
  -1  -3  -6 32.9144 4.04211  11
  -1  -3  -6 31.3808 3.42990   6
   1  -3   6 46.2536 4.31870   2
  -1  -3  -6 33.0490 3.89988   1
  -1  -3  -6 37.4168 3.61532  15
   1  -3   6 34.6224 2.41691  12
   1  -3   6 34.0168 5.91679  10
  -1   3  -6 30.9077 3.63701   1
  -1   3  -6 39.3100 3.77279   7
   1   3   6 32.9757 1.50192  12
   1   3   6 39.1404 1.56545  12
   1   3   6 31.9988 3.76821  14
  -3  -3  -6 2.20681 1.70184  15
  -3  -3  -6 1.37131 1.53914   6
  -3  -3  -6 -1.9300 2.10484   1
   3  -3   6 1.83514 1.24769  12
  -3  -3  -6 2.06877 2.38343  11
   3  -3   6 0.31550 2.11881   2
   3   3   6 0.54733 0.80942  12
   3   3   6 2.29680 2.53103  14
  -3   3  -6 2.94039 2.32078   7
  -3   3  -6 4.87494 2.47025   1
  -3   3  -6 1.03720 1.54564  11
   5  -3   6 78.4741 7.35624   4
  -5  -3  -6 78.5409 8.15342  11
  -5  -3  -6 81.6081 7.80765   1
   5  -3   6 81.7156 5.97094  12
   5   3   6 74.9617 7.95920  14
   5   3   6 79.9962 5.25262  12
  -5   3  -6 78.4365 7.04618   1
  -5   3  -6 69.2027 9.03210  11
  -7  -3  -6 15.7302 4.90146   1
  -7  -3  -6 13.5689 4.31957  11
   7  -3   6 17.3799 3.88131  12
   7  -3   6 18.5165 5.30000   4
   7   3   6 18.2554 3.57613  12
  -7   3  -6 18.9738 5.19877   1
 -10  -4   6 33.5441 5.46906  16
  10  -4  -6 40.6035 4.77694   9
 -10  -4   6 40.4537 5.45256   8
 -10  -4   6 40.2345 5.69112   5
  10  -4  -6 32.9304 4.72422   4
 -10   4   6 39.8130 5.85066   8
  10   4  -6 30.5808 4.89988  14
  10   4  -6 29.7811 5.22613   4
   8  -4  -6 844.789 24.7889   4
   8  -4  -6 894.578 25.2327   9
  -8  -4   6 866.383 27.4519  16
  -8  -4   6 861.601 24.6228   8
  -8  -4   6 857.985 26.8189   5
   8   4  -6 907.249 26.9023   4
  -8   4   6 857.474 25.2312   5
  -8   4   6 900.226 26.4357   8
  -8   4   6 857.125 25.1504  13
   8   4  -6 901.476 26.9453  14
  -8   4   6 871.781 25.5886  16
   6  -4  -6 137.330 6.24273   4
  -6  -4   6 141.931 7.87408  16
  -6  -4   6 144.947 6.99169  12
   6  -4  -6 144.011 6.59154   6
  -6  -4   6 138.842 7.65088   5
  -6  -4   6 141.055 6.15603   8
   6  -4  -6 162.839 7.38004   9
   6   4  -6 147.210 7.11082   7
   6   4  -6 139.287 6.08151   9
  -6   4   6 144.287 7.67948  16
  -6   4   6 143.807 7.51271   8
  -6   4   6 137.416 7.44045   5
  -6   4   6 147.213 6.88167  12
   6   4  -6 138.880 7.47560   4
   6   4  -6 141.179 7.77755  14
  -6   4   6 136.838 7.01231  13
  -4  -4   6 2312.60 54.5725  16
   4  -4  -6 2224.98 53.3816   6
   4  -4  -6 2233.38 54.5062  15
   4  -4  -6 2239.82 53.4578   9
  -4  -4   6 2381.32 54.2596   5
  -4  -4   6 2269.05 53.0941  12
   4   4  -6 2348.72 53.5813   7
  -4   4   6 2270.24 52.8366  12
  -4   4   6 2245.20 55.8765  16
  -4   4   6 2243.62 54.3253   8
   4   4  -6 2286.73 53.0502   9
  -4   4   6 2202.05 53.7488  13
   2  -4  -6 660.594 18.9883   6
  -2  -4   6 695.986 17.9300  12
  -2  -4   6 653.470 18.2820  16
   2  -4  -6 655.234 18.0066   9
  -2  -4   6 662.014 17.9518   5
   2  -4  -6 673.307 19.3697  15
   2   4  -6 678.409 18.7318   9
  -2   4   6 679.799 17.2895  12
   2   4  -6 679.663 18.7321   7
  -2   4   6 685.137 19.6695  13
  -2   4   6 667.559 17.6683   3
   2   4  -6 683.247 18.5475  15
   0  -4   6 2823.78 64.8253  12
   0  -4   6 3036.07 68.0855   2
   0  -4  -6 2745.24 64.5833   9
   0  -4  -6 2840.67 66.9774   6
   0  -4   6 2843.26 74.9909  10
   0  -4  -6 2927.86 67.2396  15
   0  -4  -6 2873.42 67.9603  11
   0   4  -6 2765.52 66.0870   1
   0   4   6 2932.02 63.8465  12
   0   4   6 2901.90 66.7016   3
   0   4  -6 2942.40 66.7213   7
   0   4   6 2800.55 66.1714  14
   0   4   6 2830.89 68.5894  13
  -2  -4  -6 480.597 17.1638  11
  -2  -4  -6 463.472 15.2338  15
  -2  -4  -6 480.535 16.5401   1
   2  -4   6 502.629 16.4895   2
   2  -4   6 487.358 22.5103  10
   2  -4   6 492.275 14.3039  12
  -2  -4  -6 483.298 15.6467   6
  -2   4  -6 495.423 15.8164   7
   2   4   6 499.672 13.3502  12
  -2   4  -6 479.341 16.2754   1
   2   4   6 476.790 16.8336  14
  -4  -4  -6 1626.08 43.2661   1
   4  -4   6 1566.64 39.9367  12
  -4  -4  -6 1672.67 44.6821  11
  -4   4  -6 1496.54 41.1871   7
  -4   4  -6 1534.95 42.7218   1
   4   4   6 1559.49 43.9070  14
   4   4   6 1619.85 38.9455  12
   6  -4   6 104.173 8.79504   4
   6  -4   6 106.632 7.33566  12
  -6  -4  -6 102.510 8.99431   1
  -6  -4  -6 106.275 9.70502  11
   6   4   6 101.861 6.73410  12
   6   4   6 104.827 9.15764   3
  -6   4  -6 110.974 8.78027   1
 -11  -5   6 47.5918 6.53986   5
  11  -5  -6 41.7354 5.67095   9
  11   5  -6 48.5121 6.82668   4
 -11   5   6 49.4900 6.97482  11
   9  -5  -6 9.90387 3.22641   9
  -9  -5   6 7.82326 3.85359   5
  -9  -5   6 10.6200 3.08011   8
  -9  -5   6 6.80446 3.54372  16
  -9   5   6 12.4921 3.81113   8
  -9   5   6 9.19458 3.22177  13
   9   5  -6 11.4876 3.75918   4
   9   5  -6 6.66300 3.10657  14
  -7  -5   6 7.74474 2.55468  16
  -7  -5   6 2.02817 2.47104   2
   7  -5  -6 -1.3570 1.88964   9
  -7  -5   6 7.75350 2.86328   5
  -7   5   6 1.50310 2.49488   8
  -7   5   6 1.22615 1.32817  16
  -7   5   6 1.38802 1.59883  12
  -7   5   6 0.41239 1.78600   5
  -7   5   6 1.18446 1.93362  13
   7   5  -6 0.25351 1.59856   4
   7   5  -6 1.82271 2.09859   7
   7   5  -6 -0.5816 1.78373  14
  -5  -5   6 104.255 6.35642   5
  -5  -5   6 90.7624 5.59962  12
   5  -5  -6 100.056 5.92935   9
  -5  -5   6 96.3762 6.47845  16
   5  -5  -6 91.4586 5.23964   6
  -5   5   6 98.1947 6.50980  16
  -5   5   6 95.6357 5.39066  12
   5   5  -6 102.582 5.72258   7
  -5   5   6 98.5379 6.38576   8
   5   5  -6 102.538 6.76083  14
   5   5  -6 120.735 5.62378   9
  -5   5   6 95.2610 6.00966  13
  -3  -5   6 35.4503 3.30623  12
   3  -5  -6 41.1903 3.79617  15
   3  -5  -6 37.7817 3.42561   9
   3  -5  -6 40.2591 3.91740   6
  -3  -5   6 34.2977 4.29385   2
  -3  -5   6 35.5918 3.53765   5
  -3  -5   6 31.9740 3.15245  16
  -3   5   6 41.7279 3.08723   3
  -3   5   6 34.8067 4.23908  13
   3   5  -6 34.3677 3.36275   9
   3   5  -6 41.9999 3.74491   7
   3   5  -6 35.4681 2.94277   3
  -3   5   6 33.6413 3.99245   8
  -3   5   6 40.6856 3.19907  12
  -1  -5   6 84.8423 4.57077  12
   1  -5  -6 71.3184 3.86926   9
  -1  -5   6 69.0780 7.33951  10
   1  -5  -6 72.9224 4.93258   6
   1  -5  -6 72.7017 5.03527  15
  -1  -5   6 81.2894 5.88651   2
   1   5  -6 75.9282 5.00893   7
   1   5  -6 63.5270 3.96924   1
  -1   5   6 73.4915 3.88926  12
  -1   5   6 69.5265 4.56599   3
  -1   5   6 78.0007 5.61338  13
  -1  -5  -6 7.65907 2.75583  11
  -1  -5  -6 9.47884 2.63493   6
   1  -5   6 18.3016 2.61548  12
   1  -5   6 8.06176 3.07855   2
  -1  -5  -6 9.72407 2.30942  15
   1  -5   6 13.5253 4.45428  10
   1   5   6 15.6722 1.99452  12
  -1   5  -6 10.0856 2.74597   7
   1   5   6 6.47666 2.58965   3
  -1   5  -6 8.93198 2.40119   1
   1   5   6 5.20105 2.73974  13
   1   5   6 6.97754 2.26336  14
  -3  -5  -6 4.75338 3.05022  11
  -3  -5  -6 7.67552 2.26541   6
   3  -5   6 3.33957 2.99514   2
  -3  -5  -6 6.29661 2.05189  15
   3  -5   6 7.16061 2.25124  12
   3   5   6 6.88607 2.91080  14
  -3   5  -6 5.99841 2.85658   1
   3   5   6 6.54081 1.78353  12
  -3   5  -6 12.2323 3.00891   7
   3   5   6 7.57155 3.36331   3
   5  -5   6 86.5688 8.63900   4
  -5  -5  -6 86.3077 8.79367  11
   5  -5   6 89.9640 6.67955  12
  -5  -5  -6 107.842 8.79880   1
   5   5   6 83.4364 8.15030  14
   5   5   6 101.040 8.74589   3
  -5   5  -6 81.8995 7.50683   7
  -5   5  -6 94.4627 8.24886   1
   5   5   6 89.2705 6.05980  12
 -10  -6   6 1114.34 34.9683   5
  10  -6  -6 1125.35 32.6525   9
 -10   6   6 1135.15 34.0029   8
  10   6  -6 1133.09 34.4580   4
  -8  -6   6 279.047 13.3698   5
  -8  -6   6 246.258 13.1718  16
   8  -6  -6 272.485 12.0772   9
   8   6  -6 269.960 12.7684   4
  -8   6   6 254.146 11.8629  13
  -8   6   6 286.409 12.5907   8
   8   6  -6 268.387 12.9253  14
   8   6  -6 244.545 11.4898   7
   6  -6  -6 2066.76 49.4546   6
  -6  -6   6 2075.62 52.8968  16
  -6  -6   6 2108.77 52.0211   5
  -6  -6   6 2017.79 50.3348   2
   6  -6  -6 2048.75 50.8374   9
  -6   6   6 1983.04 50.8187   5
  -6   6   6 2006.19 50.4093  12
   6   6  -6 2136.36 50.8520   7
  -6   6   6 2036.82 51.7309  16
  -6   6   6 2058.41 51.6442   8
  -6   6   6 2005.25 51.2431  13
   6   6  -6 2091.11 52.9364  14
  -4  -6   6 254.143 10.7427   2
  -4  -6   6 228.113 10.2228  16
  -4  -6   6 253.907 10.1261  12
  -4  -6   6 240.071 9.84712   5
   4  -6  -6 258.447 9.83398   9
   4  -6  -6 255.239 10.9268  15
   4  -6  -6 256.174 9.96120   6
  -4   6   6 261.385 10.8877  13
   4   6  -6 244.053 9.13027   3
  -4   6   6 248.328 10.4944   8
   4   6  -6 267.520 9.49576   9
  -4   6   6 244.248 9.50909  12
   4   6  -6 260.690 10.2069   7
   2  -6  -6 1735.18 42.7385  15
   2  -6  -6 1732.14 42.6090   6
  -2  -6   6 1704.85 43.4349   2
  -2  -6   6 1627.42 41.4524  12
  -2  -6   6 1647.35 49.4449  10
   2  -6  -6 1681.28 40.7464   9
  -2   6   6 1684.29 41.0988   3
  -2   6   6 1697.44 43.5365  13
  -2   6   6 1702.07 40.8381  12
   2   6  -6 1652.46 41.5233   3
   2   6  -6 1741.54 42.0100   7
   0  -6  -6 81.8158 5.92909   6
   0  -6   6 82.6988 6.82573   2
   0  -6  -6 81.0212 5.31300  15
   0  -6   6 79.7722 5.06475  12
   0  -6  -6 75.0501 6.07746  11
   0  -6   6 72.4538 8.35983  10
   0   6   6 76.9051 5.66876   3
   0   6   6 75.8076 4.61763  12
   0   6  -6 74.6267 5.02004   1
   0   6   6 79.4636 6.65885  13
   0   6  -6 73.0157 5.46099   7
  -2  -6  -6 981.526 29.7631  11
  -2  -6  -6 958.646 26.4647  15
  -2  -6  -6 984.669 28.2321   6
   2  -6   6 995.110 26.9576  12
   2  -6   6 1008.72 28.9568   2
  -2   6  -6 1003.38 27.8880   7
   2   6   6 975.647 28.7151   3
   2   6   6 970.649 30.6506  13
   2   6   6 958.140 25.8877  12
  -2   6  -6 980.681 28.3428   1
   4  -6   6 47.3367 5.19190  12
  -4  -6  -6 47.4289 6.71986  11
  -4  -6  -6 46.9259 5.32156   6
   4   6   6 50.1623 4.82289  12
  -4   6  -6 56.2606 6.31225   7
  -4   6  -6 54.2317 6.60587   1
   4   6   6 42.7998 7.06240  13
   4   6   6 73.5262 8.10839   3
  -6  -6  -6 686.559 25.5844  11
   6  -6   6 685.417 25.7378   4
   6   6   6 698.265 25.0563   3
   6   6   6 677.884 21.7332  12
   9  -7  -6 185.410 10.5431   9
  -9  -7   6 165.235 11.6945   5
  -9   7   6 189.094 11.0791   8
   9   7  -6 194.519 10.6791   7
   9   7  -6 190.797 11.2755   4
  -9   7   6 176.901 10.4981  13
   9   7  -6 170.628 11.4459  14
  -7  -7   6 240.148 12.4907  16
   7  -7  -6 207.922 10.4911   9
  -7  -7   6 223.195 11.9253   5
  -7   7   6 192.471 12.9032  16
  -7   7   6 215.184 10.7493  13
  -7   7   6 223.039 10.2743   1
   7   7  -6 217.887 11.4945  14
  -7   7   6 208.388 10.4680   8
   7   7  -6 218.842 10.2278   7
  -5  -7   6 509.956 18.3807  16
   5  -7  -6 570.877 17.3050   6
  -5  -7   6 528.984 18.0519   2
  -5  -7   6 549.223 17.9664  12
   5  -7  -6 564.952 17.7637   9
  -5  -7   6 535.191 18.0587   5
  -5   7   6 555.229 19.2588  16
  -5   7   6 566.799 17.7005  12
  -5   7   6 544.069 18.5422  13
   5   7  -6 541.606 19.4573  14
   5   7  -6 538.562 17.5220   7
  -5   7   6 539.499 18.3043   8
  -3  -7   6 217.929 10.5294   2
  -3  -7   6 198.820 12.9633  10
   3  -7  -6 213.206 9.41483   6
   3  -7  -6 197.429 9.38735  15
   3  -7  -6 207.697 8.65936   9
  -3  -7   6 202.838 8.61550   5
  -3  -7   6 193.516 8.85077  16
  -3  -7   6 203.714 9.23858  12
   3   7  -6 200.841 8.80645   3
  -3   7   6 211.744 10.0420   8
  -3   7   6 203.596 8.66551  12
  -3   7   6 201.110 10.1800  13
  -3   7   6 198.471 8.40158   3
   3   7  -6 198.373 9.01760   7
  -1  -7   6 526.433 16.5493  12
  -1  -7   6 528.721 18.2830   2
   1  -7  -6 479.839 16.2145  15
   1  -7  -6 490.933 17.0406   6
  -1  -7   6 475.602 22.1519  10
  -1   7   6 506.277 15.6863  12
   1   7  -6 511.010 16.4830   7
  -1   7   6 515.922 18.1108  13
  -1   7   6 496.809 16.4440   3
   1   7  -6 508.063 16.6987   3
  -1  -7  -6 223.930 9.50116  15
  -1  -7  -6 222.955 10.7944   6
   1  -7   6 217.438 11.4508   2
  -1  -7  -6 228.462 11.6212  11
   1  -7   6 225.358 9.93928  12
   1   7   6 236.985 11.2300   3
   1   7   6 216.400 11.9207  13
  -1   7  -6 223.137 10.2466   7
  -1   7  -6 225.371 10.3208   1
   1   7   6 233.377 9.46380  12
  -3  -7  -6 116.925 9.37115  11
  -3  -7  -6 119.284 8.19419   6
   3  -7   6 110.099 8.66955   2
   3  -7   6 125.986 7.74881  12
   3   7   6 132.414 10.0747  13
  -3   7  -6 115.865 8.03465   7
  -3   7  -6 126.324 8.83095   1
   3   7   6 115.348 8.60281   3
   3   7   6 108.175 6.79413  12
  -5  -7  -6 175.002 12.5298  11
   5  -7   6 184.448 12.1218   4
   5  -7   6 171.686 10.0571  12
   5   7   6 173.001 11.8588   3
   5   7   6 176.263 9.43629  12
  -5   7  -6 183.420 10.6766   7
  -5   7  -6 164.353 11.2970   1
  10  -8  -6 243.934 12.3908   9
 -10  -8   6 185.235 12.8595   5
  10   8  -6 199.737 11.9462   4
  10   8  -6 221.766 12.0718   7
 -10   8   6 209.488 11.9605   8
   8  -8  -6 381.355 15.6742   9
  -8  -8   6 397.002 18.1245  16
  -8  -8   6 412.681 17.5354   5
  -8   8   6 362.006 15.4485   8
   8   8  -6 373.584 16.9003  14
   8   8  -6 394.370 15.6320   7
  -8   8   6 349.734 15.6027  13
  -6  -8   6 327.003 14.0983   5
  -6  -8   6 316.407 12.8836   2
   6  -8  -6 338.270 13.5359   9
  -6  -8   6 313.388 14.4123  16
   6  -8  -6 336.078 12.2131   6
  -6   8   6 318.365 13.3558  16
   6   8  -6 326.347 15.0268  14
   6   8  -6 328.624 13.1019   7
  -6   8   6 301.593 12.7328   5
  -6   8   6 310.235 13.7267  13
  -6   8   6 322.136 13.6201   8
  -6   8   6 300.724 12.7933  12
   4  -8  -6 757.972 22.1813   6
  -4  -8   6 723.772 22.4437  12
  -4  -8   6 718.563 21.7513   5
  -4  -8   6 656.863 28.4918  10
  -4  -8   6 731.993 23.0573   2
   4  -8  -6 741.368 23.2934  15
   4  -8  -6 745.431 21.6114   9
  -4  -8   6 661.486 22.0816  16
  -4   8   6 708.509 23.3406  13
  -4   8   6 727.628 21.7961  12
  -4   8   6 738.312 22.9677   8
   4   8  -6 714.247 21.5707   3
   4   8  -6 760.758 22.2370   7
   2  -8  -6 555.063 18.4824  15
   2  -8  -6 552.796 18.8399   6
  -2  -8   6 542.446 18.3930  12
  -2  -8   6 556.420 19.9476   2
   2  -8  -6 557.589 16.7615   9
  -2   8   6 564.567 19.7760  13
   2   8  -6 549.907 18.1363   3
   2   8  -6 570.982 18.1854   7
  -2   8   6 567.776 17.9243  12
  -2   8   6 580.059 19.5917   8
  -2   8   6 604.290 18.4828   3
   0  -8  -6 842.443 24.4380  15
   0  -8   6 862.805 27.1438   2
   0  -8  -6 846.151 25.8998   6
   0  -8   6 810.835 24.9181  12
   0   8   6 845.559 27.2875  13
   0   8   6 866.598 24.5043  12
   0   8  -6 877.432 25.0687   7
   0   8   6 860.977 25.8684   3
   0   8  -6 839.509 24.7442   1
  -2  -8  -6 494.759 18.7379   6
   2  -8   6 540.513 18.7000  12
  -2  -8  -6 554.046 20.8111  11
   2  -8   6 539.887 20.2871   2
   2   8   6 532.385 17.8187  12
   2   8   6 542.763 21.5762  13
  -2   8  -6 538.508 18.3602   7
   2   8   6 543.560 19.6467   3
  -2   8  -6 520.844 19.0996   1
   4  -8   6 462.159 18.0329  12
   4  -8   6 501.216 19.1256   2
  -4  -8  -6 467.765 18.2710   6
  -4  -8  -6 471.136 19.8804  11
  -4   8  -6 482.495 19.4883   1
  -4   8  -6 490.019 18.1753   7
   4   8   6 475.470 17.2667  12
   4   8   6 467.517 19.5926   3
  -9  -9   6 26.8693 5.37910   5
   9  -9  -6 22.5192 4.94642   9
   9   9  -6 22.3106 4.90698   7
  -9   9   6 29.3465 4.63024   8
   7  -9  -6 44.5942 5.91286   9
  -7  -9   6 43.1695 6.43956  16
  -7  -9   6 45.3013 6.58098   5
  -7   9   6 45.7592 5.98449   8
  -7   9   6 36.5810 5.38530   1
   7   9  -6 42.8838 5.46095   7
  -7   9   6 35.7555 5.89516  13
   7   9  -6 45.6593 6.42593  14
  -5  -9   6 13.9928 3.42804  16
  -5  -9   6 18.7766 4.18142   2
  -5  -9   6 9.95086 3.38858   5
   5  -9  -6 14.3509 3.12431   9
   5  -9  -6 17.5190 3.44636   6
   5   9  -6 17.1705 3.90129   7
  -5   9   6 12.5355 3.22392  16
  -5   9   6 13.9030 3.76673   8
  -5   9   6 14.1575 3.67253  13
  -5   9   6 25.5965 3.89925  12
  -3  -9   6 82.4813 8.21441   2
   3  -9  -6 73.7103 5.20131   9
   3  -9  -6 75.1598 6.65363   6
  -3  -9   6 68.0846 5.81629  12
   3  -9  -6 75.5015 6.50961  15
  -3   9   6 77.4738 6.73240  13
   3   9  -6 78.2134 5.91759   7
  -3   9   6 78.4604 6.07855   3
  -3   9   6 73.6347 5.89847  12
  -3   9   6 75.6210 6.93226   8
   3   9  -6 70.6965 6.00051   3
  -1  -9   6 22.1447 4.57954   2
   1  -9  -6 19.0232 3.75695   6
   1  -9  -6 18.1733 3.46688  15
  -1  -9   6 15.0769 3.36678  12
  -1   9   6 16.1639 3.29330  12
  -1   9   6 12.8835 4.05227  13
   1   9  -6 16.3169 3.59442   3
  -1   9   6 16.4621 3.94914   3
   1   9  -6 14.1837 3.52936   7
   1  -9   6 29.5074 4.60490  12
  -1  -9  -6 28.1814 5.06153   6
   1  -9   6 28.1615 5.96881   2
  -1   9  -6 26.8151 4.47079   7
   1   9   6 33.1861 5.47223  13
  -1   9  -6 31.0849 4.62896   1
   1   9   6 30.3875 4.20259  12
   1   9   6 24.4178 5.07215   3
   3  -9   6 20.8857 4.43329  12
  -3  -9  -6 14.5326 4.92649  11
  -3  -9  -6 15.3081 4.28418   6
   3  -9   6 13.9861 5.32468   2
  -3   9  -6 15.5830 4.03767   7
   3   9   6 22.2253 3.87853  12
   3   9   6 15.2462 4.94096   3
  -3   9  -6 11.5977 4.14403   1
   8 -10  -6 1198.90 35.0833   9
   8  10  -6 1203.97 34.8178   7
  -8  10   6 1167.11 34.8448   8
  -6 -10   6 23.6399 4.91067   5
   6 -10  -6 20.4111 4.18055   9
   6  10  -6 18.6653 4.26310   7
  -6  10   6 22.7706 4.57952   8
   4 -10  -6 1608.00 41.0912   9
   4 -10  -6 1582.32 43.0130  15
  -4 -10   6 1530.49 42.9492   2
   4 -10  -6 1585.34 41.7067   6
   4  10  -6 1537.35 41.9261   3
  -4  10   6 1536.33 42.4674   8
  -4  10   6 1541.53 41.9705  12
  -4  10   6 1566.49 43.9325  13
   2 -10  -6 10.2577 3.75729   6
   2 -10  -6 12.0505 3.29129  15
  -2 -10   6 7.67957 4.45435   2
  -2  10   6 18.4445 4.16241   3
  -2  10   6 12.1538 3.19462  12
  -2  10   6 14.7588 4.61398  13
  -2  10   6 10.6036 3.50074   8
   2  10  -6 13.4388 3.56750   3
   2  10  -6 14.9736 3.30205   7
   0 -10  -6 1278.71 36.9359   6
   0 -10   6 1198.00 35.8456  12
   0 -10   6 1293.66 38.2516   2
   0  10   6 1243.52 38.1985  13
   0  10   6 1332.99 36.9903   3
   0  10   6 1276.65 35.6377  12
   0  10  -6 1235.80 34.7724   7
   2 -10   6 13.7088 4.53114   2
   2 -10   6 17.2592 4.18581  12
  -2 -10  -6 12.2461 4.16566   6
  -2  10  -6 8.23407 3.56865   1
  -2  10  -6 9.63642 3.69019   7
   2  10   6 8.69843 2.98440  12
   2  10   6 12.8922 4.43578   3
   7 -11  -6 134.688 9.30005   9
  -7 -11   6 135.799 10.2473   5
  -7  11   6 136.064 9.27682   8
  -7  11   6 148.710 10.4513   1
   5 -11  -6 134.458 8.24265   9
   5 -11  -6 141.154 9.41437  15
   5  11  -6 142.671 8.61606   7
  -5  11   6 130.851 8.73599   8
  -3 -11   6 196.056 10.5111   6
   3 -11  -6 204.282 10.9997  15
   3 -11  -6 215.460 11.5639   6
  -3 -11   6 206.371 12.3204   2
  -3  11   6 200.087 10.6979  12
  -3  11   6 205.694 11.1143   8
   3  11  -6 204.437 10.6196   7
   3  11  -6 198.264 11.0070   3
   1 -11  -6 147.395 9.60440   6
  -1 -11   6 150.589 10.6381   2
   1  11  -6 137.415 8.69551   7
  -1  11   6 131.350 9.51677   3
  -1  11   6 137.717 9.10537   8
  -1  11   6 138.101 8.73340  12
   1  11  -6 143.171 9.25434   3
  -1 -11  -6 176.470 11.4620   6
   1 -11   6 184.593 12.6578   2
   1  11   6 174.217 10.8407   3
   1  11   6 178.189 10.3539  12
  -1  11  -6 168.227 9.97808   7
   4 -12  -6 314.041 14.4300  15
  -4 -12   6 324.584 14.5823   6
  -4  12   6 301.971 14.0483   8
   2 -12  -6 325.972 14.7950   6
  -2 -12   6 341.697 16.0690   2
   2  12  -6 318.685 13.7904   7
   2  12  -6 322.636 15.1524   3
 -12   0   7 -1.6440 3.80039  11
 -12   0   7 1.10506 3.02861   5
  12   0  -7 2.74339 3.33322   4
 -12   0   7 2.91884 2.84742   8
 -10   0   7 -0.4617 3.04025   5
  10   0  -7 11.4809 3.28176   4
 -10   0   7 3.72277 3.16510   8
 -10   0   7 0.50306 2.64617  11
 -10   0   7 -2.9527 2.27872  16
  10   0  -7 1.20885 1.94827   9
   8   0  -7 0.77858 1.62888   9
  -8   0   7 0.49823 1.58088   8
  -8   0   7 5.45993 2.11149  16
   8   0  -7 3.06731 2.29822   4
  -8   0   7 4.77034 2.33835   5
  -8   0   7 1.39449 1.56629  12
  -6   0   7 16.1992 3.00885  16
  -6   0   7 3.92283 1.45830  12
  -6   0   7 2.78174 2.19461   5
   6   0  -7 1.35440 1.29059  15
   6   0  -7 1.38242 1.12841   9
  -6   0   7 2.49246 1.70159   8
   6   0  -7 -0.1253 0.95589   7
   6   0  -7 4.86659 1.88965   4
   4   0  -7 0.13520 0.81523   7
  -4   0   7 1.52685 1.66861   5
   4   0  -7 -0.2429 1.17923   9
   4   0  -7 3.76884 1.61126  15
  -4   0   7 0.76863 1.38643  16
  -4   0   7 -0.0975 0.73628  12
   2   0  -7 0.80333 1.17084   6
  -2   0   7 0.41255 1.27829  16
  -2   0   7 1.52030 0.52625  12
   2   0  -7 0.71276 0.87023   9
  -2   0   7 0.57388 0.96183   8
  -2   0   7 0.15274 0.36301  12
   2   0  -7 -0.4837 1.20089  15
  -2   0   7 1.20586 0.91654  13
   2   0  -7 5.16831 1.40448   7
   0   0  -7 1.69076 1.30522   7
   0   0  -7 0.11440 1.48357  15
   0   0  -7 7.57756 1.88280  11
   0   0  -7 2.62767 1.12736   6
   0   0  -7 -0.2740 1.07540   9
   0   0  -7 0.94679 1.27693   1
  -2   0  -7 1.14050 1.44090  15
   2   0   7 1.40312 0.41328  12
  -2   0  -7 0.99392 1.65408  11
  -2   0  -7 2.48437 2.09720   1
  -2   0  -7 6.57901 2.34587   7
   2   0   7 0.70896 2.55208  10
  -4   0  -7 4.99089 2.31338  11
   4   0   7 3.30139 3.43218  14
  -4   0  -7 5.99890 3.30754   1
   4   0   7 0.50911 1.30619  12
   4   0   7 4.39069 3.28603   4
   6   0   7 0.44105 1.82666  12
   6   0   7 3.11015 3.68806   4
  -6   0  -7 -1.4829 3.25077   1
  -6   0  -7 1.58720 2.97850  11
 -11  -1   7 273.930 13.0527   8
  11  -1  -7 253.943 13.1443   4
 -11  -1   7 247.340 13.3994  16
 -11  -1   7 256.288 13.4486   5
 -11   1   7 260.731 13.0265  11
 -11   1   7 285.194 13.5897   5
 -11   1   7 272.525 13.7280   8
  11   1  -7 276.258 13.6356   4
 -11   1   7 237.173 12.5806  16
   9  -1  -7 837.917 23.6633   9
  -9  -1   7 799.609 25.8213   5
  -9  -1   7 826.841 26.4350  16
   9  -1  -7 783.891 24.9418   4
  -9  -1   7 777.311 23.7896  11
  -9  -1   7 818.820 24.7765   8
  -9   1   7 835.188 25.9476  16
   9   1  -7 832.839 22.8617   9
  -9   1   7 808.460 25.3460   5
   9   1  -7 799.200 25.5782   4
  -9   1   7 785.394 24.8914   8
   7  -1  -7 442.308 14.7781   4
  -7  -1   7 429.314 14.3210   8
   7  -1  -7 441.633 14.4424   9
  -7  -1   7 439.023 15.8350  16
   7  -1  -7 423.437 14.0347  15
  -7  -1   7 452.637 14.3019  12
  -7  -1   7 413.794 15.2434   5
   7   1  -7 428.460 15.2158   4
   7   1  -7 443.861 13.7674   7
   7   1  -7 422.523 13.3015  15
  -7   1   7 457.401 14.4410  12
  -7   1   7 429.777 15.6187  16
  -7   1   7 446.989 14.9704   8
  -7   1   7 438.255 15.6229   5
   7   1  -7 432.855 13.9240   9
   5  -1  -7 2112.19 49.2624   9
  -5  -1   7 2002.90 48.3888   8
  -5  -1   7 2053.29 50.1104   5
   5  -1  -7 1968.64 47.0504   7
  -5  -1   7 2070.08 50.7314  16
   5  -1  -7 2076.76 49.5216  15
   5  -1  -7 1996.56 48.9929   4
   5   1  -7 2135.27 49.1670   9
  -5   1   7 2074.69 50.5018   5
  -5   1   7 2128.48 48.3392  12
   5   1  -7 2065.83 48.9374  15
  -5   1   7 2058.66 51.0475  16
   5   1  -7 2129.08 50.1452   4
  -5   1   7 2107.93 49.4440   8
  -5   1   7 2010.09 47.2145  13
   5   1  -7 1982.19 48.0681   7
  -3  -1   7 575.724 14.4093  12
  -3  -1   7 548.013 15.1147   8
   3  -1  -7 545.768 16.6805  15
   3  -1  -7 576.644 16.1834   9
  -3  -1   7 555.196 17.0367  16
  -3  -1   7 563.425 16.6713   5
   3  -1  -7 554.968 16.2323   6
   3  -1  -7 540.831 14.5123   7
   3   1  -7 561.739 16.4403  15
   3   1  -7 562.298 16.1239   9
  -3   1   7 577.937 16.3179   8
  -3   1   7 556.016 17.7358  16
  -3   1   7 585.771 14.2751  12
  -3   1   7 551.456 15.1265  13
   3   1  -7 542.896 15.3541   7
   1  -1  -7 2434.86 59.0715  11
   1  -1  -7 2538.28 60.3190  15
   1  -1  -7 2386.62 58.1973   1
  -1  -1   7 2617.21 55.5629  12
   1  -1  -7 2528.47 59.2353   6
   1  -1  -7 2476.64 58.6050   9
  -1  -1   7 2601.85 59.9140  16
  -1  -1   7 2735.01 55.6243  12
   1  -1  -7 2469.05 57.8906   7
   1   1  -7 2595.43 58.7250   7
   1   1  -7 2605.13 60.1628  15
   1   1  -7 2571.06 58.1246   1
   1   1  -7 2527.82 59.0015   9
   1   1  -7 2564.34 57.9710  11
  -1   1   7 2450.47 59.6197  13
  -1  -1  -7 290.882 11.1426  15
  -1  -1  -7 302.914 11.3521  11
  -1  -1  -7 294.274 10.9822   1
  -1  -1  -7 281.282 9.98057   6
   1  -1   7 285.702 15.3153  10
  -1  -1  -7 282.541 9.57247   9
  -1  -1  -7 288.599 9.99476   7
  -1   1  -7 290.159 11.3427  15
  -1   1  -7 279.182 10.3768   7
  -1   1  -7 270.262 10.2986  11
  -1   1  -7 262.054 10.4970   1
   1   1   7 293.793 14.2615  10
  -1   1  -7 309.592 10.4110   9
  -3  -1  -7 1344.58 36.3794  11
  -3  -1  -7 1261.95 34.7316  15
   3  -1   7 1333.30 30.8565  12
  -3  -1  -7 1237.02 35.4152   1
   3   1   7 1341.30 35.3176   4
  -3   1  -7 1328.53 34.6104   7
  -3   1  -7 1263.04 35.3849   1
   3   1   7 1243.64 37.7975  14
   3   1   7 1306.62 30.2007  12
  -5  -1  -7 112.642 8.46097   1
   5  -1   7 104.186 12.0601  14
   5  -1   7 115.456 9.20544   4
   5  -1   7 105.671 6.15546  12
  -5  -1  -7 100.303 8.62467  11
   5   1   7 111.765 8.54743   4
  -5   1  -7 105.117 8.23882  11
   5   1   7 108.376 5.95796  12
   5   1   7 98.9496 9.54449  14
  -5   1  -7 105.914 8.84376   1
  12  -2  -7 125.783 9.04625   4
 -12  -2   7 122.218 9.18408   5
 -12   2   7 154.733 10.9857   8
  12   2  -7 127.216 10.1671   4
 -12   2   7 131.910 10.7067  11
  10  -2  -7 250.524 11.0169   9
 -10  -2   7 260.562 13.0005   5
 -10  -2   7 250.069 12.0553   8
  10  -2  -7 248.190 12.0782   4
 -10  -2   7 241.718 12.7945  16
 -10   2   7 246.987 12.2499   5
 -10   2   7 232.838 11.9373  16
 -10   2   7 260.622 12.7612  11
 -10   2   7 257.327 12.3407   8
  10   2  -7 249.898 12.9458   4
  -8  -2   7 268.557 11.0759  12
   8  -2  -7 282.358 11.6502   4
   8  -2  -7 309.027 11.6136   9
  -8  -2   7 299.379 13.0825   5
  -8  -2   7 284.178 11.3528   8
  -8  -2   7 293.328 13.0654  16
   8  -2  -7 281.695 11.3137  15
  -8   2   7 285.606 11.9209   8
   8   2  -7 270.178 11.1808  14
   8   2  -7 285.110 10.4553   9
  -8   2   7 275.409 11.8917   5
   8   2  -7 261.071 11.9115   4
  -8   2   7 288.116 12.2514  16
  -8   2   7 262.356 10.9694  12
   6  -2  -7 625.740 18.5979   4
  -6  -2   7 660.070 20.0724   5
   6  -2  -7 679.456 19.2243   9
  -6  -2   7 632.893 18.1626   8
  -6  -2   7 628.454 20.2217  16
   6  -2  -7 663.574 19.5389  15
  -6  -2   7 640.889 18.6391  12
   6   2  -7 657.892 18.4740   7
   6   2  -7 631.797 17.7179  15
   6   2  -7 641.978 19.8732   4
   6   2  -7 652.455 18.5934   9
  -6   2   7 669.626 19.5707   8
  -6   2   7 671.411 20.7050  16
  -6   2   7 660.369 20.1359   5
   6   2  -7 660.137 19.0110  14
  -6   2   7 650.186 18.4845  12
   4  -2  -7 571.804 17.1754  15
  -4  -2   7 572.742 17.1610   5
   4  -2  -7 574.563 16.5247   9
  -4  -2   7 572.691 15.5294  12
  -4  -2   7 579.655 17.4621  16
   4  -2  -7 579.063 16.6317   6
  -4  -2   7 549.815 15.1140   8
  -4   2   7 568.650 15.3227  12
  -4   2   7 551.400 15.6430  13
  -4   2   7 555.154 18.0698  16
   4   2  -7 559.169 16.2986  15
   4   2  -7 565.506 16.0296   7
  -4   2   7 577.879 17.0385   8
   4   2  -7 569.317 16.4627   9
   2  -2  -7 692.586 18.0606   7
   2  -2  -7 737.390 21.0862  15
  -2  -2   7 734.329 17.9466  12
  -2  -2   7 754.241 20.4647  16
  -2  -2   7 739.738 19.8763   5
   2  -2  -7 736.154 20.3786   6
   2  -2  -7 715.625 19.6893   9
   2   2  -7 743.612 20.5895  15
  -2   2   7 736.946 17.3501  12
  -2   2   7 728.422 20.3937  13
   2   2  -7 733.559 20.0336   9
   2   2  -7 787.179 20.1420   7
   0  -2   7 681.382 19.0240  16
   0  -2  -7 677.952 19.5502   1
   0  -2  -7 725.248 20.6654  11
   0  -2  -7 707.419 20.6030  15
   0  -2  -7 677.787 18.5558   9
   0  -2   7 698.432 16.4003  12
   0  -2   7 702.909 26.0547  10
   0  -2  -7 677.722 18.2125   7
   0   2   7 701.822 23.3153  10
   0   2  -7 710.312 19.6768   7
   0   2  -7 714.463 19.7085   9
   0   2  -7 667.826 19.1911   1
   0   2  -7 723.657 20.7298  15
   2  -2   7 438.256 14.8999   2
  -2  -2  -7 430.548 15.8101  11
   2  -2   7 421.205 20.9726  10
  -2  -2  -7 434.740 14.0739   6
   2  -2   7 441.100 11.9613  12
  -2  -2  -7 462.576 15.7951   1
  -2  -2  -7 447.690 15.2835  15
   2   2   7 461.008 10.5082  12
   2   2   7 430.903 16.5415  14
  -2   2  -7 440.135 14.9938   7
   2   2   7 450.781 14.7613   4
  -2   2  -7 417.470 15.2434   1
  -4  -2  -7 386.095 16.1504   1
   4  -2   7 415.518 13.2065  12
   4  -2   7 419.959 16.9018   4
  -4  -2  -7 415.622 17.2951  11
   4   2   7 412.630 12.6106  12
   4   2   7 395.688 17.8834  14
  -4   2  -7 417.791 16.6894   1
  -4   2  -7 428.483 16.0761   7
   6  -2   7 209.742 12.4242   4
   6  -2   7 207.421 9.89289  12
  -6  -2  -7 207.916 12.9156  11
  -6  -2  -7 190.284 11.6297   1
  -6   2  -7 202.369 11.8136   1
   6   2   7 205.295 9.45008  12
  11  -3  -7 942.420 27.5120   9
  11  -3  -7 902.220 29.0152   4
 -11  -3   7 939.702 28.9457   8
 -11  -3   7 939.947 30.8535   5
  11   3  -7 955.067 30.8687   4
 -11   3   7 954.999 30.1870   8
 -11   3   7 966.286 31.0210  11
  -9  -3   7 235.020 12.4700   5
   9  -3  -7 238.121 10.9248  15
   9  -3  -7 230.075 10.3572   9
  -9  -3   7 229.963 12.2729  16
  -9  -3   7 233.488 10.6450   8
   9  -3  -7 232.152 10.5618   4
  -9   3   7 232.001 11.5770   8
  -9   3   7 228.196 11.1612   5
   9   3  -7 234.368 11.9593   4
   9   3  -7 199.732 10.7828  14
  -9   3   7 227.255 11.1879  16
  -7  -3   7 1465.07 37.2950  12
  -7  -3   7 1435.25 39.4814  16
   7  -3  -7 1550.21 38.4908  15
  -7  -3   7 1462.71 39.1332   5
  -7  -3   7 1423.55 36.3732   8
   7  -3  -7 1459.58 37.0524   4
   7  -3  -7 1492.68 37.6976   9
   7   3  -7 1465.51 37.1225   7
   7   3  -7 1497.93 38.2153  14
  -7   3   7 1443.87 38.2945   8
  -7   3   7 1467.19 38.5519   5
  -7   3   7 1381.93 36.2863  13
   7   3  -7 1470.41 36.2656   9
   7   3  -7 1429.66 38.6452   4
  -7   3   7 1469.17 37.1338  12
  -7   3   7 1418.37 38.7797  16
   5  -3  -7 371.015 11.7196   4
   5  -3  -7 382.797 13.5123  15
  -5  -3   7 372.097 12.2063  12
  -5  -3   7 384.677 13.4413   5
   5  -3  -7 382.566 12.8166   9
  -5  -3   7 379.985 13.5933  16
   5  -3  -7 398.753 12.8549   6
   5   3  -7 390.554 12.4132   9
  -5   3   7 366.337 12.0951  13
  -5   3   7 402.867 12.3376  12
   5   3  -7 365.685 11.5623  15
  -5   3   7 378.154 13.0927   8
   5   3  -7 372.122 12.3727   7
  -5   3   7 391.630 13.9271   5
  -5   3   7 398.171 14.4546  16
   3  -3  -7 1523.14 37.4885   9
  -3  -3   7 1550.51 36.4696  12
   3  -3  -7 1501.54 37.9596   6
   3  -3  -7 1515.66 38.7629  15
  -3  -3   7 1583.82 37.9221   5
  -3  -3   7 1542.75 38.2147  16
   3   3  -7 1574.80 37.8125   9
  -3   3   7 1512.28 35.9041  12
  -3   3   7 1506.51 38.3867   8
  -3   3   7 1517.50 37.8651  13
   3   3  -7 1541.53 37.6354  15
   3   3  -7 1569.66 37.6184   7
   1  -3  -7 420.220 12.5802   9
  -1  -3   7 399.207 12.5012  16
  -1  -3   7 405.969 11.2902  12
   1  -3  -7 417.533 14.0602  15
   1  -3  -7 421.783 14.0874  11
   1  -3  -7 434.650 13.9359   6
  -1  -3   7 403.935 12.2455   5
  -1  -3   7 426.486 19.3941  10
  -1   3   7 422.109 10.3886  12
  -1   3   7 411.362 14.2766  13
   1   3  -7 430.298 13.4281   7
   1   3  -7 430.506 13.5781   9
  -1   3   7 401.704 12.6900   3
   1   3  -7 410.230 13.7193  15
  -1  -3  -7 1044.87 28.2480   6
  -1  -3  -7 1073.50 29.8645  11
   1  -3   7 1001.37 35.7111  10
  -1  -3  -7 1071.88 28.9241   1
   1  -3   7 1086.48 25.5337  12
   1  -3   7 1063.98 28.8264   2
  -1  -3  -7 1055.26 28.7402  15
  -1   3  -7 1033.81 28.3776   1
   1   3   7 1029.83 29.3009  14
  -1   3  -7 1079.55 28.5488   7
   1   3   7 1025.79 23.6571  12
  -3  -3  -7 363.264 14.7168   1
   3  -3   7 330.276 11.2395  12
  -3  -3  -7 339.156 12.9620  15
  -3  -3  -7 386.963 15.3444  11
  -3   3  -7 317.409 13.8886   1
  -3   3  -7 340.330 13.3040   7
   3   3   7 336.684 15.1365  14
   3   3   7 353.670 10.4599  12
   5  -3   7 661.417 20.3571  12
   5  -3   7 688.608 24.6332   4
  -5  -3  -7 631.357 23.4216   1
  -5  -3  -7 653.754 24.1434  11
   5   3   7 654.454 19.3532  12
  -5   3  -7 626.950 23.1464   1
 -10  -4   7 116.355 7.95086   8
 -10  -4   7 125.598 9.41117  16
  10  -4  -7 123.697 8.03160   4
  10  -4  -7 131.769 8.32023  15
  10  -4  -7 128.299 8.33744   9
 -10  -4   7 127.774 9.30767   5
  10   4  -7 129.688 9.60997   4
 -10   4   7 128.535 9.35562   8
 -10   4   7 120.651 8.22666   5
   8  -4  -7 44.7079 4.87256   9
   8  -4  -7 49.6772 4.98575  15
  -8  -4   7 34.8859 4.09801   8
  -8  -4   7 52.4253 6.51700   5
   8  -4  -7 50.9453 4.59160   4
  -8  -4   7 38.9049 5.53748  16
   8   4  -7 47.1328 5.24077  14
  -8   4   7 44.0749 5.05822   5
  -8   4   7 47.0440 4.63451  12
   8   4  -7 38.3684 5.25451   4
   8   4  -7 46.3640 4.92481   7
  -8   4   7 51.3285 6.05720   8
  -8   4   7 42.6606 4.85105  16
  -8   4   7 44.9137 4.59929  13
  -6  -4   7 186.317 9.73458  16
  -6  -4   7 200.025 8.59921  12
   6  -4  -7 199.695 8.98914   9
   6  -4  -7 191.865 8.23119   6
   6  -4  -7 198.385 9.39659  15
  -6  -4   7 189.251 9.73060   5
  -6   4   7 195.804 8.39933  12
   6   4  -7 200.923 9.60515  14
   6   4  -7 190.547 9.53941   4
  -6   4   7 199.169 9.83249  16
   6   4  -7 197.645 8.74798   7
   6   4  -7 197.884 8.11856   9
  -6   4   7 197.696 8.63608  13
  -6   4   7 206.062 9.66885   8
  -6   4   7 186.337 9.15362   5
   4  -4  -7 31.3376 3.56055   9
  -4  -4   7 27.4871 2.92828  12
  -4  -4   7 31.7383 3.40763  16
   4  -4  -7 27.4210 3.85041  15
  -4  -4   7 34.5342 3.49177   5
   4  -4  -7 30.8659 3.66297   6
  -4   4   7 31.5423 3.74909  13
   4   4  -7 31.8587 3.68030   7
  -4   4   7 31.8209 4.00618   8
   4   4  -7 27.1018 3.31624   9
  -4   4   7 28.2370 3.96559  16
   4   4  -7 35.9258 3.03367  15
  -4   4   7 30.2817 2.89139  12
   2  -4  -7 45.1888 4.33802  15
  -2  -4   7 48.7712 3.67390   5
  -2  -4   7 45.5923 3.26895  12
   2  -4  -7 47.5377 4.33334   6
  -2  -4   7 44.3698 3.51147  16
   2  -4  -7 43.0921 3.28076   9
   2   4  -7 45.4634 3.72716   7
  -2   4   7 41.3432 4.27842  13
   2   4  -7 47.4429 4.19338   9
  -2   4   7 44.7495 2.88250  12
   2   4  -7 49.1020 4.01255  15
   0  -4   7 63.0893 3.80376  12
   0  -4  -7 67.0932 4.89672   6
   0  -4  -7 65.7248 5.51052  11
   0  -4   7 63.9110 8.03634  10
   0  -4  -7 63.9364 3.79584   9
   0  -4   7 73.7421 6.01742   2
   0  -4  -7 70.9624 5.27078  15
   0   4  -7 64.9923 4.48513   1
   0   4  -7 79.7680 5.13550   7
   0   4   7 64.8916 4.91435   3
   0   4   7 74.3081 6.03023  13
   0   4   7 68.9671 3.23501  12
   2  -4   7 0.43645 1.49237  12
  -2  -4  -7 0.59750 1.71177   6
  -2  -4  -7 1.14834 1.79283  15
  -2  -4  -7 0.67451 2.54863  11
  -2  -4  -7 -0.4796 2.20374   1
   2  -4   7 2.31183 2.92896   2
   2   4   7 1.78800 2.63310   3
   2   4   7 0.12765 0.94648  12
   2   4   7 2.65456 2.40614  14
  -2   4  -7 2.09352 2.24013   7
  -2   4  -7 1.26667 2.16516   1
   4  -4   7 51.7683 4.80521  12
  -4  -4  -7 51.6865 6.56693  11
  -4  -4  -7 58.3419 6.66105   1
   4   4   7 52.1389 4.29742  12
   4   4   7 55.1029 7.22591   3
  -4   4  -7 56.3316 6.86197   1
  -4   4  -7 55.8733 6.41134   7
   4   4   7 49.9615 6.83181  14
 -11  -5   7 117.765 10.0718   5
  11  -5  -7 94.1754 7.81174   9
  11  -5  -7 99.1708 8.25102  15
  11   5  -7 98.3647 9.12905   4
 -11   5   7 122.045 9.55308   8
   9  -5  -7 615.279 20.1570   9
  -9  -5   7 561.522 21.9256  16
  -9  -5   7 576.716 21.3614   5
  -9   5   7 559.898 19.4307  13
  -9   5   7 576.723 20.0377  16
   9   5  -7 576.606 21.1470   4
  -9   5   7 576.040 20.8395   8
  -9   5   7 548.246 19.4063   5
   9   5  -7 593.478 21.3097  14
   9   5  -7 596.805 19.7489   7
  -7  -5   7 317.941 12.6672  12
   7  -5  -7 342.320 13.8857  15
  -7  -5   7 328.832 14.1907  16
  -7  -5   7 333.152 14.2059   5
   7  -5  -7 345.170 13.0822   9
   7  -5  -7 341.380 12.0965   6
   7   5  -7 343.692 14.1776  14
   7   5  -7 320.426 13.7431   4
  -7   5   7 326.842 13.2907   5
  -7   5   7 336.081 13.7295  16
  -7   5   7 316.920 12.7191  13
  -7   5   7 343.407 12.7428  12
   7   5  -7 343.855 13.0240   7
  -7   5   7 334.118 13.5620   8
   7   5  -7 334.571 11.3785   9
  -5  -5   7 1644.82 41.9563  16
  -5  -5   7 1674.59 41.4135   5
   5  -5  -7 1604.28 41.7514  15
   5  -5  -7 1578.29 40.1896   6
   5  -5  -7 1620.32 40.5665   9
  -5  -5   7 1640.30 40.4336  12
   5   5  -7 1598.05 40.3765   7
  -5   5   7 1540.02 41.2673   8
   5   5  -7 1635.26 39.7355   9
  -5   5   7 1505.78 40.3960  13
  -5   5   7 1576.32 39.8450  12
  -5   5   7 1632.31 43.0846  16
  -3  -5   7 677.392 20.3375  16
  -3  -5   7 721.992 21.6700   2
   3  -5  -7 720.872 21.5362  15
   3  -5  -7 747.587 21.1962   6
   3  -5  -7 719.320 20.0277   9
  -3  -5   7 694.797 20.0040   5
  -3  -5   7 712.159 20.0108  12
  -3   5   7 692.336 19.2938  12
  -3   5   7 706.960 21.4687   8
   3   5  -7 712.461 20.3142   9
  -3   5   7 719.149 21.4875  13
   3   5  -7 700.831 20.3567   7
  -1  -5   7 1641.45 42.9492   2
   1  -5  -7 1715.41 42.3917   6
  -1  -5   7 1635.97 40.1561  12
   1  -5  -7 1693.91 42.2889  15
   1  -5  -7 1599.13 39.6263   9
  -1  -5   7 1608.87 49.7809  10
   1   5  -7 1684.20 41.5608   7
  -1   5   7 1679.73 39.2557  12
  -1   5   7 1666.06 40.9022   3
  -1   5   7 1663.77 43.5961  13
  -1  -5  -7 497.510 17.7304  11
   1  -5   7 475.022 14.6934  12
  -1  -5  -7 467.301 16.2721   6
  -1  -5  -7 460.248 15.7158  15
   1  -5   7 484.186 17.3045   2
   1   5   7 480.991 16.8518   3
  -1   5  -7 488.036 16.1111   7
   1   5   7 444.259 17.8370  13
   1   5   7 454.888 13.3939  12
  -1   5  -7 429.620 15.4905   1
  -3  -5  -7 668.827 22.1859   6
  -3  -5  -7 756.684 25.5792  11
   3  -5   7 729.129 21.4866  12
   3   5   7 727.639 20.4697  12
   3   5   7 749.551 24.5036   3
  -3   5  -7 759.179 23.3483   7
   3   5   7 717.227 26.2525  13
  -3   5  -7 716.827 23.5921   1
   5  -5   7 138.037 8.41680  12
  -5  -5  -7 159.594 11.3543  11
   5  -5   7 147.099 10.5325   4
  -5   5  -7 144.558 10.4568   1
   5   5   7 148.276 10.7605   3
   5   5   7 147.083 7.93173  12
  -5   5  -7 138.431 9.91274   7
  10  -6  -7 28.9499 5.13999   9
 -10  -6   7 22.3575 4.96036   5
  10   6  -7 28.4076 4.93769   4
  10   6  -7 21.0340 4.44898   7
   8  -6  -7 144.528 8.43553   9
  -8  -6   7 150.043 10.2490  16
  -8  -6   7 154.607 10.2755   5
  -8   6   7 139.228 8.46318  13
   8   6  -7 132.728 8.43000   7
   8   6  -7 128.928 8.87323   4
  -8   6   7 127.451 8.09941  16
   8   6  -7 143.341 9.49687  14
  -8   6   7 133.553 9.12051   8
  -8   6   7 153.098 8.73775   5
   6  -6  -7 -0.0404 1.94965   6
  -6  -6   7 16.0509 3.67130  16
  -6  -6   7 3.52223 2.51836   2
   6  -6  -7 0.78890 2.08461   9
   6  -6  -7 7.38640 3.17212  15
  -6  -6   7 0.21831 1.87407  12
   6   6  -7 4.45045 1.94489   9
  -6   6   7 0.09322 1.68611  16
   6   6  -7 0.66886 2.17432  14
   6   6  -7 2.48200 2.23574   7
  -6   6   7 5.47642 2.89588   8
  -6   6   7 1.66332 1.77696  12
  -6   6   7 3.53355 2.48245  13
  -6   6   7 2.59086 2.46240   5
  -4  -6   7 76.6771 6.32582   2
  -4  -6   7 78.7072 5.49929  12
   4  -6  -7 68.1609 5.97485  15
   4  -6  -7 75.1955 5.32775   9
  -4  -6   7 76.4830 5.61378   5
   4  -6  -7 67.7287 5.60472   6
  -4  -6   7 77.9044 5.74979  16
  -4   6   7 67.5106 6.06181   8
  -4   6   7 68.0399 4.82922  12
   4   6  -7 98.0797 5.86432   7
   4   6  -7 66.2242 5.10170   9
  -4   6   7 70.3093 5.95797  13
   2  -6  -7 10.8099 2.58064   6
   2  -6  -7 14.2371 3.06374  15
  -2  -6   7 9.70846 3.39657   2
  -2  -6   7 12.6390 2.50008  12
   2  -6  -7 12.0646 2.11027   9
  -2  -6   7 8.89975 3.36455  10
   2   6  -7 8.20656 2.64993   7
  -2   6   7 14.0865 2.72284   3
  -2   6   7 10.8469 2.12649  12
  -2   6   7 15.9200 3.59629  13
   0  -6   7 5.35112 3.43988   2
   0  -6   7 5.12672 1.92169  12
   0  -6  -7 3.20239 2.37802   6
   0  -6  -7 3.80944 2.04478  15
   0   6   7 2.47495 1.57415  12
   0   6   7 1.36291 1.95136  13
   0   6   7 2.49501 2.39013   3
   0   6  -7 2.57103 2.35693   7
  -2  -6  -7 37.0080 3.80805  15
  -2  -6  -7 41.9777 5.24509   6
   2  -6   7 48.1448 6.29446   2
   2  -6   7 37.1545 4.34198  12
  -2  -6  -7 34.2651 5.44956  11
   2   6   7 39.5511 3.90388  12
  -2   6  -7 38.3134 5.08000   7
   2   6   7 34.9873 5.97296  13
  -2   6  -7 39.7132 5.09664   1
   2   6   7 40.3255 5.70603   3
   4  -6   7 7.84494 2.83521  12
  -4  -6  -7 4.10138 4.01771  11
  -4   6  -7 10.5192 3.90517   1
   4   6   7 13.9475 4.77696   3
   4   6   7 11.1941 3.05418  12
  -4   6  -7 12.2446 4.08575   7
   9  -7  -7 895.234 27.9477   9
  -9  -7   7 898.985 29.8266   5
  -9   7   7 891.395 28.7520   8
   9   7  -7 917.742 27.9218   7
   7  -7  -7 278.414 12.4349   9
   7  -7  -7 275.016 11.0011   6
  -7  -7   7 272.402 13.1478   5
   7  -7  -7 289.746 13.6569  15
  -7  -7   7 285.912 13.5572  16
  -7   7   7 252.786 11.4348  12
   7   7  -7 289.508 13.9888  14
  -7   7   7 269.980 12.9267   8
  -7   7   7 263.426 12.3344  16
   7   7  -7 284.475 12.1872   7
  -7   7   7 263.490 12.0891   5
  -7   7   7 287.235 12.7102  13
  -5  -7   7 742.530 24.1428  16
   5  -7  -7 784.307 23.2512   9
   5  -7  -7 788.639 23.1128   6
  -5  -7   7 772.018 23.4648  12
  -5  -7   7 762.333 24.0691   2
  -5  -7   7 739.012 23.2756   5
   5  -7  -7 833.030 25.1158  15
   5   7  -7 788.681 23.4236   7
  -5   7   7 755.815 22.8480  12
  -5   7   7 825.166 26.0730  16
  -5   7   7 750.882 24.2000   8
  -5   7   7 775.361 24.2361  13
   3  -7  -7 187.841 9.53359  15
  -3  -7   7 174.105 8.76065  12
   3  -7  -7 204.317 9.59053   6
  -3  -7   7 189.311 10.4167   2
   3  -7  -7 181.727 8.36953   9
   3   7  -7 170.497 8.94505   7
  -3   7   7 185.373 10.0028   8
  -3   7   7 212.574 8.85364  12
   3   7  -7 193.673 8.67115   3
  -3   7   7 188.903 10.2071  13
   1  -7  -7 547.348 18.3233  15
  -1  -7   7 548.552 17.8732  12
   1  -7  -7 563.024 19.1185   6
  -1  -7   7 560.255 19.8768   2
  -1   7   7 548.655 19.9847  13
  -1   7   7 567.817 18.1322   3
  -1   7   7 569.865 17.2536  12
   1   7  -7 553.663 18.2285   7
  -1  -7  -7 227.546 12.0421  11
   1  -7   7 208.987 11.1833   2
  -1  -7  -7 222.504 9.97214  15
  -1  -7  -7 231.503 11.4139   6
   1  -7   7 210.486 9.92387  12
   1   7   7 209.279 9.10626  12
  -1   7  -7 204.680 10.2337   1
   1   7   7 213.784 11.1211   3
  -1   7  -7 222.698 10.6116   7
   1   7   7 218.788 12.4813  13
   3  -7   7 519.454 18.2281  12
  -3  -7  -7 515.821 20.8972  11
   3  -7   7 534.451 19.8538   2
  -3  -7  -7 499.819 18.5968   6
  -3   7  -7 511.158 18.7874   7
   3   7   7 504.069 17.1074  12
  -3   7  -7 501.222 19.3379   1
   3   7   7 538.413 20.7163   3
   8  -8  -7 371.233 15.5470   9
  -8  -8   7 354.955 16.0910   5
  -8   8   7 394.613 16.3860   8
   8   8  -7 359.886 15.0367   7
   6  -8  -7 109.418 8.43713  15
   6  -8  -7 103.914 6.98519   6
  -6  -8   7 99.0761 7.60636   2
   6  -8  -7 105.904 7.48201   9
  -6  -8   7 101.190 8.03372   5
  -6  -8   7 91.8537 7.79095  16
  -6   8   7 99.5379 7.75223  13
  -6   8   7 98.1277 7.39823   8
   6   8  -7 100.238 7.54255   7
  -6   8   7 95.4470 6.81678  12
   4  -8  -7 498.222 17.5750   6
   4  -8  -7 537.685 18.9480  15
  -4  -8   7 488.723 17.4624  12
  -4  -8   7 472.057 18.3589   2
   4  -8  -7 504.237 16.7250   9
   4   8  -7 478.890 16.9411   7
  -4   8   7 503.563 18.7082  13
  -4   8   7 485.530 16.7941  12
  -4   8   7 523.545 18.6982   8
   2  -8  -7 325.646 13.2609  15
  -2  -8   7 329.950 13.3587  12
   2  -8  -7 325.895 14.0628   6
  -2  -8   7 327.573 14.8553   2
  -2   8   7 346.650 14.7517   8
   2   8  -7 328.735 13.2284   7
  -2   8   7 340.217 14.9422  13
   2   8  -7 335.471 13.2653   3
  -2   8   7 341.739 12.7952  12
   0  -8   7 211.591 12.0936   2
   0  -8  -7 209.945 11.1817   6
   0  -8  -7 196.532 9.50381  15
   0  -8   7 190.011 9.82850  12
   0   8   7 191.902 11.2825  13
   0   8   7 210.280 10.8465   3
   0   8   7 208.827 9.44031  12
   0   8  -7 209.501 10.1196   7
   2  -8   7 470.667 17.3170  12
   2  -8   7 460.723 18.9002   2
  -2  -8  -7 466.990 19.4257  11
  -2  -8  -7 441.827 17.9610   6
  -2   8  -7 458.899 17.8207   1
   2   8   7 460.963 16.1325  12
   2   8   7 463.721 18.5323   3
  -2   8  -7 450.350 17.1452   7
  -9  -9   7 34.0824 6.48502   5
  -9   9   7 21.4220 4.87546   8
   7  -9  -7 1003.18 30.0679   9
   7  -9  -7 1040.27 32.1102  15
  -7  -9   7 981.591 30.8948   5
  -7  -9   7 887.581 32.2618  16
  -7   9   7 998.697 30.7257   8
   7   9  -7 1041.57 30.3488   7
   5  -9  -7 115.868 7.62374   9
   5  -9  -7 113.180 8.55850  15
   5  -9  -7 108.538 7.55573   6
  -5  -9   7 103.891 8.29782   2
  -5   9   7 107.328 8.22019  16
  -5   9   7 107.621 8.04894  13
   5   9  -7 105.188 7.68065   7
  -5   9   7 104.806 8.25050   8
  -5   9   7 107.694 7.47937  12
   3  -9  -7 1966.30 50.9987  15
  -3  -9   7 1939.80 51.8282   2
   3  -9  -7 1924.83 50.4240   6
  -3  -9   7 1901.10 50.4386  12
  -3   9   7 2000.72 51.9561   8
  -3   9   7 1923.69 52.2254  13
   3   9  -7 1943.06 49.6930   7
  -3   9   7 1932.18 49.5352  12
  -1  -9   7 113.790 9.65117   2
   1  -9  -7 114.731 8.69310   6
   1  -9  -7 118.436 7.37967  15
  -1  -9   7 99.6950 7.48822  12
   1   9  -7 113.405 7.90711   7
  -1   9   7 109.608 8.03785   3
  -1   9   7 116.071 9.25776  13
  -1   9   7 118.143 7.48551  12
   1  -9   7 1454.99 40.8877  12
   1  -9   7 1523.40 43.1653   2
  -1  -9  -7 1501.88 42.2066   6
  -1   9  -7 1458.71 40.3461   7
   1   9   7 1530.86 42.1956   3
   1   9   7 1447.52 39.5481  12
  -3  -9  -7 15.3763 4.20650   6
   3  -9   7 17.1233 4.20352  12
   3  -9   7 19.4870 5.64747   2
   3   9   7 25.5850 5.16461   3
  -3   9  -7 20.7990 4.88767   7
   3   9   7 18.7178 3.65964  12
   6 -10  -7 30.3154 5.44175  15
   6 -10  -7 22.1356 4.01790   9
   6  10  -7 24.2003 4.29172   7
  -6  10   7 22.3742 4.80748   8
   4 -10  -7 16.9763 3.64776   9
   4 -10  -7 19.0286 4.28153   6
  -4 -10   7 22.0037 5.38225   2
   4 -10  -7 31.5229 5.17152  15
   4  10  -7 20.5256 3.87397   7
  -4  10   7 26.9321 5.19475   8
  -4  10   7 26.2441 4.30553  12
  -2 -10   7 -0.7007 2.97825   2
   2 -10  -7 0.70418 2.33008   6
  -2 -10   7 -0.7169 2.30703  12
   2 -10  -7 3.12293 2.48447  15
   2  10  -7 2.64756 2.15706   7
  -2  10   7 -2.6933 2.61376   8
   2  10  -7 2.46290 2.04779   3
  -2  10   7 2.09927 2.26524  12
   0 -10  -7 -1.1983 3.26881   6
   0 -10   7 6.02913 4.84984   2
   0 -10   7 8.51178 3.27483  12
   0  10   7 8.78552 2.96852  12
   0  10  -7 8.93942 3.64216   7
   0  10   7 6.70776 3.80034   3
   2 -10   7 23.3820 6.08624   2
   2 -10   7 30.8983 4.68120  12
  -2 -10  -7 40.4743 6.38691   6
   2  10   7 39.1820 5.38002  12
  -2  10  -7 29.1482 5.03847   7
   2  10   7 32.6307 5.92657   3
   5 -11  -7 209.836 11.9230  15
   5 -11  -7 208.582 10.7331   9
  -5 -11   7 209.479 12.0290   2
   5  11  -7 221.844 11.6124   7
  -5  11   7 214.476 11.7387   8
  -3 -11   7 230.638 13.5574   2
   3 -11  -7 236.931 12.0680   6
  -3  11   7 212.798 12.3220   8
  -3  11   7 237.269 11.8396  12
   3  11  -7 240.627 11.8697   7
  -1 -11   7 95.7449 10.1752   2
   1 -11  -7 93.4179 8.13967   6
   1  11  -7 84.9061 7.41918   7
  -1  11   7 91.5371 6.89462  12
  -1  11   7 103.439 8.60236   8
  12   0  -8 429.109 18.2842   4
 -12   0   8 437.809 18.3797   5
 -10   0   8 124.519 8.82467  16
 -10   0   8 114.992 8.08287   8
  10   0  -8 113.922 8.54622   4
 -10   0   8 123.713 9.45126   5
  10   0  -8 119.082 7.25006   9
  -8   0   8 1775.12 46.4487   5
   8   0  -8 1717.67 45.5565   4
   8   0  -8 1818.38 44.2625   9
  -8   0   8 1773.70 44.9539   8
  -8   0   8 1775.86 44.4324  12
  -8   0   8 1711.61 46.6381  16
   8   0  -8 1731.81 42.9570   7
  -6   0   8 500.342 15.0591  12
  -6   0   8 470.000 16.9642  16
   6   0  -8 483.763 16.0210   4
  -6   0   8 501.448 16.9742   5
   6   0  -8 447.217 13.8937   7
   6   0  -8 489.455 15.6305   9
   6   0  -8 484.506 15.4856  15
  -6   0   8 499.620 15.5555   8
  -4   0   8 3483.29 82.5223  16
   4   0  -8 3588.76 81.4002  15
  -4   0   8 3592.81 82.0377   5
  -4   0   8 3563.36 78.6076  12
   4   0  -8 3601.39 80.7650   9
   4   0  -8 3229.36 78.6235   7
  -4   0   8 3454.20 79.8587   8
  -2   0   8 284.933 9.94896   8
   2   0  -8 286.340 10.3669   9
   2   0  -8 275.405 9.48536   7
  -2   0   8 286.255 11.4680  16
  -2   0   8 292.734 7.56044  12
   2   0  -8 300.961 10.6357   6
   2   0  -8 291.073 11.2351  15
   0   0  -8 2537.70 59.8095   9
   0   0  -8 2612.02 61.9425  15
   0   0  -8 2572.98 59.7568   7
   0   0   8 2524.90 61.9421  16
   0   0  -8 2557.74 59.6947   6
   0   0   8 2515.98 67.9207  10
   0   0  -8 2513.32 60.2256  11
   2   0   8 7.38203 0.97269  12
  -2   0  -8 17.8711 2.99699   7
  -2   0  -8 7.16534 2.53773  15
  -2   0  -8 9.48192 2.86270  11
  -2   0  -8 6.40993 2.73822   1
  -4   0  -8 958.757 30.0206   1
  -4   0  -8 972.603 30.1231  11
   4   0   8 870.340 32.2780  14
   4   0   8 999.575 25.0970  12
   4   0   8 1035.61 30.6364   4
 -11  -1   8 1.41561 3.62285   5
 -11  -1   8 1.79009 3.14002   8
  11  -1  -8 4.00393 2.09281   9
  11  -1  -8 2.04579 2.88646   4
 -11   1   8 0.88034 2.45056   8
 -11   1   8 3.57227 2.41862  11
  11   1  -8 2.79274 3.26756   4
 -11   1   8 6.47994 3.75692   5
  -9  -1   8 189.018 10.0511   8
   9  -1  -8 191.175 10.1899   4
  -9  -1   8 186.893 11.0466   5
   9  -1  -8 214.939 9.80971   9
  -9  -1   8 192.498 11.0039  16
  -9   1   8 192.708 10.5174  16
  -9   1   8 190.177 10.5231   8
   9   1  -8 198.507 8.90339   9
   9   1  -8 191.928 8.79946   7
  -9   1   8 200.023 10.6760   5
   9   1  -8 200.967 10.5188   4
   7  -1  -8 6.52032 2.03637   9
  -7  -1   8 6.36658 2.04591  12
  -7  -1   8 12.2387 3.23334  16
   7  -1  -8 15.2303 2.95769   4
  -7  -1   8 10.6840 3.34150   5
   7  -1  -8 7.24608 2.33607  15
  -7  -1   8 5.83416 1.89664   8
   7   1  -8 6.87213 2.67304   4
  -7   1   8 7.47306 2.42164  16
  -7   1   8 8.77691 3.04914   5
   7   1  -8 6.24070 1.99242  15
   7   1  -8 7.70697 2.47671   9
   7   1  -8 7.24615 2.11378   7
  -7   1   8 6.66546 2.69613   8
  -7   1   8 8.13710 2.27213  12
   5  -1  -8 96.7876 6.08336  15
  -5  -1   8 109.683 6.80765   5
  -5  -1   8 86.6064 6.18667  16
  -5  -1   8 89.2666 5.04252   8
   5  -1  -8 88.3596 5.55380   9
   5  -1  -8 73.4787 4.46726   7
  -5   1   8 101.647 5.04138  12
   5   1  -8 91.3289 4.83923   7
  -5   1   8 91.3395 6.49570   5
  -5   1   8 93.0292 6.53759  16
   5   1  -8 110.633 5.91179  15
   5   1  -8 103.627 5.73752   9
  -5   1   8 91.0162 5.61782   8
  -3  -1   8 243.196 9.90785   5
   3  -1  -8 236.664 9.22241   9
  -3  -1   8 233.820 8.21001   8
   3  -1  -8 232.517 9.91602  15
   3  -1  -8 237.780 9.36214   6
  -3  -1   8 242.383 7.52978  12
   3  -1  -8 229.753 7.77181   7
  -3  -1   8 237.044 10.1061  16
  -3   1   8 241.998 7.34641  12
   3   1  -8 232.695 8.59529   7
   3   1  -8 246.347 9.86603  15
   3   1  -8 239.832 9.22251   9
  -3   1   8 226.966 10.2929  16
  -3   1   8 241.610 9.33052   8
  -1  -1   8 1.53923 1.62337   5
   1  -1  -8 2.30621 1.37402   1
  -1  -1   8 3.69772 0.59897  12
   1  -1  -8 5.92015 1.95755   6
   1  -1  -8 11.0899 2.03827   7
   1  -1  -8 8.62460 1.93413   9
  -1  -1   8 3.78453 2.90108  10
  -1  -1   8 3.04325 1.64773  16
   1  -1  -8 4.58095 1.80060  11
   1  -1  -8 2.93878 1.59328  15
  -1   1   8 4.25839 2.11912  16
   1   1  -8 3.80760 1.80064   9
  -1   1   8 5.40357 1.99522  13
   1   1  -8 3.20672 1.66091  15
   1   1  -8 2.10736 1.18742   7
  -1  -1  -8 307.948 12.1972  11
  -1  -1  -8 293.895 10.6994   7
  -1  -1  -8 290.965 11.9318  15
   1  -1   8 268.357 15.7184  10
   1  -1   8 289.679 7.20011  12
  -1  -1  -8 313.980 10.5897   9
  -1  -1  -8 294.460 11.4327   1
  -1   1  -8 268.814 11.7777  15
  -1   1  -8 300.723 11.4923   7
  -1   1  -8 289.783 11.5659   1
   3  -1   8 17.0192 2.22876  12
  -3  -1  -8 15.1460 3.54523   1
  -3  -1  -8 25.7320 4.14768  11
  -3   1  -8 27.3748 4.80408   1
   3   1   8 17.2831 4.03505   4
   3   1   8 19.9376 2.12862  12
  -3   1  -8 15.8328 3.78914   7
   3   1   8 16.5245 4.56751  14
   5  -1   8 43.0833 6.52814   4
   5  -1   8 46.6073 4.31391  12
  -5  -1  -8 38.1395 5.61799   1
  -5  -1  -8 44.3488 6.46678  11
  -5   1  -8 48.5965 6.24884   1
   5   1   8 43.4595 4.17046  12
  12  -2  -8 165.419 10.4363   4
 -12  -2   8 150.454 10.3742   8
 -12  -2   8 152.295 10.6385   5
 -12   2   8 161.803 11.1157  11
 -12   2   8 176.010 11.6516   8
 -10  -2   8 1019.10 31.9871   5
 -10  -2   8 975.449 32.1590  16
  10  -2  -8 1003.35 28.7491   9
  10  -2  -8 943.151 29.8623   4
 -10  -2   8 992.210 29.5587   8
 -10   2   8 1023.77 30.7143   5
 -10   2   8 1018.74 30.7611   8
 -10   2   8 986.021 30.9293  16
  10   2  -8 1022.76 31.4204   4
  -8  -2   8 94.2167 6.34418   8
   8  -2  -8 92.2045 6.54987   9
   8  -2  -8 93.1792 6.51956  15
   8  -2  -8 89.7050 6.36203   4
  -8  -2   8 103.131 7.46518   5
  -8  -2   8 92.3103 7.10288  16
  -8  -2   8 100.494 6.47909  12
  -8   2   8 100.138 6.46365  12
   8   2  -8 96.7092 6.21888   7
  -8   2   8 90.5000 7.15004   8
   8   2  -8 92.2576 6.03052   9
  -8   2   8 105.203 7.75100   5
   8   2  -8 97.4219 7.28044   4
  -8   2   8 93.7620 7.16574  16
   6  -2  -8 991.016 26.7014   4
   6  -2  -8 1003.50 27.1982   9
   6  -2  -8 984.460 27.6361  15
  -6  -2   8 1007.97 28.7555  16
  -6  -2   8 978.488 28.1333   5
  -6  -2   8 966.690 25.7219   8
  -6  -2   8 1011.90 26.5899  12
  -6   2   8 1012.14 27.6443   8
  -6   2   8 988.314 28.9686  16
   6   2  -8 949.852 26.0420   7
  -6   2   8 1018.39 26.3515  12
   6   2  -8 993.573 26.7360   9
   6   2  -8 968.951 25.9438  15
  -6   2   8 987.766 28.5121   5
   4  -2  -8 147.475 7.76527  15
  -4  -2   8 141.796 5.98145  12
  -4  -2   8 143.382 7.56520  16
   4  -2  -8 149.116 7.04905   9
  -4  -2   8 137.730 7.37702   5
   4  -2  -8 148.583 7.14112   6
  -4   2   8 144.368 5.81253  12
   4   2  -8 137.570 6.46993   7
  -4   2   8 141.077 8.11713  16
   4   2  -8 139.442 6.96985   9
  -4   2   8 141.240 6.26971  13
  -4   2   8 141.787 7.24839   8
   4   2  -8 126.069 6.58558  15
   2  -2  -8 1115.17 29.4599   6
   2  -2  -8 1089.20 30.0888  15
  -2  -2   8 1149.93 28.9250   5
   2  -2  -8 1089.84 28.5460   9
  -2  -2   8 1099.94 26.2694  12
  -2  -2   8 1062.78 29.1159  16
   2   2  -8 1128.23 29.0918   9
  -2   2   8 1122.14 25.6241  12
  -2   2   8 1076.68 29.1906  13
   2   2  -8 1110.91 29.6507  15
   2   2  -8 1144.14 28.7173   7
   0  -2  -8 436.714 14.5808   1
   0  -2   8 440.864 11.2512  12
   0  -2  -8 423.851 13.0995   7
   0  -2  -8 430.343 13.4436   9
   0  -2   8 445.540 20.9204  10
   0  -2  -8 456.739 15.6882  15
   0  -2  -8 441.704 15.2169  11
   0  -2  -8 468.707 14.8320   6
   0   2  -8 402.991 13.7570   1
   0   2  -8 451.390 14.6636   9
   0   2  -8 465.803 14.8137   7
   0   2   8 429.368 15.8217  13
   0   2  -8 448.797 15.6140  15
  -2  -2  -8 1048.43 30.1152  11
  -2  -2  -8 1029.96 29.0586  15
  -2  -2  -8 983.934 29.0267   1
   2  -2   8 1005.11 24.6198  12
  -2   2  -8 919.465 28.3823   1
  -2   2  -8 969.583 28.2407   7
   2   2   8 1059.74 23.1639  12
   2   2   8 1033.60 31.1611  14
   4  -2   8 576.836 21.4887   4
   4  -2   8 568.708 16.5955  12
  -4  -2  -8 553.331 20.9832  11
  -4  -2  -8 536.990 20.3384   1
  -4   2  -8 520.863 19.7176   1
   4   2   8 492.214 21.8400  14
   4   2   8 528.084 15.4900  12
 -11  -3   8 4.07568 3.14620   8
  11  -3  -8 1.54398 2.05645   9
  11  -3  -8 2.91705 2.76545   4
 -11  -3   8 -2.0856 2.25328   5
 -11   3   8 -0.7023 2.81114   5
 -11   3   8 0.09129 3.57886   8
  11   3  -8 1.69042 2.18943   4
  11   3  -8 -0.4825 2.29644   7
 -11   3   8 2.12397 3.63044  11
   9  -3  -8 139.958 8.63058  15
   9  -3  -8 138.680 8.11973   4
  -9  -3   8 128.665 7.50666   8
   9  -3  -8 135.101 8.28064   9
  -9  -3   8 135.879 9.71978  16
  -9  -3   8 135.274 9.95443   5
   9   3  -8 139.635 9.35698   4
  -9   3   8 127.952 8.37153  16
  -9   3   8 129.977 8.49404   5
  -9   3   8 134.374 9.31640   8
   9   3  -8 164.361 10.8489   9
   9   3  -8 130.899 8.00942   7
   7  -3  -8 0.76093 1.45373   4
   7  -3  -8 0.66940 2.24512  15
  -7  -3   8 -0.0694 1.54821  16
  -7  -3   8 1.63734 1.72819  12
  -7  -3   8 0.53876 1.90595   5
   7  -3  -8 0.50125 1.45032   9
   7   3  -8 3.80736 2.02530   4
  -7   3   8 0.51109 1.12079  12
  -7   3   8 -0.1826 2.35727   8
   7   3  -8 -0.1951 1.44724  14
  -7   3   8 -0.8881 2.23774   5
  -7   3   8 -0.2904 1.72346  16
   7   3  -8 -1.5028 1.48950   9
   7   3  -8 1.52637 1.39288   7
   5  -3  -8 23.9520 3.59079  15
  -5  -3   8 21.3028 3.34267  16
   5  -3  -8 29.4807 3.79962   9
  -5  -3   8 19.8910 2.75168  12
  -5  -3   8 20.6211 3.37916   5
   5  -3  -8 23.0608 3.43221   6
   5   3  -8 19.5370 3.07360   7
  -5   3   8 26.5112 3.09395  12
  -5   3   8 32.8271 3.78354  13
  -5   3   8 26.7634 4.14726  16
   5   3  -8 20.3315 3.28039   9
  -5   3   8 21.4114 3.85840   5
  -5   3   8 20.2947 3.55304   8
   5   3  -8 21.9759 2.84902  15
  -3  -3   8 59.5666 3.69737  12
   3  -3  -8 63.7303 5.34757  15
   3  -3  -8 63.6491 5.02964   6
  -3  -3   8 61.8348 4.71666   5
  -3  -3   8 54.5441 4.46293  16
   3  -3  -8 57.6266 4.33237   9
  -3   3   8 58.7344 3.47744  12
   3   3  -8 58.2024 4.69939   9
  -3   3   8 59.7943 4.75730   8
   3   3  -8 63.3188 4.64758  15
  -3   3   8 63.5460 5.83944  16
   3   3  -8 68.8322 4.73334   7
  -3   3   8 62.3469 4.71465  13
   1  -3  -8 46.4709 4.66288   6
  -1  -3   8 40.8741 2.89312  12
   1  -3  -8 40.8721 3.30121   9
  -1  -3   8 53.2229 7.37970  10
   1  -3  -8 47.9418 4.47794  15
   1   3  -8 47.2580 4.45539   9
  -1   3   8 45.6623 4.39407  13
   1   3  -8 46.3441 3.95187   7
  -1   3   8 42.0574 2.20565  12
   1   3  -8 46.7945 4.75337  15
  -1  -3  -8 45.9739 5.02450  15
   1  -3   8 43.3176 3.20413  12
   1  -3   8 46.9718 5.46966   2
  -1  -3  -8 43.3515 4.89771   1
  -1  -3  -8 46.1069 5.61554  11
   1   3   8 39.4974 2.03650  12
  -1   3  -8 39.0078 4.46198   1
   1   3   8 42.3698 5.89689  13
  -1   3  -8 42.6353 4.59501   7
  -3  -3  -8 38.0769 5.93886  11
  -3  -3  -8 38.2008 4.82506  15
  -3  -3  -8 35.9900 5.51605   1
   3  -3   8 33.5857 3.37706  12
   3   3   8 38.4017 2.98830  12
   3   3   8 29.2255 5.47782  14
  -3   3  -8 45.9006 5.74799   7
  -3   3  -8 36.4492 4.94390   1
  -5  -3  -8 3.09801 3.71495   1
   5  -3   8 3.55753 3.27403   4
  -5  -3  -8 1.38373 3.17357  11
   5  -3   8 1.34809 2.03342  12
  -5   3  -8 1.79743 3.39758   1
   5   3   8 1.69089 1.58281  12
 -10  -4   8 1069.61 33.6125   5
  10  -4  -8 1112.04 31.5031   9
  10  -4  -8 1105.32 31.8506  15
  10   4  -8 1057.76 33.1447   4
 -10   4   8 1071.11 32.7198   8
 -10   4   8 1012.59 31.7181  16
  10   4  -8 1062.66 31.0627   7
 -10   4   8 1049.65 31.7983   5
  -8  -4   8 147.143 9.34464   5
  -8  -4   8 135.798 9.17513  16
  -8  -4   8 136.421 7.98192  12
   8  -4  -8 145.403 8.95310  15
   8  -4  -8 146.228 8.30594   9
   8   4  -8 144.267 8.21956   7
  -8   4   8 146.863 8.68562   5
  -8   4   8 145.581 7.85251  12
  -8   4   8 153.786 8.98337   8
   8   4  -8 134.630 8.47012  14
  -8   4   8 135.578 8.48784  16
   8   4  -8 132.039 9.15539   4
   8   4  -8 150.050 7.42354   9
   6  -4  -8 2376.13 57.3223   6
   6  -4  -8 2443.43 59.1648  15
  -6  -4   8 2307.69 57.0908  12
  -6  -4   8 2397.31 58.9772   5
   6  -4  -8 2424.19 57.9691   9
  -6  -4   8 2345.75 59.3842  16
  -6   4   8 2292.81 56.8142  13
  -6   4   8 2484.81 59.7654   5
   6   4  -8 2358.98 57.4107   7
  -6   4   8 2434.90 57.0964  12
   6   4  -8 2314.10 56.6554   9
  -6   4   8 2373.51 58.7262   8
  -6   4   8 2363.24 60.0924  16
   4  -4  -8 385.804 14.3198  15
   4  -4  -8 391.870 13.4058   9
   4  -4  -8 385.596 13.8773   6
  -4  -4   8 404.456 12.8418  12
  -4  -4   8 398.673 13.6520   5
  -4  -4   8 386.574 13.9214  16
  -4   4   8 377.323 14.2589   8
  -4   4   8 382.389 13.5702  13
   4   4  -8 410.777 13.6478   7
   4   4  -8 383.909 13.3769   9
  -4   4   8 395.088 15.9454  16
   4   4  -8 406.579 13.0217  15
  -4   4   8 398.351 12.4859  12
   2  -4  -8 2197.46 52.4703   9
  -2  -4   8 2124.99 63.3687  10
  -2  -4   8 2216.42 51.7690  12
   2  -4  -8 2231.41 54.8391  15
   2  -4  -8 2190.90 54.1352   6
  -2   4   8 2207.17 54.7382  13
   2   4  -8 2259.57 53.7599   9
   2   4  -8 2222.72 53.8140  15
  -2   4   8 2236.64 50.7858  12
   2   4  -8 2227.35 53.5540   7
   0  -4   8 161.762 6.76481  12
   0  -4  -8 163.422 9.19959  11
   0  -4  -8 171.913 8.88682  15
   0  -4   8 159.455 9.28532   2
   0  -4  -8 174.273 8.62017   6
   0   4   8 156.486 9.32531  13
   0   4  -8 173.589 8.60071   7
   0   4   8 162.042 5.74182  12
  -2  -4  -8 866.150 27.7490  11
  -2  -4  -8 861.913 25.6013   6
  -2  -4  -8 880.936 25.8985  15
   2  -4   8 892.050 26.6014   2
   2  -4   8 881.718 23.5754  12
   2   4   8 910.386 27.2386   3
  -2   4  -8 879.991 26.2597   7
   2   4   8 850.600 28.9101  13
  -2   4  -8 837.858 26.1532   1
   2   4   8 875.710 22.1032  12
  -4  -4  -8 29.0485 5.76712  11
  -4  -4  -8 35.6711 5.86312   1
   4  -4   8 30.1564 3.98719  12
   4  -4   8 32.9673 5.63604   4
   4   4   8 37.4465 3.57626  12
  -4   4  -8 34.0639 4.92572   7
   4   4   8 37.5793 6.01760   3
  -4   4  -8 40.4907 5.99508   1
  11  -5  -8 306.129 13.9506   9
 -11  -5   8 313.940 16.1134   5
 -11   5   8 285.187 14.1858   8
  11   5  -8 291.337 14.8830   4
  -9  -5   8 88.7457 8.58724   5
  -9  -5   8 80.6155 8.07057  16
   9  -5  -8 93.4155 7.89950  15
   9  -5  -8 84.3868 6.81745   9
   9   5  -8 83.3977 6.96363   7
  -9   5   8 91.4984 6.96709   5
  -9   5   8 91.2582 7.49512   8
   9   5  -8 75.7385 7.05434  14
  -9   5   8 82.6007 6.61317  16
   9   5  -8 90.2475 8.30272   4
  -7  -5   8 385.237 14.4703  12
   7  -5  -8 379.139 13.6193   6
   7  -5  -8 406.978 15.9849  15
  -7  -5   8 374.415 15.7371  16
  -7  -5   8 383.672 15.5445   5
   7  -5  -8 397.587 14.7825   9
  -7   5   8 385.610 15.6453  16
  -7   5   8 392.857 14.1372  12
  -7   5   8 374.537 15.1337   5
   7   5  -8 388.563 14.5787   7
  -7   5   8 381.972 15.4205   8
   7   5  -8 389.364 13.3014   9
   7   5  -8 394.717 15.6710  14
  -7   5   8 368.844 13.9675  13
  -5  -5   8 230.503 9.65078  12
   5  -5  -8 231.082 10.3021   6
   5  -5  -8 224.509 9.89873   9
  -5  -5   8 255.241 10.9428   5
   5  -5  -8 222.953 10.9601  15
  -5  -5   8 233.293 10.6408  16
   5   5  -8 223.738 9.62150   9
  -5   5   8 222.544 11.4245  16
   5   5  -8 220.928 9.76871   7
  -5   5   8 222.233 9.38456  12
  -5   5   8 209.898 9.65221  13
  -5   5   8 225.109 10.5863   8
   3  -5  -8 109.050 7.02349  15
  -3  -5   8 120.285 7.50084   2
   3  -5  -8 107.917 6.69691   6
   3  -5  -8 98.0561 5.67772   9
  -3  -5   8 105.265 5.91372  12
   3   5  -8 105.027 6.27097   7
  -3   5   8 103.907 7.28063   8
   3   5  -8 110.553 6.83322   9
  -3   5   8 104.215 5.44102  12
  -3   5   8 99.5084 6.82253  13
  -1  -5   8 271.875 12.6409   2
   1  -5  -8 283.310 12.1484   6
  -1  -5   8 285.444 10.2890  12
   1  -5  -8 261.521 9.90756   9
   1  -5  -8 287.694 12.0360  15
  -1   5   8 286.119 9.45603  12
   1   5  -8 275.562 11.1964   7
  -1   5   8 278.591 12.8663  13
  -1  -5  -8 13.3785 3.32571   6
  -1  -5  -8 20.5946 3.76840  15
  -1  -5  -8 8.46880 3.31371  11
   1  -5   8 10.7264 2.45663  12
   1  -5   8 6.39985 4.04921   2
   1   5   8 11.6560 3.74342  13
   1   5   8 11.7554 2.05166  12
   1   5   8 13.4226 3.11888   3
  -1   5  -8 7.89940 3.19640   7
  -3  -5  -8 74.7401 8.09928  11
   3  -5   8 68.7102 5.54306  12
   3   5   8 74.1527 8.09240   3
   3   5   8 65.0874 4.49438  12
  -3   5  -8 66.0512 6.81327   7
  -3   5  -8 69.7596 6.87742   1
  10  -6  -8 45.8893 6.03189   9
 -10  -6   8 47.8738 7.35404   5
  10  -6  -8 58.3206 7.02398  15
 -10   6   8 64.9221 6.71734   8
  10   6  -8 61.1625 7.04492   7
  10   6  -8 46.9527 6.82701   4
  -8  -6   8 1038.30 32.1256   5
  -8  -6   8 1015.83 32.8799  16
   8  -6  -8 1107.04 31.2540   9
   8  -6  -8 1097.03 32.5240  15
  -8   6   8 1047.04 31.6569  16
  -8   6   8 1050.48 30.2169  12
  -8   6   8 1036.00 30.5594  13
  -8   6   8 1085.71 32.0843   8
   8   6  -8 1077.31 32.7313  14
  -8   6   8 1051.26 31.2916   5
   8   6  -8 1050.18 30.7805   7
   6  -6  -8 23.0018 3.72628   9
  -6  -6   8 16.4548 3.04837  12
   6  -6  -8 17.0004 4.09468  15
  -6  -6   8 14.7001 3.70478  16
   6  -6  -8 17.1646 3.52927   6
  -6  -6   8 14.5889 3.80758   2
  -6  -6   8 20.4144 4.33393   5
  -6   6   8 22.4693 4.30364  16
  -6   6   8 24.5673 4.60228   5
  -6   6   8 22.0738 4.08699  13
   6   6  -8 23.9420 3.45778   9
   6   6  -8 22.9553 3.70575   7
  -6   6   8 22.0520 3.61883  12
  -6   6   8 18.8014 4.13440   8
   4  -6  -8 1254.33 33.9132   6
   4  -6  -8 1246.26 33.0946   9
  -4  -6   8 1231.62 35.0224   2
   4  -6  -8 1319.98 35.4694  15
  -4  -6   8 1270.08 33.3065   5
  -4  -6   8 1169.94 33.3762  16
  -4  -6   8 1237.01 33.2146  12
   4   6  -8 1240.74 33.4609   7
   4   6  -8 1237.53 33.0025   9
  -4   6   8 1309.95 35.4679   8
  -4   6   8 1222.54 34.2964  13
  -4   6   8 1227.91 32.4355  12
  -2  -6   8 36.3183 3.96026  12
   2  -6  -8 35.3547 4.88741   6
   2  -6  -8 43.6521 3.82964   9
  -2  -6   8 33.9046 5.53082   2
   2  -6  -8 39.6460 4.89351  15
  -2   6   8 46.9787 3.95110  12
  -2   6   8 36.2666 5.26722  13
   2   6  -8 36.3996 4.42856   7
   0  -6  -8 1325.77 36.4273   6
   0  -6   8 1336.39 34.5277  12
   0  -6  -8 1299.09 35.7334  15
   0  -6   8 1319.33 37.6019   2
   0   6  -8 1317.79 35.6828   7
   0   6   8 1341.00 35.7112   3
   0   6   8 1279.95 33.0076  12
   0   6   8 1280.13 38.2422  13
  -2  -6  -8 116.673 9.28737  11
   2  -6   8 121.617 7.58185  12
   2  -6   8 127.088 9.39075   2
  -2  -6  -8 130.971 8.56588   6
   2   6   8 115.839 6.29062  12
   2   6   8 122.147 8.53766   3
  -2   6  -8 125.925 8.10233   7
   2   6   8 106.343 8.85141  13
  -4  -6  -8 929.744 31.7086  11
   4  -6   8 939.402 27.9108  12
   4   6   8 977.751 31.0679   3
  -4   6  -8 952.682 29.1558   7
   4   6   8 916.013 26.4709  12
  -4   6  -8 885.302 29.7926   1
   9  -7  -8 -0.5247 3.28211  15
   9  -7  -8 3.19276 3.50656   9
  -9  -7   8 4.73377 4.33619   5
   9   7  -8 2.62821 3.13858   7
  -9   7   8 8.18324 3.79433   8
   7  -7  -8 72.2694 6.69954   9
   7  -7  -8 69.3888 7.32368  15
  -7  -7   8 66.5406 6.58723   2
   7  -7  -8 73.9495 6.03317   6
  -7  -7   8 78.3417 7.03541  16
  -7  -7   8 75.1804 6.86534   5
  -7   7   8 64.9154 6.54039   5
   7   7  -8 85.2611 6.52567   7
  -7   7   8 59.4091 5.27490  12
  -7   7   8 77.6687 7.43627   8
  -5  -7   8 43.0960 5.24730   5
   5  -7  -8 58.5995 6.72058  15
   5  -7  -8 49.0182 5.66224   6
  -5  -7   8 52.7779 6.45931   2
   5  -7  -8 49.6087 5.30469   9
  -5  -7   8 53.3330 5.28477  12
  -5   7   8 56.2948 5.12501  12
  -5   7   8 55.3640 5.63898   8
  -5   7   8 41.2397 5.52437  13
   5   7  -8 47.7948 5.44285   7
  -5   7   8 53.5874 6.83012  16
   3  -7  -8 50.4126 4.47420   9
   3  -7  -8 52.4976 5.92615  15
  -3  -7   8 64.3159 7.25216   2
  -3  -7   8 49.3738 4.97871  12
   3  -7  -8 48.4694 5.46798   6
  -3   7   8 55.7954 6.55629   8
  -3   7   8 51.2977 4.55199  12
  -3   7   8 53.8933 6.54655  13
   3   7  -8 47.9179 5.21450   7
  -1  -7   8 196.366 11.0669   2
   1  -7  -8 207.354 10.7855   6
   1  -7  -8 187.114 9.95483  15
  -1  -7   8 189.645 9.32460  12
  -1   7   8 191.057 8.61416  12
  -1   7   8 183.889 10.6440  13
   1   7  -8 180.632 9.41985   7
   1  -7   8 42.6623 6.70518   2
  -1  -7  -8 38.1732 4.74224  15
  -1  -7  -8 57.9909 6.68530   6
   1  -7   8 38.7937 4.82988  12
  -1   7  -8 41.8703 5.70903   7
   1   7   8 42.9084 7.00050  13
   1   7   8 39.9240 5.71846   3
   1   7   8 35.9539 4.23023  12
  -3  -7  -8 145.193 9.46624   6
  -3  -7  -8 154.090 11.3034  11
   3  -7   8 151.541 9.33429  12
   3   7   8 154.589 8.20842  12
  -3   7  -8 152.893 9.93465   7
   3   7   8 167.454 10.7499   3
  -8  -8   8 780.147 26.1934   5
   8  -8  -8 745.765 24.9223   9
   8  -8  -8 760.789 26.5205  15
  -8   8   8 751.831 25.7428   8
   8   8  -8 782.354 25.2216   7
   6  -8  -8 336.389 13.7792   6
  -6  -8   8 351.221 14.9898   2
  -6  -8   8 335.899 14.6457   5
  -6  -8   8 306.135 14.6556  16
   6  -8  -8 318.784 15.0562  15
   6  -8  -8 346.743 13.9912   9
  -6   8   8 349.394 13.9650  12
  -6   8   8 339.550 14.6785  13
   6   8  -8 343.038 14.3723   7
  -6   8   8 336.783 14.9106   8
  -4  -8   8 874.043 27.1065  12
  -4  -8   8 910.594 28.9822   2
   4  -8  -8 925.202 26.3094   9
   4  -8  -8 936.775 27.9132   6
   4  -8  -8 949.136 28.7645  15
  -4   8   8 898.001 28.5025  13
  -4   8   8 907.072 26.6182  12
  -4   8   8 920.177 28.8053   8
   4   8  -8 868.382 26.9046   7
  -2  -8   8 399.107 15.3363  12
  -2  -8   8 408.024 17.3324   2
   2  -8  -8 409.920 16.0023  15
   2  -8  -8 389.075 15.9037   6
  -2   8   8 403.712 14.4821  12
   2   8  -8 395.063 15.3501   7
  -2   8   8 395.008 16.7611   8
  -2   8   8 377.550 16.8189  13
   0  -8  -8 522.489 18.3930  15
   0  -8   8 548.008 18.8729  12
   0  -8   8 550.979 21.1094   2
   0  -8  -8 554.510 20.3322   6
   0   8   8 547.468 17.7960  12
   0   8   8 501.484 20.9196  13
   0   8  -8 527.571 18.7863   7
   0   8   8 532.437 19.1244   3
  -2  -8  -8 244.576 12.8854   6
   2  -8   8 237.983 11.8135  12
   2  -8   8 247.288 13.8514   2
   2   8   8 244.301 11.0283  12
  -2   8  -8 251.608 12.2455   7
   2   8   8 262.685 13.6592   3
   7  -9  -8 -0.2349 2.81614   9
  -7  -9   8 -1.4253 3.06833   5
   7  -9  -8 -0.2886 3.24400  15
   7   9  -8 0.01740 2.20581   7
  -7   9   8 -0.1906 2.30590   8
  -7   9   8 0.11168 2.88711   5
   5  -9  -8 7.77943 3.38037   6
   5  -9  -8 4.45313 2.74721   9
   5  -9  -8 13.8122 3.56296  15
  -5  -9   8 8.24224 4.00297   2
  -5   9   8 6.55334 4.25032  13
   5   9  -8 8.00726 3.54454   7
  -5   9   8 8.49004 2.95311  12
  -5   9   8 3.92582 3.38701   8
  -5   9   8 5.81484 3.08956  16
   3  -9  -8 14.6312 4.45350   6
   3  -9  -8 15.5486 3.92465  15
  -3  -9   8 17.4686 4.53303   2
  -3  -9   8 22.9358 4.18528  12
  -3   9   8 16.4435 4.07113   8
  -3   9   8 19.3002 3.74018  12
   3   9  -8 13.8722 3.39403   7
  -3   9   8 12.6105 4.28474  13
   1  -9  -8 1.30635 2.26185  15
  -1  -9   8 2.39028 3.33809   2
  -1  -9   8 6.46626 2.88273  12
   1  -9  -8 3.11780 2.46242   6
  -1   9   8 3.36213 2.17876  12
   1   9  -8 1.98493 3.14647   7
  -1  -9  -8 42.2722 5.83688   6
   1  -9   8 34.7982 6.80127   2
   1  -9   8 33.6637 5.07464  12
   1   9   8 40.7258 5.09117  12
   1   9   8 31.2192 5.59418   3
  -1   9  -8 30.1949 4.78094   7
   6 -10  -8 573.695 20.3633   6
   6 -10  -8 576.768 20.2480   9
   6 -10  -8 594.314 22.3121  15
  -6 -10   8 511.515 20.2232   2
   6  10  -8 571.965 20.5939   7
  -6  10   8 588.442 21.8709   8
   4 -10  -8 85.1675 7.98946   6
  -4 -10   8 100.030 9.31210   2
   4 -10  -8 97.8764 8.15190  15
  -4  10   8 94.2752 7.38202  12
   4  10  -8 89.5641 7.68154   7
  -4  10   8 90.2522 7.86954   8
  -2 -10   8 737.244 26.4378   2
  -2 -10   8 669.352 23.6328  12
   2 -10  -8 753.910 24.9706   6
   2 -10  -8 743.124 24.1215  15
  -2  10   8 714.370 23.3102  12
   2  10  -8 666.230 22.9863   7
   0 -10   8 53.7106 7.29285   2
   0 -10  -8 57.8136 7.39279   6
   0  10   8 56.7472 5.71330  12
   0  10  -8 61.9809 7.03124   7
  -3 -11   8 98.6421 10.2872   2
   3 -11  -8 84.1612 7.04948  15
   3  11  -8 89.5293 7.84571   7
  -3  11   8 76.3779 6.74713  12
  -3  11   8 82.3547 8.27397   8
 -10   0   9 0.99035 3.59874   5
  10   0  -9 -0.7374 2.18266   9
 -10   0   9 1.38051 3.14798   8
  10   0  -9 0.46698 2.45997   4
 -10   0   9 -0.6402 2.45853  16
  -8   0   9 1.88439 2.40316  16
  -8   0   9 1.47977 1.75113  12
  -8   0   9 1.13815 2.99074   5
   8   0  -9 4.26197 2.50994   4
   8   0  -9 0.86278 2.08733   9
   8   0  -9 1.77652 2.04780  15
  -8   0   9 1.61813 2.48454   8
   6   0  -9 1.74940 1.99255   9
  -6   0   9 2.09645 1.96447   8
  -6   0   9 1.02649 1.52024  16
   6   0  -9 0.93650 1.22091   7
   6   0  -9 0.38086 1.74332  15
  -6   0   9 0.00271 1.70608   5
  -6   0   9 4.38020 1.75172  12
   4   0  -9 0.11664 1.19647   9
  -4   0   9 0.53579 1.36049  16
  -4   0   9 0.49517 1.12896  12
  -4   0   9 -0.0840 1.46629   5
   4   0  -9 0.15147 1.79281  15
  -4   0   9 0.61239 1.45491   8
   4   0  -9 1.30219 1.30058   7
   2   0  -9 15.0577 2.58286   9
   2   0  -9 2.56677 2.11178  15
  -2   0   9 5.34025 2.53221   5
  -2   0   9 0.19516 1.17412  16
  -2   0   9 -0.0423 1.39647   8
  -2   0   9 2.51161 0.79093  12
   2   0  -9 0.41866 1.32775   7
   0   0  -9 8.00086 2.32846   9
   0   0  -9 1.64153 1.98594   7
   0   0  -9 1.23590 1.61221  15
   4   0   9 0.78371 1.40323  12
  -4   0  -9 -0.5528 2.79971   1
  11  -1  -9 304.598 13.0083   9
 -11  -1   9 308.433 14.3516   8
 -11  -1   9 305.825 15.2974   5
  11  -1  -9 321.306 14.9467   4
 -11   1   9 308.075 15.3286   5
 -11   1   9 334.282 14.9508   8
  -9  -1   9 611.302 20.2817  12
   9  -1  -9 617.731 21.1243   4
   9  -1  -9 615.932 20.0310   9
  -9  -1   9 613.916 22.7138  16
  -9  -1   9 634.027 20.5522   8
  -9  -1   9 645.644 22.6714   5
   9   1  -9 632.404 19.8981   9
   9   1  -9 635.483 21.9867   4
  -9   1   9 589.086 19.9899  12
  -9   1   9 614.600 22.3206  16
  -9   1   9 629.304 22.2290   5
  -9   1   9 639.998 21.3014   8
   9   1  -9 603.629 19.1668   7
   7  -1  -9 543.290 17.9963  15
  -7  -1   9 553.337 19.2891   5
   7  -1  -9 552.518 17.8894   9
  -7  -1   9 554.577 17.4167   8
  -7  -1   9 538.068 19.3553  16
  -7  -1   9 550.989 17.3615  12
  -7   1   9 508.207 19.2048  16
   7   1  -9 534.050 17.1234  15
  -7   1   9 528.893 17.0524  12
   7   1  -9 526.260 16.5108   7
  -7   1   9 550.990 18.0785   8
   7   1  -9 546.387 17.7407   9
  -7   1   9 542.706 19.2366   5
   5  -1  -9 983.369 27.0454   9
  -5  -1   9 961.402 28.4468  16
  -5  -1   9 975.244 25.6667   8
  -5  -1   9 989.355 28.1094   5
   5  -1  -9 990.728 27.9091  15
  -5   1   9 989.980 25.3645  12
  -5   1   9 980.795 26.8559   8
  -5   1   9 980.557 28.4816   5
   5   1  -9 984.777 26.9870   9
   5   1  -9 972.259 27.0238  15
  -5   1   9 955.340 28.9171  16
   5   1  -9 936.400 25.4779   7
   3  -1  -9 649.321 19.5727   6
   3  -1  -9 645.954 19.2018   9
   3  -1  -9 659.041 20.6342  15
  -3  -1   9 681.339 20.3231   5
  -3  -1   9 648.408 16.8059  12
  -3  -1   9 637.968 20.3546  16
  -3   1   9 641.116 16.4490  12
  -3   1   9 643.596 19.1998   8
   3   1  -9 653.829 20.1942  15
   3   1  -9 646.296 19.3931   9
  -3   1   9 603.480 20.7998  16
   3   1  -9 628.342 18.3191   7
   1  -1  -9 706.922 21.0503   9
   1  -1  -9 803.519 22.3162   6
   1  -1  -9 720.074 22.9631  15
   1  -1  -9 708.259 20.4322   7
  -1  -1   9 713.934 22.2915  16
  -1  -1   9 862.925 35.7922  10
  -1  -1   9 803.917 22.3019   5
   1   1  -9 776.733 21.9859   9
   1   1  -9 748.351 23.1323  15
   1   1  -9 759.343 21.5078   7
  -1   1   9 703.551 23.8575  16
  -1   1   9 738.722 28.1550  10
   1  -1   9 512.864 12.5241  12
  -1  -1  -9 510.498 16.2994   7
  -1  -1  -9 500.799 17.3363   1
  -1  -1  -9 527.748 18.4083  15
  -1  -1  -9 508.140 17.7267  11
  -1   1  -9 496.555 16.8398   7
  -1   1  -9 489.751 17.9749  15
  -3  -1  -9 320.355 14.6075   1
   3  -1   9 341.723 15.2424   4
   3  -1   9 341.613 10.6832  12
  -3  -1  -9 332.653 14.6972  11
   3   1   9 335.337 19.4592  14
   3   1   9 331.194 9.93213  12
  -3   1  -9 332.499 14.4458   1
  10  -2  -9 93.0663 7.10853   4
 -10  -2   9 87.8258 7.98420   5
 -10  -2   9 93.2950 7.46802   8
 -10  -2   9 93.9140 8.08670  16
  10  -2  -9 92.2791 6.81508   9
 -10   2   9 90.1366 8.30369   8
 -10   2   9 96.6959 8.42348   5
  10   2  -9 89.4119 8.16583   4
 -10   2   9 91.9106 7.95838  16
  10   2  -9 94.9640 6.84623   7
  -8  -2   9 159.261 9.71629   5
  -8  -2   9 139.832 7.80808   8
  -8  -2   9 153.088 9.63845  16
  -8  -2   9 154.450 8.18572  12
   8  -2  -9 157.176 8.52510  15
   8  -2  -9 167.572 8.83360   4
   8  -2  -9 152.644 8.35710   9
   8   2  -9 154.671 7.95393   9
  -8   2   9 161.707 9.37769   8
  -8   2   9 160.294 9.52975   5
   8   2  -9 163.754 9.52929   4
  -8   2   9 151.652 9.23540  16
  -8   2   9 145.391 8.13998  12
   8   2  -9 161.928 8.20943   7
  -6  -2   9 206.987 10.5925  16
   6  -2  -9 207.999 10.2232  15
   6  -2  -9 220.679 9.87484   9
  -6  -2   9 211.550 9.05687  12
  -6  -2   9 211.470 10.7568   5
   6   2  -9 207.075 9.47957   9
   6   2  -9 203.678 8.88337  15
  -6   2   9 208.592 10.9096  16
  -6   2   9 212.768 10.0905   8
   6   2  -9 211.929 9.07128   7
  -6   2   9 220.134 8.93091  12
  -6   2   9 230.492 11.2642   5
   4  -2  -9 139.801 8.19903  15
  -4  -2   9 129.203 7.66591  16
   4  -2  -9 139.178 7.32491   9
  -4  -2   9 140.861 7.92399   5
  -4  -2   9 136.470 6.21304  12
   4  -2  -9 154.806 7.91912   6
   4   2  -9 141.585 7.54417  15
  -4   2   9 139.768 5.91012  12
   4   2  -9 136.100 7.47918   9
  -4   2   9 134.609 8.34280  16
  -4   2   9 140.240 7.68318   8
   4   2  -9 135.868 6.76180   7
   2  -2  -9 259.930 10.6715   6
  -2  -2   9 244.385 7.90531  12
   2  -2  -9 252.051 11.1042  15
  -2  -2   9 268.308 10.4073   5
  -2  -2   9 242.521 10.3311  16
   2  -2  -9 247.962 9.68824   9
   2   2  -9 252.089 9.88292   7
   2   2  -9 241.151 10.2083   9
   2   2  -9 240.986 10.7946  15
  -2   2   9 234.770 10.2515   8
  -2   2   9 243.690 7.17684  12
  -2   2   9 243.294 12.1072  16
   0  -2   9 154.978 5.30559  12
   0  -2  -9 143.495 8.11582  11
   0  -2  -9 157.557 8.85608  15
   0  -2  -9 144.239 7.86632   6
   0  -2  -9 150.497 7.07239   9
   0  -2  -9 137.497 7.48892   1
   0   2  -9 174.180 8.42317   7
   0   2  -9 140.072 8.72875  15
   0   2   9 124.804 8.23150  13
   0   2  -9 146.528 7.71138   9
   2  -2   9 133.240 5.74673  12
  -2  -2  -9 147.735 8.99574  11
  -2  -2  -9 139.228 8.51539   1
  -2  -2  -9 142.593 8.85549  15
   2   2   9 145.337 4.74289  12
  -2   2  -9 131.173 7.93737   7
   4  -2   9 140.855 10.7816   4
  -4  -2  -9 145.673 10.2451  11
   4  -2   9 128.916 6.81724  12
  -4  -2  -9 133.468 9.77113   1
  -4   2  -9 121.540 9.12641   1
   4   2   9 138.410 6.31933  12
 -11  -3   9 42.7232 7.20734   5
  11  -3  -9 35.2143 5.34681   9
 -11   3   9 35.4944 6.29344   8
  11   3  -9 40.8995 6.18991   4
  11   3  -9 31.9170 4.85053   7
 -11   3   9 35.6722 5.24569   5
  -9  -3   9 1039.34 32.5787   5
  -9  -3   9 1046.44 33.2535  16
   9  -3  -9 1059.69 30.3576   9
   9  -3  -9 1091.46 31.2595  15
  -9   3   9 1037.02 31.4616   8
   9   3  -9 1055.54 32.5788   4
   9   3  -9 1071.21 28.9762   9
  -9   3   9 993.191 31.6899  16
  -9   3   9 1033.09 31.5832   5
  -9   3   9 1060.34 30.4729  12
   9   3  -9 1040.65 29.7631   7
  -7  -3   9 28.7651 5.05337   5
  -7  -3   9 37.3677 5.27564  16
   7  -3  -9 37.8491 5.17214  15
  -7  -3   9 31.6761 4.21490  12
   7  -3  -9 38.2130 4.56410   9
  -7   3   9 33.6376 4.06379  12
   7   3  -9 36.1449 4.38977   9
  -7   3   9 34.7473 5.04514   8
   7   3  -9 36.1033 4.18022   7
  -7   3   9 33.2377 4.76011  16
  -7   3   9 31.8314 4.63493   5
   5  -3  -9 1682.18 43.1814   6
   5  -3  -9 1714.21 43.1372   9
   5  -3  -9 1776.96 44.9835  15
  -5  -3   9 1679.29 44.4104  16
  -5  -3   9 1717.69 44.0332   5
  -5  -3   9 1658.95 41.9017  12
   5   3  -9 1713.09 42.4471  15
   5   3  -9 1640.66 42.3870   7
   5   3  -9 1686.06 42.8667   9
  -5   3   9 1715.95 45.2055   5
  -5   3   9 1718.99 43.9690   8
  -5   3   9 1747.41 41.7741  12
  -5   3   9 1690.32 46.1346  16
   3  -3  -9 119.870 6.52948   9
   3  -3  -9 112.770 7.17308   6
   3  -3  -9 112.079 7.50936  15
  -3  -3   9 117.582 5.57130  12
  -3  -3   9 108.341 6.60117  16
  -3  -3   9 126.089 7.04911   5
   3   3  -9 113.095 6.90403  15
  -3   3   9 108.660 4.98556  12
  -3   3   9 113.179 8.12864  16
  -3   3   9 122.274 7.57162   8
   3   3  -9 114.513 6.60321   7
   3   3  -9 109.850 6.76392   9
  -3   3   9 111.514 6.60822  13
   1  -3  -9 1701.15 43.6005   6
   1  -3  -9 1661.85 41.6800   9
   1  -3  -9 1712.22 44.6590  15
  -1  -3   9 1699.43 39.9634  12
  -1   3   9 1699.00 38.5254  12
   1   3  -9 1737.23 44.3784  15
   1   3  -9 1690.23 42.9000   7
  -1   3   9 1697.15 44.6469  13
   1   3  -9 1682.97 43.2206   9
   1  -3   9 167.820 6.71736  12
  -1  -3  -9 155.818 9.51020  11
  -1  -3  -9 167.457 9.33947  15
  -1  -3  -9 160.125 8.52069   6
   1  -3   9 162.030 9.61323   2
   1   3   9 162.316 9.28872   3
   1   3   9 148.167 9.80798  13
  -1   3  -9 152.139 8.81084   7
   1   3   9 158.243 5.07242  12
   3  -3   9 962.967 25.8718  12
  -3  -3  -9 970.778 30.7411  11
  -3  -3  -9 945.636 29.7416   1
   3   3   9 989.915 24.3406  12
  -3   3  -9 927.826 28.7751   7
  10  -4  -9 153.015 9.40010   9
  10  -4  -9 173.567 10.2497  15
 -10  -4   9 153.526 10.6255   5
 -10   4   9 169.868 10.3837   8
 -10   4   9 148.657 10.0664   5
  10   4  -9 160.871 11.0802   4
  10   4  -9 159.411 9.46533   7
   8  -4  -9 278.845 12.8762  15
  -8  -4   9 271.994 13.5280  16
  -8  -4   9 269.733 13.1465   5
  -8  -4   9 271.304 11.9934  12
   8  -4  -9 283.222 12.4041   9
   8   4  -9 277.567 12.0590   7
  -8   4   9 272.085 11.7948  12
  -8   4   9 277.259 13.2719   8
  -8   4   9 256.634 12.9922   5
  -8   4   9 269.881 13.1747  16
   8   4  -9 277.295 11.2095   9
  -6  -4   9 458.966 16.8205   5
  -6  -4   9 422.613 16.6017  16
   6  -4  -9 454.157 17.0329  15
   6  -4  -9 443.097 15.8076   9
  -6  -4   9 433.595 15.0543  12
   6  -4  -9 437.334 15.7055   6
   6   4  -9 444.357 15.2326   9
  -6   4   9 430.328 17.4844  16
   6   4  -9 428.953 15.3864   7
  -6   4   9 452.778 14.9284  12
  -6   4   9 451.210 17.3947   5
  -6   4   9 446.726 16.4422   8
   4  -4  -9 251.450 11.5924  15
  -4  -4   9 225.707 9.13986  12
   4  -4  -9 225.825 9.81932   9
   4  -4  -9 227.549 10.6069   6
  -4  -4   9 216.443 10.1612  16
  -4  -4   9 231.457 10.2445   5
   4   4  -9 229.155 10.2268   9
   4   4  -9 240.369 10.0877   7
  -4   4   9 225.421 10.0685  13
  -4   4   9 222.713 12.0081  16
   4   4  -9 228.121 9.63363  15
  -4   4   9 233.336 11.0208   8
  -4   4   9 220.140 8.58564  12
   2  -4  -9 446.866 16.6655  15
   2  -4  -9 459.231 14.8161   9
   2  -4  -9 448.510 16.2001   6
  -2  -4   9 450.691 13.9501  12
   2   4  -9 452.267 16.0412  15
   2   4  -9 455.280 16.0581   9
   2   4  -9 467.764 15.5738   7
  -2   4   9 455.045 13.0180  12
  -2   4   9 430.224 16.1340  13
   0  -4  -9 182.152 9.21238   6
   0  -4   9 177.925 10.4686   2
   0  -4  -9 184.910 9.51307  15
   0  -4   9 180.493 7.37179  12
   0   4  -9 173.295 9.24723   7
   0   4   9 159.239 9.64696  13
   0   4   9 167.981 6.09606  12
  -2  -4  -9 145.268 8.84717  15
  -2  -4  -9 153.008 10.2280  11
   2  -4   9 157.074 7.51677  12
   2   4   9 155.480 9.80451   3
   2   4   9 134.852 5.77623  12
  -2   4  -9 140.563 9.01432   7
   2   4   9 131.872 10.0771  13
  -9  -5   9 394.577 17.5290   5
   9  -5  -9 405.076 16.2538   9
   9  -5  -9 419.008 17.2138  15
   9   5  -9 394.587 15.8296   7
  -9   5   9 379.183 16.1170   5
  -9   5   9 382.924 16.2531  16
  -9   5   9 386.766 16.5560   8
  -7  -5   9 941.524 30.2313  16
  -7  -5   9 966.017 29.7626   5
   7  -5  -9 997.025 30.2147  15
  -7  -5   9 963.882 28.3941  12
   7  -5  -9 942.957 27.7820   6
   7  -5  -9 1000.21 29.0074   9
  -7   5   9 979.650 30.7248  16
  -7   5   9 995.016 29.8042   8
  -7   5   9 982.974 28.0405  12
   7   5  -9 1007.10 28.6416   7
  -7   5   9 985.568 30.2326   5
   7   5  -9 959.596 27.2298   9
   5  -5  -9 488.496 18.0191  15
  -5  -5   9 481.657 16.1652  12
   5  -5  -9 476.238 16.9144   6
   5  -5  -9 459.864 16.2315   9
  -5  -5   9 515.887 17.3694   5
  -5  -5   9 488.263 17.4491  16
  -5   5   9 466.262 18.8515  16
   5   5  -9 469.861 16.0466   9
  -5   5   9 487.639 15.7701  12
  -5   5   9 456.389 17.2670   8
  -5   5   9 451.457 16.2719  13
   5   5  -9 473.868 16.4692   7
  -3  -5   9 882.426 27.2224   2
   3  -5  -9 874.766 26.5789  15
   3  -5  -9 881.635 25.9762   6
   3  -5  -9 867.826 24.3840   9
  -3  -5   9 860.416 24.0875  12
  -3   5   9 856.568 23.2984  12
   3   5  -9 877.695 25.5988   9
  -3   5   9 873.870 26.8685   8
  -3   5   9 833.807 25.8173  13
   3   5  -9 833.394 25.0976   7
   1  -5  -9 220.797 11.0085  15
  -1  -5   9 223.988 12.0767   2
   1  -5  -9 217.611 10.6510   6
  -1  -5   9 227.744 9.18679  12
  -1   5   9 217.325 11.5252  13
  -1   5   9 217.628 8.13889  12
   1   5  -9 220.481 10.5566   7
   1  -5   9 474.999 18.3842   2
  -1  -5  -9 448.329 16.9769   6
  -1  -5  -9 446.055 16.6319  15
   1  -5   9 466.038 15.1521  12
  -1  -5  -9 447.528 18.1324  11
   1   5   9 420.669 18.4652  13
   1   5   9 454.701 13.5798  12
  -1   5  -9 469.404 17.0708   7
   1   5   9 464.087 17.1860   3
  -3  -5  -9 124.483 9.91220  11
   3  -5   9 112.684 7.43851  12
  -3   5  -9 113.570 8.58003   7
   3   5   9 116.816 6.19363  12
 -10  -6   9 213.423 13.4046   5
  10  -6  -9 225.803 12.9247  15
  10  -6  -9 213.501 11.4846   9
  10   6  -9 219.649 11.8657   7
 -10   6   9 233.865 12.8268   8
   8  -6  -9 171.529 9.79776   9
   8  -6  -9 208.028 11.9476  15
  -8  -6   9 157.885 9.50754   2
  -8  -6   9 197.869 11.8315   5
  -8  -6   9 167.899 11.0944  16
   8   6  -9 187.506 10.0805   7
  -8   6   9 179.864 10.7083   5
  -8   6   9 185.853 9.84478  12
  -8   6   9 195.918 11.4189   8
  -8   6   9 179.034 10.7154  16
  -6  -6   9 158.954 9.30730  16
   6  -6  -9 156.818 10.0810  15
  -6  -6   9 160.551 9.52211   5
   6  -6  -9 157.026 9.03671   6
  -6  -6   9 154.209 9.65197   2
  -6  -6   9 141.715 8.21275  12
   6  -6  -9 148.103 8.85995   9
  -6   6   9 139.545 8.13248  12
   6   6  -9 142.801 8.58009   7
  -6   6   9 157.964 10.1329   5
  -6   6   9 141.355 9.74461  16
  -6   6   9 155.596 9.91978   8
  -6   6   9 140.259 8.24445  13
   6   6  -9 154.653 8.38089   9
   4  -6  -9 415.572 15.8917   6
  -4  -6   9 410.387 16.7710   2
  -4  -6   9 394.861 14.7023  12
   4  -6  -9 396.645 14.5000   9
   4  -6  -9 433.421 16.7195  15
  -4   6   9 394.313 16.4348   8
   4   6  -9 393.341 14.9799   9
  -4   6   9 426.107 18.3436  16
   4   6  -9 403.217 14.9855   7
  -4   6   9 421.987 14.3240  12
  -2  -6   9 93.0977 7.73246   2
   2  -6  -9 87.1792 7.19196  15
   2  -6  -9 89.7283 7.36809   6
  -2  -6   9 82.7831 5.86220  12
  -2   6   9 91.9812 7.49472  13
   2   6  -9 77.0012 6.50612   7
  -2   6   9 87.4925 5.32787  12
  -2   6   9 88.0776 7.76938   8
   0  -6  -9 198.294 10.9446   6
   0  -6   9 197.182 11.3555   2
   0  -6   9 199.485 9.45401  12
   0  -6  -9 191.040 10.2717  15
   0   6   9 195.906 11.8607  13
   0   6  -9 206.222 10.5716   7
   0   6   9 206.435 8.45475  12
   2  -6   9 107.938 7.14073  12
  -2  -6  -9 109.233 7.70608   6
  -2  -6  -9 105.539 8.72452  11
   2  -6   9 101.355 9.00866   2
  -2   6  -9 103.274 8.15914   7
   2   6   9 106.889 6.05931  12
   2   6   9 106.174 8.27049   3
  -9  -7   9 40.4962 6.85729   5
   9  -7  -9 37.5726 5.80480   9
   9  -7  -9 40.3157 6.50104  15
  -9   7   9 34.5923 4.89034   5
  -9   7   9 37.1454 6.25231   8
   9   7  -9 40.2807 5.65095   7
   7  -7  -9 656.519 21.1479   6
  -7  -7   9 658.330 23.3778  16
   7  -7  -9 671.858 23.5185  15
   7  -7  -9 639.315 21.8050   9
  -7  -7   9 669.974 22.9025   5
  -7  -7   9 624.999 22.0491   2
  -7   7   9 640.809 21.2474  12
  -7   7   9 605.056 22.5389   5
  -7   7   9 637.433 23.5228  16
  -7   7   9 609.405 21.4754  13
   7   7  -9 649.702 21.8294   7
  -7   7   9 654.106 23.2252   8
   5  -7  -9 70.8015 6.92210   6
  -5  -7   9 77.9742 7.06697   2
  -5  -7   9 67.6463 6.08082  12
   5  -7  -9 78.2621 6.32958   9
   5  -7  -9 73.6831 7.29278  15
  -5   7   9 68.7053 5.80333  12
  -5   7   9 63.9025 6.44841   8
  -5   7   9 58.1101 6.35265  13
  -5   7   9 69.2613 7.04555  16
   5   7  -9 68.3678 6.43980   7
  -3  -7   9 1030.58 29.6059  12
   3  -7  -9 1030.95 31.1900  15
   3  -7  -9 1038.75 30.8339   6
  -3  -7   9 1025.71 32.1677   2
   3   7  -9 1000.21 29.8765   7
  -3   7   9 1078.47 32.2612   8
  -3   7   9 1052.31 28.7274  12
  -3   7   9 1000.98 31.3659  13
   1  -7  -9 198.843 10.9725   6
   1  -7  -9 200.288 10.6974  15
  -1  -7   9 217.562 12.7877   2
  -1  -7   9 219.010 10.3528  12
   1   7  -9 212.304 10.8906   7
  -1   7   9 204.184 9.12305  12
  -1   7   9 188.014 11.6075  13
   1  -7   9 960.386 28.0704  12
  -1   7  -9 932.446 28.9883   7
   1   7   9 967.385 26.5819  12
   8  -8  -9 56.9131 6.39533   9
  -8  -8   9 61.0872 7.63216   5
   8  -8  -9 50.0344 6.74635  15
   8   8  -9 58.4641 6.93086   7
  -8   8   9 52.2410 6.96539   8
  -8   8   9 45.5308 5.60049   5
  -6  -8   9 18.2156 4.06399  12
  -6  -8   9 20.4174 4.46614   2
   6  -8  -9 26.9872 5.60598  15
   6  -8  -9 25.1702 4.66313   9
   6  -8  -9 19.6776 4.19794   6
  -6   8   9 24.1761 4.06906  12
  -6   8   9 19.2876 4.51002  16
  -6   8   9 23.2018 5.92896  13
   6   8  -9 19.0138 4.21936   7
  -6   8   9 24.7097 5.13432   8
   4  -8  -9 190.793 11.2832  15
  -4  -8   9 182.519 11.7748   2
   4  -8  -9 198.931 11.0453   6
  -4  -8   9 170.244 9.87673  12
   4  -8  -9 177.560 9.25125   9
  -4   8   9 193.620 9.78206  12
  -4   8   9 183.446 11.2982   8
   4   8  -9 192.948 10.5767   7
  -4   8   9 201.136 11.4165  13
  -2  -8   9 21.2994 4.11662  12
   2  -8  -9 15.7745 4.30523   6
   2  -8  -9 12.3835 3.25439  15
  -2  -8   9 15.8502 5.44985   2
  -2   8   9 12.7132 2.89042  12
  -2   8   9 15.3960 4.05195   8
   2   8  -9 14.4245 4.07115   7
  -2   8   9 14.6062 4.34028  13
   0  -8   9 124.372 8.24394  12
   0  -8  -9 142.459 10.0863   6
   0  -8   9 153.817 11.3562   2
   0   8   9 132.210 7.61631  12
   0   8  -9 125.284 8.44067   7
   7  -9  -9 367.917 17.0415  15
   7  -9  -9 321.245 14.8692   6
   7  -9  -9 359.006 15.3860   9
   7   9  -9 357.015 15.5667   7
  -7   9   9 351.381 15.9507   5
  -7   9   9 356.637 16.5329   8
   5  -9  -9 783.956 26.4729  15
  -5  -9   9 732.286 25.9504   2
   5  -9  -9 740.567 23.6866   9
  -5  -9   9 710.028 24.8196  12
   5  -9  -9 786.421 24.9642   6
   5   9  -9 712.816 24.2855   7
  -5   9   9 775.151 24.6534  12
  -5   9   9 757.207 26.0914   8
  -3  -9   9 196.704 12.4589   2
   3  -9  -9 181.960 10.6210  15
   3  -9  -9 196.097 11.6610   6
  -3  -9   9 170.458 10.2515  12
   3   9  -9 184.409 10.5852   7
  -3   9   9 197.826 12.1976   8
  -3   9   9 185.292 9.89159  12
   1  -9  -9 436.231 18.9911  15
   1  -9  -9 429.085 18.1829   6
  -1  -9   9 423.493 19.1567   2
  -1   9   9 420.878 18.3139   8
  -1   9   9 386.903 15.1728  12
   1   9  -9 410.983 16.8439   7
   4 -10  -9 70.8630 6.86900   6
   4 -10  -9 63.4185 6.53017  15
  -4 -10   9 57.7598 7.06301   2
  -4  10   9 62.7182 7.29058   8
   4  10  -9 53.6773 6.53405   7
  -4  10   9 62.0889 6.18671  12
   2 -10  -9 12.6524 3.70374  15
  -2 -10   9 9.98356 3.32735  12
  -2 -10   9 11.2834 5.34918   2
   2 -10  -9 15.4938 4.76032   6
  -2  10   9 10.7271 3.11858  12
   2  10  -9 9.69508 4.01149   7
  -2  10   9 12.6975 4.48038   8
 -10   0  10 1510.54 43.7435   5
  10   0 -10 1492.14 42.7872   4
  10   0 -10 1570.07 41.0415   9
 -10   0  10 1492.71 41.3926   8
   8   0 -10 148.172 8.71972   9
  -8   0  10 167.617 10.2042   5
  -8   0  10 138.025 9.35425  16
   8   0 -10 150.949 8.46435  15
  -8   0  10 153.943 8.40735  12
  -8   0  10 164.605 8.87393   8
  -6   0  10 1410.79 36.9576   8
   6   0 -10 1459.38 38.2750  15
  -6   0  10 1436.11 39.5114   5
  -6   0  10 1392.76 39.9025  16
   6   0 -10 1444.30 38.1012   9
  -4   0  10 70.7478 6.57799   5
   4   0 -10 78.0618 6.45119  15
  -4   0  10 78.0626 4.35715  12
  -4   0  10 77.0101 6.51591  16
   4   0 -10 67.1796 5.62793   9
   2   0 -10 786.075 22.8260   9
  -2   0  10 752.089 24.3298  16
   2   0 -10 758.666 21.5021   7
  -2   0  10 789.466 18.8502  12
   2   0 -10 770.727 24.2467  15
   0   0 -10 63.2543 5.92791  15
   0   0 -10 50.0495 4.80109   9
   0   0 -10 49.3064 4.41015   7
   2   0  10 584.498 14.7428  12
 -11  -1  10 37.4898 5.86979   5
  11  -1 -10 44.9070 5.38768   9
  11  -1 -10 38.2937 5.62047   4
 -11  -1  10 36.3305 5.13072   8
 -11   1  10 50.0490 6.56062   8
 -11   1  10 43.6966 6.16985   5
  -9  -1  10 123.988 7.80452  12
  -9  -1  10 114.463 7.89758   8
   9  -1 -10 123.197 8.39791   4
   9  -1 -10 122.037 8.25065   9
  -9  -1  10 124.005 9.76227   5
  -9  -1  10 117.563 9.34866  16
  -9   1  10 122.711 8.89184  16
  -9   1  10 123.919 8.18698   8
   9   1 -10 123.478 8.03646   9
  -9   1  10 121.426 8.90537   5
  -9   1  10 120.309 7.81381  12
   7  -1 -10 2.66537 2.60014   9
  -7  -1  10 -1.3680 2.79573   5
  -7  -1  10 1.97712 1.90869  12
  -7  -1  10 0.48322 2.47620  16
   7  -1 -10 -0.7971 2.08542  15
   7   1 -10 0.65068 1.55180   7
  -7   1  10 3.56720 2.50096   8
  -7   1  10 2.46708 3.20743   5
  -7   1  10 -2.7967 1.93995  16
   7   1 -10 1.28208 1.72306   9
  -7   1  10 4.18244 2.12782  12
   7   1 -10 2.09351 2.06918  15
  -5  -1  10 215.473 11.0545  16
   5  -1 -10 224.098 10.7654  15
  -5  -1  10 212.585 8.68544  12
  -5  -1  10 211.068 10.8809   5
   5  -1 -10 207.078 9.93723   9
  -5   1  10 217.091 9.83559   8
   5   1 -10 211.382 8.86721   7
  -5   1  10 208.909 11.2846  16
   5   1 -10 214.168 10.0692   9
  -5   1  10 212.257 8.48933  12
  -5   1  10 224.069 11.4887   5
   5   1 -10 220.373 10.3099  15
  -3  -1  10 8.19470 2.39593  16
   3  -1 -10 8.87433 2.78980  15
  -3   1  10 12.1372 3.31262  16
  -3   1  10 9.27446 3.46523   5
   3   1 -10 8.92722 2.71485   9
  -3   1  10 8.47398 1.57586  12
   3   1 -10 12.0601 3.39929  15
   3   1 -10 7.27910 2.21335   7
  -3   1  10 7.13932 2.58529   8
   1  -1 -10 38.8912 4.37125   9
  -1  -1  10 38.0215 2.33574  12
   1  -1 -10 37.7167 5.29245  15
   1   1 -10 48.7985 5.15913   9
  -1   1  10 49.6835 5.39885  16
   1   1 -10 45.6409 5.66646  15
   1   1 -10 37.7839 4.36644   7
  -1   1  10 37.0314 1.68242  12
  -1  -1 -10 98.7700 7.75448  15
   1  -1  10 89.7647 3.79142  12
  -1   1 -10 83.2138 7.66700  15
  -1   1 -10 88.8982 6.72410   7
   3  -1  10 4.46264 1.71283  12
   3  -1  10 2.47024 3.55866   4
  -3  -1 -10 0.96620 2.93651   1
   3   1  10 3.25900 1.23967  12
 -10  -2  10 62.8502 7.37858   5
  10  -2 -10 68.9274 6.80318   9
  10  -2 -10 65.6040 6.53046   4
  10   2 -10 74.7666 7.69283   4
  10   2 -10 61.1906 5.37637   7
  10   2 -10 64.8309 5.95932   9
 -10   2  10 62.3715 7.50769   5
 -10   2  10 64.0348 7.50699   8
  -8  -2  10 654.048 23.3319   5
  -8  -2  10 648.776 21.1469  12
   8  -2 -10 678.532 21.8500   9
   8  -2 -10 678.350 22.2030  15
  -8  -2  10 643.126 23.5778  16
  -8   2  10 655.369 23.5008  16
  -8   2  10 668.187 21.9814   8
  -8   2  10 663.397 23.3193   5
   8   2 -10 668.273 21.2063   9
  -8   2  10 669.755 21.2132  12
  -6  -2  10 200.574 10.6893  16
   6  -2 -10 216.724 10.2903   9
   6  -2 -10 211.152 10.7776  15
  -6  -2  10 207.013 10.7595   5
  -6  -2  10 210.951 9.36775  12
   6   2 -10 203.541 9.54247  15
  -6   2  10 209.908 9.02485  12
  -6   2  10 216.606 10.5131   8
   6   2 -10 200.412 9.09621   7
   6   2 -10 227.787 10.3529   9
  -6   2  10 208.214 11.1450   5
  -6   2  10 215.967 11.4939  16
  -4  -2  10 1589.78 41.2559   5
   4  -2 -10 1561.06 40.4277   9
   4  -2 -10 1568.30 41.9820  15
  -4  -2  10 1576.49 38.3579  12
   4  -2 -10 1563.19 40.9099   6
  -4   2  10 1501.03 43.2478  16
   4   2 -10 1545.38 40.7799  15
   4   2 -10 1571.07 40.4719   9
  -4   2  10 1583.96 40.9357   8
  -4   2  10 1534.75 37.6547  12
   4   2 -10 1535.87 39.4101   7
  -4   2  10 1595.17 42.7947   5
   2  -2 -10 379.528 13.5618   9
   2  -2 -10 374.486 14.4381   6
  -2  -2  10 389.816 11.4421  12
   2  -2 -10 372.543 15.0497  15
  -2   2  10 387.425 10.6079  12
   2   2 -10 388.116 13.8043   7
  -2   2  10 366.483 16.2203  16
   2   2 -10 441.379 15.7645  15
  -2   2  10 382.793 14.5403   8
   2   2 -10 394.512 14.4436   9
   0  -2 -10 1322.89 37.2152   6
   0  -2  10 1442.02 33.3131  12
   0  -2  10 1450.67 39.2305   2
   0  -2 -10 1412.66 39.1956  15
   0   2 -10 1413.96 37.6888   7
   0   2 -10 1442.40 39.6247  15
  -2  -2 -10 190.046 10.5444   1
  -2  -2 -10 194.329 10.7984  15
   2  -2  10 186.318 7.16083  12
  -2   2 -10 187.641 10.3136   7
   2   2  10 183.807 5.83220  12
  11  -3 -10 0.68304 2.95939   9
 -11  -3  10 -2.9275 3.55938   5
  11   3 -10 2.29041 2.41827   7
 -11   3  10 0.18182 2.31531   5
  11   3 -10 5.96791 3.61999   4
 -11   3  10 4.34414 4.03679   8
  -9  -3  10 27.6137 4.53686  12
   9  -3 -10 27.7443 4.82385  15
  -9  -3  10 21.2413 5.22799  16
  -9  -3  10 26.6135 5.10141   5
   9  -3 -10 31.9392 4.99811   9
   9   3 -10 27.7582 4.29826   7
  -9   3  10 29.9713 5.06857  16
  -9   3  10 28.1078 4.80103   8
  -9   3  10 29.1827 5.50297   5
   9   3 -10 26.4058 4.21434   9
  -9   3  10 27.2206 4.42696  12
  -7  -3  10 17.4074 4.10807  16
   7  -3 -10 13.5296 3.13639   9
   7  -3 -10 15.7194 4.10438  15
  -7  -3  10 13.7998 3.06001  12
  -7  -3  10 21.2072 4.72264   5
  -7   3  10 13.1829 3.90665   8
  -7   3  10 14.8303 3.56477  16
  -7   3  10 9.51598 2.63397  12
   7   3 -10 15.9354 3.02723   7
  -7   3  10 16.7173 3.88283   5
   7   3 -10 13.2644 3.38021   9
   5  -3 -10 98.3433 7.24969   6
   5  -3 -10 123.551 7.99339  15
   5  -3 -10 100.289 6.63952   9
  -5  -3  10 105.384 7.62724   5
  -5  -3  10 104.961 6.27730  12
  -5  -3  10 102.903 7.41593  16
   5   3 -10 103.756 6.30398   7
   5   3 -10 96.9551 6.95013   9
  -5   3  10 101.993 8.36365   5
  -5   3  10 110.630 6.03917  12
   5   3 -10 95.6210 6.19067  15
  -5   3  10 108.023 7.57992   8
  -5   3  10 105.707 8.28295  16
   3  -3 -10 0.63888 2.31250   6
   3  -3 -10 0.51418 1.35717   9
   3  -3 -10 3.67829 2.66532  15
  -3  -3  10 0.53585 1.21274  12
  -3   3  10 0.85025 2.33265   8
   3   3 -10 2.13213 1.71229   7
   3   3 -10 0.43413 2.06675   9
  -3   3  10 -0.0585 0.89900  12
  -3   3  10 1.21591 2.35114  16
   3   3 -10 0.21785 1.52149  15
   1  -3 -10 28.5534 4.79263  15
   1  -3 -10 25.0815 3.33809   9
   1  -3 -10 24.5615 4.06472   6
  -1  -3  10 29.4585 5.35539   2
  -1  -3  10 24.1600 2.63234  12
   1   3 -10 34.2552 4.52772   7
   1   3 -10 32.5753 4.76124  15
   1   3 -10 25.8937 4.34257   9
  -1   3  10 34.6652 5.60735  16
  -1   3  10 24.0393 1.99195  12
   1  -3  10 67.3890 4.33983  12
  -1  -3 -10 65.0877 6.10381  15
   1  -3  10 49.4469 8.71588   2
  -1  -3 -10 56.5392 6.44189  11
   1   3  10 63.3219 2.97092  12
  -1   3 -10 63.0719 6.47305   7
  10  -4 -10 156.172 10.2333  15
 -10  -4  10 161.305 11.7491   5
  10  -4 -10 171.046 10.3817   9
 -10   4  10 160.958 11.3206   8
 -10   4  10 156.624 10.7397   5
   8  -4 -10 1417.28 39.2114  15
   8  -4 -10 1403.20 38.2955   9
  -8  -4  10 1369.05 39.8464   5
  -8  -4  10 1397.93 37.8281  12
  -8  -4  10 1303.52 40.0420  16
  -8   4  10 1372.38 37.2413  12
  -8   4  10 1396.02 39.7499   5
  -8   4  10 1356.39 38.8610   8
   8   4 -10 1361.23 37.3137   7
   8   4 -10 1375.90 36.6147   9
  -8   4  10 1298.13 39.5627  16
   6  -4 -10 74.2321 7.21451  15
   6  -4 -10 70.5057 6.22730   9
  -6  -4  10 68.8468 6.96753   5
   6  -4 -10 62.9007 6.27204   6
  -6  -4  10 68.5512 5.54807  12
  -6  -4  10 68.3758 6.13194  16
  -6   4  10 66.6613 6.55868   5
  -6   4  10 75.0679 6.92387  16
   6   4 -10 66.3461 5.87106   7
  -6   4  10 66.5707 6.19483   8
   6   4 -10 66.3106 5.49822   9
  -6   4  10 66.8036 5.23463  12
  -4  -4  10 1207.79 32.1163  12
   4  -4 -10 1189.80 33.1399   9
  -4  -4  10 1352.93 36.1249   5
   4  -4 -10 1243.56 35.7643  15
   4  -4 -10 1211.01 34.1049   6
  -4   4  10 1233.04 31.6027  12
   4   4 -10 1234.95 33.4197   7
   4   4 -10 1239.36 33.7562   9
  -4   4  10 1170.34 36.9493  16
  -4   4  10 1228.63 34.9650   8
   2  -4 -10 8.01089 3.34250   6
   2  -4 -10 13.0177 3.34376  15
  -2  -4  10 12.9435 4.53780   2
   2  -4 -10 12.6860 2.73941   9
  -2  -4  10 12.4071 2.56712  12
   2   4 -10 12.6487 2.87874   7
   2   4 -10 15.5605 3.67689   9
  -2   4  10 9.71398 3.43489   8
  -2   4  10 10.0372 3.60390  16
  -2   4  10 13.2956 2.08689  12
   2   4 -10 10.5669 3.50089  15
   0  -4 -10 814.820 25.9318  15
   0  -4  10 874.260 27.3355   2
   0  -4  10 844.445 22.5413  12
   0  -4 -10 769.999 24.9733   6
   0   4  10 777.233 30.2725  13
   0   4 -10 822.522 25.0006   7
   0   4  10 801.980 20.4377  12
  -2  -4 -10 20.2723 4.12450  15
   2  -4  10 21.7523 3.28608  12
  -2  -4 -10 20.9308 4.88540  11
   2   4  10 18.8930 2.36144  12
  -2   4 -10 20.8675 4.49272   7
   9  -5 -10 53.8946 6.69563   9
  -9  -5  10 51.4487 7.26097   5
   9  -5 -10 61.3231 7.27650  15
  -9   5  10 47.1926 6.61254   5
   9   5 -10 43.4648 5.64425   7
  -9   5  10 53.7470 5.31639  12
  -9   5  10 45.3396 6.66021   8
  -7  -5  10 298.287 12.8422  12
   7  -5 -10 295.462 13.1636   9
  -7  -5  10 277.441 13.7431   5
  -7  -5  10 283.410 14.0509  16
   7  -5 -10 309.928 14.4029  15
  -7   5  10 273.610 13.7956   5
  -7   5  10 281.936 13.8697   8
  -7   5  10 288.380 14.3781  16
   7   5 -10 271.303 12.4005   7
  -7   5  10 285.239 12.2309  12
   7   5 -10 283.651 12.2392   9
   5  -5 -10 84.6876 7.76270  15
   5  -5 -10 81.3025 7.16541   6
   5  -5 -10 86.0034 6.63548   9
  -5  -5  10 79.0857 6.91168   5
  -5  -5  10 78.1111 6.03080  12
  -5   5  10 75.5708 7.44637  16
  -5   5  10 85.3558 5.78509  12
  -5   5  10 85.0392 7.63841   8
   5   5 -10 86.6691 6.78099   9
   5   5 -10 84.4372 6.58434   7
  -3  -5  10 314.003 12.1176  12
   3  -5 -10 312.504 12.3994   9
   3  -5 -10 331.019 14.6803  15
  -3  -5  10 341.616 15.4525   2
   3  -5 -10 349.603 14.3059   6
  -3   5  10 328.045 16.2400  16
   3   5 -10 296.604 12.9954   7
  -3   5  10 349.363 15.2146   8
   3   5 -10 325.551 13.6935   9
  -3   5  10 325.501 11.3924  12
  -1  -5  10 206.727 8.99926  12
  -1  -5  10 212.213 12.3227   2
   1  -5 -10 210.396 11.0087   6
   1  -5 -10 197.185 10.9042  15
   1   5 -10 194.271 9.97062   7
  -1   5  10 176.671 10.8047  13
  -1   5  10 195.831 7.65112  12
  -1  -5 -10 88.3462 7.24847  15
  -1  -5 -10 92.9860 7.37328   6
   1  -5  10 102.530 8.89970   2
   1  -5  10 94.7421 6.09276  12
  -1   5 -10 101.487 8.06542   7
   1   5  10 91.4016 4.98329  12
   8  -6 -10 44.3629 5.50721   9
  -8  -6  10 36.4000 5.65218   2
   8  -6 -10 29.3370 5.57598  15
  -8  -6  10 41.2793 6.32149   5
  -8   6  10 46.0299 5.49015  12
  -8   6  10 39.5701 6.12363   5
   8   6 -10 40.8084 5.59935   7
  -8   6  10 46.3904 6.42474   8
  -6  -6  10 1148.67 32.1739  12
  -6  -6  10 1098.15 32.4324   5
   6  -6 -10 1083.54 31.8862   9
   6  -6 -10 1165.20 34.5673  15
   6  -6 -10 1122.26 32.5581   6
  -6  -6  10 1070.22 33.2987   2
   6   6 -10 1145.46 31.7486   9
   6   6 -10 1134.25 32.3077   7
  -6   6  10 1066.64 34.2465   5
  -6   6  10 1065.48 35.2056  16
  -6   6  10 1127.79 31.4323  12
  -6   6  10 1089.93 33.6563   8
  -4  -6  10 116.004 7.49526  12
   4  -6 -10 129.474 9.06668   6
   4  -6 -10 134.041 7.59285   9
   4  -6 -10 129.319 8.83832  15
  -4  -6  10 137.278 9.34118   2
  -4   6  10 125.074 7.09583  12
  -4   6  10 129.679 8.96817   8
   4   6 -10 116.956 7.72953   7
  -4   6  10 118.745 9.90058  16
   4   6 -10 133.360 8.61431   9
  -2  -6  10 1389.48 39.7034   2
   2  -6 -10 1319.41 37.6445   6
   2  -6 -10 1378.71 38.4143  15
  -2  -6  10 1326.58 35.4056  12
   2   6 -10 1334.16 36.9056   7
  -2   6  10 1325.69 34.1493  12
  -2   6  10 1276.67 38.1391  13
  -2   6  10 1278.87 38.2151   8
   0  -6  10 138.206 7.93316  12
   0  -6 -10 134.420 9.21542   6
   0  -6 -10 139.614 9.01118  15
   0   6 -10 125.020 8.38662   7
   0   6  10 135.405 6.70680  12
   7  -7 -10 72.0510 6.50987   6
   7  -7 -10 94.2253 8.87079  15
   7  -7 -10 80.5177 6.70876   9
  -7  -7  10 84.0465 8.01747   5
  -7  -7  10 83.7231 7.09627  12
  -7  -7  10 80.4470 7.23774   2
  -7   7  10 65.0397 7.52264   5
  -7   7  10 80.1688 8.37574   8
   7   7 -10 72.7772 6.45554   9
   7   7 -10 76.9467 6.63016   7
   5  -7 -10 -1.3857 2.84506   6
   5  -7 -10 3.69529 3.21587  15
  -5  -7  10 3.01092 2.85941   2
  -5  -7  10 2.06274 2.44016  12
   5  -7 -10 1.63293 1.74183   9
  -5   7  10 2.66161 2.22510  12
   5   7 -10 0.05713 2.83397   7
  -5   7  10 -2.1933 2.99296   8
  -3  -7  10 37.6791 6.67191   2
  -3  -7  10 41.1258 5.08016  12
   3  -7 -10 52.7378 6.74768  15
   3  -7 -10 42.1550 5.96135   6
  -3   7  10 33.5333 6.04648   8
   3   7 -10 44.2637 5.89521   7
  -3   7  10 43.5824 4.94772  12
  -3   7  10 26.3292 5.08850  13
  -1  -7  10 11.5849 3.20177  12
   1  -7 -10 6.31662 3.37475   6
   1  -7 -10 3.67246 2.77746  15
  -1  -7  10 6.28119 3.72720   2
  -1   7  10 8.30647 2.42985  12
   1   7 -10 5.73364 3.27102   7
  -6  -8  10 543.838 21.3700   2
   6  -8 -10 525.452 19.4733   6
   6  -8 -10 524.313 19.2140   9
  -6  -8  10 523.823 19.8399  12
   6  -8 -10 561.682 21.8246  15
  -6   8  10 567.081 19.7449  12
  -6   8  10 547.298 21.6049   8
   6   8 -10 527.784 19.5718   7
  -6   8  10 555.328 21.9253   5
   4  -8 -10 149.805 10.3465  15
   4  -8 -10 154.150 10.0055   6
  -4  -8  10 160.006 9.76000  12
  -4  -8  10 170.994 11.6488   2
  -4   8  10 158.504 8.93891  12
  -4   8  10 168.381 10.8267   8
   4   8 -10 161.994 9.92429   7
  -2  -8  10 456.051 19.8443   2
   2  -8 -10 465.192 18.6234   6
   2  -8 -10 447.810 17.7731  15
   2   8 -10 449.368 17.4228   7
  -2   8  10 468.811 19.3961   8
  -2   8  10 413.775 15.4052  12
   5  -9 -10 8.66532 3.88988  15
   5  -9 -10 4.07134 3.57762   6
  -5  -9  10 1.53387 2.56962  12
  -5  -9  10 7.29648 4.33461   2
  -5   9  10 4.25938 2.57662  12
  -5   9  10 3.91408 3.69045   8
   5   9 -10 1.67344 3.25207   7
   3  -9 -10 10.7945 4.46496   6
  -3  -9  10 3.42397 3.29779   2
  -3  -9  10 2.74985 2.13974  12
   3  -9 -10 4.78019 3.13686  15
   3   9 -10 4.64545 3.62340   7
  -3   9  10 6.83931 2.70151  12
  -3   9  10 6.29096 4.13832   8
 -10   0  11 -3.0833 2.55637   8
 -10   0  11 1.06432 2.79156   5
  10   0 -11 0.52747 2.80558   9
  -8   0  11 -0.8793 1.65100  12
  -8   0  11 0.57986 2.01713  16
   8   0 -11 0.97592 2.43998  15
   8   0 -11 -1.3701 1.60731   9
  -8   0  11 0.07159 2.40517   5
  -6   0  11 1.26098 2.53245  16
   6   0 -11 3.31511 2.47050   9
   6   0 -11 0.34566 2.44341  15
  -6   0  11 1.65862 3.15247   5
  -4   0  11 1.80618 2.82624   5
   4   0 -11 -3.9540 2.08529  15
   4   0 -11 0.15711 2.26244   9
  -4   0  11 2.09466 1.33603  12
  -4   0  11 2.30720 1.75222  16
   2   0 -11 3.22775 3.02893  15
   2   0 -11 3.24042 2.41005   9
  -2   0  11 0.35999 2.72978   5
   0   0 -11 2.27642 2.30966  15
   9  -1 -11 771.722 24.8216   9
  -9  -1  11 765.133 26.8446   5
  -9  -1  11 761.116 24.4765  12
  -9   1  11 761.405 26.6402   5
  -9   1  11 745.769 24.1748  12
   9   1 -11 785.199 24.5197   9
   7  -1 -11 186.168 10.3885  15
  -7  -1  11 183.114 9.17295  12
  -7  -1  11 174.151 10.8677  16
  -7  -1  11 195.685 11.5525   5
   7  -1 -11 182.860 9.80819   9
   7   1 -11 192.066 9.86081  15
  -7   1  11 167.223 10.8894  16
  -7   1  11 181.542 11.1892   5
   7   1 -11 182.717 9.65057   9
  -7   1  11 185.179 9.81472   8
   5  -1 -11 786.082 23.9555   9
   5  -1 -11 809.115 25.2557  15
  -5  -1  11 760.010 21.7845  12
  -5  -1  11 773.712 24.8136   5
  -5  -1  11 750.979 25.1879  16
  -5   1  11 779.282 21.6609  12
  -5   1  11 729.587 23.4998   8
   5   1 -11 773.977 23.8920   9
  -5   1  11 787.515 25.7045   5
   5   1 -11 819.994 24.7965  15
  -5   1  11 714.638 25.5124  16
   3  -1 -11 307.068 13.7732  15
  -3  -1  11 285.302 9.53637  12
   3  -1 -11 278.083 11.8478   9
  -3  -1  11 300.807 13.0288   5
   3   1 -11 296.472 11.1583   7
  -3   1  11 253.922 13.1368  16
   3   1 -11 284.178 13.1225  15
  -3   1  11 281.096 9.15807  12
  -3   1  11 299.397 13.4533   5
   3   1 -11 283.899 12.1785   9
   1  -1 -11 540.675 20.1292  15
   1  -1 -11 536.330 17.8284   9
  -1  -1  11 549.335 14.1787  12
   1   1 -11 558.569 18.6182   9
   1   1 -11 565.501 18.1093   7
  -1   1  11 511.322 13.1591  12
   1   1 -11 571.205 20.0993  15
  -1  -1 -11 334.777 15.1740  15
   1  -1  11 331.378 9.51691  12
  -1   1 -11 334.725 13.7767   7
  10  -2 -11 187.250 10.8421   9
 -10  -2  11 190.932 12.7240   5
 -10   2  11 195.071 11.7951   5
 -10   2  11 195.784 11.1117   8
  10   2 -11 193.122 10.2231   9
  -8  -2  11 308.349 14.9388   5
  -8  -2  11 320.161 15.4835  16
   8  -2 -11 344.237 14.9177  15
  -8  -2  11 318.854 13.5389  12
   8  -2 -11 318.026 14.2344   9
   8   2 -11 360.435 15.8963   7
  -8   2  11 336.002 13.7010  12
   8   2 -11 342.002 14.1251   9
  -8   2  11 330.301 15.7362   5
  -8   2  11 335.522 14.2232   8
  -8   2  11 332.534 16.2593  16
  -6  -2  11 257.951 10.8291  12
  -6  -2  11 253.793 12.9617   5
   6  -2 -11 251.772 11.8890   9
  -6  -2  11 248.052 12.7552  16
   6  -2 -11 274.729 13.0449  15
   6   2 -11 263.673 11.8833   9
  -6   2  11 264.810 12.1435   8
  -6   2  11 257.813 10.5043  12
  -6   2  11 259.391 13.3392   5
  -6   2  11 244.327 13.2066  16
   6   2 -11 238.895 10.5057   7
   6   2 -11 255.721 11.4479  15
  -4  -2  11 226.837 11.4676  16
  -4  -2  11 252.084 9.48421  12
   4  -2 -11 251.176 12.5384  15
  -4  -2  11 241.044 11.6722   5
   4  -2 -11 236.708 10.9350   9
  -4   2  11 231.200 12.7290  16
  -4   2  11 235.650 8.93604  12
  -4   2  11 261.456 13.1514   5
   4   2 -11 225.132 9.91268   7
   4   2 -11 241.665 11.2623   9
   4   2 -11 253.996 11.5562  15
  -4   2  11 238.149 11.1996   8
   2  -2 -11 236.478 10.2952   9
  -2  -2  11 241.908 8.39896  12
   2  -2 -11 235.097 11.2561   6
   2  -2 -11 252.640 12.5701  15
   2   2 -11 252.534 11.4920   9
   2   2 -11 271.992 12.3361  15
  -2   2  11 234.443 7.54356  12
   2   2 -11 247.350 10.9052   7
  -2   2  11 213.308 12.1666  16
   0  -2  11 111.905 5.09748  12
   0  -2 -11 116.509 8.36969  15
   0  -2  11 113.880 8.77352   2
   0   2 -11 103.852 7.56498   7
  -9  -3  11 176.982 12.0567   5
   9  -3 -11 183.970 10.7098   9
   9  -3 -11 185.956 10.7291  15
   9   3 -11 196.240 10.0472   7
  -9   3  11 192.958 11.4975   8
  -9   3  11 187.848 11.4428   5
   9   3 -11 181.110 9.90492   9
  -7  -3  11 865.288 26.1504  12
   7  -3 -11 907.982 28.4411  15
  -7  -3  11 875.102 28.9132  16
   7  -3 -11 903.869 27.3680   9
  -7  -3  11 910.525 28.7215   5
  -7   3  11 912.816 29.2389   5
  -7   3  11 838.619 29.1386  16
   7   3 -11 879.468 26.3517   9
  -7   3  11 870.680 27.4834   8
  -7   3  11 864.794 25.7526  12
   7   3 -11 850.105 25.8399   7
  -5  -3  11 230.587 10.0132  12
   5  -3 -11 246.930 12.3955  15
  -5  -3  11 237.886 11.8992   5
   5  -3 -11 250.215 11.3268   9
  -5  -3  11 240.385 11.7713  16
   5   3 -11 250.016 11.6347   9
  -5   3  11 229.789 12.9247  16
   5   3 -11 248.166 11.3201  15
  -5   3  11 238.073 11.4266   8
  -5   3  11 259.303 13.5388   5
   5   3 -11 236.582 10.7299   7
  -5   3  11 241.570 9.75330  12
   3  -3 -11 1092.59 32.8243  15
   3  -3 -11 1040.75 29.9220   9
   3  -3 -11 1072.24 31.3923   6
  -3  -3  11 1098.33 28.2393  12
  -3   3  11 1110.89 32.0247   8
  -3   3  11 1061.58 27.1847  12
  -3   3  11 1006.07 33.5168  16
   3   3 -11 1117.15 31.2659   9
   3   3 -11 1065.30 30.2563   7
   3   3 -11 1131.15 31.8746  15
  -1  -3  11 152.036 10.2980   2
   1  -3 -11 138.660 9.03500  15
  -1  -3  11 136.733 6.33965  12
   1  -3 -11 143.053 8.77871   6
  -1   3  11 134.805 5.02691  12
  -1   3  11 127.871 9.51952  16
  -1   3  11 134.853 8.88646   8
   1   3 -11 128.859 7.82837   7
   1  -3  11 684.300 18.7716  12
  -1  -3 -11 625.270 22.5074  15
  -1   3 -11 699.629 22.7018   7
 -10  -4  11 -1.8321 3.99456   5
  10  -4 -11 1.14976 2.25866   9
  10  -4 -11 0.36523 2.93468  15
  10   4 -11 -1.0883 2.20097   7
 -10   4  11 1.75574 2.67194   5
 -10   4  11 -1.1612 2.42586   8
   8  -4 -11 72.4064 6.91731   9
   8  -4 -11 60.7184 7.54290  15
  -8  -4  11 64.3799 5.79195  12
  -8  -4  11 65.3016 7.29811   5
  -8   4  11 55.4295 5.63762  12
  -8   4  11 60.5405 7.14002   8
   8   4 -11 68.9001 6.83777   7
  -8   4  11 70.8979 7.15750   5
   8   4 -11 56.3753 5.35380   9
   6  -4 -11 28.1171 4.94914  15
  -6  -4  11 29.3435 5.18530   5
  -6  -4  11 35.7148 4.68283  12
  -6  -4  11 23.8908 4.63055  16
   6  -4 -11 26.9131 4.18159   9
  -6   4  11 26.9771 3.92304  12
  -6   4  11 25.7202 4.98048  16
  -6   4  11 29.7942 5.87265   5
   6   4 -11 29.3851 4.77123   9
  -6   4  11 24.8349 5.01057   8
   6   4 -11 19.8367 3.91556   7
   4  -4 -11 64.2345 5.79681   9
  -4  -4  11 58.6790 5.27975  12
   4  -4 -11 63.8842 6.37173  15
   4  -4 -11 49.5270 5.87103   6
  -4   4  11 60.7555 4.67814  12
  -4   4  11 64.0220 7.77757  16
  -4   4  11 65.3906 7.16918   8
   4   4 -11 64.0849 5.89296   7
   4   4 -11 63.1770 6.28370   9
   4   4 -11 60.3584 5.47982  15
   2  -4 -11 124.873 8.18265   6
  -2  -4  11 128.058 9.95903   2
  -2  -4  11 119.046 6.54453  12
   2  -4 -11 120.347 8.46101  15
  -2   4  11 106.851 9.30617  16
   2   4 -11 110.031 7.79592   7
  -2   4  11 112.625 5.38038  12
  -2   4  11 124.072 9.04224   8
   0  -4 -11 44.0127 5.61548  15
   0  -4 -11 33.4987 4.51690   6
   0  -4  11 47.3971 4.09163  12
   0  -4  11 36.4105 6.24617   2
   0   4  11 38.7631 2.76115  12
   0   4 -11 34.9138 5.33834   7
   9  -5 -11 495.947 18.8250   9
  -9  -5  11 482.686 20.4068   5
  -9   5  11 463.987 19.6974   5
  -9   5  11 485.558 19.4458   8
  -9   5  11 481.988 18.2163  12
   9   5 -11 475.271 17.8493   7
   7  -5 -11 187.694 11.6890  15
  -7  -5  11 164.484 9.59920  12
   7  -5 -11 170.953 10.1168   9
  -7  -5  11 176.934 11.0570   5
   7   5 -11 167.814 9.49330   7
  -7   5  11 180.015 11.6632   5
   7   5 -11 176.054 9.79819   9
  -7   5  11 165.205 9.23531  12
  -7   5  11 180.485 11.3097   8
   5  -5 -11 435.794 17.4118   6
   5  -5 -11 464.314 19.0214  15
  -5  -5  11 439.465 16.1284  12
   5  -5 -11 459.617 16.8210   9
  -5  -5  11 458.837 18.5379   2
  -5   5  11 428.540 19.0891   5
   5   5 -11 447.578 16.8535   7
  -5   5  11 445.818 18.2546   8
   5   5 -11 475.396 17.3669   9
  -5   5  11 426.794 15.3724  12
  -3  -5  11 164.068 8.45913  12
  -3  -5  11 180.244 11.6661   2
   3  -5 -11 178.565 10.5987   6
   3  -5 -11 179.977 10.9678  15
   3   5 -11 165.030 9.51804   7
  -3   5  11 170.932 7.87045  12
  -3   5  11 166.665 10.8977   8
   1  -5 -11 422.469 17.2175  15
  -1  -5  11 432.037 14.7098  12
  -1  -5  11 435.412 18.7840   2
   1  -5 -11 422.707 17.1941   6
  -1   5  11 402.812 17.5507   8
  -1   5  11 397.379 12.7674  12
   1   5 -11 432.717 16.8519   7
   8  -6 -11 1.56546 2.22042   9
  -8  -6  11 -1.7275 3.26426   5
  -8  -6  11 4.52059 3.34491   2
  -8  -6  11 -0.3077 1.47632  12
   8  -6 -11 1.40812 3.70030  15
  -8   6  11 9.84641 4.20281   5
   8   6 -11 1.62166 2.87654   7
  -8   6  11 -1.1899 3.36852   8
   8   6 -11 -0.4662 2.53641   9
  -8   6  11 0.16289 1.45989  12
   6  -6 -11 57.8478 6.32236   9
   6  -6 -11 46.9580 6.27460   6
  -6  -6  11 59.5864 6.01700  12
   6  -6 -11 55.4840 7.50310  15
  -6  -6  11 41.4262 6.76064   2
  -6   6  11 54.4958 7.28916   8
   6   6 -11 44.1901 5.61018   7
   6   6 -11 39.8492 5.00521   9
  -6   6  11 49.3623 5.09629  12
  -6   6  11 51.7767 6.94558   5
   4  -6 -11 54.1739 7.04398  15
   4  -6 -11 38.2344 4.79835   9
  -4  -6  11 48.4010 7.35899   2
  -4  -6  11 50.9310 5.60740  12
   4  -6 -11 38.3187 5.74831   6
  -4   6  11 47.6925 6.40356   8
   4   6 -11 42.2359 5.23592   7
  -4   6  11 38.7055 4.43907  12
   2  -6 -11 16.9700 4.41276  15
   2  -6 -11 26.8417 5.16211   6
  -2  -6  11 17.3898 3.35173  12
  -2  -6  11 23.2533 6.17807   2
  -2   6  11 18.4925 3.04270  12
   2   6 -11 17.7002 4.17560   7
  -2   6  11 15.1088 4.61511   8
  -7  -7  11 321.593 14.6258  12
   7  -7 -11 349.188 15.1176   9
  -7  -7  11 335.973 16.1393   2
   7  -7 -11 371.539 17.3594  15
   7  -7 -11 317.802 14.3438   6
  -7   7  11 330.924 16.5802   5
   7   7 -11 336.251 14.6958   7
  -7   7  11 339.693 16.5682   8
   5  -7 -11 770.860 26.6598  15
   5  -7 -11 726.691 24.8360   6
  -5  -7  11 763.997 26.8763   2
  -5  -7  11 713.539 23.9996  12
  -5   7  11 760.468 26.6035   8
  -5   7  11 733.825 23.2350  12
   5   7 -11 732.621 24.5172   7
   3  -7 -11 337.022 15.5559   6
  -3  -7  11 334.341 16.9256   2
  -3  -7  11 321.485 13.8567  12
   3  -7 -11 343.125 15.6764  15
  -3   7  11 310.675 12.5181  12
   3   7 -11 302.402 14.0416   7
  -3   7  11 326.333 15.7459   8
  -8   0  12 1157.71 32.8191  12
  -8   0  12 1123.25 35.5698   5
   8   0 -12 1173.68 33.8502   9
  -6   0  12 51.4450 6.88774   5
   6   0 -12 62.1010 6.91988  15
  -6   0  12 46.8387 7.20383  16
  -6   0  12 49.6871 4.60737  12
   6   0 -12 48.8874 5.88264   9
   4   0 -12 1438.89 39.6605  15
  -4   0  12 1442.92 39.9078   5
  -4   0  12 1355.09 34.4861  12
   4   0 -12 1380.09 37.8682   9
  -4   0  12 1308.36 39.6437  16
  -2   0  12 10.1618 1.75830  12
   2   0 -12 11.6545 3.28380   9
   2   0 -12 4.39881 2.70249  15
  -9  -1  12 30.3838 6.12338   5
   9  -1 -12 33.8472 5.04015   9
  -9  -1  12 30.9955 4.70589  12
  -9   1  12 24.8581 5.73710   5
   9   1 -12 22.3929 4.55132   9
  -9   1  12 24.0823 4.39668  12
  -7  -1  12 70.0278 5.87500  12
   7  -1 -12 71.0297 6.71410   9
   7  -1 -12 63.8418 6.29336  15
  -7  -1  12 82.0834 8.31768   5
  -7   1  12 66.9719 7.97432   5
   7   1 -12 76.0847 7.12128   9
   5  -1 -12 169.167 10.0219  15
  -5  -1  12 176.289 10.3403   5
  -5  -1  12 172.754 8.12301  12
  -5  -1  12 151.233 9.72178  16
   5  -1 -12 162.475 9.17157   9
   5   1 -12 174.445 9.86127  15
  -5   1  12 163.051 7.87912  12
  -5   1  12 158.993 10.6657   5
  -5   1  12 161.862 10.7091  16
   5   1 -12 169.285 9.68034   9
   3  -1 -12 7.70753 2.44318   9
  -3  -1  12 8.18643 1.87255  12
   3  -1 -12 5.84398 2.94372  15
  -3   1  12 4.26376 3.36909   5
   3   1 -12 9.24309 2.86303   9
  -3   1  12 5.95392 2.64959  16
   3   1 -12 9.40170 3.80709  15
  -3   1  12 6.12200 1.58866  12
   1  -1 -12 160.038 10.5092  15
  -1  -1  12 160.780 5.90276  12
   1   1 -12 161.641 10.1882  15
  -8  -2  12 646.693 21.6262  12
   8  -2 -12 675.642 23.2940  15
  -8  -2  12 632.798 23.8995   5
   8  -2 -12 638.903 22.3144   9
  -8   2  12 637.537 22.2066   8
   8   2 -12 650.902 22.1327   9
  -8   2  12 638.586 24.2782   5
  -6  -2  12 606.981 19.6681  12
   6  -2 -12 646.871 22.7592  15
  -6  -2  12 619.892 22.2087   5
   6  -2 -12 629.060 21.3431   9
  -6  -2  12 584.830 22.2367  16
   6   2 -12 628.167 21.0755  15
   6   2 -12 609.416 21.1439   9
  -6   2  12 623.669 19.4523  12
  -6   2  12 646.711 23.4706   5
  -6   2  12 601.792 27.8328   8
  -4  -2  12 521.044 16.2010  12
   4  -2 -12 533.313 18.4897   9
   4  -2 -12 507.029 19.7869  15
  -4   2  12 495.079 15.3570  12
  -4   2  12 527.953 20.3277   5
   4   2 -12 521.611 19.1219  15
   4   2 -12 497.127 18.5350   9
  -2  -2  12 390.901 12.0874  12
   2  -2 -12 383.329 16.4318  15
   2  -2 -12 355.787 14.1684   9
  -2   2  12 391.836 16.9555   5
   2   2 -12 395.956 14.6668   7
  -2   2  12 364.509 10.8228  12
   2   2 -12 387.733 16.6110  15
   2   2 -12 402.347 15.5986   9
  -9  -3  12 60.5395 8.07991   5
  -9  -3  12 53.4162 6.38261  12
   9  -3 -12 58.9501 6.62690   9
   9  -3 -12 56.4833 6.76437  15
   9   3 -12 64.6850 6.77725   9
  -9   3  12 53.8028 6.89958   5
  -9   3  12 46.4095 6.24820   8
  -7  -3  12 25.4621 4.20608  12
  -7  -3  12 23.8023 4.80227   5
   7  -3 -12 29.6661 5.36693  15
   7  -3 -12 29.4641 4.92663   9
  -7   3  12 23.0645 5.76787   5
   7   3 -12 35.6394 5.14676   9
  -7   3  12 23.2168 4.78395   8
  -7   3  12 30.1812 4.30423  12
   7   3 -12 30.1284 4.23569   7
  -5  -3  12 1.70209 2.19600  12
   5  -3 -12 0.01411 2.34286   9
   5  -3 -12 4.14188 2.76221  15
   5   3 -12 2.12006 2.68605  15
  -5   3  12 0.89391 1.47992  12
   5   3 -12 -1.7728 1.94183   7
  -5   3  12 4.93238 2.53082   8
   5   3 -12 -0.3226 2.93030   9
  -5   3  12 0.54669 2.42274   5
   3  -3 -12 81.6750 7.23127  15
  -3  -3  12 86.6367 5.40326  12
   3  -3 -12 78.7017 7.23375   6
   3  -3 -12 87.0287 6.48472   9
   3   3 -12 85.8341 6.67039   7
   3   3 -12 81.2537 7.20704   9
  -3   3  12 78.7934 4.59080  12
   3   3 -12 88.8064 7.19580  15
  -3   3  12 81.0555 8.36363   5
   1  -3 -12 -1.1455 2.20033   6
  -1  -3  12 1.41978 1.65837  12
  -1  -3  12 5.94257 4.18849   2
   1  -3 -12 8.17748 3.61736  15
  -1   3  12 1.86885 0.90260  12
   1   3 -12 5.80798 2.90309   7
   8  -4 -12 49.6936 7.33630  15
  -8  -4  12 34.3705 4.95153  12
   8  -4 -12 48.6937 6.53887   9
  -8  -4  12 40.8533 6.73312   5
  -8   4  12 50.0889 7.41335   5
  -8   4  12 36.5391 5.85361   8
  -8   4  12 40.2591 5.13747  12
   8   4 -12 42.4889 5.73691   9
   8   4 -12 43.6607 5.53941   7
  -6  -4  12 504.428 18.0583  12
   6  -4 -12 547.816 19.2958   9
   6  -4 -12 519.755 20.5188  15
  -6   4  12 502.557 17.3247  12
   6   4 -12 511.745 18.2538   7
  -6   4  12 529.138 19.7733   8
   6   4 -12 521.131 19.0746   9
  -6   4  12 518.185 21.5238   5
  -4  -4  12 108.170 6.66444  12
   4  -4 -12 68.7303 7.26889   6
   4  -4 -12 72.5089 7.78164  15
  -4  -4  12 89.1760 9.26636   2
   4  -4 -12 74.3585 6.37941   9
   4   4 -12 61.5590 6.13987   7
   4   4 -12 86.0180 7.48180   9
  -4   4  12 91.2169 5.48475  12
  -4   4  12 73.8404 8.54992   5
   4   4 -12 80.4508 7.27402  15
  -2  -4  12 755.325 26.1992   2
   2  -4 -12 727.665 24.1656   6
  -2  -4  12 725.274 20.9478  12
  -2   4  12 680.211 19.1073  12
   2   4 -12 697.010 23.2196   7
  -2   4  12 711.015 24.8997   8
  -7  -5  12 3.74040 2.57860  12
  -7  -5  12 1.14279 3.51810   2
   7  -5 -12 0.31043 2.74997   9
   7  -5 -12 5.23907 4.09890  15
   7   5 -12 3.82736 3.19225   9
  -7   5  12 1.71505 3.63916   8
  -7   5  12 1.61290 2.80628   5
   7   5 -12 3.82497 2.83909   7
  -7   5  12 3.63161 2.41871  12
   5  -5 -12 -1.2232 2.96881   6
  -5  -5  12 2.19594 2.08708  12
   5  -5 -12 3.39626 2.91344  15
  -5  -5  12 0.66723 3.72615   2
   5  -5 -12 0.76109 2.34986   9
   5   5 -12 1.42325 2.23075   9
   5   5 -12 -0.7497 2.38710   7
  -5   5  12 0.89191 1.80934  12
  -5   5  12 -0.4272 3.12679   8
  -5   5  12 6.78650 3.44534   5
   3  -5 -12 36.7685 5.86590   6
  -3  -5  12 46.5524 5.21489  12
   3  -5 -12 39.4139 6.21115  15
  -3  -5  12 38.9905 6.91631   2
  -3   5  12 42.2846 4.05616  12
   3   5 -12 36.4123 5.19953   7
  -3   5  12 34.4058 5.24424   8
   6  -6 -12 189.634 10.9672   6
   6  -6 -12 193.544 10.7074   9
   6  -6 -12 212.374 13.0834  15
  -6  -6  12 173.669 11.8460   2
  -6  -6  12 199.684 10.6817  12
   6   6 -12 193.373 10.5426   7
  -6   6  12 178.617 11.8859   8
  -6   6  12 179.760 9.57741  12
   6   6 -12 191.179 10.5971   9
  -6   6  12 191.837 12.7292   5
   4  -6 -12 826.947 27.7777  15
  -4  -6  12 788.517 24.4552  12
   4  -6 -12 773.681 26.4267   6
  -4  -6  12 772.527 27.9577   2
   4   6 -12 750.071 24.8975   7
  -4   6  12 810.708 27.7692   8
  -4   6  12 756.513 23.0271  12
  -8   0  13 0.15117 1.95868  12
  -8   0  13 3.49456 3.98605   5
   8   0 -13 2.89697 3.32501   9
   6   0 -13 -0.6951 1.92061  15
   6   0 -13 2.58737 2.86411   9
  -6   0  13 -0.8941 1.54878  12
  -6   0  13 -2.9867 3.22592   5
  -4   0  13 0.85064 1.23450  12
   4   0 -13 3.46844 2.89301   9
   4   0 -13 0.05923 2.17844  15
   7  -1 -13 636.390 22.7904  15
   7  -1 -13 650.992 22.4292   9
  -7  -1  13 610.971 23.2806   5
  -7  -1  13 643.669 20.9072  12
  -7   1  13 636.190 23.9428   5
   7   1 -13 623.856 21.9808   9
   7   1 -13 626.237 24.4456  15
  -7   1  13 646.241 20.6462  12
  -5  -1  13 118.030 6.96135  12
  -5  -1  13 117.859 9.29725   5
   5  -1 -13 116.509 9.20575  15
   5  -1 -13 117.190 8.20366   9
  -5   1  13 122.933 6.92267  12
  -5   1  13 128.505 9.46291   5
   5   1 -13 118.358 8.96007  15
   5   1 -13 124.068 8.60616   9
   3  -1 -13 682.176 24.4113  15
  -3  -1  13 671.279 18.8232  12
  -3   1  13 677.169 18.3323  12
   3   1 -13 694.674 22.8886   9
   3   1 -13 699.471 24.2688  15
  -6  -2  13 161.293 10.2763   5
   6  -2 -13 169.569 11.0864  15
   6  -2 -13 171.567 10.1202   9
  -6  -2  13 161.826 8.66199  12
  -6   2  13 169.609 8.78468  12
   6   2 -13 170.754 10.1359  15
   6   2 -13 161.054 9.62073   9
   4  -2 -13 250.155 11.8045   9
  -4  -2  13 233.035 9.82871  12
   4  -2 -13 253.748 13.0691  15
   4   2 -13 234.358 11.9930   9
  -4   2  13 239.157 9.31327  12
   4   2 -13 239.904 12.2817  15
  -4   2  13 261.768 13.6239   5
   5  -3 -13 478.087 17.9335   9
  -5  -3  13 473.262 16.5344  12
   5  -3 -13 474.686 19.6815  15
  -5   3  13 474.826 20.4114   5
  -5   3  13 464.150 15.6400  12
   5   3 -13 480.735 18.3397   9
   5   3 -13 482.534 18.3747  15
   0   0   0    0.00    0.00   0

 _exptl_absorpt_process_details
)
 SADABS 2016/2: Krause, L., Herbst-Irmer, R., Sheldrick G.M. & Stalke D.,
 J. Appl. Cryst. 48 (2015) 3-10
)
 _exptl_absorpt_correction_type   multi-scan
 _exptl_absorpt_correction_T_max  0.7479
 _exptl_absorpt_correction_T_min  0.6624
 _exptl_special_details
)
 The following wavelength and cell were deduced by SADABS from the
 direction cosines etc. They are given here for emergency use only:
 CELL 0.71073    6.792    7.606    7.383   89.976  117.008   89.992
)

;
_shelx_hkl_checksum              34339
loop_
_space_group_symop_operation_xyz
'x, y, z'
'-x, y, -z+1/2'
'x+1/2, y+1/2, z'
'-x+1/2, y+1/2, -z+1/2'
'-x, -y, -z'
'x, -y, z-1/2'
'-x+1/2, -y+1/2, -z'
'x+1/2, -y+1/2, z-1/2'
loop_
_atom_site_label
_atom_site_type_symbol
_atom_site_fract_x
_atom_site_fract_y
_atom_site_fract_z
_atom_site_U_iso_or_equiv
_atom_site_adp_type
_atom_site_occupancy
_atom_site_site_symmetry_order
_atom_site_calc_flag
_atom_site_refinement_flags_posn
_atom_site_refinement_flags_adp
_atom_site_refinement_flags_occupancy
_atom_site_disorder_assembly
_atom_site_disorder_group
Ni Ni 0.000000 0.500000 0.000000 0.00292(5) Uani 1 2 d S . P . .
S S 0.000000 0.15763(4) 0.250000 0.00284(5) Uani 1 2 d S T P . .
O1 O 0.17257(10) 0.04772(9) 0.40473(9) 0.00604(10) Uani 1 1 d . . . . .
O2 O 0.10507(10) 0.27108(8) 0.15552(9) 0.00506(9) Uani 1 1 d . . . . .
O3 O 0.000000 0.63055(12) 0.250000 0.00491(12) Uani 1 2 d S T P . .
H H 0.109(3) 0.695(3) 0.294(3) 0.020(5) Uiso 1 1 d . . . . .
loop_
_atom_site_aniso_label
_atom_site_aniso_U_11
_atom_site_aniso_U_22
_atom_site_aniso_U_33
_atom_site_aniso_U_23
_atom_site_aniso_U_13
_atom_site_aniso_U_12
Ni 0.00272(6) 0.00320(7) 0.00283(6) 0.00010(3) 0.00127(5) -0.00010(4)
S 0.00228(9) 0.00297(10) 0.00321(9) 0.000 0.00121(7) 0.000
O1 0.0039(2) 0.0070(2) 0.0067(2) 0.00315(17) 0.00202(17) 0.00183(17)
O2 0.0051(2) 0.0047(2) 0.0067(2) 0.00181(16) 0.00378(17) 0.00031(16)
O3 0.0042(3) 0.0056(3) 0.0050(3) 0.000 0.0022(2) 0.000
loop_
_atom_type_symbol
_atom_type_description
_atom_type_scat_dispersion_real
_atom_type_scat_dispersion_imag
_atom_type_scat_source
O O 0.0106 0.0060 'International Tables Vol C Tables 4.2.6.8 and 6.1.1.4'
H H 0.0000 0.0000 'International Tables Vol C Tables 4.2.6.8 and 6.1.1.4'
S S 0.1246 0.1234 'International Tables Vol C Tables 4.2.6.8 and 6.1.1.4'
Ni Ni 0.3393 1.1124 'International Tables Vol C Tables 4.2.6.8 and 6.1.1.4'
loop_
_geom_angle_atom_site_label_1
_geom_angle_atom_site_label_2
_geom_angle_atom_site_label_3
_geom_angle
_geom_angle_site_symmetry_1
_geom_angle_site_symmetry_3
_geom_angle_publ_flag
O2 Ni O2 180.0 . 5_565 ?
O2 Ni O1 94.87(3) . 8_455 ?
O2 Ni O1 85.13(3) 5_565 8_455 ?
O2 Ni O1 85.13(3) . 4 ?
O2 Ni O1 94.87(3) 5_565 4 ?
O1 Ni O1 180.0 8_455 4 ?
O2 Ni O3 87.33(3) . 5_565 ?
O2 Ni O3 92.67(3) 5_565 5_565 ?
O1 Ni O3 93.19(2) 8_455 5_565 ?
O1 Ni O3 86.81(2) 4 5_565 ?
O2 Ni O3 92.67(3) . . ?
O2 Ni O3 87.33(3) 5_565 . ?
O1 Ni O3 86.81(2) 8_455 . ?
O1 Ni O3 93.19(2) 4 . ?
O3 Ni O3 180.0 5_565 . ?
O2 Ni O2 81.681(14) . 8_455 ?
O2 Ni O2 98.320(15) 5_565 8_455 ?
O1 Ni O2 43.64(2) 8_455 8_455 ?
O1 Ni O2 136.36(2) 4 8_455 ?
O3 Ni O2 51.304(16) 5_565 8_455 ?
O3 Ni O2 128.696(16) . 8_455 ?
O2 Ni O2 98.320(14) . 4 ?
O2 Ni O2 81.680(15) 5_565 4 ?
O1 Ni O2 136.36(2) 8_455 4 ?
O1 Ni O2 43.64(2) 4 4 ?
O3 Ni O2 128.696(16) 5_565 4 ?
O3 Ni O2 51.304(16) . 4 ?
O2 Ni O2 180.00(2) 8_455 4 ?
O2 Ni O2 136.09(2) . 6_565 ?
O2 Ni O2 43.91(2) 5_565 6_565 ?
O1 Ni O2 113.79(2) 8_455 6_565 ?
O1 Ni O2 66.21(2) 4 6_565 ?
O3 Ni O2 59.81(3) 5_565 6_565 ?
O3 Ni O2 120.19(3) . 6_565 ?
O2 Ni O2 96.345(19) 8_455 6_565 ?
O2 Ni O2 83.655(18) 4 6_565 ?
O2 Ni O2 43.91(2) . 2 ?
O2 Ni O2 136.09(2) 5_565 2 ?
O1 Ni O2 66.21(2) 8_455 2 ?
O1 Ni O2 113.79(2) 4 2 ?
O3 Ni O2 120.19(3) 5_565 2 ?
O3 Ni O2 59.81(3) . 2 ?
O2 Ni O2 83.655(19) 8_455 2 ?
O2 Ni O2 96.345(18) 4 2 ?
O2 Ni O2 180.000(12) 6_565 2 ?
O1 S O1 110.41(6) 2 . ?
O1 S O2 108.46(4) 2 2 ?
O1 S O2 110.23(4) . 2 ?
O1 S O2 110.23(4) 2 . ?
O1 S O2 108.46(4) . . ?
O2 S O2 109.04(5) 2 . ?
S O1 Ni 136.47(4) . 4_545 ?
S O1 O2 36.07(2) . . ?
Ni O1 O2 100.54(3) 4_545 . ?
S O1 O1 34.80(3) . 2 ?
Ni O1 O1 139.35(4) 4_545 2 ?
O2 O1 O1 60.57(3) . 2 ?
S O1 O2 35.18(2) . 2 ?
Ni O1 O2 145.47(4) 4_545 2 ?
O2 O1 O2 60.36(3) . 2 ?
O1 O1 O2 59.48(2) 2 2 ?
S O1 O2 127.63(4) . 4_545 ?
Ni O1 O2 47.393(19) 4_545 4_545 ?
O2 O1 O2 109.93(3) . 4_545 ?
O1 O1 O2 102.17(3) 2 4_545 ?
O2 O1 O2 161.46(4) 2 4_545 ?
S O1 O3 170.96(4) . 7_556 ?
Ni O1 O3 47.692(15) 4_545 7_556 ?
O2 O1 O3 145.62(3) . 7_556 ?
O1 O1 O3 150.59(2) 2 7_556 ?
O2 O1 O3 135.95(3) 2 7_556 ?
O2 O1 O3 61.41(2) 4_545 7_556 ?
S O1 O2 115.11(4) . 8_556 ?
Ni O1 O2 42.530(19) 4_545 8_556 ?
O2 O1 O2 86.31(2) . 8_556 ?
O1 O1 O2 146.85(3) 2 8_556 ?
O2 O1 O2 104.39(3) 2 8_556 ?
O2 O1 O2 89.92(3) 4_545 8_556 ?
O3 O1 O2 61.64(2) 7_556 8_556 ?
S O1 O3 92.62(3) . 3_545 ?
Ni O1 O3 44.385(17) 4_545 3_545 ?
O2 O1 O3 57.77(2) . 3_545 ?
O1 O1 O3 101.62(4) 2 3_545 ?
O2 O1 O3 115.68(3) 2 3_545 ?
O2 O1 O3 62.47(3) 4_545 3_545 ?
O3 O1 O3 92.08(2) 7_556 3_545 ?
O2 O1 O3 56.87(2) 8_556 3_545 ?
S O1 O2 112.47(4) . 7_556 ?
Ni O1 O2 78.37(2) 4_545 7_556 ?
O2 O1 O2 108.27(3) . 7_556 ?
O1 O1 O2 139.83(3) 2 7_556 ?
O2 O1 O2 81.14(2) 2 7_556 ?
O2 O1 O2 117.40(3) 4_545 7_556 ?
O3 O1 O2 58.89(2) 7_556 7_556 ?
O2 O1 O2 45.85(2) 8_556 7_556 ?
O3 O1 O2 102.49(2) 3_545 7_556 ?
S O1 O2 127.40(4) . 6_556 ?
Ni O1 O2 95.18(3) 4_545 6_556 ?
O2 O1 O2 162.63(4) . 6_556 ?
O1 O1 O2 102.46(3) 2 6_556 ?
O2 O1 O2 109.16(3) 2 6_556 ?
O2 O1 O2 75.71(3) 4_545 6_556 ?
O3 O1 O2 51.68(2) 7_556 6_556 ?
O2 O1 O2 110.45(3) 8_556 6_556 ?
O3 O1 O2 135.11(3) 3_545 6_556 ?
O2 O1 O2 81.988(19) 7_556 6_556 ?
S O1 O1 89.57(3) . 5_556 ?
Ni O1 O1 133.31(4) 4_545 5_556 ?
O2 O1 O1 124.21(4) . 5_556 ?
O1 O1 O1 80.76(3) 2 5_556 ?
O2 O1 O1 65.81(3) 2 5_556 ?
O2 O1 O1 116.79(4) 4_545 5_556 ?
O3 O1 O1 85.62(3) 7_556 5_556 ?
O2 O1 O1 121.19(3) 8_556 5_556 ?
O3 O1 O1 177.60(3) 3_545 5_556 ?
O2 O1 O1 75.73(3) 7_556 5_556 ?
O2 O1 O1 43.355(19) 6_556 5_556 ?
S O2 Ni 130.38(4) . . ?
S O2 O1 35.47(2) . . ?
Ni O2 O1 160.09(4) . . ?
S O2 O2 35.48(3) . 2 ?
Ni O2 O2 100.58(2) . 2 ?
O1 O2 O2 60.36(3) . 2 ?
S O2 O1 34.59(2) . 2 ?
Ni O2 O1 117.30(3) . 2 ?
O1 O2 O1 59.94(3) . 2 ?
O2 O2 O1 59.28(2) 2 2 ?
S O2 O3 106.74(4) . 3_545 ?
Ni O2 O3 122.74(3) . 3_545 ?
O1 O2 O3 72.69(3) . 3_545 ?
O2 O2 O3 129.78(3) 2 3_545 ?
O1 O2 O3 111.76(3) 2 3_545 ?
S O2 O1 160.48(4) . 4 ?
Ni O2 O1 47.48(2) . 4 ?
O1 O2 O1 138.31(3) . 4 ?
O2 O2 O1 127.67(2) 2 4 ?
O1 O2 O1 161.46(4) 2 4 ?
O3 O2 O1 77.72(3) 3_545 4 ?
S O2 O3 135.23(4) . 5_565 ?
Ni O2 O3 47.46(2) . 5_565 ?
O1 O2 O3 150.01(4) . 5_565 ?
O2 O2 O3 133.23(4) 2 5_565 ?
O1 O2 O3 101.31(3) 2 5_565 ?
O3 O2 O3 96.46(2) 3_545 5_565 ?
O1 O2 O3 60.97(2) 4 5_565 ?
S O2 O1 90.77(3) . 8_455 ?
Ni O2 O1 42.600(17) . 8_455 ?
O1 O2 O1 126.15(4) . 8_455 ?
O2 O2 O1 71.81(3) 2 8_455 ?
O1 O2 O1 75.61(3) 2 8_455 ?
O3 O2 O1 158.30(3) 3_545 8_455 ?
O1 O2 O1 90.08(3) 4 8_455 ?
O3 O2 O1 61.85(2) 5_565 8_455 ?
S O2 O3 101.60(3) . . ?
Ni O2 O3 44.693(16) . . ?
O1 O2 O3 116.65(3) . . ?
O2 O2 O3 66.120(14) 2 . ?
O1 O2 O3 115.77(3) 2 . ?
O3 O2 O3 128.76(3) 3_545 . ?
O1 O2 O3 63.03(2) 4 . ?
O3 O2 O3 92.15(2) 5_565 . ?
O1 O2 O3 56.769(17) 8_455 . ?
S O2 O1 82.62(3) . 7_556 ?
Ni O2 O1 94.97(3) . 7_556 ?
O1 O2 O1 71.73(3) . 7_556 ?
O2 O2 O1 62.34(3) 2 7_556 ?
O1 O2 O1 116.70(3) 2 7_556 ?
O3 O2 O1 87.83(2) 3_545 7_556 ?
O1 O2 O1 78.53(2) 4 7_556 ?
O3 O2 O1 137.03(3) 5_565 7_556 ?
O1 O2 O1 107.46(3) 8_455 7_556 ?
O3 O2 O1 54.477(17) . 7_556 ?
S O2 O1 93.67(3) . 6 ?
Ni O2 O1 115.12(3) . 6 ?
O1 O2 O1 83.40(2) . 6 ?
O2 O2 O1 128.01(2) 2 6 ?
O1 O2 O1 70.84(3) 2 6 ?
O3 O2 O1 56.88(2) 3_545 6 ?
O1 O2 O1 104.29(3) 4 6 ?
O3 O2 O1 67.66(3) 5_565 6 ?
O1 O2 O1 110.45(3) 8_455 6 ?
O3 O2 O1 159.81(3) . 6 ?
O1 O2 O1 141.95(2) 7_556 6 ?
Ni O3 Ni 123.72(4) . 2 ?
Ni O3 O2 111.614(17) . 3_455 ?
Ni O3 O2 90.591(16) 2 3_455 ?
Ni O3 O2 90.591(16) . 4 ?
Ni O3 O2 111.614(17) 2 4 ?
O2 O3 O2 132.67(5) 3_455 4 ?
Ni O3 O1 45.499(17) . 8_455 ?
Ni O3 O1 104.53(3) 2 8_455 ?
O2 O3 O1 71.43(2) 3_455 8_455 ?
O2 O3 O1 134.54(2) 4 8_455 ?
Ni O3 O1 104.53(3) . 7_556 ?
Ni O3 O1 45.499(17) 2 7_556 ?
O2 O3 O1 134.54(2) 3_455 7_556 ?
O2 O3 O1 71.43(2) 4 7_556 ?
O1 O3 O1 123.01(4) 8_455 7_556 ?
Ni O3 O2 162.15(3) . 6_566 ?
Ni O3 O2 45.207(15) 2 6_566 ?
O2 O3 O2 84.38(2) 3_455 6_566 ?
O2 O3 O2 83.54(2) 4 6_566 ?
O1 O3 O2 141.79(2) 8_455 6_566 ?
O1 O3 O2 57.62(2) 7_556 6_566 ?
Ni O3 O2 45.207(15) . 5_565 ?
Ni O3 O2 162.15(3) 2 5_565 ?
O2 O3 O2 83.54(2) 3_455 5_565 ?
O2 O3 O2 84.38(2) 4 5_565 ?
O1 O3 O2 57.62(2) 8_455 5_565 ?
O1 O3 O2 141.79(2) 7_556 5_565 ?
O2 O3 O2 149.60(4) 6_566 5_565 ?
Ni O3 O2 42.641(19) . . ?
Ni O3 O2 82.71(3) 2 . ?
O2 O3 O2 128.76(3) 3_455 . ?
O2 O3 O2 96.202(18) 4 . ?
O1 O3 O2 61.59(2) 8_455 . ?
O1 O3 O2 66.63(3) 7_556 . ?
O2 O3 O2 121.13(3) 6_566 . ?
O2 O3 O2 87.85(2) 5_565 . ?
Ni O3 O2 82.71(3) . 2 ?
Ni O3 O2 42.641(19) 2 2 ?
O2 O3 O2 96.202(17) 3_455 2 ?
O2 O3 O2 128.76(3) 4 2 ?
O1 O3 O2 66.63(3) 8_455 2 ?
O1 O3 O2 61.59(2) 7_556 2 ?
O2 O3 O2 87.85(2) 6_566 2 ?
O2 O3 O2 121.13(3) 5_565 2 ?
O2 O3 O2 47.76(3) . 2 ?
Ni O3 O1 122.71(3) . 3_455 ?
Ni O3 O1 42.424(14) 2 3_455 ?
O2 O3 O1 49.536(19) 3_455 3_455 ?
O2 O3 O1 144.81(2) 4 3_455 ?
O1 O3 O1 80.57(2) 8_455 3_455 ?
O1 O3 O1 87.92(2) 7_556 3_455 ?
O2 O3 O1 61.28(2) 6_566 3_455 ?
O2 O3 O1 126.19(2) 5_565 3_455 ?
O2 O3 O1 101.38(3) . 3_455 ?
O2 O3 O1 54.50(2) 2 3_455 ?
Ni O3 O1 42.424(13) . 4 ?
Ni O3 O1 122.71(3) 2 4 ?
O2 O3 O1 144.81(2) 3_455 4 ?
O2 O3 O1 49.536(19) 4 4 ?
O1 O3 O1 87.92(2) 8_455 4 ?
O1 O3 O1 80.57(2) 7_556 4 ?
O2 O3 O1 126.192(19) 6_566 4 ?
O2 O3 O1 61.28(2) 5_565 4 ?
O2 O3 O1 54.50(2) . 4 ?
O2 O3 O1 101.38(3) 2 4 ?
O1 O3 O1 155.80(4) 3_455 4 ?
Ni O3 H 105.3(15) . . ?
Ni O3 H 107.3(15) 2 . ?
O2 O3 H 118.9(15) 3_455 . ?
O2 O3 H 16.1(15) 4 . ?
O1 O3 H 146.2(15) 8_455 . ?
O1 O3 H 74.7(15) 7_556 . ?
O2 O3 H 71.6(15) 6_566 . ?
O2 O3 H 90.3(15) 5_565 . ?
O2 O3 H 111.5(15) . . ?
O2 O3 H 136.1(15) 2 . ?
O1 O3 H 131.8(15) 3_455 . ?
O1 O3 H 65.4(15) 4 . ?
Ni O3 H 107.3(15) . 2 ?
Ni O3 H 105.3(15) 2 2 ?
O2 O3 H 16.1(15) 3_455 2 ?
O2 O3 H 118.9(15) 4 2 ?
O1 O3 H 74.7(15) 8_455 2 ?
O1 O3 H 146.2(15) 7_556 2 ?
O2 O3 H 90.3(15) 6_566 2 ?
O2 O3 H 71.6(15) 5_565 2 ?
O2 O3 H 136.1(15) . 2 ?
O2 O3 H 111.5(15) 2 2 ?
O1 O3 H 65.4(15) 3_455 2 ?
O1 O3 H 131.8(15) 4 2 ?
H O3 H 107(3) . 2 ?
loop_
_geom_bond_atom_site_label_1
_geom_bond_atom_site_label_2
_geom_bond_distance
_geom_bond_site_symmetry_2
_geom_bond_publ_flag
Ni O2 2.0309(6) . ?
Ni O2 2.0309(6) 5_565 ?
Ni O1 2.0336(7) 8_455 ?
Ni O1 2.0336(7) 4 ?
Ni O3 2.1085(5) 5_565 ?
Ni O3 2.1085(5) . ?
Ni O2 3.4166(7) 8_455 ?
Ni O2 3.4166(7) 4 ?
Ni O2 3.4368(7) 6_565 ?
Ni O2 3.4368(7) 2 ?
S O1 1.4672(7) 2 ?
S O1 1.4672(7) . ?
S O2 1.4888(6) 2 ?
S O2 1.4888(6) . ?
O1 O2 2.3985(9) . ?
O1 O1 2.4097(13) 2 ?
O1 O2 2.4249(9) 2 ?
O1 O2 2.7493(9) 4_545 ?
O1 O3 2.8467(8) 7_556 ?
O1 O2 2.9935(10) 8_556 ?
O1 O3 3.0098(7) 3_545 ?
O1 O2 3.2108(10) 7_556 ?
O1 O2 3.2219(9) 6_556 ?
O1 O1 3.3365(13) 5_556 ?
O2 O2 2.4247(12) 2 ?
O2 O3 2.6667(8) 3_545 ?
O2 O3 2.8587(8) 5_565 ?
O2 O3 2.9948(11) . ?
O3 H 0.82(2) . ?
O3 H 0.82(2) 2 ?
loop_
_geom_hbond_atom_site_label_D
_geom_hbond_atom_site_label_H
_geom_hbond_atom_site_label_A
_geom_hbond_distance_DH
_geom_hbond_distance_HA
_geom_hbond_distance_DA
_geom_hbond_angle_DHA
_geom_hbond_site_symmetry_A
_geom_hbond_publ_flag
O3 H O2 0.82(2) 1.89(2) 2.6667(8) 157(2) 4 yes
