#------------------------------------------------------------------------------
#$Date: 2021-12-07 06:02:57 +0200 (Tue, 07 Dec 2021) $
#$Revision: 271235 $
#$URL: file:///home/coder/svn-repositories/cod/cif/1/56/50/1565089.cif $
#------------------------------------------------------------------------------
#
# This file is available in the Crystallography Open Database (COD),
# http://www.crystallography.net/
#
# All data on this site have been placed in the public domain by the
# contributors.
#
data_1565089
loop_
_publ_author_name
'Zhang, Zhenyu'
'Sun, Yu'
'Zhao, Xu'
'Jin, Nanxi'
'Xi, Gaolei'
'Zhang, Xuedong'
'Cao, Jingjin'
'Wu, Jia'
'Fan, Xia'
'Qin, Wenping'
_publ_section_title
;
 Novel isoindigo compound with aggregation-induced emission: Br-Br bonding
 joint restriction of intramolecular motion and cell imaging properties.
;
_journal_issue                   43
_journal_name_full               'Soft matter'
_journal_page_first              9866
_journal_page_last               9870
_journal_paper_doi               10.1039/d1sm00935d
_journal_volume                  17
_journal_year                    2021
_chemical_formula_sum            'C26 H24 Br2 N2 O6'
_chemical_formula_weight         620.29
_space_group_crystal_system      triclinic
_space_group_IT_number           2
_space_group_name_Hall           '-P 1'
_space_group_name_H-M_alt        'P -1'
_atom_sites_solution_hydrogens   geom
_atom_sites_solution_primary     direct
_atom_sites_solution_secondary   difmap
_audit_creation_method           SHELXL-2014/7
_audit_update_record
;
2019-05-09 deposited with the CCDC.	2021-10-13 downloaded from the CCDC.
;
_cell_angle_alpha                67.308(7)
_cell_angle_beta                 75.384(6)
_cell_angle_gamma                85.216(5)
_cell_formula_units_Z            1
_cell_length_a                   6.1484(3)
_cell_length_b                   10.5215(7)
_cell_length_c                   11.0081(9)
_cell_measurement_reflns_used    2568
_cell_measurement_temperature    293(2)
_cell_measurement_theta_max      70.1360
_cell_measurement_theta_min      4.4770
_cell_volume                     635.66(8)
_computing_cell_refinement       'Bruker FRAMBO'
_computing_data_collection       'Bruker FRAMBO'
_computing_data_reduction        'Bruker SAINT'
_computing_molecular_graphics    'Bruker SHELXTL'
_computing_publication_material  'Bruker SHELXTL'
_computing_structure_refinement  'SHELXL-2014/7 (Sheldrick, 2014)'
_computing_structure_solution    'Bruker SHELXTL'
_diffrn_ambient_temperature      293(2)
_diffrn_measured_fraction_theta_full 0.992
_diffrn_measured_fraction_theta_max 0.970
_diffrn_measurement_device_type  'multiwire proportional'
_diffrn_measurement_method       'phi and omega scans'
_diffrn_radiation_type           CuK\a
_diffrn_radiation_wavelength     1.54178
_diffrn_reflns_av_R_equivalents  0.0206
_diffrn_reflns_av_unetI/netI     0.0272
_diffrn_reflns_Laue_measured_fraction_full 0.992
_diffrn_reflns_Laue_measured_fraction_max 0.970
_diffrn_reflns_limit_h_max       5
_diffrn_reflns_limit_h_min       -7
_diffrn_reflns_limit_k_max       12
_diffrn_reflns_limit_k_min       -12
_diffrn_reflns_limit_l_max       12
_diffrn_reflns_limit_l_min       -13
_diffrn_reflns_number            4603
_diffrn_reflns_point_group_measured_fraction_full 0.992
_diffrn_reflns_point_group_measured_fraction_max 0.970
_diffrn_reflns_theta_full        67.679
_diffrn_reflns_theta_max         70.388
_diffrn_reflns_theta_min         4.484
_diffrn_source                   'micro-focus sealed X-ray tube'
_exptl_absorpt_coefficient_mu    4.424
_exptl_absorpt_correction_T_max  1.00000
_exptl_absorpt_correction_T_min  0.50449
_exptl_absorpt_correction_type   multi-scan
_exptl_crystal_colour            orange
_exptl_crystal_density_diffrn    1.620
_exptl_crystal_density_method    'not measured'
_exptl_crystal_description       Block
_exptl_crystal_F_000             312
_refine_diff_density_max         0.320
_refine_diff_density_min         -0.606
_refine_diff_density_rms         0.055
_refine_ls_extinction_coef       0.0037(11)
_refine_ls_extinction_expression Fc^*^=kFc[1+0.001xFc^2^\l^3^/sin(2\q)]^-1/4^
_refine_ls_extinction_method     'SHELXL-2014/7 (Sheldrick 2014'
_refine_ls_goodness_of_fit_ref   0.779
_refine_ls_hydrogen_treatment    constr
_refine_ls_matrix_type           full
_refine_ls_number_parameters     177
_refine_ls_number_reflns         2366
_refine_ls_number_restraints     0
_refine_ls_restrained_S_all      0.779
_refine_ls_R_factor_all          0.0458
_refine_ls_R_factor_gt           0.0378
_refine_ls_shift/su_max          0.000
_refine_ls_shift/su_mean         0.000
_refine_ls_structure_factor_coef Fsqd
_refine_ls_weighting_details
'w=1/[\s^2^(Fo^2^)+(0.1158P)^2^+0.3840P] where P=(Fo^2^+2Fc^2^)/3'
_refine_ls_weighting_scheme      calc
_refine_ls_wR_factor_gt          0.1168
_refine_ls_wR_factor_ref         0.1371
_reflns_Friedel_coverage         0.000
_reflns_number_gt                1916
_reflns_number_total             2366
_reflns_threshold_expression     'I > 2\s(I)'
_cod_data_source_file            d1sm00935d2.cif
_cod_data_source_block           jt1_a
_cod_depositor_comments          'Adding full bibliography for 1565089.cif.'
_cod_database_code               1565089
_shelx_shelxl_version_number     2014/7
_shelx_space_group_comment
; 
The symmetry employed for this shelxl refinement is uniquely defined 
by the following loop, which should always be used as a source of 
symmetry information in preference to the above space-group names. 
They are only intended as comments. 
;
_shelx_res_file
; 
  
    jt1_a.res created by SHELXL-2014/7 
  
  
TITL jt1_a.res in P-1 
REM Old TITL jt1 in P-1 
REM SHELXT solution in P-1 
REM R1 0.239,  Rweak 0.028,  Alpha 0.057,  Orientation as input 
REM Formula found by SHELXT:  C13 N2 O2 Br 
CELL  1.54178   6.1484  10.5215  11.0081   67.308   75.384   85.216 
ZERR    1.000   0.0003   0.0007   0.0009    0.007    0.006    0.005 
LATT  1 
SFAC C H N O BR 
UNIT 26 24 2 6 2 
ACTA 
L.S. 10 
BOND $H 
LIST 6 
FMAP 2 
PLAN 20 
WGHT    0.115800    0.384000 
EXTI    0.003717 
FVAR       0.96381   0.51582 
BR1   5    0.795193    0.911831   -0.028445    11.00000    0.08402    0.08623 = 
         0.08032   -0.01663   -0.02527   -0.03798 
N1    3    0.235334    0.479317    0.213491    11.00000    0.06709    0.05486 = 
         0.03804   -0.00717   -0.02356   -0.01308 
part 1 
O1    4   -0.015831    0.307205    0.243942    21.00000    0.11755    0.06963 = 
         0.05405    0.00425   -0.04877   -0.03849 
part 2 
O1'   4   -0.083893    0.355425    0.265251    21.00000    0.09372    0.10240 = 
         0.04064   -0.00856   -0.01620   -0.05052 
PART 0 
C1    1    0.069770    0.425121    0.179022    11.00000    0.07066    0.07079 = 
         0.04480   -0.00704   -0.02554   -0.02330 
C2    1    0.071623    0.513314    0.033437    11.00000    0.05607    0.05167 = 
         0.03837   -0.01186   -0.01746   -0.00609 
O2    4    0.396740    0.496648    0.371544    11.00000    0.12685    0.06816 = 
         0.06402   -0.00513   -0.05575   -0.02988 
C3    1    0.244550    0.619026   -0.008136    11.00000    0.05376    0.05109 = 
         0.03975   -0.01425   -0.01870   -0.00114 
O3    4    0.224806    0.300389    0.409550    11.00000    0.08633    0.05734 = 
         0.04336   -0.00666   -0.03069   -0.01600 
C4    1    0.334603    0.730657   -0.127679    11.00000    0.07741    0.06634 = 
         0.04645   -0.00381   -0.02522   -0.01714 
AFIX  43 
H4    2    0.282334    0.747621   -0.204685    11.00000   -1.20000 
AFIX   0 
C6    1    0.575999    0.791284   -0.020602    11.00000    0.05891    0.05743 = 
         0.05545   -0.01700   -0.01748   -0.01098 
C5    1    0.497083    0.814875   -0.133524    11.00000    0.08374    0.06519 = 
         0.05208   -0.00013   -0.02361   -0.02343 
AFIX  43 
H5    2    0.554510    0.888286   -0.213924    11.00000   -1.20000 
AFIX   0 
C7    1    0.498280    0.682223    0.099627    11.00000    0.06315    0.05907 = 
         0.04909   -0.01390   -0.02378   -0.00946 
AFIX  43 
H7    2    0.554346    0.666119    0.175149    11.00000   -1.20000 
AFIX   0 
C8    1    0.334549    0.597942    0.103873    11.00000    0.05325    0.04615 = 
         0.04275   -0.01092   -0.01914   -0.00412 
C9    1    0.295569    0.428176    0.339662    11.00000    0.07354    0.05703 = 
         0.04560   -0.00998   -0.03034   -0.00881 
C10   1    0.245772    0.229637    0.551756    11.00000    0.06709    0.06364 = 
         0.03943   -0.00602   -0.02437   -0.00833 
C11   1    0.490433    0.218416    0.557141    11.00000    0.07040    0.08191 = 
         0.06885   -0.00906   -0.03125    0.00114 
AFIX 137 
H11A  2    0.573467    0.179286    0.493893    11.00000   -1.50000 
H11B  2    0.502655    0.160429    0.647060    11.00000   -1.50000 
H11C  2    0.550379    0.308414    0.533886    11.00000   -1.50000 
AFIX   0 
C12   1    0.113381    0.306057    0.636606    11.00000    0.09548    0.09846 = 
         0.05641   -0.02647   -0.02093    0.01012 
AFIX 137 
H12A  2    0.186650    0.392705    0.611473    11.00000   -1.50000 
H12B  2    0.104573    0.252135    0.730728    11.00000   -1.50000 
H12C  2   -0.035470    0.322046    0.621703    11.00000   -1.50000 
AFIX   0 
C13   1    0.140955    0.089548    0.590206    11.00000    0.10790    0.07217 = 
         0.06937    0.00046   -0.03173   -0.02689 
AFIX 137 
H13A  2   -0.013436    0.100596    0.585036    11.00000   -1.50000 
H13B  2    0.148870    0.032000    0.681056    11.00000   -1.50000 
H13C  2    0.221175    0.047493    0.528831    11.00000   -1.50000 
AFIX   0 
HKLF 4 
  
REM  jt1_a.res in P-1 
REM R1 =  0.0378 for    1916 Fo > 4sig(Fo)  and  0.0458 for all    2366 data 
REM    177 parameters refined using      0 restraints 
  
END 
  
WGHT      0.0565      0.2052 
  
REM Highest difference peak  0.320,  deepest hole -0.606,  1-sigma level  0.055 
Q1    1   0.0000  0.5000  0.0000  10.50000  0.05    0.32 
Q2    1   0.5925  0.9989 -0.0100  11.00000  0.05    0.26 
Q3    1   0.8945  0.9357 -0.0409  11.00000  0.05    0.25 
Q4    1   0.6788  0.8853  0.0377  11.00000  0.05    0.23 
Q5    1   0.5294  0.7515  0.0363  11.00000  0.05    0.23 
Q6    1   0.8188  0.8221  0.0012  11.00000  0.05    0.22 
Q7    1   0.2661  0.6317  0.0358  11.00000  0.05    0.22 
Q8    1   0.2311  0.6954 -0.0646  11.00000  0.05    0.20 
Q9    1   0.9957  0.8222 -0.0530  11.00000  0.05    0.20 
Q10   1   0.5082  0.4421  0.3440  11.00000  0.05    0.19 
Q11   1   0.4004  0.6624  0.1025  11.00000  0.05    0.19 
Q12   1   0.1066  0.3949  0.6182  11.00000  0.05    0.18 
Q13   1   0.1025  0.5844  0.0219  11.00000  0.05    0.18 
Q14   1   0.8004  0.9029  0.1387  11.00000  0.05    0.18 
Q15   1   0.7024  0.8814 -0.0608  11.00000  0.05    0.17 
Q16   1   0.7513  0.8522 -0.0629  11.00000  0.05    0.17 
Q17   1   0.4827  0.7973 -0.0579  11.00000  0.05    0.17 
Q18   1   0.9432  0.9933 -0.1230  11.00000  0.05    0.16 
Q19   1   0.7528  0.9926 -0.1020  11.00000  0.05    0.16 
Q20   1   0.3282  0.6923 -0.1244  11.00000  0.05    0.16 
;
_shelx_res_checksum              53056
_shelx_hkl_file
; 
   0   0   1 2793.42   15.10 
   0   0   2 4883.01   28.40 
   0   0   3 2482.45   22.30 
   0   0   3 2522.75   26.30 
   0   0   4  125.69    5.90 
   0   0   5 1904.71   25.30 
   0   0   5 1828.22   25.10 
   0   0   6   34.80    3.80 
   0   0   7  118.69    7.80 
   0   0  -8   95.39    7.40 
   0   0   8   88.49    7.20 
   0   0  -8   92.29    7.20 
   0   0   8   84.09    6.90 
   0   0   9   45.90    5.20 
   0   0  -9   49.90    5.50 
   0   0  -9   52.09    5.60 
   0   0  10    3.90    1.50 
   0   0 -10    0.40    0.70 
   0   0  11   -0.50    0.50 
   0   0 -11   -0.80    0.70 
   0   1 -11    1.60    0.90 
   0   1 -10   18.90    3.10 
   0  -1  10   14.90    2.60 
   0   1  -9   27.70    4.10 
   0  -1   9   29.40    4.10 
   0   1  -9   24.80    3.90 
   0   1  -8  170.88   10.10 
   0  -1   8  161.28    9.60 
   0   1  -8  169.28   10.00 
   0  -1   8  175.88   10.30 
   0  -1   7  339.37   13.50 
   0  -1   6  447.16   14.40 
   0  -1   6  418.56   14.00 
   0  -1   5  194.98    8.80 
   0  -1   4 1666.23   22.70 
   0   1  -3  142.39    5.70 
   0  -1   3  133.19    5.50 
   0  -1   3  126.99    6.20 
   0  -1   2 6298.47   35.50 
   0   1  -2 6346.27   32.50 
   0  -1   1 2151.38   15.50 
   0   1  -1 2225.88   15.00 
   0   1   0  326.47    3.60 
   0   1   1   59.79    1.60 
   0   1   2  618.64    8.60 
   0   1   3  852.51   11.70 
   0   1   3  854.81   13.40 
   0   1   4  240.78    8.10 
   0  -1  -4  257.47    7.80 
   0   1   4  255.57    7.70 
   0   1   5   18.90    2.50 
   0   1   5   20.60    2.70 
   0   1   6  142.39    7.50 
   0   1   7   46.20    4.70 
   0   1   8  463.05   16.20 
   0   1   9  136.89    9.20 
   0  -1  -9  132.19    8.80 
   0   1   9  126.69    8.70 
   0  -1  -9  128.89    8.70 
   0   1  10  113.49    8.00 
   0  -1 -10  113.59    8.00 
   0  -1 -11   42.80    4.40 
   0   1  11   43.70    4.40 
   0  -1 -12    0.60    0.50 
   0   2 -11   18.10    2.20 
   0   2 -10   30.20    3.70 
   0   2 -10   34.30    3.90 
   0  -2   9   30.40    3.90 
   0   2  -9   30.60    4.20 
   0   2  -9   30.70    4.30 
   0   2  -8   13.90    2.90 
   0   2  -8   15.20    3.10 
   0  -2   8   14.80    3.00 
   0  -2   7    1.60    1.00 
   0   2  -7    0.00    0.50 
   0   2  -7    0.60    0.60 
   0  -2   6  629.94   18.10 
   0  -2   5  614.54   16.50 
   0  -2   4 2149.48   27.60 
   0   2  -3 2711.23   26.80 
   0   2  -3 2771.32   21.30 
   0  -2   3 2794.62   27.60 
   0   2  -2 1866.91   14.70 
   0  -2   2 1892.51   21.80 
   0   2  -2 1920.21   19.50 
   0   2  -1  434.36    7.90 
   0  -2   1  452.05    7.30 
   0  -2   1  445.66    8.50 
   0   2   0    8.50    0.90 
   0   2   0    7.00    1.00 
   0   2   1 1552.84    9.70 
   0  -2  -1 1580.94   10.70 
   0  -2  -2 2366.66   14.80 
   0   2   2 2412.26   15.10 
   0   2   3    1.80    0.60 
   0   2   3    2.40    0.70 
   0  -2  -3    0.70    0.40 
   0   2   3    2.30    0.70 
   0   2   4  623.44   11.80 
   0   2   4  597.94   12.10 
   0   2   5   26.50    2.90 
   0   2   5   28.60    3.00 
   0   2   6    0.70    0.70 
   0   2   6    0.80    0.70 
   0   2   7  721.13   18.80 
   0   2   8  101.49    7.50 
   0   2   9  215.28   11.30 
   0  -2  -9  211.28   11.20 
   0   2   9  216.98   11.50 
   0  -2 -10   23.40    3.70 
   0   2  10   18.60    3.30 
   0   2  11   67.79    5.80 
   0  -2 -11   67.59    5.80 
   0  -2 -12   14.50    2.20 
   0   2  12   14.80    2.20 
   0   3 -10   12.70    2.10 
   0  -3   9   30.60    3.60 
   0   3  -9   34.00    4.20 
   0   3  -9   31.80    4.00 
   0  -3   8   41.80    4.80 
   0   3  -8   44.50    5.30 
   0   3  -8   41.60    5.10 
   0   3  -7  577.84   19.30 
   0   3  -7  558.14   19.00 
   0  -3   7  559.94   18.80 
   0  -3   6   58.19    5.90 
   0  -3   5   80.09    6.40 
   0  -3   4   92.09    6.20 
   0   3  -3    6.50    1.20 
   0  -3   3    6.40    1.50 
   0   3  -2   19.70    1.80 
   0   3  -2   22.40    2.40 
   0  -3   2   21.90    2.40 
   0   3  -1   22.20    2.00 
   0   3  -1   19.70    2.00 
   0  -3   1   20.80    2.00 
   0  -3   1   19.50    1.80 
   0  -3   0  120.39    4.60 
   0   3   0  114.59    3.90 
   0   3   0  108.79    3.80 
   0  -3   0  113.29    3.80 
   0   3   0  114.29    4.50 
   0  -3  -1  370.76    6.50 
   0   3   1  357.06    5.90 
   0  -3  -2  163.88    4.40 
   0   3   2  175.38    5.20 
   0   3   2  164.98    4.00 
   0  -3  -2  174.28    4.60 
   0   3   2  165.28    4.80 
   0   3   3   47.20    2.80 
   0  -3  -3   41.10    2.40 
   0   3   3   40.00    2.60 
   0   3   3   43.60    2.90 
   0  -3  -3   39.10    2.50 
   0  -3  -4  730.63   12.50 
   0   3   4  726.43   12.40 
   0   3   4  749.42   13.50 
   0   3   5 1279.87   19.20 
   0   3   5 1226.48   19.30 
   0   3   6 1395.36   22.70 
   0   3   6 1271.77   21.80 
   0   3   7  789.92   19.00 
   0   3   8    6.50    1.90 
   0   3   9  134.59    9.30 
   0  -3  -9  148.69    9.40 
   0   3   9  140.79    9.10 
   0   3  10    1.00    0.80 
   0  -3 -10    0.00    0.50 
   0  -3 -11    0.90    0.80 
   0   3  11    0.90    0.80 
   0  -3 -12    0.50    0.50 
   0   3  12    1.40    0.80 
   0   4  -9   20.50    3.00 
   0   4  -9   22.00    3.10 
   0   4  -8   37.30    4.70 
   0   4  -8   35.40    4.60 
   0  -4   8   33.30    4.10 
   0   4  -7    1.50    1.10 
   0   4  -7    0.60    0.90 
   0  -4   6    4.40    1.80 
   0   4  -6    1.90    1.20 
   0  -4   5  415.76   15.60 
   0  -4   4   17.10    2.90 
   0  -4   3   22.60    3.00 
   0   4  -2  161.08    5.90 
   0  -4   2  160.58    7.30 
   0   4  -1 1079.69   17.00 
   0   4  -1 1161.98   16.40 
   0   4  -1 1115.89   14.20 
   0  -4   1 1132.19   15.70 
   0  -4   1 1097.39   17.20 
   0   4   0   21.80    2.30 
   0   4   0   23.00    2.00 
   0  -4   0   21.70    2.30 
   0  -4   0   19.90    1.90 
   0   4   0   19.40    1.90 
   0  -4  -1  742.13   12.90 
   0   4   1  732.63    9.90 
   0   4   1  750.72   11.70 
   0  -4  -1  705.03   10.70 
   0   4   2  443.36    7.30 
   0   4   2  430.06    8.80 
   0   4   2  436.66    9.20 
   0  -4  -2  421.06    8.20 
   0  -4  -2  442.16    8.50 
   0   4   3 1224.48   16.40 
   0  -4  -3 1178.98   14.40 
   0  -4  -3 1154.98   14.50 
   0   4   3 1184.78   15.20 
   0   4   3 1248.38   14.60 
   0  -4  -4  678.03   11.90 
   0   4   4  685.73   12.70 
   0   4   4  678.13   13.50 
   0  -4  -5 1284.17   18.30 
   0   4   5 1309.57   19.70 
   0   4   5 1285.07   20.20 
   0   4   6  183.08    8.30 
   0   4   6  199.18    8.60 
   0  -4  -6  208.78    8.30 
   0   4   7  184.88    9.20 
   0  -4  -8  337.57   12.90 
   0   4   8  349.07   13.70 
   0   4   9   22.10    3.90 
   0  -4  -9   27.80    4.20 
   0  -4 -10   91.59    7.50 
   0   4  10   83.59    7.50 
   0   4  11   17.30    3.20 
   0  -4 -11   18.60    3.10 
   0  -4 -12   19.90    2.70 
   0   4  12   17.10    2.70 
   0   5  -9    7.60    1.50 
   0   5  -9    8.20    1.60 
   0   5  -8   10.50    2.30 
   0   5  -8    9.70    2.20 
   0   5  -7   19.50    3.50 
   0   5  -7   23.90    3.90 
   0   5  -6   84.89    7.60 
   0  -5   5  339.97   14.80 
   0   5  -5  350.56   15.50 
   0  -5   4    3.70    1.60 
   0  -5   3  300.97   12.20 
   0  -5   2   35.00    3.80 
   0   5  -2   32.00    3.10 
   0   5  -1   30.00    2.70 
   0  -5   1   29.40    3.20 
   0  -5   1   27.70    2.80 
   0  -5   0 1466.95   21.30 
   0  -5   0 1525.65   18.90 
   0   5   1  502.15   11.20 
   0  -5  -1  497.95   10.20 
   0  -5  -1  514.35   12.40 
   0  -5  -2  859.31   15.90 
   0   5   2  857.61   14.50 
   0  -5  -2  839.42   13.10 
   0   5   3  992.60   15.50 
   0  -5  -3  973.90   14.30 
   0   5   3  993.20   16.40 
   0   5   4  237.68    8.10 
   0  -5  -4  249.68    7.70 
   0   5   4  237.38    8.50 
   0   5   5  333.87   10.30 
   0   5   5  323.97   10.60 
   0  -5  -5  332.17    9.80 
   0   5   6   58.99    4.90 
   0   5   6   60.79    4.90 
   0   5   7    0.00    0.40 
   0   5   8   11.60    2.50 
   0  -5  -9   15.20    3.10 
   0   5   9   19.90    3.80 
   0   5  10    2.10    1.30 
   0  -5 -10    4.60    1.70 
   0  -5 -11   11.30    2.50 
   0   5  11   13.80    2.90 
   0  -5 -12    7.30    1.70 
   0   5  12    9.20    2.00 
   0   6  -8   16.10    2.30 
   0   6  -8   15.40    2.30 
   0   6  -7   14.90    2.70 
   0   6  -7   17.10    2.90 
   0   6  -6   25.50    4.00 
   0   6  -5   56.89    6.40 
   0  -6   4    5.00    1.80 
   0   6  -4    2.60    1.50 
   0  -6   3  137.59    8.90 
   0   6  -2  269.97   10.20 
   0  -6   2  259.47   11.40 
   0  -6   1  647.44   16.70 
   0   6  -1  681.83   15.00 
   0  -6   0  340.77   11.40 
   0  -6   0  354.76   10.40 
   0  -6  -1  121.79    6.70 
   0  -6  -1  132.39    5.90 
   0   6   1  129.99    6.40 
   0  -6  -2  874.71   17.90 
   0   6   2  902.31   16.90 
   0   6   3  104.59    5.80 
   0  -6  -3  100.89    6.20 
   0   6   4  644.44   14.40 
   0   6   4  647.74   14.90 
   0   6   5    7.30    1.70 
   0   6   5    6.50    1.60 
   0   6   6  145.79    7.80 
   0   6   6  133.39    7.60 
   0   6   7   75.99    6.00 
   0   6   7   85.49    6.50 
   0   6   8   -0.30    0.70 
   0  -6  -8   -0.60    0.70 
   0   6   9   45.70    5.90 
   0  -6  -9   47.40    5.40 
   0   6  10    7.80    2.40 
   0  -6 -10    9.20    2.40 
   0  -6 -11    3.20    1.30 
   0   6  11    1.30    0.90 
   0  -6 -12    3.30    1.10 
   0   6  12    3.20    1.10 
   0   7  -7   46.50    4.00 
   0   7  -7   47.10    3.90 
   0   7  -6   29.80    3.90 
   0   7  -5   92.69    7.70 
   0   7  -4  440.86   17.70 
   0  -7   3  166.08   10.20 
   0   7  -3  190.28   11.60 
   0   7  -2  480.95   17.90 
   0  -7   2  463.65   17.30 
   0  -7   2  434.86   15.90 
   0  -7   1   79.59    6.40 
   0   7  -1   78.89    5.80 
   0   7   0  312.37   10.90 
   0  -7   0  294.87   11.80 
   0  -7  -1  301.57   11.40 
   0   7   2  201.38    8.90 
   0  -7  -2  190.88    9.10 
   0   7   3  134.29    7.20 
   0  -7  -3  123.09    7.50 
   0   7   4   29.10    3.50 
   0  -7  -4   26.40    3.50 
   0   7   5   87.19    6.20 
   0   7   6   17.70    2.90 
   0   7   7   20.90    3.10 
   0   7   7   23.70    4.00 
   0   7   7   21.30    3.30 
   0   7   8   15.40    3.50 
   0   7   8   18.80    2.90 
   0  -7  -8   19.00    3.30 
   0   7   9   43.30    5.90 
   0  -7  -9   37.90    4.80 
   0  -7 -10   11.30    2.50 
   0   7  10    9.40    2.70 
   0  -7 -11    5.20    1.60 
   0   7  11    8.90    2.30 
   0   7  12   31.60    3.60 
   0   8  -6   21.20    2.60 
   0   8  -6   19.90    2.50 
   0   8  -5    7.20    1.90 
   0   8  -4   31.80    4.40 
   0   8  -3    0.60    1.20 
   0   8  -2   47.10    5.80 
   0  -8   2   41.30    5.40 
   0   8  -1    3.50    1.60 
   0  -8   1    2.30    1.30 
   0  -8   1    5.70    2.00 
   0   8  -1    2.50    1.20 
   0  -8   0   42.00    5.10 
   0   8   0   35.30    4.10 
   0   8   0   35.60    4.80 
   0  -8   0   33.90    4.30 
   0   8   1    0.40    0.50 
   0  -8  -1    0.00    0.60 
   0  -8  -2   58.29    5.40 
   0  -8  -3   -1.10    0.90 
   0   8   3    0.70    0.50 
   0   8   4  265.27   11.40 
   0   8   5   61.99    5.60 
   0   8   5   59.59    6.30 
   0   8   5   71.79    5.90 
   0   8   6  108.59    7.40 
   0   8   6  113.19    8.90 
   0   8   6  117.79    7.90 
   0   8   7   24.50    4.30 
   0   8   7   24.80    3.70 
   0  -8  -7   24.10    3.60 
   0   8   7   22.10    3.40 
   0   8   8   17.50    2.80 
   0  -8  -8   13.90    2.90 
   0   8   8   15.80    3.60 
   0  -8  -9   27.30    3.90 
   0   8   9   26.90    4.60 
   0   8  10    7.20    2.30 
   0  -8 -10    7.10    1.90 
   0   8  11   23.70    3.60 
   0   8  12    0.70    0.60 
   0   9  -5    6.20    1.30 
   0   9  -5    7.90    1.40 
   0   9  -4    0.90    0.60 
   0   9  -3    6.60    2.10 
   0   9  -2   -1.00    0.90 
   0   9  -1    7.90    2.30 
   0  -9   1    8.70    2.50 
   0  -9   0   -1.40    1.10 
   0   9   0   -1.70    1.20 
   0   9   1   -1.40    1.10 
   0   9   1   -1.60    0.90 
   0   9   1   -0.90    0.80 
   0  -9  -1   -1.50    1.10 
   0   9   2    7.50    1.90 
   0   9   2    7.30    1.80 
   0   9   3   23.80    3.30 
   0   9   4   65.49    5.70 
   0   9   5   39.50    4.60 
   0   9   5   37.80    5.30 
   0   9   5   41.90    4.90 
   0   9   6   55.89    6.50 
   0   9   6   54.99    5.60 
   0   9   6   50.09    5.30 
   0   9   7   98.89    8.70 
   0   9   7   98.49    7.20 
   0   9   8   22.50    4.20 
   0   9   8   23.30    3.40 
   0   9   9   24.50    3.10 
   0   9   9   26.70    4.60 
   0   9  10    2.80    1.60 
   0   9  11    2.00    1.10 
   0  10  -3    1.00    0.70 
   0  10  -2    4.00    1.40 
   0  10  -1    4.70    1.70 
   0 -10   0  130.39    8.80 
   0  10   0  129.19    8.80 
   0 -10  -1   57.99    6.00 
   0  10   1   55.79    5.90 
   0  10   2  117.69    8.50 
   0  10   2  121.29    7.50 
   0 -10  -2  121.29    8.60 
   0  10   3   91.99    6.50 
   0  10   4    1.60    1.00 
   0  10   5   81.89    6.60 
   0  10   6    0.50    0.80 
   0  10   7    1.30    1.10 
   0  10   7    2.80    1.60 
   0  10   8    7.00    1.90 
   0  10   8    5.30    2.10 
   0  10   9    4.20    1.20 
   0  10   9    3.40    1.80 
   0  10  10   14.20    2.80 
   0  10  10    9.50    1.60 
   0  10  11    3.30    1.30 
   0  11  -1   12.00    2.10 
   0  11   0    0.50    0.60 
   0 -11  -1   20.80    3.20 
   0  11   1   16.50    2.90 
   0 -11  -2   13.70    2.80 
   0  11   2   10.30    2.40 
   0  11   3   13.90    2.40 
   0  11   3   14.20    2.30 
   0 -11  -3   15.50    3.00 
   0  11   3   11.40    2.50 
   0  11   4   40.00    4.10 
   0  11   4   44.30    4.30 
   0  11   4   40.50    4.70 
   0  11   5    3.40    1.30 
   0  11   6    7.10    1.80 
   0  11   7   14.90    2.60 
   0  11   8   -0.80    0.70 
   0 -11  -8   -1.20    0.90 
   0  11   9   -0.20    0.40 
   0 -11  -9   -0.70    0.70 
   0 -11 -10    0.40    0.50 
   0 -12  -2    0.10    0.50 
   0 -12  -3    2.50    1.10 
   0  12   4    4.80    1.30 
   0 -12  -4    4.40    1.50 
   0  12   4    7.00    1.40 
   0  12   5   -0.10    0.40 
   0 -12  -5    0.50    0.60 
   0  12   5    1.30    0.70 
   0 -12  -6    5.00    1.50 
   0  12   6    4.30    1.20 
   0  12   6    6.00    1.40 
   0  12   7    1.60    0.90 
   0  12   8    0.40    0.50 
  -1  12   7    1.20    0.70 
   1 -12  -6    1.70    0.80 
  -1  12   6    2.20    0.90 
  -1  12   5    0.30    0.50 
   1 -12  -5    0.70    0.60 
  -1  12   4   16.30    2.30 
   1 -12  -4   12.50    2.20 
   1 -12  -3   14.40    2.30 
  -1  12   3   15.00    2.20 
   1 -12  -2   14.00    2.10 
  -1  12   2   14.70    2.00 
  -1  11   8    3.40    1.10 
  -1  11   7    9.50    2.00 
  -1  11   6    0.10    0.60 
  -1  11   5    8.10    2.00 
  -1  11   4   -0.10    0.60 
  -1  11   4    0.50    0.80 
   1 -11  -3    0.30    0.60 
  -1  11   3    1.10    0.80 
  -1  11   2    0.20    0.40 
   1 -11  -2    0.20    0.70 
  -1  11   1    8.30    1.80 
   1 -11  -1    7.10    1.80 
  -1  11   0    0.40    0.50 
  -1  10  10    0.20    0.50 
  -1  10   9    2.50    1.30 
  -1  10   8    3.20    1.50 
  -1  10   8    2.30    1.10 
  -1  10   7    5.40    2.10 
  -1  10   7    3.10    1.20 
  -1  10   6   21.30    3.40 
  -1  10   5    9.60    2.40 
  -1  10   4    3.80    1.60 
  -1  10   3    5.60    1.80 
   1 -10  -2   -1.00    0.90 
  -1  10   2   -1.10    0.90 
  -1  10   2    0.00    0.80 
   1 -10  -1    2.70    1.20 
  -1  10   1    2.20    1.30 
   1 -10   0   -0.10    0.50 
  -1  10   0   -1.00    0.80 
  -1  10  -1    5.40    1.50 
  -1  10  -2    0.80    0.60 
  -1   9  11    2.10    0.90 
  -1   9  11   -0.30    0.60 
  -1   9  10    4.20    1.60 
  -1   9   9    1.50    1.20 
  -1   9   8    3.60    1.30 
  -1   9   8    1.90    1.40 
  -1   9   7   -0.30    0.60 
  -1   9   7    0.90    1.20 
  -1   9   6    2.70    1.30 
  -1   9   6    4.00    2.00 
  -1   9   5   22.50    3.60 
  -1   9   5   26.20    4.40 
  -1   9   4    3.20    1.50 
   1  -9  -4    2.20    1.30 
  -1   9   4    2.40    1.30 
   1  -9  -3  105.19    8.30 
  -1   9   3  106.59    7.90 
  -1   9   3   93.09    6.90 
  -1   9   2   36.60    4.60 
   1  -9  -2   28.10    4.20 
  -1   9   2   30.70    3.90 
  -1   9   1   30.30    4.00 
  -1   9   1   26.40    3.50 
   1  -9  -1   28.30    4.10 
  -1   9   0   89.29    7.00 
   1  -9   0   78.79    7.00 
  -1   9  -1   29.70    4.10 
   1  -9   1   28.40    4.20 
  -1   9  -2  148.19    8.70 
  -1   9  -2  138.39    8.70 
  -1   9  -3   49.80    4.60 
  -1   9  -3   51.89    5.00 
  -1   9  -4   30.30    3.30 
  -1   8  11    0.50    0.60 
  -1   8  10    4.70    1.90 
  -1   8   9    4.70    1.90 
  -1   8   8   20.40    4.10 
  -1   8   7    7.70    1.90 
  -1   8   7   10.20    2.80 
  -1   8   6   11.30    2.90 
  -1   8   6    6.10    1.90 
  -1   8   5   68.79    6.10 
   1  -8  -5   74.09    7.20 
  -1   8   5   71.39    6.90 
  -1   8   4   39.00    5.00 
  -1   8   4   48.50    5.00 
  -1   8   4   42.60    4.70 
   1  -8  -4   41.40    5.30 
   1  -8  -3   57.69    6.00 
  -1   8   3   66.09    5.80 
  -1   8   3   60.29    5.40 
  -1   8   2   48.10    4.70 
   1  -8  -2   49.30    5.50 
  -1   8   2   58.79    5.50 
  -1   8   1   87.59    6.70 
   1  -8  -1   77.89    6.80 
  -1   8   1   73.39    5.70 
  -1   8   0  170.18    9.70 
   1  -8   0  159.98    9.80 
   1  -8   0  166.88    9.90 
  -1   8   0  171.28    9.40 
   1  -8   1   23.90    3.90 
   1  -8   1   23.20    3.80 
  -1   8  -1   23.30    3.70 
  -1   8  -1   31.60    4.20 
   1  -8   2   33.40    4.60 
  -1   8  -2   35.40    4.50 
  -1   8  -2   32.40    4.50 
  -1   8  -3    0.80    1.00 
  -1   8  -3    1.10    0.90 
  -1   8  -4   12.10    2.50 
  -1   8  -4   14.50    2.60 
  -1   8  -5   16.00    2.60 
  -1   8  -6   -0.50    0.50 
  -1   8  -6    0.20    0.40 
  -1   7  12    2.20    0.90 
  -1   7  11   -1.40    1.00 
  -1   7  10    3.70    1.50 
  -1   7   9   -0.80    1.10 
  -1   7   8   -0.30    0.70 
  -1   7   7    7.70    2.40 
  -1   7   7    9.70    2.40 
  -1   7   6   58.49    5.80 
  -1   7   6   61.39    6.40 
  -1   7   5   15.20    2.80 
  -1   7   4  247.38   10.20 
   1  -7  -3   55.69    5.60 
  -1   7   2  363.96   12.30 
   1  -7  -2  311.67   13.10 
   1  -7  -1   97.99    7.20 
  -1   7   1  103.89    6.60 
  -1   7   0   -0.70    0.60 
   1  -7   0   -0.10    0.70 
  -1   7  -1   79.89    6.30 
   1  -7   1   69.29    6.30 
  -1   7  -2   13.10    2.90 
  -1   7  -2   10.90    2.40 
   1  -7   2   11.90    2.80 
  -1   7  -2   15.50    2.80 
   1  -7   2   13.70    2.90 
   1  -7   3   70.39    6.90 
  -1   7  -3   79.99    6.80 
  -1   7  -3   69.09    6.50 
  -1   7  -3   76.49    7.00 
  -1   7  -4    8.60    2.30 
  -1   7  -4   10.30    2.60 
  -1   7  -5   13.20    2.60 
  -1   7  -5   13.20    2.70 
  -1   7  -6    6.80    1.80 
  -1   7  -6    7.60    1.90 
  -1   7  -7    2.50    0.90 
  -1   7  -7    3.60    1.00 
  -1   6  12   18.10    2.60 
  -1   6  11    0.50    0.70 
  -1   6  10   24.60    4.20 
  -1   6   9   30.30    4.90 
  -1   6   8   24.50    4.30 
  -1   6   8   24.20    4.10 
  -1   6   7   74.99    6.90 
  -1   6   7   67.39    6.90 
  -1   6   6   81.39    6.70 
  -1   6   5  255.17   10.90 
  -1   6   4  183.78    8.70 
  -1   6   4  198.38    8.30 
  -1   6   3  165.68    8.10 
  -1   6   3  176.88    7.70 
   1  -6  -2   57.99    5.20 
  -1   6   1   38.90    3.60 
   1  -6  -1   33.10    3.90 
  -1   6   0  393.06   11.80 
   1  -6   0  379.76   13.30 
   1  -6   1   24.80    3.40 
  -1   6  -1   24.90    3.10 
   1  -6   2    1.80    0.90 
  -1   6  -2    1.40    0.50 
  -1   6  -3    0.70    0.60 
   1  -6   3    0.80    0.70 
  -1   6  -4  219.58   11.30 
   1  -6   4  207.78   11.80 
  -1   6  -4  208.78   11.50 
  -1   6  -5   23.60    3.90 
  -1   6  -5   22.00    3.60 
  -1   6  -6    4.10    1.70 
  -1   6  -6    3.50    1.20 
  -1   6  -7   34.90    4.10 
  -1   6  -7   32.90    3.90 
  -1   6  -8    0.50    0.50 
  -1   6  -8    0.90    0.60 
  -1   5  12    1.00    0.70 
  -1   5  11    0.60    0.70 
  -1   5  10    8.60    2.50 
  -1   5   9    6.60    2.40 
  -1   5   8  165.58    9.20 
  -1   5   8  192.78   11.40 
  -1   5   8  171.68   11.30 
  -1   5   7  283.47   13.00 
  -1   5   6  248.68   11.30 
  -1   5   5  336.57   12.10 
  -1   5   4   20.40    2.40 
  -1   5   4   19.20    2.70 
  -1   5   3  156.58    7.10 
  -1   5   3  154.98    6.40 
  -1   5   2   39.20    3.50 
  -1   5   2   39.90    3.30 
   1  -5  -1   53.69    4.50 
  -1   5   0    1.90    0.80 
   1  -5   0    2.70    1.10 
  -1   5  -1    0.90    0.60 
   1  -5   1    0.20    0.60 
  -1   5  -2   13.50    2.20 
   1  -5   2   13.10    2.40 
  -1   5  -3   90.29    6.20 
   1  -5   3   97.99    7.10 
  -1   5  -4   -0.40    0.60 
   1  -5   4    0.30    0.60 
  -1   5  -5  219.28   11.60 
  -1   5  -5  224.48   11.30 
   1  -5   5  214.98   12.00 
  -1   5  -6  243.38   12.40 
  -1   5  -6  222.08   11.20 
  -1   5  -7   42.20    4.60 
  -1   5  -7   35.10    4.50 
  -1   5  -7   36.60    4.70 
  -1   5  -8   20.50    3.10 
  -1   5  -8   21.80    3.20 
  -1   5  -9    5.40    1.30 
  -1   5  -9    6.20    1.40 
  -1   4  12    4.80    1.30 
  -1   4  11   15.10    2.80 
  -1   4  10   12.00    2.80 
  -1   4   9   80.39    6.00 
  -1   4   9   91.89    8.20 
  -1   4   8   17.20    3.40 
  -1   4   8   15.10    3.30 
  -1   4   8   14.10    2.60 
  -1   4   7   28.60    4.10 
  -1   4   6    0.60    0.60 
  -1   4   5   48.60    4.40 
  -1   4   4  246.98    7.50 
  -1   4   4  247.98    9.00 
  -1   4   3    4.30    1.00 
  -1   4   3    5.10    1.20 
  -1   4   2    0.20    0.30 
  -1   4   2   -0.10    0.30 
  -1   4   1  389.36    8.80 
  -1   4   1  387.46    9.60 
  -1   4   0  152.58    5.60 
   1  -4   0  156.08    7.00 
  -1   4  -1  612.04   12.00 
   1  -4   1  639.84   14.40 
  -1   4  -2 2094.89   24.00 
   1  -4   2 2210.88   27.90 
  -1   4  -3  692.33   15.20 
   1  -4   3  732.43   17.40 
  -1   4  -4  643.24   16.30 
   1  -4   4  650.83   18.10 
   1  -4   5  275.87   12.80 
  -1   4  -6   13.40    2.80 
   1  -4   6   13.90    3.00 
  -1   4  -6   11.10    2.60 
  -1   4  -7   65.59    6.00 
  -1   4  -7   66.29    6.40 
  -1   4  -7   65.49    6.40 
  -1   4  -8   16.40    3.10 
  -1   4  -8   17.40    2.90 
  -1   4  -8   18.00    3.20 
  -1   4  -9   31.90    3.70 
  -1   4  -9   30.70    3.60 
  -1   4 -10   49.10    3.60 
  -1   3  12   15.70    2.30 
  -1   3  11   52.69    5.20 
  -1   3  10   42.30    5.20 
  -1   3   9  128.39    9.40 
  -1   3   8    1.70    1.20 
  -1   3   8    1.10    1.00 
  -1   3   7   76.29    6.60 
  -1   3   6    2.60    1.20 
  -1   3   5  373.86   12.10 
  -1   3   4   28.20    2.90 
   1  -3  -3 1170.28   13.00 
  -1   3   3 1148.59   16.50 
  -1   3   3 1198.58   13.50 
   1  -3  -2  429.76    6.00 
  -1   3   2  453.05    7.90 
  -1   3   2  432.86    9.30 
  -1   3   2  434.16    8.30 
  -1   3   1   64.79    3.20 
  -1   3   1   64.89    3.40 
   1  -3  -1   65.19    1.40 
  -1   3   1   65.69    3.00 
  -1   3   1   54.99    2.40 
   1  -3   0 2696.53   25.40 
  -1   3   0 2743.63   20.60 
  -1   3  -1 1172.98   14.40 
  -1   3  -1 1146.99    8.80 
   1  -3   2  876.11   15.40 
  -1   3  -2  849.91   13.60 
   1  -3   3  391.46   11.40 
  -1   3  -3  362.76    9.90 
  -1   3  -4  549.54   13.60 
   1  -3   4  569.14   15.20 
   1  -3   5  145.69    8.60 
   1  -3   6  605.14   19.00 
  -1   3  -7   48.90    5.20 
   1  -3   7   49.30    5.70 
  -1   3  -7   49.10    5.50 
  -1   3  -7   47.90    5.40 
  -1   3  -8   51.09    5.60 
  -1   3  -8   50.49    5.50 
  -1   3  -8   51.39    5.20 
  -1   3  -9   28.60    3.90 
  -1   3  -9   29.00    4.00 
  -1   3  -9   29.90    3.60 
  -1   3 -10   12.90    2.30 
  -1   2  12    0.30    0.40 
  -1   2  11    0.80    0.70 
  -1   2  10    6.10    2.00 
  -1   2   9   48.70    5.70 
  -1   2   8   -0.40    0.70 
  -1   2   8    0.50    0.70 
  -1   2   7  352.96   14.10 
  -1   2   6  131.09    8.00 
  -1   2   5  240.08    9.60 
  -1   2   4 1383.06   20.10 
  -1   2   4 1328.57   18.90 
  -1   2   3  571.94   10.90 
  -1   2   3  591.64   11.30 
  -1   2   2 9999.00   39.40 
  -1   2   2 9989.90   41.50 
  -1   2   0 5520.15   26.70 
   1  -2   1 1728.03   17.70 
  -1   2  -1 1801.12    8.90 
   1  -2   2 1885.41   16.40 
   1  -2   2 1935.31   19.70 
  -1   2  -2 1885.11   18.10 
  -1   2  -3  255.37    7.10 
   1  -2   3  251.27    8.10 
  -1   2  -3  243.08    7.50 
   1  -2   4 1373.96   21.40 
  -1   2  -4 1327.97   19.40 
  -1   2  -5   58.69    4.40 
   1  -2   5   55.59    4.90 
   1  -2   6   86.49    6.70 
  -1   2  -7  312.27   13.30 
   1  -2   7  311.37   13.50 
  -1   2  -7  309.07   13.20 
  -1   2  -8   31.00    4.30 
  -1   2  -8   33.30    4.30 
   1  -2   8   33.80    4.50 
  -1   2  -8   29.30    4.30 
  -1   2  -9    0.90    0.80 
  -1   2  -9    0.90    0.90 
  -1   2  -9    0.00    0.40 
  -1   2 -10    0.60    0.80 
  -1   2 -10    0.10    0.60 
  -1   2 -10    0.90    0.70 
  -1   2 -11    9.20    1.80 
  -1   1  11    1.90    1.00 
   1  -1 -10    8.90    2.10 
  -1   1  10    9.30    2.30 
  -1   1   9  146.39    9.70 
   1  -1  -9  139.99    8.60 
  -1   1   8  133.09    9.30 
   1  -1  -8  120.29    8.00 
  -1   1   8  125.39    8.90 
   1  -1  -8  119.69    7.90 
  -1   1   7  176.48   10.20 
  -1   1   6  112.29    7.40 
  -1   1   5  544.55   14.20 
  -1   1   5  579.34   15.10 
  -1   1   4  527.05   12.50 
  -1   1   4  526.15   12.70 
  -1   1   3 2138.19   27.90 
  -1   1   3 2049.79   22.20 
  -1   1   3 2178.48   22.10 
   1  -1  -3 2264.37   23.00 
  -1   1   2 3256.37   24.00 
   1  -1  -2 3279.07   23.90 
   1  -1  -1 1773.12   13.90 
  -1   1   1 1868.21   15.40 
   1  -1   0 2867.71   11.20 
   1  -1   0 2854.21    9.60 
  -1   1  -1  147.79    2.50 
   1  -1   1  174.38    2.60 
  -1   1  -2  729.83   10.70 
   1  -1   2  730.33   10.20 
   1  -1   2  716.53    9.20 
  -1   1  -3  820.52   12.50 
  -1   1  -3  826.32   12.90 
   1  -1   3  859.71   13.20 
   1  -1   4 1011.50   16.80 
  -1   1  -4 1038.10   16.00 
   1  -1   4 1045.20   18.00 
   1  -1   5  309.67   10.50 
  -1   1  -5  307.47    9.60 
   1  -1   6  128.09    7.60 
   1  -1   7  204.48   10.00 
   1  -1   7  195.08   10.10 
  -1   1  -8  349.17   13.60 
   1  -1   8  361.76   14.00 
  -1   1  -8  364.66   14.60 
  -1   1  -8  350.26   14.20 
  -1   1  -9  159.98    9.70 
  -1   1  -9  147.29    8.80 
  -1   1  -9  151.88    9.50 
  -1   1 -10   24.20    3.40 
  -1   1 -10   24.50    3.70 
  -1   1 -11   20.90    2.90 
  -1   0  11   13.00    2.10 
   1   0 -11   13.30    1.90 
   1   0 -10   23.20    3.20 
  -1   0  10   22.30    3.40 
   1   0  -9    3.10    1.30 
  -1   0   9    4.10    1.60 
   1   0  -9    3.30    1.40 
   1   0  -8   37.80    4.50 
   1   0  -8   33.90    4.30 
  -1   0   8   36.60    4.90 
  -1   0   8   36.10    4.80 
  -1   0   7  184.78   10.40 
  -1   0   6  937.91   21.60 
  -1   0   6  895.71   21.30 
  -1   0   5 1107.79   21.30 
  -1   0   5 1108.89   21.90 
  -1   0   4 2265.57   27.00 
  -1   0   3 1567.14   19.50 
   1   0  -2  116.59    4.90 
  -1   0   2  122.09    4.60 
  -1   0   2  118.89    5.70 
  -1   0   2  119.09    5.00 
  -1   0   2  109.69    4.20 
   1   0  -1  739.03   10.40 
  -1   0   1  712.43   10.90 
   1   0   0    0.90    0.30 
   1   0   0    0.90    0.40 
  -1   0  -1  469.25    5.60 
   1   0   1  483.15    5.30 
   1   0   2  911.91    8.70 
  -1   0  -2  872.51    9.20 
  -1   0  -3   11.20    1.40 
  -1   0  -3   11.00    1.50 
   1   0   3   11.40    1.40 
   1   0   3    9.70    1.30 
   1   0   4   12.10    1.70 
   1   0   4   12.60    1.80 
  -1   0  -4   13.70    1.90 
  -1   0  -4   12.10    1.70 
  -1   0  -5    5.60    1.20 
   1   0   5   10.90    1.90 
   1   0   6 1536.85   24.40 
   1   0   7  255.97   12.90 
   1   0   7  278.97   10.90 
  -1   0  -8  219.68   11.10 
   1   0   8  239.58   11.00 
  -1   0  -8  229.58   11.30 
  -1   0  -9  159.38    9.30 
  -1   0  -9  163.08    9.90 
  -1   0  -9  179.78   10.30 
  -1   0 -10  104.69    7.30 
  -1   0 -10  109.29    7.80 
  -1   0 -11   52.89    4.90 
  -1   0 -12    1.10    0.60 
  -1  -1  11    3.20    0.90 
   1   1 -10   13.10    2.30 
  -1  -1  10   15.50    2.70 
   1   1  -9   66.49    5.80 
  -1  -1   9   65.69    6.20 
   1   1  -9   59.19    5.50 
  -1  -1   8  258.27   12.90 
   1   1  -8  242.28   11.60 
   1   1  -8  250.17   12.00 
  -1  -1   7   59.19    5.90 
   1   1  -7   58.69    5.70 
  -1  -1   7   61.19    6.20 
   1   1  -7   58.79    5.70 
  -1  -1   6   26.70    3.70 
  -1  -1   6   30.70    4.30 
  -1  -1   5  128.09    7.50 
  -1  -1   4   37.80    3.70 
  -1  -1   3   30.50    2.90 
   1   1  -2   85.09    4.70 
  -1  -1   2   81.89    4.10 
  -1  -1   2   75.79    3.60 
  -1  -1   2   76.39    3.50 
  -1  -1   2   75.19    4.90 
  -1  -1   1  102.59    4.70 
  -1  -1   1  104.99    3.50 
   1   1   0 1837.12   14.60 
   1   1   1  586.94    7.80 
   1   1   2 2318.87   14.90 
  -1  -1  -3  269.37    6.70 
   1   1   3  261.37    5.80 
   1   1   4 2675.03   22.90 
  -1  -1  -4 2578.74   23.30 
   1   1   4 2647.04   23.70 
  -1  -1  -4 2655.03   24.70 
   1   1   4 2640.64   21.70 
   1   1   5 5415.96   49.20 
  -1  -1  -5 5455.35   36.80 
   1   1   6  155.08    7.00 
  -1  -1  -6  148.09    6.40 
   1   1   6  155.08    9.10 
   1   1   7  616.14   15.70 
   1   1   7  533.45   18.00 
   1   1   8   54.09    6.00 
  -1  -1  -9   34.80    4.60 
  -1  -1  -9   36.20    4.60 
  -1  -1  -9   35.80    4.40 
  -1  -1 -10    0.20    0.50 
  -1  -1 -10    1.80    1.20 
  -1  -1 -11    0.40    0.70 
  -1  -1 -12   16.60    2.50 
   1   2 -10    8.50    1.70 
  -1  -2  10   10.10    1.90 
   1   2  -9   65.39    5.60 
  -1  -2   9   61.09    5.70 
   1   2  -9   59.69    5.30 
   1   2  -8   43.50    5.00 
  -1  -2   8   44.60    5.30 
   1   2  -8   41.50    4.90 
   1   2  -7  144.29    9.20 
   1   2  -7  146.09    9.40 
  -1  -2   7  135.29    9.60 
  -1  -2   7  148.09    9.50 
  -1  -2   6  139.69    8.80 
  -1  -2   5    2.70    1.20 
  -1  -2   4   38.90    4.00 
  -1  -2   3  621.14   14.30 
  -1  -2   2  587.24   12.00 
  -1  -2   2  545.75   10.70 
   1   2  -1  350.96    9.50 
  -1  -2   1  377.56    8.20 
   1   2  -1  353.86    8.60 
  -1  -2   1  356.06    7.50 
   1   2   0  715.23   10.70 
   1   2   1 2045.80   17.00 
   1   2   2  690.13    9.40 
   1   2   3 3788.32   23.00 
   1   2   4 2902.81   23.90 
  -1  -2  -4 2842.82   25.60 
   1   2   4 2846.22   30.30 
   1   2   5  437.16    9.80 
   1   2   5  449.66   13.60 
   1   2   6  794.22   20.00 
   1   2   6  810.32   15.50 
   1   2   7  776.22   21.10 
   1   2   8  109.59    8.40 
  -1  -2  -9  223.08   11.60 
  -1  -2  -9  219.88   11.10 
  -1  -2 -10   35.50    4.70 
  -1  -2 -11   45.30    5.00 
  -1  -2 -12    5.30    1.50 
  -1  -3   9    0.00    0.50 
   1   3  -9   -0.30    0.50 
   1   3  -9    0.30    0.50 
   1   3  -8   44.60    5.00 
   1   3  -8   43.40    4.90 
  -1  -3   8   42.50    5.00 
   1   3  -7    4.00    1.60 
   1   3  -7    4.80    1.80 
  -1  -3   6  186.78   10.60 
   1   3  -6  199.88   11.10 
  -1  -3   5   68.59    6.00 
  -1  -3   4  183.58    9.10 
  -1  -3   3   67.29    5.00 
  -1  -3   2  143.59    6.50 
  -1  -3   2  143.69    6.20 
  -1  -3   1 3924.41   29.40 
  -1  -3   1 3868.01   29.20 
   1   3   0  476.25   10.00 
   1   3   0  473.15   11.90 
  -1  -3   0  479.95    8.70 
   1   3   0  474.25    8.10 
  -1  -3   0  475.45    9.50 
  -1  -3  -1 2762.02   21.80 
   1   3   1 2771.42   22.60 
  -1  -3  -1 2802.12   23.70 
   1   3   2 2681.73   20.90 
  -1  -3  -2 2647.64   22.50 
   1   3   2 2644.24   22.10 
   1   3   3  925.71   12.20 
  -1  -3  -3  954.10   13.30 
  -1  -3  -3  940.41   13.70 
   1   3   3  975.70   15.10 
   1   3   4  662.83   14.40 
  -1  -3  -4  632.64   11.80 
   1   3   5   93.79    6.10 
   1   3   6   98.99    6.90 
   1   3   7    0.80    0.90 
   1   3   8    1.70    1.10 
  -1  -3  -9   10.00    2.40 
  -1  -3 -10   -2.00    1.20 
  -1  -3 -11   42.20    4.90 
  -1  -3 -12    3.30    1.20 
  -1  -3 -13    2.40    0.90 
   1   4  -9    8.70    1.60 
  -1  -4   9    9.30    1.70 
   1   4  -9    8.90    1.70 
   1   4  -8    3.80    1.30 
   1   4  -8    3.40    1.40 
  -1  -4   8    4.40    1.50 
   1   4  -7  141.39    9.30 
   1   4  -7  138.59    9.20 
   1   4  -6    4.00    1.60 
  -1  -4   5  171.08    9.90 
   1   4  -5  211.68   11.60 
  -1  -4   4   49.80    5.10 
  -1  -4   3 1025.80   21.10 
  -1  -4   2 1332.17   21.20 
  -1  -4   2 1230.58   21.00 
  -1  -4   1  114.89    5.60 
  -1  -4   1  106.09    5.40 
  -1  -4   0 2097.49   21.10 
  -1  -4   0 2054.69   22.30 
   1   4   0 2048.30   19.90 
  -1  -4  -1  613.74   11.80 
   1   4   1  609.44   10.80 
  -1  -4  -1  598.34   10.10 
  -1  -4  -2 1917.61   21.40 
   1   4   2 1928.41   20.50 
   1   4   2 1892.81   20.00 
  -1  -4  -2 1901.41   17.30 
  -1  -4  -2 1905.41   20.50 
  -1  -4  -3  538.75   11.00 
   1   4   3  531.95   11.60 
  -1  -4  -4  130.99    5.80 
   1   4   4  142.99    6.70 
  -1  -4  -5  936.81   16.90 
   1   4   5  937.01   19.00 
  -1  -4  -6   58.29    4.70 
   1   4   6   54.89    5.10 
   1   4   7    0.80    1.00 
  -1  -4  -7   -0.20    0.50 
  -1  -4  -8   52.59    5.40 
   1   4   8   56.99    5.90 
  -1  -4  -9   34.70    4.70 
  -1  -4  -9   34.30    4.60 
   1   4   9   36.10    4.70 
   1   4  10    9.30    2.30 
  -1  -4 -10   11.20    2.80 
  -1  -4 -11   -0.50    0.80 
  -1  -4 -12    9.40    2.10 
  -1  -4 -13   -0.10    0.30 
   1   5  -8   28.70    3.20 
  -1  -5   8   29.10    3.20 
   1   5  -8   28.20    3.30 
   1   5  -7   63.99    5.90 
   1   5  -7   65.29    6.00 
   1   5  -6  164.28   10.40 
  -1  -5   5  531.85   17.80 
   1   5  -5  613.04   20.80 
  -1  -5   4  508.55   17.10 
   1   5  -4  523.05   18.70 
  -1  -5   3  525.15   16.30 
  -1  -5   2  328.77   11.90 
  -1  -5   1  571.14   14.20 
  -1  -5   1  602.44   14.60 
  -1  -5   0 1962.40   23.60 
  -1  -5   0 1944.41   24.40 
   1   5   1   27.90    2.70 
  -1  -5  -1   27.20    2.50 
  -1  -5  -1   31.30    3.00 
   1   5   2  850.31   14.90 
  -1  -5  -2  846.82   15.00 
  -1  -5  -3  135.99    6.00 
   1   5   3  139.89    6.40 
  -1  -5  -4  239.98    8.40 
   1   5   4  256.87    9.30 
   1   5   5  104.49    6.50 
  -1  -5  -5  107.19    6.10 
  -1  -5  -6  302.27   11.10 
   1   5   6  294.47   11.80 
   1   5   7    9.80    2.40 
  -1  -5  -7   12.40    2.50 
  -1  -5  -8  248.18   11.90 
   1   5   8  229.38   11.80 
  -1  -5  -9   10.70    2.80 
   1   5   9   16.50    3.30 
  -1  -5  -9    8.50    2.40 
   1   5  10  152.38   10.00 
  -1  -5 -10  163.68   10.50 
  -1  -5 -11   76.09    6.80 
   1   5  11   69.09    6.20 
  -1  -5 -12    9.00    2.10 
  -1  -5 -13    9.80    1.70 
   1   6  -7   38.50    4.00 
  -1  -6   7   40.50    4.00 
   1   6  -7   38.50    4.00 
   1   6  -6   66.79    6.20 
   1   6  -5    9.70    2.70 
  -1  -6   4   84.29    7.10 
   1   6  -4   91.59    8.20 
  -1  -6   3    0.80    1.00 
   1   6  -3    0.60    1.00 
  -1  -6   2  300.37   12.30 
  -1  -6   1    8.70    2.00 
  -1  -6   1   12.00    2.30 
  -1  -6   0   20.10    2.80 
  -1  -6   0   21.30    2.90 
   1   6   1    0.20    0.40 
  -1  -6  -1   -0.20    0.60 
  -1  -6  -2  283.07    9.60 
   1   6   2  284.17    9.50 
   1   6   3  181.28    7.80 
  -1  -6  -3  170.08    7.40 
  -1  -6  -4 1087.29   19.20 
   1   6   4 1103.09   20.30 
   1   6   5  343.67   12.10 
  -1  -6  -5  320.37   10.90 
  -1  -6  -6   77.89    5.80 
   1   6   6   73.59    6.00 
   1   6   7  214.88   11.00 
  -1  -6  -7  240.08   11.10 
  -1  -6  -8  160.48    9.80 
  -1  -6  -8  149.29    9.60 
   1   6   8  145.69    9.40 
  -1  -6  -9  140.79    9.60 
   1   6   9  121.49    9.30 
  -1  -6  -9  130.99    9.40 
   1   6  10   65.69    6.70 
  -1  -6 -10   69.99    6.80 
   1   6  11    3.30    1.50 
  -1  -6 -11    3.80    1.50 
   1   6  12   33.10    3.70 
  -1  -6 -12   39.10    4.20 
  -1  -6 -13   12.80    1.90 
   1   7  -6   18.10    2.80 
   1   7  -6   18.10    2.80 
   1   7  -5    0.40    0.80 
   1   7  -4   30.30    4.60 
   1   7  -3   -0.30    1.30 
   1   7  -2   11.30    2.90 
   1   7  -1   -0.20    0.60 
  -1  -7   1   -1.50    1.00 
  -1  -7   1    0.90    0.90 
   1   7   0   25.50    3.00 
  -1  -7   0   22.90    3.30 
  -1  -7  -1    3.80    1.30 
  -1  -7  -2  500.05   13.90 
   1   7   2  492.75   14.00 
  -1  -7  -3  214.38    9.00 
   1   7   3  221.18    9.30 
   1   7   4  551.54   15.30 
  -1  -7  -4  544.75   14.50 
   1   7   5  266.57   11.20 
  -1  -7  -5  269.57   10.50 
  -1  -7  -6  644.54   17.20 
   1   7   6  619.14   18.00 
   1   7   7  260.77   12.30 
  -1  -7  -8   62.69    6.30 
   1   7   8   61.29    6.20 
   1   7   8   64.09    6.80 
   1   7   9  108.99    6.80 
   1   7   9   83.59    7.90 
  -1  -7  -9   94.99    8.00 
   1   7  10    1.90    1.20 
  -1  -7 -10    0.90    0.90 
   1   7  11   69.79    6.40 
  -1  -7 -11   77.99    6.60 
  -1  -7 -12    2.30    1.10 
   1   7  12    0.80    0.60 
  -1  -7 -12    1.50    0.90 
   1   8  -5    0.20    0.50 
   1   8  -4   10.90    2.60 
   1   8  -3    0.70    0.90 
   1   8  -2  158.38   10.80 
   1   8  -1  246.98   13.30 
  -1  -8   1  224.28   12.20 
  -1  -8   0  274.27   12.00 
  -1  -8   0  286.17   12.20 
   1   8   0  305.57   14.30 
  -1  -8   0  310.77   13.90 
  -1  -8  -1  531.65   15.90 
  -1  -8  -1  560.64   16.30 
  -1  -8  -1  543.15   17.50 
  -1  -8  -2  351.76   12.50 
  -1  -8  -3  164.78    8.40 
   1   8   3  178.28    9.20 
   1   8   4  236.78   10.80 
   1   8   5   71.59    6.10 
   1   8   6    8.50    2.40 
   1   8   6    5.90    1.90 
   1   8   6   11.00    2.40 
   1   8   7  127.99    9.70 
  -1  -8  -7  134.49    8.90 
   1   8   7  132.09    8.90 
   1   8   7  138.09    8.40 
  -1  -8  -8   42.40    5.20 
   1   8   8   41.90    5.10 
   1   8   8   47.30    4.90 
   1   8   8   43.70    5.80 
   1   8   9   78.39    7.70 
  -1  -8  -9   86.09    7.40 
   1   8   9   96.09    6.60 
  -1  -8 -10   23.30    3.80 
   1   8  10   27.80    3.20 
   1   8  10   25.90    4.30 
  -1  -8 -11    6.10    1.70 
   1   8  11    4.80    1.70 
   1   8  12    3.90    1.20 
  -1  -8 -12    4.20    1.20 
  -1  -8 -12    5.30    1.60 
   1   9  -4    1.40    0.80 
   1   9  -3   26.60    3.70 
   1   9  -2   38.90    5.00 
   1   9  -1   20.40    3.70 
   1   9   0  193.18   11.60 
  -1  -9   0  162.68   10.30 
  -1  -9  -1   91.09    6.90 
   1   9   1   97.79    8.10 
  -1  -9  -1   99.99    7.90 
  -1  -9  -2  115.89    8.40 
   1   9   3  211.18    9.30 
   1   9   4   -0.40    0.70 
   1   9   4    0.00    0.40 
   1   9   5  191.18   10.40 
   1   9   5  179.78    9.40 
   1   9   6   35.50    5.10 
   1   9   6   42.20    4.70 
   1   9   6   43.30    5.10 
   1   9   7    8.20    2.50 
   1   9   7    6.70    2.00 
   1   9   8    2.40    1.40 
   1   9   8    3.20    1.40 
   1   9   9   31.90    4.90 
   1   9   9   33.10    3.90 
   1   9  10    2.90    1.40 
   1   9  10    1.80    0.90 
   1   9  11    0.90    0.70 
  -1  -9 -12    2.10    1.10 
   1   9  12    2.80    0.90 
   1  10  -3   44.50    3.70 
   1  10  -2   24.30    3.30 
   1  10  -1   65.39    6.00 
   1  10   0    2.70    1.30 
   1  10   1    1.30    1.40 
  -1 -10  -1    1.80    1.10 
   1  10   2    0.90    1.20 
  -1 -10  -2    0.60    0.70 
  -1 -10  -3   15.40    3.10 
   1  10   4   27.80    3.50 
   1  10   5    4.00    1.40 
   1  10   6    3.90    1.40 
  -1 -10  -7   -0.70    0.90 
   1  10   7    2.70    1.50 
   1  10   8   21.20    4.00 
   1  10   8   21.20    3.20 
   1  10   9   10.70    2.70 
   1  10   9   12.70    2.30 
   1  10  10    6.00    1.80 
   1  10  10    7.00    1.50 
  -1 -10 -10    7.50    2.20 
  -1 -10 -11   33.80    4.00 
   1  11  -1    0.90    0.60 
   1  11   0    6.20    1.70 
   1  11   1   14.80    2.70 
   1  11   2   20.20    3.40 
  -1 -11  -2   20.80    3.30 
  -1 -11  -3   20.60    3.30 
   1  11   3   20.50    3.40 
   1  11   4    0.00    0.60 
  -1 -11  -4    1.60    1.10 
   1  11   4    0.00    0.60 
  -1 -11  -5   24.70    3.70 
   1  11   5   23.70    3.10 
   1  11   6    1.20    0.80 
   1  11   7    4.00    1.30 
  -1 -11  -8    0.50    0.60 
   1  11   8   -0.20    0.60 
  -1 -11  -9    0.40    0.60 
   1  11   9    0.80    0.60 
  -1 -11 -10    0.40    0.60 
   1  11  10   -0.40    0.40 
   1  12   1    0.00    0.40 
   1  12   2    0.50    0.60 
   1  12   3    2.00    1.00 
  -1 -12  -3    2.90    1.10 
   1  12   4    1.70    0.90 
  -1 -12  -4    3.70    1.30 
  -1 -12  -5    1.10    0.80 
   1  12   5    0.80    0.70 
   1  12   5    1.50    0.70 
  -1 -12  -6   30.20    3.60 
   1  12   6   24.00    2.80 
   1  12   6   21.80    3.10 
  -1 -12  -7   14.70    2.40 
   1  12   7   13.50    2.10 
  -1 -12  -8   14.90    2.20 
   1  12   8   14.00    2.00 
   1  12   9   13.90    1.80 
  -2  12   5    1.70    0.70 
  -2  12   4    1.60    0.70 
  -2  12   3    0.10    0.30 
  -2  11   7    3.00    1.10 
  -2  11   6    1.50    0.80 
  -2  11   5    2.00    1.10 
   2 -11  -4   12.50    2.30 
  -2  11   4   14.70    2.50 
   2 -11  -3    1.50    0.90 
  -2  11   3    1.20    0.80 
   2 -11  -2    7.00    1.70 
  -2  11   2    6.30    1.70 
  -2  11   1    6.80    1.70 
  -2  11   0    6.00    1.40 
  -2  11  -1   19.50    2.20 
  -2  10   9    1.00    0.60 
  -2  10   8    1.40    0.80 
  -2  10   6    2.70    1.30 
  -2  10   5    7.50    2.10 
  -2  10   4    1.10    0.90 
  -2  10   3   11.70    2.50 
   2 -10  -2    9.00    2.10 
  -2  10   2   10.60    2.50 
  -2  10   1    7.80    2.00 
   2 -10  -1    9.00    2.10 
  -2  10   0    6.40    1.80 
  -2  10  -1    0.10    0.40 
  -2  10  -2    0.50    0.50 
  -2  10  -3    0.70    0.50 
  -2   9  10    1.80    0.80 
  -2   9  10    0.60    0.60 
  -2   9   9    1.10    1.00 
  -2   9   9    0.80    0.70 
  -2   9   8   -0.40    0.70 
  -2   9   8    1.60    1.00 
  -2   9   7    0.20    0.50 
  -2   9   7    2.40    1.30 
  -2   9   7    1.10    0.90 
  -2   9   6    0.60    0.80 
  -2   9   6    1.70    1.10 
  -2   9   6    2.40    1.40 
  -2   9   5    5.70    1.90 
  -2   9   5    6.90    2.00 
  -2   9   4    7.70    2.20 
  -2   9   3   28.50    4.10 
  -2   9   2    1.60    1.10 
  -2   9   2   -0.20    0.60 
   2  -9  -1   -1.60    1.00 
  -2   9   1   -0.10    0.50 
  -2   9   0    8.70    2.30 
  -2   9  -1    0.30    0.80 
  -2   9  -2   15.60    2.90 
  -2   9  -3   -0.80    0.70 
  -2   9  -4    5.00    1.30 
  -2   8  10    0.60    0.70 
  -2   8  10    0.80    0.50 
  -2   8   9    0.70    0.80 
  -2   8   8    1.60    1.10 
  -2   8   7    1.40    1.10 
  -2   8   6   14.50    2.80 
  -2   8   6   16.00    3.30 
  -2   8   6   11.70    2.80 
  -2   8   5   20.60    3.60 
   2  -8  -5   21.60    4.30 
  -2   8   5   22.70    3.70 
  -2   8   4   11.80    2.80 
   2  -8  -4   17.40    3.60 
  -2   8   4   16.10    3.10 
  -2   8   3   -0.80    0.90 
   2  -8  -3    1.60    1.20 
  -2   8   3    0.80    0.80 
  -2   8   2   34.30    4.80 
   2  -8  -2   33.30    4.80 
  -2   8   2   30.00    4.10 
  -2   8   1   26.50    3.80 
  -2   8   1   25.80    4.20 
   2  -8  -1   21.00    3.80 
  -2   8   1   16.40    2.90 
  -2   8   0    0.00    0.50 
   2  -8   0    0.50    0.60 
  -2   8  -1    0.20    0.60 
  -2   8  -2   17.40    3.20 
  -2   8  -3    6.60    2.00 
  -2   8  -4    2.80    1.40 
  -2   8  -5    2.90    1.20 
  -2   8  -6    4.70    1.10 
  -2   7  11    0.20    0.50 
  -2   7  10    4.00    1.70 
  -2   7   9   16.10    3.30 
  -2   7   8   13.00    3.10 
  -2   7   7   63.29    6.80 
  -2   7   6    5.40    1.90 
  -2   7   6    4.10    1.80 
  -2   7   5    0.80    0.70 
  -2   7   5    0.90    1.00 
  -2   7   5   -0.30    0.60 
  -2   7   4    8.90    2.20 
  -2   7   4    7.10    2.10 
   2  -7  -3    0.60    0.80 
  -2   7   3    0.10    0.50 
  -2   7   2   29.50    4.10 
   2  -7  -2   25.70    4.10 
  -2   7   1   13.60    2.80 
   2  -7  -1    9.10    2.40 
  -2   7   0    9.60    2.20 
   2  -7   0    9.60    2.50 
  -2   7   0    9.50    2.50 
  -2   7  -1    2.50    1.30 
   2  -7   1    1.40    0.90 
  -2   7  -1    3.70    1.50 
  -2   7  -2    6.30    2.00 
  -2   7  -2    4.10    1.70 
   2  -7   2    5.30    2.00 
  -2   7  -3    1.20    1.00 
  -2   7  -4  179.98   10.60 
  -2   7  -5   29.00    4.10 
  -2   7  -6   15.80    2.70 
  -2   7  -7    6.40    1.30 
  -2   6  11    0.50    0.60 
  -2   6  10    4.90    1.70 
  -2   6   9   -0.50    0.90 
  -2   6   8    2.20    1.30 
  -2   6   7   -1.50    1.00 
  -2   6   7    1.00    0.80 
  -2   6   6   10.90    2.70 
  -2   6   6    6.10    1.90 
  -2   6   6    6.60    2.20 
  -2   6   5   25.50    3.90 
  -2   6   4    0.60    0.70 
  -2   6   3    3.60    1.30 
  -2   6   3    7.50    2.00 
  -2   6   2  102.99    6.90 
   2  -6  -2   89.09    7.10 
   2  -6  -1   25.00    3.80 
  -2   6   1   29.00    3.70 
  -2   6   0  221.08   10.50 
   2  -6   0  192.68   10.40 
   2  -6   1  444.26   15.80 
  -2   6  -1  444.96   15.20 
   2  -6   2  197.98   10.80 
  -2   6  -2  195.58   10.50 
  -2   6  -3  224.08   11.70 
  -2   6  -3  236.98   11.70 
   2  -6   3  231.78   12.20 
  -2   6  -4   16.50    3.20 
   2  -6   4   13.20    3.00 
  -2   6  -4   14.90    3.10 
  -2   6  -5    3.30    1.50 
  -2   6  -6   37.60    4.60 
  -2   6  -7    6.10    1.70 
  -2   6  -8   17.30    2.20 
  -2   5  11   19.50    2.80 
  -2   5  10    8.30    2.30 
  -2   5   9    9.10    2.40 
  -2   5   9    8.40    2.10 
  -2   5   8    6.00    2.00 
  -2   5   8   12.40    2.70 
  -2   5   7    4.90    1.90 
  -2   5   7    0.90    1.00 
  -2   5   7    4.50    1.70 
  -2   5   6    5.60    2.00 
  -2   5   5   18.10    3.20 
  -2   5   4    2.90    1.40 
  -2   5   3   24.60    3.00 
  -2   5   3   30.40    3.60 
  -2   5   2    2.40    1.00 
  -2   5   2    5.80    1.60 
  -2   5   1  324.07   11.30 
   2  -5  -1  313.27   12.30 
  -2   5   0  462.55   13.60 
   2  -5   0  428.46   14.40 
   2  -5   1   89.09    6.50 
  -2   5  -1   82.59    5.90 
  -2   5  -2  361.26   13.00 
   2  -5   2  375.16   13.60 
  -2   5  -3   37.10    4.50 
   2  -5   3   43.40    4.90 
  -2   5  -4  130.89    8.70 
  -2   5  -4  132.59    8.70 
   2  -5   4  141.39    9.40 
  -2   5  -5  280.47   13.30 
  -2   5  -5  278.37   13.00 
   2  -5   5  279.87   13.80 
  -2   5  -6    0.10    0.90 
  -2   5  -7   82.59    6.40 
  -2   5  -7   87.79    6.50 
  -2   5  -7   88.99    7.10 
  -2   5  -8    1.10    0.70 
  -2   5  -8    0.50    0.40 
  -2   5  -8    0.40    0.50 
  -2   5  -9    4.60    1.10 
  -2   4  11    1.90    1.00 
  -2   4  10    0.80    1.00 
  -2   4   9    0.70    0.90 
  -2   4   9    0.60    1.20 
  -2   4   8   76.19    6.40 
  -2   4   8   74.19    7.30 
  -2   4   7   10.10    2.60 
  -2   4   7    9.90    2.70 
  -2   4   7   12.30    2.60 
  -2   4   6   62.89    6.20 
  -2   4   5  313.87   12.80 
  -2   4   4  215.08    9.70 
  -2   4   3 3305.27   32.60 
  -2   4   3 3311.07   35.00 
  -2   4   2 2866.41   29.20 
  -2   4   2 2763.62   28.80 
  -2   4   2 2801.02   29.30 
  -2   4   2 2853.21   30.20 
  -2   4   1 1134.49   18.80 
  -2   4   1 1113.89   18.10 
  -2   4   1 1096.89   18.40 
  -2   4   0 1022.90   18.30 
   2  -4   0  941.61   19.40 
  -2   4  -1  227.28    8.90 
   2  -4   1  225.08    9.50 
  -2   4  -2  313.27   11.00 
   2  -4   2  331.77   11.70 
  -2   4  -3  259.97   10.90 
   2  -4   3  282.67   11.30 
  -2   4  -4   75.39    6.20 
   2  -4   4   92.39    7.00 
  -2   4  -5   62.79    5.90 
   2  -4   5   62.19    6.10 
  -2   4  -6  184.58   10.10 
   2  -4   6  195.88   11.40 
  -2   4  -6  185.78   10.80 
  -2   4  -6  188.38   10.30 
  -2   4  -7   43.40    4.90 
  -2   4  -7   44.70    5.20 
  -2   4  -7   40.30    4.80 
  -2   4  -8    0.30    0.60 
  -2   4  -8    0.00    0.50 
  -2   4  -9    2.50    1.10 
  -2   4  -9    0.50    0.50 
  -2   4  -9    1.00    0.70 
  -2   3  11    7.80    1.70 
  -2   3  10   34.10    4.40 
  -2   3   9   48.00    5.70 
  -2   3   9   48.30    4.70 
  -2   3   8    8.70    2.10 
  -2   3   8    7.80    2.30 
  -2   3   8    8.00    2.40 
  -2   3   7   44.70    5.50 
  -2   3   7   43.00    5.40 
  -2   3   7   55.99    5.40 
  -2   3   6   83.49    7.00 
  -2   3   5  160.18    8.90 
  -2   3   4  620.84   15.90 
  -2   3   4  597.84   15.10 
  -2   3   3   97.79    5.80 
  -2   3   3   87.49    5.60 
  -2   3   3   90.79    5.50 
  -2   3   2   19.50    2.50 
  -2   3   2   15.20    1.90 
  -2   3   2   19.70    2.40 
  -2   3   2   17.70    2.20 
  -2   3   1  436.06   10.40 
  -2   3   1  438.96   10.70 
  -2   3   1  457.65   10.60 
  -2   3   0  194.38    6.90 
  -2   3   0  173.68    6.60 
  -2   3   0  177.28    6.70 
  -2   3   0  198.18    7.30 
  -2   3  -1  452.95   11.50 
  -2   3  -1  413.76   10.40 
   2  -3   1  438.56   11.80 
  -2   3  -2   10.10    1.90 
   2  -3   2   10.80    1.90 
   2  -3   3   45.50    4.00 
  -2   3  -3   41.70    4.00 
  -2   3  -4    9.60    2.00 
   2  -3   4   10.10    2.10 
  -2   3  -5   13.10    2.50 
   2  -3   5   13.50    2.60 
  -2   3  -6  225.18   11.30 
  -2   3  -6  232.98   11.20 
   2  -3   6  235.28   11.70 
  -2   3  -7  258.97   12.00 
  -2   3  -7  245.98   12.20 
   2  -3   7  255.07   12.70 
  -2   3  -7  236.48   11.60 
  -2   3  -8   54.19    5.40 
  -2   3  -8   62.39    6.10 
  -2   3  -8   54.79    5.50 
  -2   3  -9   41.10    4.40 
  -2   3  -9   48.90    5.00 
  -2   3  -9   42.20    4.40 
  -2   3 -10    7.10    1.60 
  -2   3 -10    5.20    1.40 
  -2   2  11    1.00    0.70 
  -2   2  10   -0.10    0.90 
  -2   2   9    5.30    2.00 
  -2   2   8   43.80    5.50 
  -2   2   8   44.10    4.60 
  -2   2   7  401.56   16.30 
  -2   2   7  391.56   15.90 
  -2   2   7  439.46   14.70 
  -2   2   6  225.48   11.40 
  -2   2   5  651.03   18.00 
  -2   2   5  653.83   17.80 
  -2   2   4  430.06   13.60 
  -2   2   4  460.45   13.40 
  -2   2   3   33.40    3.40 
  -2   2   3   31.60    3.30 
  -2   2   3   31.90    3.20 
  -2   2   2  690.83   14.20 
  -2   2   2  720.03   14.70 
  -2   2   2  740.23   13.50 
  -2   2   2  722.73   14.60 
  -2   2   1  263.87    8.40 
  -2   2   1  262.57    7.40 
  -2   2   1  256.27    8.20 
  -2   2   1  246.48    6.90 
  -2   2   0  137.89    5.70 
  -2   2   0  142.49    6.00 
  -2   2   0  150.58    5.30 
  -2   2   0  152.08    5.80 
  -2   2  -1   73.49    4.30 
   2  -2   1   75.89    4.30 
  -2   2  -1   72.29    4.40 
  -2   2  -1   68.19    3.90 
  -2   2  -2  109.89    5.60 
   2  -2   2  110.99    5.30 
  -2   2  -2  107.29    5.60 
  -2   2  -3  302.87   10.10 
  -2   2  -3  285.77    9.80 
   2  -2   3  281.47    8.90 
  -2   2  -4  263.87    9.90 
   2  -2   4  282.77    9.80 
  -2   2  -4  276.37   10.70 
  -2   2  -5  474.95   14.30 
   2  -2   5  468.55   14.00 
  -2   2  -6  395.16   13.80 
   2  -2   6  392.46   14.10 
  -2   2  -7  161.18    9.30 
  -2   2  -7  168.58    9.70 
   2  -2   7  178.48   10.10 
  -2   2  -7  147.19    9.00 
  -2   2  -8  200.18   10.90 
  -2   2  -8  194.18   10.50 
  -2   2  -8  198.68   10.60 
  -2   2  -9  181.58    9.90 
  -2   2  -9  193.98   10.40 
  -2   2  -9  184.58    9.90 
  -2   2 -10   17.60    2.80 
  -2   2 -10   14.20    2.50 
  -2   2 -11   13.40    2.00 
  -2   1  11    1.20    0.60 
  -2   1  10   24.70    3.40 
  -2   1   9   65.99    6.30 
  -2   1   8   19.30    3.70 
  -2   1   7    0.60    0.90 
  -2   1   7    0.30    0.60 
  -2   1   7    1.20    1.00 
  -2   1   6   67.29    6.30 
  -2   1   5   15.20    2.90 
  -2   1   5   19.00    3.00 
  -2   1   4    0.70    0.90 
  -2   1   4    0.30    0.70 
  -2   1   3   82.59    5.30 
  -2   1   3   87.99    5.90 
  -2   1   3   87.09    5.20 
  -2   1   2  442.56   11.40 
  -2   1   2  468.35   12.30 
  -2   1   2  465.25   12.80 
   2  -1  -2  465.55   11.10 
  -2   1   2  460.75   10.30 
   2  -1  -1   80.09    4.10 
  -2   1   1   71.89    4.30 
  -2   1   1   71.49    4.40 
   2  -1  -1   65.99    3.20 
  -2   1   1   74.29    3.60 
   2  -1   0   32.80    2.20 
  -2   1   0   27.60    2.50 
   2  -1   0   29.60    1.80 
  -2   1   0   30.70    2.80 
  -2   1   0   30.70    2.10 
  -2   1   0   27.90    2.30 
  -2   1  -1 1413.36   17.70 
  -2   1  -1 1431.46   17.20 
   2  -1   1 1456.45   12.50 
   2  -1   1 1441.96   10.00 
   2  -1   1 1454.05   16.10 
  -2   1  -1 1451.45   19.20 
  -2   1  -2   73.89    3.80 
  -2   1  -2   70.59    4.30 
  -2   1  -2   65.59    2.80 
  -2   1  -2   68.09    4.30 
   2  -1   2   66.19    3.40 
   2  -1   2   77.19    2.50 
  -2   1  -3 3054.09   29.80 
  -2   1  -3 2967.20   30.70 
   2  -1   3 3011.80   25.00 
  -2   1  -3 2971.40   22.20 
  -2   1  -4 2883.61   31.30 
   2  -1   4 2840.92   27.60 
  -2   1  -5  119.99    6.90 
   2  -1   5  122.79    6.50 
  -2   1  -6  576.14   15.90 
   2  -1   6  587.14   15.70 
   2  -1   7   62.99    5.50 
  -2   1  -7   66.09    5.60 
  -2   1  -8   16.80    3.10 
  -2   1  -8   16.60    3.20 
  -2   1  -8   17.90    3.20 
   2  -1   8   14.90    3.60 
  -2   1  -9    1.80    1.10 
  -2   1  -9    1.50    1.00 
  -2   1  -9    1.30    1.00 
  -2   1 -10    0.00    0.50 
  -2   1 -10    0.00    0.50 
  -2   1 -11   35.60    3.70 
  -2   1 -11   36.70    3.80 
  -2   0  10    4.40    1.40 
  -2   0   9    1.10    0.80 
  -2   0   8   50.89    5.80 
  -2   0   7   66.49    6.60 
  -2   0   7   61.29    6.30 
  -2   0   6    0.20    0.70 
  -2   0   6   -1.20    1.00 
  -2   0   5   53.09    5.20 
  -2   0   5   47.80    5.30 
  -2   0   4  203.28    9.30 
  -2   0   4  199.78   10.20 
  -2   0   3  472.65   12.70 
  -2   0   3  470.75   14.20 
  -2   0   3  476.75   12.50 
  -2   0   2   18.40    2.20 
  -2   0   2   14.80    2.10 
  -2   0   2   14.60    2.30 
   2   0  -1  975.40   15.80 
  -2   0   1  994.80   16.20 
  -2   0   1  989.90   16.60 
  -2   0   1  936.51   10.60 
   2   0  -1  923.51   13.70 
  -2   0   1  991.20   12.90 
   2   0   0 1245.68   14.10 
  -2   0   0 1274.07   17.40 
  -2   0   0 1262.97   17.90 
   2   0   0 1281.67   16.40 
  -2   0  -1  153.08    5.50 
  -2   0  -1  171.48    6.50 
   2   0   1  154.98    5.30 
  -2   0  -1  161.38    4.90 
   2   0   1  169.48    4.70 
  -2   0  -1  178.48    5.70 
   2   0   2 5398.26   24.70 
  -2   0  -2 5399.56   31.50 
  -2   0  -2 5353.56   28.30 
  -2   0  -2 5376.06   25.80 
  -2   0  -2 5416.96   37.60 
  -2   0  -3 1377.76   19.60 
  -2   0  -3 1398.36   15.80 
  -2   0  -3 1343.87   20.40 
   2   0   3 1367.66   13.30 
  -2   0  -3 1352.46   15.80 
   2   0   4  529.75   10.70 
   2   0   4  522.45   10.40 
   2   0   5 1910.21   23.30 
  -2   0  -5 1910.21   26.50 
  -2   0  -6  246.38    9.90 
   2   0   7  590.94   21.10 
  -2   0  -7  625.64   16.60 
  -2   0  -8  102.59    7.60 
   2   0   8  106.59    9.40 
  -2   0  -8  117.39    8.10 
  -2   0  -8  110.29    7.90 
   2   0   9   61.19    7.10 
  -2   0  -9   65.19    6.20 
  -2   0  -9   64.99    6.20 
  -2   0 -10  111.49    7.80 
  -2   0 -10  112.19    7.80 
  -2   0 -11    0.00    0.50 
  -2   0 -11    0.30    0.50 
  -2   0 -12    1.30    0.80 
  -2  -1  10   -0.50    0.50 
  -2  -1   9   45.30    4.80 
  -2  -1   8    8.70    2.40 
  -2  -1   7   27.90    4.30 
  -2  -1   7   25.50    4.10 
  -2  -1   6   66.09    6.90 
  -2  -1   6   61.69    6.10 
  -2  -1   5  116.29    8.80 
  -2  -1   5  125.49    8.20 
  -2  -1   4    0.50    0.80 
  -2  -1   4    1.40    0.90 
  -2  -1   3  744.53   16.20 
  -2  -1   3  698.53   18.50 
  -2  -1   2 1185.58   17.90 
  -2  -1   2 1211.38   18.90 
  -2  -1   2 1253.87   22.30 
  -2  -1   2 1218.48   16.30 
  -2  -1   1 1013.00   14.10 
  -2  -1   1 1040.00   16.50 
  -2  -1   1 1043.40   13.30 
   2   1   0 2185.78   20.70 
   2   1   0 2160.68   24.30 
  -2  -1   0 2212.68   23.70 
  -2  -1   0 2254.27   23.50 
  -2  -1   0 2257.57   18.20 
  -2  -1  -1 1656.13   15.60 
  -2  -1  -1 1649.44   15.40 
  -2  -1  -1 1616.04   18.20 
  -2  -1  -1 1675.83   20.10 
   2   1   1 1671.03   17.10 
   2   1   2 2105.79   22.50 
  -2  -1  -2 2019.90   17.80 
  -2  -1  -2 2067.89   19.10 
  -2  -1  -2 2060.69   22.70 
  -2  -1  -2 2109.69   20.40 
  -2  -1  -2 2048.90   19.50 
   2   1   2 2151.48   18.40 
   2   1   3  138.59    6.90 
  -2  -1  -3  131.39    5.70 
  -2  -1  -3  130.79    4.90 
   2   1   3  131.59    4.60 
  -2  -1  -3  127.69    4.30 
  -2  -1  -3  127.69    5.10 
   2   1   4  368.26   12.70 
  -2  -1  -4  380.66   10.60 
   2   1   5   56.69    5.50 
  -2  -1  -5   54.69    4.30 
  -2  -1  -6    7.80    1.80 
   2   1   6    5.20    1.90 
   2   1   7    4.40    1.70 
  -2  -1  -7    1.40    0.80 
   2   1   8   18.00    3.70 
   2   1   9    3.90    1.90 
  -2  -1  -9    6.30    2.00 
  -2  -1  -9    6.60    2.00 
  -2  -1 -10   58.39    5.80 
  -2  -1 -10   58.29    5.90 
  -2  -1 -11    7.00    1.90 
  -2  -1 -12    6.30    1.60 
  -2  -2   9    3.70    1.30 
  -2  -2   8   19.30    3.40 
  -2  -2   7    1.90    1.30 
  -2  -2   6   37.00    5.40 
  -2  -2   6   37.40    4.80 
  -2  -2   5  106.89    8.90 
  -2  -2   5  114.09    7.90 
  -2  -2   4  771.02   22.60 
  -2  -2   4  747.63   18.80 
  -2  -2   3  822.32   17.90 
  -2  -2   3  751.72   20.80 
  -2  -2   2  263.77    9.10 
  -2  -2   2  252.47    8.40 
  -2  -2   2  237.98   10.60 
  -2  -2   2  252.07    8.40 
  -2  -2   1 1245.78   17.90 
  -2  -2   1 1289.17   22.10 
  -2  -2   1 1302.97   17.10 
  -2  -2   0 1888.31   17.00 
  -2  -2   0 1909.41   19.50 
  -2  -2  -1 1178.48   16.10 
   2   2   1 1197.28   16.30 
  -2  -2  -1 1214.18   17.20 
  -2  -2  -1 1172.18   17.00 
  -2  -2  -1 1192.48   14.80 
   2   2   1 1167.48   13.20 
  -2  -2  -2  521.75    9.70 
   2   2   2  542.35   10.60 
   2   2   2  535.35   10.60 
  -2  -2  -2  529.65    9.90 
  -2  -2  -2  511.25   10.70 
  -2  -2  -2  517.65   11.40 
   2   2   3  724.73   14.70 
  -2  -2  -3  717.33   13.00 
  -2  -2  -3  697.23   12.10 
  -2  -2  -3  678.43    9.70 
  -2  -2  -3  684.73   14.10 
   2   2   4 1148.99   21.20 
  -2  -2  -4 1114.89   17.80 
  -2  -2  -4 1130.19   16.70 
  -2  -2  -5   48.50    4.00 
   2   2   5   41.40    4.60 
   2   2   6   10.30    2.50 
   2   2   7    2.50    1.60 
   2   2   8   -0.50    0.90 
  -2  -2  -9    1.40    1.00 
  -2  -2  -9    0.60    0.80 
   2   2   9    2.50    1.70 
  -2  -2 -10    6.20    2.00 
  -2  -2 -10    7.00    2.10 
  -2  -2 -11   23.40    3.60 
  -2  -2 -12    0.70    0.70 
  -2  -2 -13    1.10    0.60 
  -2  -3   9   24.20    2.80 
  -2  -3   8   18.00    3.10 
  -2  -3   7  334.47   14.50 
   2   3  -7  276.57   11.70 
   2   3  -6  228.88   11.20 
  -2  -3   5  671.53   19.60 
  -2  -3   5  684.83   23.50 
  -2  -3   4  460.75   15.40 
  -2  -3   4  467.55   18.90 
  -2  -3   3  247.28   13.00 
  -2  -3   3  235.88   10.20 
  -2  -3   2 1959.10   26.30 
  -2  -3   2 1875.41   25.60 
  -2  -3   1  697.73   18.20 
  -2  -3   1  659.43   13.90 
  -2  -3   0  880.81   17.70 
  -2  -3   0  855.81   14.80 
   2   3   1  355.46    7.80 
  -2  -3  -1  351.16    9.20 
  -2  -3  -1  351.96    9.60 
  -2  -3  -1  353.56    9.10 
   2   3   2  888.61   13.90 
  -2  -3  -2  859.61   12.90 
  -2  -3  -2  861.01   14.80 
  -2  -3  -2  895.21   14.40 
  -2  -3  -3  431.86   10.30 
  -2  -3  -3  422.86   10.90 
   2   3   3  456.75   11.40 
   2   3   4  941.81   18.50 
  -2  -3  -4  897.61   15.80 
   2   3   5  147.79    8.40 
  -2  -3  -5  153.18    7.20 
   2   3   6  156.68    9.50 
  -2  -3  -6  155.58    8.00 
   2   3   7  161.68   10.40 
  -2  -3  -7  169.68    9.30 
   2   3   8  145.29   10.40 
  -2  -3  -8  130.49    8.80 
  -2  -3  -9  542.25   19.10 
  -2  -3  -9  528.05   17.70 
   2   3   9  580.44   21.10 
  -2  -3  -9  530.75   18.20 
  -2  -3 -10   65.49    6.50 
  -2  -3 -11   42.10    4.90 
  -2  -3 -12   24.30    3.30 
  -2  -3 -13    6.10    1.40 
  -2  -4   8   34.90    3.70 
   2   4  -7   36.00    3.90 
   2   4  -7   36.00    4.00 
  -2  -4   7   39.60    4.70 
   2   4  -6   40.50    4.80 
  -2  -4   5   40.10    4.90 
  -2  -4   5   45.20    6.20 
   2   4  -5   47.50    5.30 
   2   4  -4   17.30    3.10 
  -2  -4   4   25.50    3.80 
  -2  -4   4   15.40    3.70 
  -2  -4   3  355.26   16.90 
  -2  -4   2   20.80    3.00 
  -2  -4   1   96.49    5.90 
  -2  -4   0   44.00    4.50 
  -2  -4   0   43.60    3.70 
   2   4   1  567.74   10.90 
  -2  -4  -1  560.34   12.90 
  -2  -4  -2  412.76   10.90 
   2   4   2  425.66   10.10 
   2   4   3 2152.48   25.00 
  -2  -4  -3 2101.49   24.30 
  -2  -4  -3 2182.18   24.90 
  -2  -4  -4  795.82   15.90 
   2   4   4  817.22   17.20 
  -2  -4  -5   44.70    4.10 
   2   4   5   45.00    4.50 
  -2  -4  -6 1033.20   21.40 
   2   4   6  988.00   23.50 
  -2  -4  -7  465.05   15.60 
   2   4   7  433.26   16.80 
  -2  -4  -8  556.64   18.60 
   2   4   8  571.84   20.40 
  -2  -4  -9   83.59    7.40 
   2   4   9   88.19    8.30 
  -2  -4  -9   89.09    7.80 
  -2  -4 -10   32.80    4.70 
  -2  -4 -11  162.38    9.90 
  -2  -4 -12   46.90    4.80 
  -2  -4 -13    9.00    1.70 
  -2  -5   8   17.20    2.10 
   2   5  -7   10.90    2.00 
  -2  -5   7   12.50    2.40 
   2   5  -7   11.60    2.00 
   2   5  -6    6.60    1.90 
   2   5  -6    4.40    1.60 
   2   5  -5    0.60    0.70 
  -2  -5   4   65.29    6.20 
  -2  -5   4   67.69    7.80 
   2   5  -4   62.19    6.30 
   2   5  -3    7.90    2.20 
  -2  -5   3    8.30    2.70 
  -2  -5   1   11.50    2.30 
  -2  -5   0  187.48    8.60 
  -2  -5  -1  390.56   12.00 
   2   5   1  399.96   10.10 
   2   5   2 2098.99   24.10 
  -2  -5  -2 2132.49   26.90 
  -2  -5  -3  461.05   12.40 
   2   5   3  469.65   12.20 
   2   5   4 1298.47   22.10 
  -2  -5  -4 1275.57   21.20 
  -2  -5  -5 2050.49   28.70 
   2   5   5 2191.68   31.60 
  -2  -5  -6  454.85   14.60 
   2   5   6  440.06   15.50 
  -2  -5  -7  548.05   17.60 
   2   5   7  499.15   18.00 
  -2  -5  -8  101.19    8.10 
   2   5   8   96.69    8.30 
  -2  -5  -9   87.39    7.70 
  -2  -5  -9   89.49    8.10 
   2   5   9   97.69    8.50 
  -2  -5 -10  331.37   15.10 
  -2  -5 -11    0.20    0.80 
  -2  -5 -12    0.60    0.90 
  -2  -5 -13    1.30    0.70 
  -2  -6   7    0.70    0.50 
   2   6  -6   -0.60    0.60 
   2   6  -6   -1.00    0.70 
   2   6  -5    6.70    1.90 
   2   6  -4   16.40    3.30 
  -2  -6   3  366.76   18.50 
   2   6  -3  326.67   14.80 
   2   6  -2  313.47   14.10 
  -2  -6   2  341.87   17.80 
  -2  -6   1  627.44   18.10 
  -2  -6   0 1532.35   26.80 
  -2  -6  -1  613.54   16.20 
   2   6   1  594.34   13.90 
  -2  -6  -2  866.41   18.90 
   2   6   2  869.61   16.90 
  -2  -6  -3  331.57   11.50 
   2   6   3  348.07   11.10 
   2   6   4  357.66   12.10 
  -2  -6  -4  339.87   11.80 
  -2  -6  -5  115.99    7.10 
   2   6   5  117.69    7.50 
  -2  -6  -6  363.16   13.40 
   2   6   6  371.06   14.30 
  -2  -6  -7  340.07   14.00 
   2   6   7  317.67   14.20 
  -2  -6  -8  234.98   12.50 
   2   6   8  210.98   12.10 
  -2  -6  -8  231.38   12.10 
   2   6   9  140.89   10.10 
  -2  -6  -9  156.88   10.70 
  -2  -6  -9  141.19    9.90 
  -2  -6 -10   83.49    7.60 
  -2  -6 -11   -0.70    0.90 
  -2  -6 -12   -0.20    0.80 
  -2  -6 -13   13.70    2.10 
   2   7  -6    2.30    0.80 
   2   7  -6    3.50    0.90 
  -2  -7   6    3.60    1.10 
   2   7  -5   10.40    2.10 
   2   7  -4   69.19    6.30 
   2   7  -3   37.80    5.00 
   2   7  -2  173.88   10.90 
   2   7  -1  485.75   17.90 
  -2  -7   1  460.65   16.00 
  -2  -7   1  484.05   20.70 
  -2  -7   1  501.35   17.30 
   2   7   0  348.67   14.50 
  -2  -7   0  348.97   14.00 
  -2  -7   0  373.16   14.30 
  -2  -7   0  368.16   13.50 
  -2  -7  -1  536.55   16.30 
  -2  -7  -2  305.27   12.00 
   2   7   2  317.87   11.20 
  -2  -7  -3  155.28    8.50 
   2   7   3  152.58    7.90 
  -2  -7  -4  376.26   13.20 
   2   7   4  367.46   12.70 
   2   7   5  210.28   10.30 
  -2  -7  -5  197.78    9.80 
   2   7   6   33.90    4.40 
  -2  -7  -6   26.20    3.80 
  -2  -7  -7    8.30    2.20 
  -2  -7  -7    8.30    2.20 
   2   7   7    7.40    2.30 
  -2  -7  -8   63.79    6.40 
   2   7   8   70.79    7.00 
  -2  -7  -8   69.69    6.80 
  -2  -7  -9   38.10    5.10 
  -2  -7 -10    2.00    1.30 
  -2  -7 -11   -0.20    0.80 
  -2  -7 -11    0.90    0.80 
  -2  -7 -12    7.40    1.90 
  -2  -7 -13   -0.50    0.50 
   2   8  -5   38.80    3.10 
   2   8  -5   42.80    3.30 
   2   8  -4   49.40    4.60 
   2   8  -3  117.09    8.10 
   2   8  -2  179.68   10.80 
   2   8  -1    3.60    1.60 
   2   8   0    0.80    0.90 
  -2  -8   0    1.40    1.00 
  -2  -8   0    0.90    0.80 
  -2  -8   0   -0.70    0.70 
   2   8   1    0.50    0.70 
  -2  -8  -1    3.70    1.40 
  -2  -8  -1    4.00    1.60 
  -2  -8  -1    1.50    0.90 
  -2  -8  -2    0.80    0.70 
  -2  -8  -2    1.20    0.90 
  -2  -8  -2    0.80    0.70 
  -2  -8  -3  159.18    9.20 
  -2  -8  -3  177.78    8.80 
  -2  -8  -3  176.28    9.50 
   2   8   3  181.38    9.20 
   2   8   4    2.60    1.10 
  -2  -8  -4    2.80    1.20 
  -2  -8  -4    4.20    1.40 
   2   8   4    3.70    1.30 
   2   8   5    0.60    0.70 
  -2  -8  -5    0.30    0.60 
  -2  -8  -5    0.90    1.00 
   2   8   6   36.30    4.60 
   2   8   6   30.10    4.50 
  -2  -8  -6   35.40    5.60 
  -2  -8  -6   30.70    4.10 
   2   8   7   90.79    8.00 
  -2  -8  -7   98.59    7.70 
   2   8   7  107.89    8.30 
  -2  -8  -7  108.49    8.10 
   2   8   8   54.59    6.30 
  -2  -8  -8   65.89    6.50 
   2   8   9  102.79    8.50 
  -2  -8  -9  119.59    8.90 
  -2  -8 -10  121.19   10.10 
  -2  -8 -10  106.99    8.20 
   2   8  10  119.79    7.10 
  -2  -8 -11   90.29    7.70 
  -2  -8 -11   93.69    7.00 
   2   8  11   89.09    5.20 
  -2  -8 -12    5.10    1.40 
  -2  -8 -12    5.60    1.60 
   2   9  -3   35.30    3.70 
   2   9  -2    1.50    0.90 
   2   9  -1   18.80    3.50 
   2   9   0   67.29    6.60 
  -2  -9  -1   21.30    3.60 
   2   9   1   23.40    3.90 
  -2  -9  -1   24.50    3.60 
  -2  -9  -2   65.99    6.30 
  -2  -9  -2   57.59    5.50 
  -2  -9  -3   78.29    6.20 
  -2  -9  -3   66.69    6.30 
  -2  -9  -4   39.20    4.80 
  -2  -9  -4   39.00    4.30 
  -2  -9  -4   36.90    4.50 
   2   9   4   36.40    4.40 
   2   9   5    0.50    0.60 
  -2  -9  -5    2.70    1.20 
   2   9   5    0.80    0.70 
  -2  -9  -6   87.59    8.70 
   2   9   6   84.19    6.60 
  -2  -9  -7    3.00    1.80 
   2   9   7    7.70    2.10 
   2   9   8   11.90    2.60 
   2   9   8    8.10    2.40 
  -2  -9  -8    7.00    2.60 
   2   9   9    6.90    2.20 
  -2  -9  -9    7.80    2.60 
   2   9   9    8.90    2.10 
   2   9  10   11.00    2.50 
  -2  -9 -10   14.80    3.50 
   2   9  10   13.70    2.40 
  -2  -9 -11   -0.70    0.80 
   2   9  11   -0.10    0.40 
  -2  -9 -12    2.20    1.00 
   2  10  -2    1.00    0.60 
   2  10  -1    0.10    0.40 
   2  10   0   -0.60    0.90 
   2  10   1    1.10    0.80 
  -2 -10  -2   42.10    4.90 
  -2 -10  -2   34.30    4.10 
   2  10   2   33.90    4.60 
   2  10   3    2.50    1.30 
  -2 -10  -3    2.90    1.30 
  -2 -10  -3    2.40    1.30 
  -2 -10  -4   23.50    3.70 
  -2 -10  -5  249.08   11.90 
   2  10   5  230.38   10.00 
   2  10   6   79.19    6.10 
  -2 -10  -7  134.89   10.30 
   2  10   7  137.29    8.30 
  -2 -10  -8   48.60    6.40 
   2  10   8   56.99    5.30 
  -2 -10  -9    8.80    2.60 
   2  10   9    8.50    2.00 
  -2 -10 -10   47.90    5.60 
   2  10  10   53.99    4.30 
  -2 -10 -11   12.40    2.50 
   2  10  11   11.70    1.70 
   2  11   0   12.20    2.10 
   2  11   1   17.90    2.80 
   2  11   2   28.10    3.80 
  -2 -11  -3   56.79    5.30 
   2  11   3   56.79    5.50 
  -2 -11  -4  100.79    7.10 
   2  11   4   87.89    6.90 
  -2 -11  -5    4.20    1.60 
   2  11   6    6.20    1.50 
   2  11   7    1.80    0.80 
  -2 -11  -8    1.00    0.90 
   2  11   8    1.50    0.90 
  -2 -11  -9   32.60    4.30 
   2  11   9   36.00    3.50 
  -2 -11 -10    4.30    1.50 
   2  11  10    1.10    0.70 
   2  12   2   38.70    3.50 
   2  12   3    9.50    1.90 
   2  12   4   15.10    2.40 
   2  12   5   15.80    2.60 
   2  12   6   23.00    3.10 
   2  12   6   24.30    2.40 
   2  12   7   11.00    1.70 
   2  12   8    4.60    1.20 
   2  12   9   -1.50    0.60 
  -3  11   4   -0.30    0.40 
  -3  11   3   -0.30    0.50 
  -3  11   2    1.00    0.70 
  -3  11   1    0.30    0.50 
  -3  10   7   -0.20    0.50 
  -3  10   6   -0.60    0.70 
  -3  10   6    0.70    0.60 
  -3  10   5    0.50    0.70 
  -3  10   5    1.50    0.90 
  -3  10   4   -0.10    0.40 
  -3  10   3    4.80    1.50 
  -3  10   2    0.10    0.60 
  -3  10   1    0.30    0.60 
  -3  10   0   -0.10    0.70 
  -3  10  -1   10.40    2.00 
  -3  10  -2    2.60    0.90 
  -3   9   8    1.80    0.90 
  -3   9   7    0.00    0.70 
  -3   9   6    0.10    0.70 
  -3   9   5   -0.40    0.90 
  -3   9   4    1.50    1.00 
  -3   9   4    1.10    1.00 
  -3   9   3   -0.80    0.80 
  -3   9   3   -1.20    0.90 
  -3   9   2    1.30    1.00 
  -3   9   2    2.40    1.20 
  -3   9   1   -0.70    0.80 
  -3   9   0    2.90    1.30 
  -3   9  -1   -0.20    0.80 
  -3   9  -2    3.10    1.30 
  -3   9  -3   17.80    2.70 
  -3   9  -4    7.60    1.50 
  -3   8   9    0.90    0.70 
  -3   8   8    0.00    0.60 
  -3   8   7    1.40    1.10 
  -3   8   6    0.30    0.80 
  -3   8   5    1.40    1.10 
  -3   8   4    0.00    0.90 
  -3   8   3   16.50    3.30 
  -3   8   2   -1.50    1.00 
  -3   8   2    1.00    0.90 
  -3   8   1   37.80    4.60 
  -3   8   1   50.19    5.30 
  -3   8   0   52.09    5.30 
  -3   8   0   52.99    5.50 
  -3   8  -1   17.40    3.10 
  -3   8  -2   54.59    5.60 
  -3   8  -3   21.10    3.50 
  -3   8  -4    2.50    1.20 
  -3   8  -5   -0.40    0.50 
  -3   7  10    1.50    0.80 
  -3   7   9   -0.80    0.70 
  -3   7   8   -1.50    1.10 
  -3   7   7   -1.00    1.10 
  -3   7   6   -0.40    0.80 
  -3   7   5    2.10    1.40 
  -3   7   4    9.30    2.50 
   3  -7  -4   15.30    3.40 
  -3   7   3    6.60    2.10 
   3  -7  -3    6.30    2.20 
  -3   7   2   31.10    4.30 
   3  -7  -2   38.50    5.30 
  -3   7   1    4.20    1.60 
  -3   7   1    7.90    2.70 
  -3   7   1    5.10    1.70 
   3  -7  -1    5.00    1.80 
  -3   7   0   38.90    4.70 
  -3   7   0   47.40    6.20 
   3  -7   0   37.30    5.00 
  -3   7   0   46.20    5.10 
  -3   7  -1   24.10    3.70 
  -3   7  -1   24.70    4.50 
  -3   7  -1   19.70    3.40 
   3  -7   1   21.40    3.70 
  -3   7  -2    3.40    1.40 
  -3   7  -2    5.50    1.80 
  -3   7  -3   49.40    5.50 
  -3   7  -4   29.30    4.20 
  -3   7  -5   -0.60    0.80 
  -3   7  -6    4.40    1.30 
  -3   7  -7    0.90    0.40 
  -3   6  10    0.40    0.50 
  -3   6  10    2.30    0.90 
  -3   6   9    2.00    1.00 
  -3   6   8    2.30    1.20 
  -3   6   7   10.70    2.50 
  -3   6   6   20.60    3.50 
  -3   6   5   96.59    8.00 
  -3   6   5   83.29    6.90 
  -3   6   4  329.07   14.90 
  -3   6   4  364.26   13.60 
  -3   6   3  212.88   11.60 
   3  -6  -2  210.18   11.90 
  -3   6   1   84.19    7.80 
   3  -6  -1   79.79    7.20 
  -3   6   0   70.59    7.20 
   3  -6   0   56.69    5.90 
  -3   6  -1   32.70    4.20 
  -3   6  -1   32.80    4.10 
  -3   6  -1   33.80    5.00 
   3  -6   1   30.20    4.30 
  -3   6  -2   54.19    5.50 
  -3   6  -2   55.79    6.40 
  -3   6  -2   46.60    5.10 
   3  -6   2   48.40    5.50 
  -3   6  -3   40.90    4.90 
  -3   6  -3   37.30    4.70 
  -3   6  -3   38.70    5.30 
   3  -6   3   32.70    4.60 
  -3   6  -4    4.60    1.70 
  -3   6  -4    4.20    1.50 
  -3   6  -5  162.98    9.90 
  -3   6  -5  179.88    9.60 
  -3   6  -6   -0.10    0.90 
  -3   6  -7    9.30    2.00 
  -3   6  -8    0.30    0.40 
  -3   5  10    1.20    0.70 
  -3   5  10    5.60    1.40 
  -3   5   9    0.60    0.70 
  -3   5   8    8.20    2.30 
  -3   5   8    5.30    1.80 
  -3   5   7    3.40    1.50 
  -3   5   7    2.00    1.20 
  -3   5   6   21.50    3.90 
  -3   5   6   23.60    3.90 
  -3   5   5   36.00    4.60 
  -3   5   5   39.70    5.10 
  -3   5   4   -1.50    1.10 
  -3   5   3   49.90    5.20 
  -3   5   2   36.10    4.20 
  -3   5   2   31.10    4.00 
   3  -5  -1   75.89    6.60 
  -3   5   1   82.99    7.20 
  -3   5   0   23.80    3.90 
   3  -5   0   19.30    3.30 
  -3   5  -1    4.30    1.70 
   3  -5   1    3.40    1.30 
  -3   5  -2    3.70    1.60 
   3  -5   2    1.10    0.60 
  -3   5  -3   -0.10    1.20 
  -3   5  -3    0.00    0.50 
   3  -5   3   -0.30    0.50 
  -3   5  -3    0.20    0.70 
  -3   5  -4   14.50    2.90 
  -3   5  -4   11.60    2.70 
  -3   5  -4    7.50    2.10 
   3  -5   4   10.60    2.50 
  -3   5  -5  105.29    7.90 
  -3   5  -5   92.99    7.60 
  -3   5  -6   87.19    7.00 
  -3   5  -6   83.09    7.20 
  -3   5  -7   19.00    3.20 
  -3   5  -8   16.30    2.50 
  -3   5  -9    1.50    0.60 
  -3   4  10   -0.50    0.50 
  -3   4   9   13.10    2.30 
  -3   4   9   12.30    2.60 
  -3   4   8   44.50    5.30 
  -3   4   8   54.09    5.30 
  -3   4   7   44.70    5.50 
  -3   4   7   56.39    5.80 
  -3   4   6   73.69    7.20 
  -3   4   6   85.89    7.20 
  -3   4   5   81.59    6.90 
  -3   4   5   70.49    6.70 
  -3   4   4   21.20    3.50 
  -3   4   3   79.09    6.30 
  -3   4   3   78.69    6.20 
  -3   4   2  108.49    7.00 
  -3   4   2  108.39    7.10 
  -3   4   2  101.79    6.60 
  -3   4   1   18.20    2.80 
  -3   4   1   15.50    2.80 
  -3   4   1   16.70    2.80 
  -3   4   1   17.40    2.70 
  -3   4   0   12.00    2.60 
  -3   4   0   11.60    2.30 
   3  -4   0    9.30    2.10 
  -3   4  -1    1.60    1.30 
   3  -4   1    0.70    0.60 
  -3   4  -2   19.70    3.40 
   3  -4   2   18.60    3.00 
  -3   4  -3   74.99    6.80 
   3  -4   3   75.09    6.10 
  -3   4  -4  147.39    9.60 
   3  -4   4  140.49    8.60 
  -3   4  -5  146.49    9.80 
  -3   4  -5  144.79    9.20 
   3  -4   5  147.19    9.20 
  -3   4  -6   51.99    5.60 
  -3   4  -6   68.39    6.50 
  -3   4  -7  250.87   12.20 
  -3   4  -8   30.30    4.00 
  -3   4  -9   22.90    3.00 
  -3   3  10    5.30    1.40 
  -3   3   9    2.10    1.10 
  -3   3   9    2.80    1.10 
  -3   3   8    4.80    1.80 
  -3   3   8    2.80    1.40 
  -3   3   7   30.60    4.50 
  -3   3   7   42.40    4.90 
  -3   3   6    1.70    1.10 
  -3   3   6    0.10    0.60 
  -3   3   6    2.70    1.50 
  -3   3   5   25.70    4.00 
  -3   3   4    0.20    0.80 
  -3   3   4   -0.90    0.90 
  -3   3   3  197.48   10.20 
  -3   3   3  197.98   10.20 
  -3   3   3  192.98    9.30 
  -3   3   2   98.89    6.90 
  -3   3   2   90.99    6.50 
  -3   3   2   85.09    5.70 
  -3   3   1  133.09    7.50 
  -3   3   1  138.59    7.70 
  -3   3   1  137.19    6.70 
  -3   3   0   68.29    5.50 
  -3   3   0   67.39    5.10 
  -3   3   0   79.59    5.80 
   3  -3   0   65.59    5.10 
  -3   3  -1  193.78    9.70 
  -3   3  -1  189.28    8.60 
  -3   3  -1  166.08    8.50 
   3  -3   1  175.28    8.30 
  -3   3  -2  996.80   22.50 
   3  -3   2  915.31   18.60 
  -3   3  -3  502.55   16.40 
   3  -3   3  491.65   13.90 
  -3   3  -4  130.99    8.60 
   3  -3   4  134.89    7.70 
  -3   3  -5  154.58    9.70 
  -3   3  -6   30.40    4.40 
  -3   3  -6   27.00    4.10 
  -3   3  -6   24.70    3.80 
  -3   3  -7    0.10    0.90 
  -3   3  -8   -0.40    1.00 
  -3   3  -9    1.50    0.90 
  -3   3 -10   24.10    2.90 
  -3   3 -10   21.70    2.90 
  -3   2  10   -0.80    0.60 
  -3   2   9   12.80    2.50 
  -3   2   9   12.30    2.10 
  -3   2   8    7.60    2.20 
  -3   2   8   12.20    2.50 
  -3   2   7   -0.80    0.90 
  -3   2   7    0.90    0.80 
  -3   2   6    5.50    1.90 
  -3   2   6    4.20    1.40 
  -3   2   6    7.10    2.00 
  -3   2   5   97.69    7.90 
  -3   2   5   96.79    7.70 
  -3   2   4   40.10    4.90 
  -3   2   4   45.70    4.90 
  -3   2   3   25.50    3.70 
  -3   2   3   25.60    3.70 
  -3   2   3   24.20    3.20 
  -3   2   2  172.18    9.10 
  -3   2   2  172.58    8.90 
  -3   2   2  175.38    7.80 
  -3   2   1  458.55   14.10 
  -3   2   1  428.46   13.60 
  -3   2   1  435.46   11.20 
  -3   2   0   94.19    5.70 
  -3   2   0   88.29    5.70 
  -3   2   0   87.39    6.00 
  -3   2   0   91.49    4.80 
  -3   2  -1 1492.35   24.40 
  -3   2  -1 1511.35   23.10 
  -3   2  -1 1508.65   24.90 
   3  -2   1 1507.15   21.60 
  -3   2  -2  364.76   12.60 
  -3   2  -2  372.56   11.40 
  -3   2  -2  346.77   12.30 
  -3   2  -3  438.56   14.30 
  -3   2  -3  413.76   14.20 
  -3   2  -4 1050.79   23.00 
  -3   2  -4  999.80   23.70 
  -3   2  -5   52.99    5.40 
  -3   2  -6  505.55   17.20 
  -3   2  -7   25.90    4.20 
  -3   2  -7   29.10    4.10 
  -3   2  -7   24.00    3.80 
  -3   2  -8  102.19    7.70 
  -3   2  -9   56.49    5.50 
  -3   2 -10    0.30    0.70 
  -3   2 -11   -0.80    0.60 
  -3   2 -11   -0.10    0.30 
  -3   1  10    2.40    0.90 
  -3   1   9    2.20    1.20 
  -3   1   9    1.70    0.90 
  -3   1   8    2.20    1.20 
  -3   1   8    1.30    1.00 
  -3   1   7   37.50    4.60 
  -3   1   7   37.20    4.90 
  -3   1   6   -0.10    0.60 
  -3   1   6    0.60    0.70 
  -3   1   5   23.80    4.20 
  -3   1   5   22.70    3.70 
  -3   1   4   82.49    7.40 
  -3   1   4   85.69    6.60 
  -3   1   3  468.25   15.30 
  -3   1   3  481.75   16.60 
  -3   1   3  469.45   13.90 
  -3   1   2  447.46   14.40 
  -3   1   2  433.26   14.50 
  -3   1   2  426.46   11.80 
  -3   1   1  268.57   10.70 
  -3   1   1  289.07   11.10 
  -3   1   1  281.47    8.50 
  -3   1   0 1593.54   24.50 
  -3   1   0 1539.05   24.80 
  -3   1  -1   63.39    4.60 
  -3   1  -1   55.69    4.40 
  -3   1  -1   58.59    4.90 
  -3   1  -2  611.34   15.40 
  -3   1  -2  621.74   14.00 
  -3   1  -2  591.04   15.90 
  -3   1  -3   14.80    2.60 
  -3   1  -3   16.90    2.40 
  -3   1  -3   14.70    2.70 
  -3   1  -4   28.40    3.70 
  -3   1  -4   20.00    3.30 
  -3   1  -5   41.50    4.60 
  -3   1  -5   37.70    5.00 
  -3   1  -6   19.50    3.90 
  -3   1  -6   20.20    3.30 
  -3   1  -7    3.00    1.40 
  -3   1  -7    3.20    1.90 
  -3   1  -7    4.00    1.50 
  -3   1  -7    6.70    2.60 
   3  -1   8    5.40    2.30 
  -3   1  -8    6.50    1.90 
  -3   1  -8    7.80    2.10 
  -3   1  -9   18.70    3.30 
  -3   1 -10    6.40    1.90 
  -3   1 -11   14.90    2.30 
  -3   0   9    0.90    0.70 
  -3   0   8    1.60    1.20 
  -3   0   8    0.50    0.60 
  -3   0   7    5.20    1.70 
  -3   0   7    0.60    0.80 
  -3   0   6   48.70    5.30 
  -3   0   6   36.90    5.40 
  -3   0   6   37.40    4.90 
  -3   0   6   42.40    5.30 
  -3   0   5  226.78   11.30 
  -3   0   5  203.88   12.70 
  -3   0   5  194.28   10.80 
  -3   0   4  197.58   12.00 
  -3   0   4  185.68    9.80 
  -3   0   3  173.18    9.50 
  -3   0   3  174.78   10.50 
  -3   0   3  164.88    8.30 
  -3   0   2  491.55   15.00 
  -3   0   2  485.65   16.20 
  -3   0   2  491.75   12.60 
  -3   0   1  552.34   15.30 
  -3   0   1  568.84   16.00 
  -3   0   0  869.91   18.10 
  -3   0   0  870.91   18.80 
  -3   0  -1   14.60    2.00 
  -3   0  -1   16.60    2.40 
  -3   0  -1   13.70    2.30 
   3   0   2 1191.48   20.60 
  -3   0  -2 1138.19   19.20 
  -3   0  -2 1163.28   19.10 
  -3   0  -3  255.87    8.60 
  -3   0  -3  261.87   10.00 
  -3   0  -3  250.57   10.70 
  -3   0  -4   43.20    4.40 
  -3   0  -4   45.80    3.70 
  -3   0  -4   43.70    4.90 
  -3   0  -5   43.30    4.50 
  -3   0  -5   44.10    4.20 
  -3   0  -5   43.60    5.20 
   3   0   6   47.00    6.10 
  -3   0  -6   46.90    4.90 
  -3   0  -6   43.00    5.80 
   3   0   7  102.59    9.30 
  -3   0  -7  110.59    7.80 
  -3   0  -7   85.49    8.80 
   3   0   8   59.79    7.30 
  -3   0  -8   60.59    5.90 
  -3   0  -8   58.09    5.70 
  -3   0  -8   54.59    7.30 
  -3   0  -9   -0.60    0.60 
  -3   0  -9    4.90    1.70 
  -3   0 -10   32.80    4.20 
  -3   0 -10   26.20    3.60 
  -3   0 -11    3.00    1.20 
  -3   0 -11    1.90    0.90 
  -3  -1   9   12.10    2.00 
  -3  -1   8  111.09    7.30 
  -3  -1   7   82.19    7.00 
  -3  -1   7   93.09    6.70 
  -3  -1   6  304.07   14.00 
  -3  -1   6  332.07   13.50 
  -3  -1   5  162.68   11.70 
  -3  -1   5  172.38   10.40 
  -3  -1   5  152.98    9.80 
  -3  -1   5  167.28    9.80 
  -3  -1   4  191.78   12.30 
  -3  -1   4  197.68   10.50 
  -3  -1   3  631.74   21.00 
  -3  -1   3  622.14   16.90 
  -3  -1   2  511.75   15.40 
  -3  -1   2  522.45   17.60 
  -3  -1   2  491.15   13.10 
  -3  -1   1  289.07   11.10 
  -3  -1   1  285.17   11.80 
  -3  -1   0  378.66   12.30 
  -3  -1   0  387.36   12.60 
  -3  -1  -1  891.21   13.60 
  -3  -1  -1  880.31   18.60 
  -3  -1  -2    8.00    1.50 
  -3  -1  -2    6.80    1.20 
  -3  -1  -2    6.20    1.60 
  -3  -1  -2   10.00    1.80 
   3   1   3   67.69    5.20 
  -3  -1  -3   61.99    4.60 
  -3  -1  -3   59.39    4.00 
  -3  -1  -3   58.89    3.80 
  -3  -1  -3   57.89    5.00 
   3   1   4  482.05   15.70 
  -3  -1  -4  521.25   14.40 
  -3  -1  -4  491.75   12.20 
  -3  -1  -4  500.55   11.30 
  -3  -1  -4  489.25   15.80 
   3   1   5   23.20    3.80 
  -3  -1  -5   25.80    3.40 
  -3  -1  -5   30.80    3.50 
  -3  -1  -5   29.90    4.40 
   3   1   6  101.69    8.60 
  -3  -1  -6  101.59    7.10 
  -3  -1  -6  107.19    7.30 
  -3  -1  -6   96.69    8.60 
   3   1   7  440.26   18.90 
  -3  -1  -7  428.76   15.10 
  -3  -1  -7  430.56   16.20 
  -3  -1  -7  387.26   18.90 
   3   1   8  354.66   17.60 
  -3  -1  -8  357.36   15.80 
  -3  -1  -8  356.96   14.10 
  -3  -1  -8  341.67   18.80 
   3   1   9  115.29   10.00 
  -3  -1  -9  130.69    9.70 
  -3  -1  -9  117.89    8.30 
  -3  -1  -9  134.69   11.80 
  -3  -1  -9  123.89    8.70 
  -3  -1 -10   24.30    3.70 
  -3  -1 -10   24.80    3.70 
  -3  -1 -11   46.90    4.70 
  -3  -1 -11   50.29    4.70 
  -3  -1 -12   14.80    2.10 
  -3  -2   8    2.50    1.10 
  -3  -2   7   48.90    5.10 
  -3  -2   6    2.70    1.40 
  -3  -2   6    1.60    1.10 
  -3  -2   5   38.30    5.80 
  -3  -2   5   43.80    5.10 
  -3  -2   5   35.60    4.80 
  -3  -2   4  134.89   10.80 
  -3  -2   4  136.39    9.00 
  -3  -2   4  128.19    8.50 
  -3  -2   3    1.20    1.10 
  -3  -2   2    3.90    1.30 
  -3  -2   2    3.10    1.50 
  -3  -2   1   11.40    2.30 
  -3  -2   1   13.40    2.70 
  -3  -2   1   15.90    2.20 
  -3  -2   0  210.78    9.30 
  -3  -2   0  215.68    9.90 
  -3  -2   0  210.58    7.40 
  -3  -2  -1  341.17   11.30 
  -3  -2  -1  343.57   11.70 
  -3  -2  -1  338.67    9.10 
  -3  -2  -2 2267.47   29.90 
  -3  -2  -2 2293.77   23.70 
   3   2   3  114.99    6.30 
  -3  -2  -3  118.99    5.70 
  -3  -2  -3  115.99    7.10 
  -3  -2  -3  119.29    5.60 
   3   2   4  356.56   12.80 
  -3  -2  -4  360.96   10.80 
  -3  -2  -4  333.17   11.20 
  -3  -2  -4  344.87   13.10 
   3   2   5  852.91   22.20 
  -3  -2  -5  846.22   19.20 
  -3  -2  -5  909.81   18.90 
  -3  -2  -5  930.11   23.90 
  -3  -2  -6  821.52   19.90 
  -3  -2  -6  835.62   20.30 
  -3  -2  -6  852.21   25.80 
   3   2   7  754.22   24.30 
  -3  -2  -7  779.62   21.70 
   3   2   8   10.60    3.00 
  -3  -2  -8   12.30    3.00 
  -3  -2  -8   14.20    2.80 
   3   2   9  239.38   14.40 
  -3  -2  -9  256.97   13.80 
  -3  -2  -9  221.78   11.40 
  -3  -2  -9  266.67   17.20 
  -3  -2  -9  237.88   12.20 
  -3  -2 -10  160.98    9.60 
  -3  -2 -10  177.78   10.30 
  -3  -2 -11  117.19    7.70 
  -3  -2 -12    8.50    1.80 
  -3  -3   8    4.30    1.20 
  -3  -3   7    4.60    1.50 
  -3  -3   6   -0.30    0.60 
  -3  -3   6    0.40    0.80 
  -3  -3   5   55.59    5.60 
  -3  -3   4    2.50    1.30 
  -3  -3   4    3.30    1.80 
  -3  -3   3    8.60    2.80 
  -3  -3   2    9.40    2.80 
  -3  -3   1  194.68   11.20 
  -3  -3   1  187.88    8.40 
  -3  -3   0  425.66   12.90 
  -3  -3   0  430.06   15.00 
  -3  -3   0  430.36   11.80 
  -3  -3  -1 2093.79   28.30 
  -3  -3  -1 2067.99   29.20 
  -3  -3  -1 2075.59   25.10 
  -3  -3  -2  482.55   12.60 
  -3  -3  -2  477.85   13.70 
  -3  -3  -2  490.05   12.00 
  -3  -3  -3 2103.89   29.90 
  -3  -3  -3 2099.29   25.40 
  -3  -3  -4 2027.60   26.30 
  -3  -3  -4 2076.49   31.70 
   3   3   4 2067.59   29.40 
   3   3   5  714.93   19.60 
  -3  -3  -5  713.83   17.40 
  -3  -3  -5  738.93   21.00 
  -3  -3  -6  712.83   19.10 
  -3  -3  -6  765.62   23.90 
  -3  -3  -7   75.89    6.80 
   3   3   7   68.99    7.20 
   3   3   8  452.15   19.30 
  -3  -3  -8  460.65   18.20 
   3   3   9  468.15   19.80 
  -3  -3  -9  437.36   18.40 
  -3  -3  -9  413.16   15.50 
  -3  -3  -9  432.86   16.80 
  -3  -3 -10    0.70    0.90 
  -3  -3 -11    0.10    0.90 
  -3  -3 -12    8.00    1.80 
  -3  -4   7    1.00    0.70 
  -3  -4   6   -0.30    1.00 
  -3  -4   5   65.29    5.80 
  -3  -4   4  130.79    8.70 
  -3  -4   3  286.27   12.80 
  -3  -4   3  342.77   18.40 
  -3  -4   2  457.35   20.40 
  -3  -4   1 1133.09   29.60 
  -3  -4   1 1135.29   22.60 
  -3  -4   0 1051.89   25.30 
  -3  -4   0 1023.30   20.20 
  -3  -4  -1  668.03   17.60 
  -3  -4  -1  655.73   15.50 
  -3  -4  -2  703.33   15.80 
   3   4   3  370.56   10.80 
  -3  -4  -3  357.96   12.10 
  -3  -4  -3  358.56   11.40 
  -3  -4  -4  241.98   10.70 
  -3  -4  -4  237.78    9.50 
   3   4   4  266.17   10.40 
  -3  -4  -5  792.42   18.70 
  -3  -4  -5  837.72   22.00 
   3   4   5  814.42   20.20 
  -3  -4  -6  423.46   15.00 
  -3  -4  -6  444.26   18.10 
   3   4   6  394.36   15.80 
  -3  -4  -7  885.31   23.70 
  -3  -4  -7  901.21   28.70 
  -3  -4  -8  117.59    9.30 
  -3  -4  -8   96.49    7.70 
   3   4   8  105.69    9.30 
  -3  -4  -9  207.88   12.90 
  -3  -4  -9  191.88   11.30 
   3   4   9  198.68   12.90 
  -3  -4 -10   16.10    3.30 
  -3  -4 -11   22.50    3.60 
  -3  -4 -12    3.70    1.30 
  -3  -4 -13    0.60    0.50 
  -3  -5   7    0.70    0.50 
  -3  -5   6    9.10    2.00 
  -3  -5   4   13.90    2.80 
  -3  -5   3  312.37   13.50 
  -3  -5   2  448.16   15.30 
  -3  -5   2  428.56   20.80 
  -3  -5   1  570.94   22.50 
  -3  -5   1  693.23   19.30 
  -3  -5   0  722.13   22.80 
  -3  -5   0  733.03   18.70 
  -3  -5  -1  204.48   10.60 
  -3  -5  -1  219.48    9.80 
  -3  -5  -2  707.73   17.30 
  -3  -5  -3  280.87   10.90 
   3   5   3  301.97   10.10 
  -3  -5  -4  463.25   14.10 
   3   5   4  468.25   13.70 
  -3  -5  -5   51.59    5.30 
  -3  -5  -5   46.00    4.70 
   3   5   5   49.10    4.90 
   3   5   6   13.70    2.90 
  -3  -5  -6   14.40    3.20 
  -3  -5  -6   17.70    3.20 
  -3  -5  -7   81.79    7.20 
  -3  -5  -7   77.59    8.20 
   3   5   7   67.89    7.00 
  -3  -5  -8  165.18   11.00 
  -3  -5  -8  167.68   13.20 
  -3  -5  -8  129.49   11.30 
  -3  -5  -8  152.28    9.80 
   3   5   8  145.69   10.60 
  -3  -5  -9   34.50    5.30 
  -3  -5  -9   30.20    5.90 
  -3  -5  -9   31.80    5.40 
  -3  -5  -9   31.00    4.60 
   3   5   9   37.80    5.60 
  -3  -5 -10   17.50    3.40 
  -3  -5 -11   14.30    2.90 
  -3  -5 -12    6.40    1.70 
  -3  -5 -13   19.70    2.30 
  -3  -6   6   31.90    3.00 
  -3  -6   3  135.09    8.50 
  -3  -6   2   10.40    2.50 
  -3  -6   1    2.60    1.40 
  -3  -6   1    1.60    0.90 
  -3  -6   1    1.10    1.30 
  -3  -6   0    1.90    0.90 
  -3  -6   0    3.80    1.40 
  -3  -6  -1   46.50    4.80 
  -3  -6  -2  207.88   10.00 
   3   6   3    8.10    1.70 
  -3  -6  -3    8.80    2.10 
   3   6   4    9.90    2.00 
  -3  -6  -4    6.70    1.90 
  -3  -6  -5   39.40    4.50 
   3   6   5   42.20    4.60 
   3   6   6  328.87   14.00 
  -3  -6  -6  315.17   13.50 
   3   6   7  263.57   13.40 
  -3  -6  -7  241.08   11.10 
  -3  -6  -7  241.08   16.00 
  -3  -6  -7  248.08   11.90 
  -3  -6  -7  258.97   12.90 
  -3  -6  -8  259.67   11.90 
   3   6   8  291.47   14.80 
  -3  -6  -8  245.58   16.40 
  -3  -6  -8  298.77   13.80 
  -3  -6  -8  305.87   14.90 
  -3  -6  -9  325.37   13.30 
  -3  -6  -9  356.66   18.80 
  -3  -6  -9  342.87   15.30 
  -3  -6 -10  233.18   13.90 
  -3  -6 -10  209.48   11.80 
  -3  -6 -11   12.60    2.70 
  -3  -6 -12   26.20    3.40 
  -3  -6 -13    1.80    0.70 
  -3  -7   5   42.20    3.50 
   3   7  -2   85.19    6.80 
  -3  -7   1   38.10    4.60 
   3   7  -1   34.40    4.40 
  -3  -7   0  130.49    8.30 
  -3  -7   0  128.29    8.80 
   3   7   1    4.70    1.60 
  -3  -7  -1    4.60    1.60 
  -3  -7  -1    5.00    1.50 
  -3  -7  -2  222.58   10.10 
  -3  -7  -2  224.18   11.10 
  -3  -7  -3   -0.60    0.70 
  -3  -7  -3    2.00    1.00 
  -3  -7  -4   83.69    6.10 
  -3  -7  -4   77.19    6.40 
   3   7   4   76.89    5.80 
  -3  -7  -5  146.09    8.20 
  -3  -7  -5  152.68   11.40 
  -3  -7  -5  141.79    8.90 
   3   7   5  146.59    8.60 
  -3  -7  -6  114.69    7.40 
  -3  -7  -6  133.29   11.50 
  -3  -7  -6  114.39    8.30 
   3   7   6  117.69    8.30 
  -3  -7  -7   55.19    5.30 
  -3  -7  -7   57.09    8.00 
  -3  -7  -7   61.89    6.00 
   3   7   7   57.79    6.20 
  -3  -7  -7   63.49    6.40 
  -3  -7  -8   27.50    3.80 
  -3  -7  -8   28.10    4.50 
  -3  -7  -8   25.40    5.40 
  -3  -7  -8   25.00    4.00 
   3   7   8   34.40    4.90 
  -3  -7  -9   -1.30    1.40 
  -3  -7  -9   -1.60    1.20 
  -3  -7 -10    0.60    0.80 
  -3  -7 -10    3.00    1.80 
  -3  -7 -11   62.29    6.30 
  -3  -7 -11   62.89    5.90 
  -3  -7 -12   14.70    2.40 
  -3  -7 -13   30.50    2.70 
   3   8  -3    1.10    0.60 
   3   8  -2    0.30    0.50 
   3   8  -1    3.30    1.40 
   3   8   0   12.20    2.70 
  -3  -8   0   13.50    2.70 
  -3  -8  -1   93.29    7.00 
   3   8   1   84.89    7.10 
   3   8   2    4.00    1.50 
  -3  -8  -2    2.60    1.30 
  -3  -8  -3  210.08   10.00 
  -3  -8  -3  208.08   10.90 
  -3  -8  -4  764.52   19.10 
  -3  -8  -4  751.72   20.70 
   3   8   4  729.53   18.40 
  -3  -8  -5  212.48   10.00 
  -3  -8  -5  212.68   13.40 
  -3  -8  -5  208.48   11.10 
   3   8   5  212.18   10.40 
  -3  -8  -6  487.65   15.40 
  -3  -8  -6  516.85   22.30 
  -3  -8  -6  484.55   17.30 
   3   8   6  495.85   16.80 
  -3  -8  -7  122.29    7.80 
  -3  -8  -7  122.29   11.40 
  -3  -8  -8   59.89    5.40 
  -3  -8  -8   56.39    7.90 
  -3  -8  -9  228.68   15.30 
  -3  -8  -9  229.68   12.00 
  -3  -8 -10   11.30    2.60 
  -3  -8 -10   19.70    4.20 
  -3  -8 -11   27.90    4.20 
  -3  -8 -11   31.70    4.00 
   3   8  11   32.30    3.20 
  -3  -8 -12    1.60    0.90 
   3   8  12    2.50    0.80 
   3   9  -2   12.00    1.90 
   3   9  -1   38.40    4.00 
  -3  -9   1   30.60    3.30 
   3   9   0   64.79    5.70 
   3   9   1   62.09    5.90 
  -3  -9  -1   61.39    5.60 
  -3  -9  -2  346.77   13.30 
   3   9   2  315.07   13.50 
  -3  -9  -3  236.58   10.80 
  -3  -9  -4   18.80    3.10 
  -3  -9  -5   92.19    6.70 
  -3  -9  -5   89.79    8.20 
  -3  -9  -6    5.70    1.70 
  -3  -9  -6    5.80    2.30 
   3   9   6    8.50    2.00 
  -3  -9  -7  107.69    7.00 
  -3  -9  -7  105.89   10.00 
  -3  -9  -8   97.09    9.80 
  -3  -9  -9    8.40    2.90 
  -3  -9 -10   23.80    4.30 
   3   9  10   33.60    3.60 
  -3  -9 -11    2.10    1.20 
   3   9  11    4.40    1.20 
  -3  -9 -12    1.30    0.70 
   3  10   0   66.79    5.00 
  -3 -10   0   58.39    4.10 
   3  10   1  115.89    7.20 
   3  10   2   75.29    6.10 
  -3 -10  -2   74.09    5.80 
  -3 -10  -3   37.10    4.10 
   3  10   3   31.60    4.10 
  -3 -10  -4  130.59    7.70 
  -3 -10  -5   86.09    6.20 
  -3 -10  -6   48.60    4.60 
  -3 -10  -6   42.10    5.20 
   3  10   6   42.80    4.10 
  -3 -10  -7   25.70    4.40 
   3  10   7   31.00    3.70 
  -3 -10  -8    1.40    1.40 
   3  10   8    2.40    1.10 
  -3 -10  -9    2.50    1.30 
   3  10   9    4.00    1.30 
  -3 -10 -10   -0.80    0.90 
   3  10  10   -0.40    0.50 
  -3 -10 -11    6.70    1.70 
   3  10  11    7.40    1.30 
   3  11   1    7.10    1.40 
   3  11   2   30.00    3.30 
   3  11   3   19.10    2.80 
   3  11   4    6.10    1.60 
  -3 -11  -4    8.00    1.80 
   3  11   5    2.70    1.20 
  -3 -11  -5   -0.40    0.60 
   3  11   7    1.30    0.70 
  -3 -11  -8   -0.60    0.70 
   3  11   8    0.70    0.50 
  -3 -11  -9    2.00    1.00 
   3  11   9    2.00    0.80 
  -3 -11 -10    9.30    1.90 
   3  11  10   10.00    1.50 
   3  12   5    1.00    0.60 
   3  12   6    7.30    1.60 
   3  12   7    6.40    1.50 
  -4   9   6    1.90    0.90 
  -4   9   5    1.60    0.90 
  -4   9   4    1.20    0.70 
  -4   9   3    0.00    0.80 
  -4   9   2    0.10    0.60 
  -4   9   2    0.50    0.60 
  -4   9   1    0.10    0.70 
  -4   9   1    1.20    1.00 
  -4   9   0    1.10    0.80 
  -4   9   0    0.90    0.70 
  -4   9  -1   -0.20    0.50 
  -4   9  -2   19.60    2.50 
  -4   8   7    0.70    0.70 
  -4   8   6    6.60    1.90 
  -4   8   5   12.90    2.70 
  -4   8   4   17.50    3.30 
  -4   8   3    5.30    1.90 
  -4   8   2   11.30    2.60 
  -4   8   1    2.30    1.40 
  -4   8   1    1.30    0.70 
  -4   8   0    4.60    1.60 
  -4   8   0    4.60    1.70 
  -4   8  -1    5.70    1.70 
  -4   8  -1    5.40    1.70 
  -4   8  -2   -0.20    0.60 
  -4   8  -2    0.30    0.60 
  -4   8  -3   12.00    2.10 
  -4   8  -3   13.20    2.40 
  -4   8  -4   11.40    2.00 
  -4   7   8    0.70    0.60 
  -4   7   7    1.10    0.90 
  -4   7   6    0.30    0.90 
  -4   7   5    0.60    0.80 
  -4   7   4    1.90    1.30 
  -4   7   3    2.30    1.30 
  -4   7   2    5.00    1.80 
  -4   7   1   -0.10    0.90 
  -4   7   0    0.30    0.70 
  -4   7   0    0.90    0.80 
  -4   7  -1   -0.10    0.50 
  -4   7  -1    0.50    0.60 
  -4   7  -2    8.40    2.10 
  -4   7  -2    8.80    2.30 
  -4   7  -3   -0.80    0.80 
  -4   7  -3    0.40    0.70 
  -4   7  -4   49.70    4.60 
  -4   7  -4   49.00    4.70 
  -4   7  -5    1.80    0.90 
  -4   7  -6    5.40    1.20 
  -4   6   8    1.40    0.80 
  -4   6   7    0.40    0.80 
  -4   6   6    0.70    0.90 
  -4   6   5    5.80    2.00 
  -4   6   4    1.40    1.30 
  -4   6   3    2.80    1.40 
  -4   6   2   11.40    2.70 
  -4   6   1   -0.40    0.70 
  -4   6   0    0.60    0.90 
  -4   6  -1    0.90    0.80 
  -4   6  -1   -0.10    0.80 
  -4   6  -2    2.60    1.40 
  -4   6  -2    0.30    0.60 
  -4   6  -3   47.60    5.20 
  -4   6  -3   58.99    5.80 
  -4   6  -4    7.20    2.10 
  -4   6  -4    4.20    1.70 
  -4   6  -5   58.59    5.30 
  -4   6  -5   52.19    5.10 
  -4   6  -6   37.40    3.90 
  -4   6  -7    8.00    1.50 
  -4   5   8   -0.50    0.60 
  -4   5   7    0.60    0.90 
  -4   5   7   -0.60    0.90 
  -4   5   6   -1.00    1.00 
  -4   5   6   -1.70    1.10 
  -4   5   5    0.10    0.70 
  -4   5   5   -1.50    1.00 
  -4   5   4    5.00    2.00 
  -4   5   4   10.60    2.40 
  -4   5   3    5.90    2.10 
  -4   5   3   11.50    2.70 
  -4   5   2    9.50    2.50 
   4  -5  -2    9.30    2.50 
  -4   5   1   19.40    3.50 
   4  -5  -1   21.60    3.70 
  -4   5   0   17.90    3.20 
  -4   5  -1  174.58   10.20 
  -4   5  -1  199.48   13.20 
  -4   5  -2   18.50    3.40 
  -4   5  -2   21.70    4.40 
  -4   5  -2   18.00    3.10 
  -4   5  -3   50.09    5.60 
  -4   5  -3   48.30    5.30 
  -4   5  -4   13.10    2.90 
  -4   5  -4    9.90    2.40 
  -4   5  -5    2.40    1.20 
  -4   5  -5    3.70    1.50 
  -4   5  -6   11.70    2.50 
  -4   5  -6    7.80    2.00 
  -4   5  -7    1.20    0.90 
  -4   5  -8    1.20    0.70 
  -4   4   8    0.70    0.50 
  -4   4   7   -0.50    0.80 
  -4   4   7    0.00    0.60 
  -4   4   6    5.60    2.00 
  -4   4   6   25.00    3.80 
  -4   4   5    1.80    1.30 
  -4   4   5    6.70    2.00 
  -4   4   4   -0.40    0.70 
  -4   4   4    0.20    0.70 
  -4   4   3   76.69    7.20 
  -4   4   3   98.09    7.50 
  -4   4   2    0.70    0.80 
  -4   4   2    1.80    1.10 
  -4   4   2    1.90    1.20 
  -4   4   2   -1.30    1.00 
  -4   4   1  110.29    8.00 
  -4   4   1  139.59    9.10 
  -4   4   1  127.49    8.90 
  -4   4   0   84.89    7.00 
  -4   4  -1   64.39    6.00 
  -4   4  -1   69.39    7.30 
  -4   4  -2  196.88   10.50 
  -4   4  -2  225.08   11.20 
  -4   4  -2  239.28   13.90 
  -4   4  -3   98.39    7.60 
  -4   4  -3  105.79    9.30 
  -4   4  -4   94.89    7.60 
  -4   4  -4   82.99    8.10 
  -4   4  -4   76.89    6.60 
  -4   4  -5   48.80    5.50 
  -4   4  -5   41.20    4.90 
  -4   4  -6   66.09    6.40 
  -4   4  -6   60.09    5.80 
  -4   4  -7   13.60    2.70 
  -4   4  -8   12.10    2.20 
  -4   4  -9    0.10    0.40 
  -4   3   9    0.30    0.30 
  -4   3   8    0.90    0.70 
  -4   3   7    1.30    0.90 
  -4   3   6   -0.80    0.90 
  -4   3   5   29.90    4.30 
  -4   3   4   20.50    3.80 
  -4   3   4   29.60    4.30 
  -4   3   4   28.00    4.50 
  -4   3   3  101.99    8.80 
  -4   3   3   90.89    7.90 
  -4   3   3   97.59    8.40 
  -4   3   3   96.39    7.40 
  -4   3   2   36.80    4.90 
  -4   3   2   37.60    4.90 
  -4   3   1  169.28   10.00 
  -4   3   1  161.88   10.10 
  -4   3   0   59.29    5.70 
  -4   3   0   53.39    5.80 
  -4   3  -1   27.00    3.80 
  -4   3  -1   22.10    3.80 
  -4   3  -1   22.00    3.70 
  -4   3  -2   37.40    5.20 
  -4   3  -3   26.80    4.50 
  -4   3  -4   54.59    5.60 
  -4   3  -4   55.99    6.50 
  -4   3  -4   62.99    6.20 
  -4   3  -5   38.50    4.90 
  -4   3  -5   30.30    4.70 
  -4   3  -5   34.60    4.40 
  -4   3  -5   37.00    5.50 
  -4   3  -6    6.50    2.10 
  -4   3  -6    6.80    2.40 
  -4   3  -6    7.30    2.00 
  -4   3  -7   21.40    3.70 
  -4   3  -7   16.50    3.00 
  -4   3  -7   13.10    3.30 
  -4   3  -8    3.90    1.40 
  -4   3  -8    5.50    2.00 
  -4   3  -9    0.30    0.60 
  -4   3  -9   -0.50    0.70 
  -4   3 -10   26.20    2.50 
  -4   2   8    0.30    0.50 
  -4   2   7   11.90    2.50 
  -4   2   6    8.20    2.20 
  -4   2   5   66.49    6.50 
  -4   2   4   28.20    4.90 
  -4   2   4   20.60    4.10 
  -4   2   4   33.70    4.60 
  -4   2   3   36.50    5.30 
  -4   2   3   30.00    4.70 
  -4   2   3   25.90    4.40 
  -4   2   3   31.10    4.30 
  -4   2   2  290.37   14.10 
  -4   2   2  290.67   13.70 
  -4   2   1    0.10    0.60 
  -4   2   1    0.50    0.80 
  -4   2   0  249.18   11.70 
  -4   2   0  242.98   12.00 
  -4   2  -1   56.19    5.30 
  -4   2  -1   49.99    5.50 
  -4   2  -2   86.89    7.40 
  -4   2  -2   93.09    6.80 
  -4   2  -2   86.49    7.30 
  -4   2  -3   63.59    6.50 
  -4   2  -3   54.29    6.00 
  -4   2  -4    1.60    1.20 
  -4   2  -4    3.70    1.70 
  -4   2  -5   15.00    2.90 
  -4   2  -5   12.30    2.90 
  -4   2  -5   12.70    3.30 
  -4   2  -6   -0.20    0.60 
  -4   2  -6   -0.80    0.80 
  -4   2  -6    0.30    0.60 
  -4   2  -6   -2.00    1.50 
  -4   2  -7    7.20    2.20 
  -4   2  -7    5.40    1.70 
  -4   2  -7    3.00    1.80 
  -4   2  -8   22.90    3.50 
  -4   2  -8   28.70    5.10 
  -4   2  -9    1.00    0.80 
  -4   2  -9    2.00    1.40 
  -4   2 -10    1.90    0.80 
  -4   2 -10    2.30    1.10 
  -4   1   8   26.10    2.90 
  -4   1   7   49.70    4.80 
  -4   1   6   75.79    6.50 
  -4   1   5   55.19    5.90 
  -4   1   4  210.28   13.30 
  -4   1   4  211.38   11.50 
  -4   1   3   96.79    8.50 
  -4   1   3  100.69    8.50 
  -4   1   3   84.99    8.20 
  -4   1   3  104.69    8.80 
  -4   1   3  105.19    7.90 
  -4   1   2  124.29    9.30 
  -4   1   2  123.99    9.10 
  -4   1   1  149.59    9.70 
  -4   1   1  154.98    9.80 
  -4   1   0  147.19    9.20 
  -4   1   0  148.69    9.30 
  -4   1  -1   -0.40    1.30 
  -4   1  -1    0.00    0.80 
  -4   1  -2   29.30    3.80 
  -4   1  -2   25.30    3.40 
  -4   1  -2   23.20    3.80 
  -4   1  -3   55.49    5.70 
  -4   1  -3   62.19    5.40 
  -4   1  -3   56.89    6.10 
  -4   1  -4   86.29    7.30 
  -4   1  -4   83.59    7.70 
   4  -1   5   -0.60    1.10 
  -4   1  -5    0.70    1.00 
  -4   1  -5    1.70    1.30 
   4  -1   6  508.95   21.90 
  -4   1  -6  532.45   18.80 
  -4   1  -6  493.45   21.10 
   4  -1   7   39.40    6.10 
  -4   1  -7   41.20    5.20 
  -4   1  -7   44.90    5.30 
  -4   1  -7   42.30    4.80 
  -4   1  -8  115.39    7.90 
  -4   1  -9    9.30    2.20 
  -4   1 -10    8.90    1.90 
  -4   1 -10    9.60    2.60 
  -4   1 -11   47.80    3.60 
  -4   1 -11   43.10    4.10 
  -4   0   8   17.00    2.10 
  -4   0   7    0.40    0.70 
  -4   0   6   19.80    3.40 
  -4   0   5   11.20    2.70 
  -4   0   4   -2.10    1.30 
  -4   0   4    0.40    1.40 
  -4   0   4    2.60    1.50 
  -4   0   3   11.70    2.70 
  -4   0   3   11.80    3.00 
  -4   0   3    7.50    2.30 
  -4   0   3    8.80    2.80 
  -4   0   3   11.60    3.10 
  -4   0   2   31.90    4.50 
  -4   0   2   27.60    4.40 
  -4   0   1   15.00    3.10 
  -4   0   1   14.20    3.00 
  -4   0   0  348.67   14.10 
  -4   0   0  347.87   14.20 
  -4   0  -1  157.58    9.00 
  -4   0  -1  154.98    9.40 
  -4   0  -2  245.88   10.10 
  -4   0  -2  226.08   10.30 
  -4   0  -2  237.98   11.80 
  -4   0  -3   55.99    5.30 
  -4   0  -3   53.89    4.80 
  -4   0  -3   57.39    6.00 
   4   0   4  505.25   18.40 
  -4   0  -4  478.85   16.50 
  -4   0  -4  487.25   18.60 
   4   0   5  464.85   19.20 
  -4   0  -5  526.75   17.90 
  -4   0  -5  507.75   20.30 
   4   0   6  156.58   11.70 
  -4   0  -6  184.78   10.90 
  -4   0  -6  155.98   12.10 
   4   0   7  105.69    9.90 
  -4   0  -7  101.99    8.10 
  -4   0  -7  107.79    7.90 
  -4   0  -7  102.79    7.40 
  -4   0  -7   92.59    9.80 
  -4   0  -8   63.89    5.90 
  -4   0  -9  299.47   12.40 
  -4   0 -10   31.10    3.80 
  -4   0 -11   11.50    2.60 
  -4  -1   7    7.10    1.60 
  -4  -1   7    8.80    1.80 
  -4  -1   6    1.70    1.10 
  -4  -1   5   17.80    3.20 
  -4  -1   4    3.70    1.70 
  -4  -1   4    2.50    1.60 
  -4  -1   3    6.00    1.90 
  -4  -1   3    7.60    2.40 
  -4  -1   2   45.50    5.40 
  -4  -1   2   44.80    6.10 
  -4  -1   1  241.38   12.10 
  -4  -1   1  242.48   13.00 
  -4  -1   0  558.14   18.00 
  -4  -1   0  545.65   17.80 
  -4  -1  -1  405.66   14.60 
  -4  -1  -1  400.26   15.10 
  -4  -1  -2 1290.97   24.60 
  -4  -1  -2 1222.38   26.60 
  -4  -1  -3  767.82   17.80 
  -4  -1  -3  786.82   21.80 
  -4  -1  -4  384.76   14.10 
  -4  -1  -4  393.66   12.20 
  -4  -1  -4  379.66   16.10 
   4   1   5  373.56   16.20 
  -4  -1  -5  398.46   15.20 
  -4  -1  -5  395.56   17.80 
   4   1   6   21.40    4.30 
  -4  -1  -6   20.90    3.50 
  -4  -1  -6   24.70    4.90 
   4   1   7  755.12   25.90 
  -4  -1  -7  810.42   22.80 
  -4  -1  -7  829.72   30.10 
   4   1   8   90.59    9.10 
  -4  -1  -8   96.29    7.20 
  -4  -1  -8   85.69   10.00 
  -4  -1  -9    8.30    2.10 
  -4  -1 -10    1.60    1.10 
  -4  -1 -11    3.80    1.60 
  -4  -1 -12    7.40    1.70 
  -4  -2   7    2.10    0.90 
  -4  -2   7    3.20    1.10 
  -4  -2   6   38.60    4.10 
  -4  -2   6   46.20    4.50 
  -4  -2   5   42.30    4.80 
  -4  -2   4  145.79    9.40 
  -4  -2   3  234.48   15.30 
  -4  -2   3  254.17   12.60 
  -4  -2   2  324.47   14.70 
  -4  -2   2  307.57   13.80 
  -4  -2   2  283.07   16.20 
  -4  -2   2  297.37   14.50 
  -4  -2   2  267.37   12.70 
  -4  -2   1  736.23   20.90 
  -4  -2   1  722.73   24.00 
  -4  -2   0  199.08   10.70 
  -4  -2   0  203.48   11.50 
  -4  -2  -1  559.54   17.20 
  -4  -2  -1  571.14   17.90 
  -4  -2  -2   58.69    5.20 
  -4  -2  -2   59.79    5.80 
  -4  -2  -3  423.36   13.10 
  -4  -2  -3  400.26   15.40 
  -4  -2  -4  433.46   17.00 
   4   2   5  419.36   16.30 
  -4  -2  -5  440.26   18.50 
  -4  -2  -6  924.61   23.20 
  -4  -2  -6  928.81   29.70 
   4   2   7    4.30    2.10 
  -4  -2  -7    0.40    0.90 
  -4  -2  -7    1.70    1.90 
  -4  -2  -7    2.50    1.80 
   4   2   8   40.40    6.00 
  -4  -2  -8   44.30    6.00 
  -4  -2  -8   34.10    6.50 
  -4  -2  -9    1.10    0.90 
  -4  -2 -10    4.50    1.60 
  -4  -2 -11    8.70    2.50 
  -4  -2 -12    2.80    1.20 
  -4  -3   6    1.60    0.80 
  -4  -3   6    2.50    1.00 
  -4  -3   5   50.09    5.00 
  -4  -3   5   53.59    5.10 
  -4  -3   4  102.99    7.70 
  -4  -3   3  353.76   14.80 
  -4  -3   2  374.46   19.40 
  -4  -3   2  359.66   14.90 
  -4  -3   1  370.06   18.00 
  -4  -3   0  222.48   11.10 
  -4  -3   0  221.38   12.70 
  -4  -3  -1  340.97   14.10 
  -4  -3  -1  345.37   13.70 
  -4  -3  -2  383.76   13.50 
  -4  -3  -2  404.26   14.90 
  -4  -3  -3  194.18   10.70 
  -4  -3  -3  200.88    8.70 
  -4  -3  -4   78.59    7.20 
  -4  -3  -4   74.49    5.50 
   4   3   5    9.30    2.20 
  -4  -3  -5    8.10    1.90 
  -4  -3  -5    7.00    2.30 
   4   3   6   77.39    7.40 
  -4  -3  -6   82.29    8.70 
  -4  -3  -6   84.49    7.00 
   4   3   7   66.69    7.30 
  -4  -3  -7  102.69    8.50 
  -4  -3  -7   95.59   10.30 
  -4  -3  -7   85.09    8.60 
   4   3   8   50.79    6.60 
  -4  -3  -8   64.89    7.30 
  -4  -3  -8   54.99    8.20 
  -4  -3  -8   64.49    8.00 
  -4  -3  -9   63.09    8.00 
  -4  -3 -10    5.80    1.90 
  -4  -3 -11   41.50    5.40 
  -4  -3 -12   22.50    3.20 
  -4  -4   6   17.90    2.20 
  -4  -4   5  125.69    7.20 
  -4  -4   5  141.89    7.50 
  -4  -4   4   31.10    4.00 
  -4  -4   4   34.70    4.20 
  -4  -4   3   17.50    3.30 
  -4  -4   2    2.40    1.30 
  -4  -4   2    2.90    1.90 
  -4  -4   1   -0.30    0.80 
  -4  -4   0  206.88   13.00 
  -4  -4   0  194.48    9.50 
  -4  -4  -1    3.00    1.20 
  -4  -4  -1    5.50    1.90 
  -4  -4  -2   45.40    4.40 
  -4  -4  -3   99.09    7.50 
  -4  -4  -3  100.09    6.50 
  -4  -4  -4    7.00    1.80 
  -4  -4  -4    7.40    2.20 
  -4  -4  -5  412.36   17.30 
  -4  -4  -5  401.66   14.30 
   4   4   5  410.06   14.70 
  -4  -4  -6  568.24   22.40 
  -4  -4  -6  513.25   17.40 
   4   4   6  518.85   18.30 
  -4  -4  -7  266.57   16.70 
   4   4   7  229.98   13.20 
  -4  -4  -7  269.77   13.70 
  -4  -4  -8  951.90   27.60 
  -4  -4  -8  928.21   33.60 
  -4  -4  -8  849.81   27.00 
  -4  -4  -9  112.89   10.10 
  -4  -4 -10   65.59    7.30 
  -4  -4 -11   27.50    4.20 
  -4  -4 -12    0.10    0.40 
  -4  -5   5   11.60    1.80 
  -4  -5   5   10.70    1.80 
  -4  -5   4   11.60    2.30 
  -4  -5   4   12.00    2.30 
  -4  -5   3   30.10    4.00 
  -4  -5   2   80.89    7.00 
  -4  -5   1   37.20    6.20 
  -4  -5   0   -1.20    0.90 
  -4  -5   0   -0.10    0.40 
  -4  -5   0   -1.20    1.10 
  -4  -5  -1  186.08    8.90 
  -4  -5  -1  164.68   10.30 
  -4  -5  -1  175.78    9.30 
  -4  -5  -2   -0.10    0.40 
  -4  -5  -3   61.69    5.50 
  -4  -5  -4  345.37   13.20 
  -4  -5  -5   78.29    6.10 
  -4  -5  -5   88.39    8.90 
  -4  -5  -5   85.69    6.80 
  -4  -5  -6  192.48   10.80 
  -4  -5  -6  166.28    9.40 
  -4  -5  -6  190.78   12.40 
  -4  -5  -6  189.18   13.80 
   4   5   6  175.38   10.30 
  -4  -5  -7   27.50    4.00 
  -4  -5  -7   33.30    5.80 
  -4  -5  -7   29.00    5.50 
   4   5   7   29.40    4.60 
  -4  -5  -7   29.40    4.50 
  -4  -5  -8    9.70    2.70 
  -4  -5  -8   10.60    2.60 
  -4  -5  -8   15.70    4.00 
  -4  -5  -9   27.10    4.10 
  -4  -5  -9   30.70    5.30 
  -4  -5 -10  130.59    8.40 
  -4  -5 -11   26.60    3.40 
  -4  -5 -12   86.79    4.90 
  -4  -6   4    7.40    1.50 
  -4  -6   4    5.90    1.50 
  -4  -6   3    3.40    1.40 
  -4  -6   2    1.80    1.10 
  -4  -6   1   58.39    5.30 
  -4  -6   0   42.10    4.60 
  -4  -6  -1   -0.10    0.40 
  -4  -6  -1    2.30    1.20 
  -4  -6  -2  734.23   18.20 
  -4  -6  -2  673.83   21.30 
  -4  -6  -2  718.73   19.60 
  -4  -6  -3  531.15   15.60 
  -4  -6  -3  498.65   19.30 
  -4  -6  -3  533.25   16.90 
  -4  -6  -4  718.83   18.40 
  -4  -6  -4  750.82   24.90 
  -4  -6  -4  723.63   20.00 
  -4  -6  -5  375.46   13.70 
  -4  -6  -5  408.06   19.60 
  -4  -6  -5  380.66   14.90 
  -4  -6  -6  239.88   11.20 
  -4  -6  -6  267.57   16.90 
  -4  -6  -6  249.68   12.60 
   4   6   6  238.68   11.70 
  -4  -6  -7  242.28   11.80 
  -4  -6  -7  240.38   16.70 
  -4  -6  -7  267.87   13.70 
   4   6   7  241.88   12.60 
  -4  -6  -8  221.28   11.40 
  -4  -6  -8  174.28   14.00 
  -4  -6  -9   91.19    7.20 
  -4  -6  -9  107.29   10.30 
  -4  -6 -10   13.90    2.70 
  -4  -6 -10   15.40    3.50 
  -4  -6 -10   15.50    3.00 
  -4  -6 -11   59.49    4.80 
  -4  -6 -11   60.69    5.30 
  -4  -6 -12    1.50    0.70 
  -4  -7   3   11.60    1.90 
  -4  -7   2   50.59    4.70 
  -4  -7   1   45.40    4.50 
  -4  -7   1   49.40    5.00 
  -4  -7   0  141.59    8.30 
  -4  -7  -1  507.15   15.80 
  -4  -7  -2  295.47   12.00 
  -4  -7  -3   43.70    4.60 
  -4  -7  -3   32.50    4.70 
  -4  -7  -4  169.68    9.10 
  -4  -7  -4  167.18   11.60 
  -4  -7  -4  165.88    9.80 
  -4  -7  -5   55.39    5.30 
  -4  -7  -5   64.99    7.80 
  -4  -7  -5   57.29    5.90 
  -4  -7  -6  258.87   11.70 
  -4  -7  -6  299.37   17.60 
  -4  -7  -7  191.48   10.20 
  -4  -7  -7  227.78   16.00 
  -4  -7  -8    7.30    2.00 
  -4  -7  -8    3.20    2.20 
  -4  -7  -9  136.29    8.40 
  -4  -7  -9  140.79   12.00 
  -4  -7 -10    0.90    0.80 
  -4  -7 -10    3.00    1.70 
  -4  -7 -11   -0.70    0.60 
  -4  -7 -11    1.80    1.10 
  -4  -8   2   45.90    3.50 
  -4  -8   1   95.59    6.20 
  -4  -8   0  211.68    9.70 
  -4  -8  -1  105.59    7.10 
  -4  -8  -2   94.49    6.70 
  -4  -8  -3  310.57   12.20 
  -4  -8  -4   82.19    6.30 
  -4  -8  -4   83.89    7.80 
  -4  -8  -5  196.98    9.80 
  -4  -8  -5  198.18   12.90 
  -4  -8  -6    2.80    1.30 
  -4  -8  -6    0.20    0.90 
  -4  -8  -7   -0.90    0.80 
  -4  -8  -7   -0.60    1.10 
  -4  -8  -8   15.50    2.80 
  -4  -8  -8   15.40    4.10 
  -4  -8  -9    9.90    2.10 
  -4  -8  -9    7.40    2.80 
  -4  -8 -10    7.50    1.70 
  -4  -8 -10    9.80    2.70 
  -4  -8 -11    8.10    2.10 
  -4  -9   0   17.40    2.50 
  -4  -9  -1   44.80    4.20 
  -4  -9  -2   62.39    5.20 
  -4  -9  -3    7.00    1.80 
  -4  -9  -4   11.90    2.40 
  -4  -9  -5   -1.40    0.90 
  -4  -9  -5   -1.40    1.00 
  -4  -9  -6    7.00    1.90 
  -4  -9  -6    3.20    1.60 
  -4  -9  -7    1.80    1.10 
  -4  -9  -7    2.80    1.40 
  -4  -9  -8   45.40    4.30 
  -4  -9  -8   47.00    6.40 
  -4  -9  -9   47.90    4.10 
  -4  -9  -9   40.00    5.60 
  -4  -9 -10    3.30    1.50 
   4   9  10    4.60    1.30 
  -4  -9 -11   32.80    3.70 
   4   9  11   35.60    2.80 
  -4 -10  -1    1.00    0.60 
  -4 -10  -2    0.40    0.50 
  -4 -10  -3    6.80    1.60 
   4  10   4   11.50    2.20 
  -4 -10  -4   16.60    2.60 
  -4 -10  -5   42.60    4.10 
   4  10   5   32.90    3.70 
  -4 -10  -6   25.70    3.20 
  -4 -10  -6   19.70    3.30 
  -4 -10  -7  117.09    6.50 
  -4 -10  -7  106.79    8.00 
   4  10   7  101.49    5.50 
  -4 -10  -8   52.59    4.10 
  -4 -10  -8   48.50    5.50 
   4  10   8   49.99    3.90 
  -4 -10  -9   35.10    4.50 
   4  10   9   37.10    3.30 
  -4 -10 -10   57.59    5.10 
   4  10  10   59.59    3.70 
  -4 -11  -4   41.50    3.40 
   4  11   5   40.90    3.50 
  -4 -11  -5   47.50    3.70 
  -4 -11  -6   62.39    4.20 
   4  11   6   49.10    3.90 
  -4 -11  -7   40.80    3.20 
   4  11   7   30.30    3.10 
  -5   8   4    1.10    0.80 
  -5   8   3   -0.40    0.60 
  -5   8   2    0.50    0.60 
  -5   8   1    0.20    0.70 
  -5   8   0    0.30    0.60 
  -5   8  -1    0.60    0.60 
  -5   8  -2    4.10    1.20 
  -5   7   5    0.50    0.60 
  -5   7   4   -1.10    0.90 
  -5   7   3    0.10    0.60 
  -5   7   3   -0.10    0.90 
  -5   7   2    1.10    1.00 
  -5   7   2    1.30    1.00 
  -5   7   1    3.40    1.50 
  -5   7   0    4.80    1.70 
  -5   7  -1    1.40    0.90 
  -5   7  -2   -0.30    0.60 
  -5   7  -3    2.00    1.00 
  -5   7  -4    3.30    1.00 
  -5   6   6   -1.20    0.80 
  -5   6   5    0.40    0.70 
  -5   6   4   -0.70    0.90 
  -5   6   3   -0.50    0.80 
  -5   6   2    2.00    1.20 
  -5   6   1    4.20    1.70 
  -5   6   1    5.10    1.80 
  -5   6   0    2.90    1.20 
  -5   6   0    3.20    1.60 
  -5   6  -1   26.60    3.80 
  -5   6  -2    7.50    2.10 
  -5   6  -3    7.80    2.00 
  -5   6  -4    7.50    1.80 
  -5   6  -5   13.00    2.10 
  -5   6  -5    8.20    1.60 
  -5   5   6    0.30    0.60 
  -5   5   5    1.00    0.70 
  -5   5   5    4.00    1.30 
  -5   5   4    0.10    1.10 
  -5   5   3    5.50    2.00 
  -5   5   2    1.40    1.00 
  -5   5   1    3.00    1.40 
  -5   5   0    0.90    0.90 
  -5   5   0    0.30    0.90 
  -5   5  -1    1.60    1.00 
  -5   5  -1    1.40    1.10 
  -5   5  -2    0.50    0.80 
  -5   5  -2   -0.20    1.00 
  -5   5  -3    5.50    1.80 
  -5   5  -4    0.80    0.80 
  -5   5  -5   10.70    2.20 
  -5   5  -6    0.80    0.60 
  -5   4   7   -0.10    0.60 
  -5   4   6    1.20    0.60 
  -5   4   5    1.10    1.00 
  -5   4   4    0.80    1.00 
  -5   4   4    3.40    1.30 
  -5   4   3    3.90    1.60 
  -5   4   2    0.40    0.80 
  -5   4   1    6.10    2.00 
  -5   4   0   11.70    2.80 
  -5   4   0   13.00    2.80 
  -5   4  -1    1.10    1.00 
  -5   4  -1    0.30    0.80 
  -5   4  -2   34.60    4.60 
  -5   4  -2   28.80    4.10 
  -5   4  -3    6.00    1.90 
  -5   4  -3    4.90    1.70 
  -5   4  -4    3.90    1.50 
  -5   4  -5    1.60    1.00 
  -5   4  -6   -0.30    0.70 
  -5   4  -7    2.10    0.90 
  -5   3   7    4.80    1.20 
  -5   3   6    9.10    2.00 
  -5   3   5   18.10    3.00 
  -5   3   4   20.60    3.30 
  -5   3   2   93.19    8.60 
  -5   3   2   44.10    5.40 
  -5   3   1    0.70    0.80 
  -5   3   1   -0.60    0.70 
  -5   3   0    3.10    1.40 
  -5   3   0    3.50    1.70 
  -5   3   0    5.60    2.10 
  -5   3  -1    1.20    1.10 
  -5   3  -1    2.80    1.40 
  -5   3  -2   33.90    4.60 
  -5   3  -2   27.70    4.00 
  -5   3  -3    1.30    1.20 
  -5   3  -3    1.90    1.20 
  -5   3  -4   33.20    4.40 
  -5   3  -5   26.70    3.90 
  -5   3  -5   22.00    4.00 
  -5   3  -6   45.20    4.90 
  -5   3  -6   31.40    4.70 
  -5   3  -7    2.90    1.40 
  -5   3  -8    2.00    0.90 
  -5   2   7    0.50    0.60 
  -5   2   6    0.90    0.90 
  -5   2   5   -0.10    0.80 
  -5   2   4   -0.50    0.80 
  -5   2   3    2.40    1.70 
  -5   2   3    3.60    1.50 
  -5   2   2   17.70    3.90 
  -5   2   2   19.70    3.80 
  -5   2   1   27.00    4.50 
  -5   2   1   27.30    4.50 
  -5   2   1   21.90    4.10 
  -5   2   1   27.80    4.40 
  -5   2   0   29.30    4.50 
  -5   2   0   21.60    4.10 
  -5   2   0   22.90    3.90 
  -5   2   0   24.50    4.00 
  -5   2  -1   16.40    3.20 
  -5   2  -1   16.20    3.30 
  -5   2  -1   14.00    2.90 
  -5   2  -1   17.80    3.70 
  -5   2  -1   18.20    3.50 
  -5   2  -1   14.10    3.00 
  -5   2  -2   40.80    5.10 
  -5   2  -2   36.80    4.40 
  -5   2  -2   39.50    5.00 
  -5   2  -2   35.50    5.30 
  -5   2  -2   39.70    5.10 
  -5   2  -3   80.99    7.20 
  -5   2  -3   66.99    6.00 
  -5   2  -3   66.69    7.30 
  -5   2  -3   64.69    6.70 
  -5   2  -4  163.68   10.30 
  -5   2  -4  143.49   10.80 
  -5   2  -4  153.78    9.20 
  -5   2  -4  140.79   10.40 
  -5   2  -5   13.50    2.80 
  -5   2  -5   13.40    3.40 
  -5   2  -6   49.80    6.60 
  -5   2  -6   53.39    5.50 
  -5   2  -7   35.90    4.40 
  -5   2  -7   23.10    4.50 
  -5   2  -8   71.19    7.00 
  -5   2  -9   25.00    2.70 
  -5   2  -9   23.50    3.40 
  -5   1   7    1.80    0.80 
  -5   1   6    5.60    1.60 
  -5   1   5    4.10    1.50 
  -5   1   4    2.20    1.30 
  -5   1   3    1.50    1.10 
  -5   1   3    3.90    1.90 
  -5   1   2   75.19    7.80 
  -5   1   2   77.19    7.70 
  -5   1   2   78.19    6.80 
  -5   1   1   54.59    6.40 
  -5   1   1   53.99    6.50 
  -5   1   1   49.40    6.10 
  -5   1   1   52.89    6.10 
  -5   1   0  240.88   12.80 
  -5   1   0  236.18   13.00 
  -5   1   0  248.98   13.70 
  -5   1   0  251.47   13.00 
  -5   1  -1  224.98   11.90 
  -5   1  -1  243.38   12.50 
  -5   1  -1  234.28   13.20 
  -5   1  -1  227.88   12.20 
  -5   1  -2  138.89    9.30 
  -5   1  -2  157.58    9.70 
  -5   1  -2  137.19   10.40 
  -5   1  -2  132.89    9.40 
  -5   1  -3  124.19    8.80 
  -5   1  -3  135.89    8.90 
  -5   1  -3  123.69   10.00 
  -5   1  -3  113.69    9.00 
  -5   1  -4   29.80    4.40 
  -5   1  -4   25.00    3.60 
  -5   1  -4   22.20    4.20 
  -5   1  -4   19.00    4.10 
  -5   1  -4   25.90    4.50 
  -5   1  -5  100.59    8.90 
  -5   1  -5  111.79    7.70 
  -5   1  -5   95.89    9.40 
  -5   1  -5   90.09    8.90 
  -5   1  -6  145.29    8.90 
  -5   1  -6  144.89   11.80 
  -5   1  -7   74.29    6.30 
  -5   1  -7   66.79    8.10 
  -5   1  -8   -0.80    1.50 
  -5   1  -9    8.30    2.40 
  -5   1 -10    0.60    0.70 
  -5   0   6   18.60    2.50 
  -5   0   5   25.30    3.50 
  -5   0   4   55.39    5.50 
  -5   0   3   67.49    7.40 
  -5   0   3   68.99    6.50 
  -5   0   2  115.79    9.60 
  -5   0   2  123.49   10.00 
  -5   0   2  116.59    8.50 
  -5   0   1  143.19   10.10 
  -5   0   1  141.49   11.00 
  -5   0   1  127.19    9.70 
  -5   0   1  144.89   10.30 
  -5   0   1  146.29    9.40 
  -5   0   0   34.40    4.80 
  -5   0   0   47.50    6.00 
  -5   0   0   35.30    5.10 
  -5   0   0   47.90    6.40 
  -5   0   0   35.10    4.90 
  -5   0  -1   35.30    4.60 
  -5   0  -1   38.20    5.10 
  -5   0  -1   34.30    5.10 
  -5   0  -1   44.50    6.00 
  -5   0  -1   36.50    4.90 
  -5   0  -2  125.79    8.70 
  -5   0  -2  123.69    8.50 
  -5   0  -2  112.59    9.30 
  -5   0  -2  145.99   10.80 
  -5   0  -2  111.99    8.70 
  -5   0  -3  155.38    9.70 
  -5   0  -3  151.28    9.10 
  -5   0  -3  127.29   10.20 
  -5   0  -3  142.59   10.40 
  -5   0  -3  143.39   10.00 
  -5   0  -4  267.77   13.10 
  -5   0  -4  250.47   13.00 
  -5   0  -4  236.88   14.40 
  -5   0  -4  231.88   13.40 
  -5   0  -5  218.58   12.60 
  -5   0  -5  222.48   14.50 
  -5   0  -5  236.98   14.40 
  -5   0  -6   16.30    3.00 
  -5   0  -6   16.30    4.00 
  -5   0  -7    0.10    0.90 
  -5   0  -8   -1.50    1.50 
  -5   0  -9    3.80    1.90 
  -5   0 -10    2.20    1.30 
  -5  -1   6   11.70    1.90 
  -5  -1   5   30.90    3.60 
  -5  -1   4   93.29    7.10 
  -5  -1   3  250.27   13.90 
  -5  -1   3  256.17   12.20 
  -5  -1   2   49.80    6.20 
  -5  -1   2   55.99    6.70 
  -5  -1   2   44.40    5.30 
  -5  -1   1  149.99   10.30 
  -5  -1   1  136.59   11.00 
  -5  -1   1  145.99   10.20 
  -5  -1   1  151.08   10.70 
  -5  -1   1  153.38    9.90 
  -5  -1   0   57.29    6.20 
  -5  -1   0   63.79    7.10 
  -5  -1   0   60.19    6.60 
  -5  -1   0   79.69    8.00 
  -5  -1   0   62.99    6.60 
  -5  -1  -1  160.48    9.70 
  -5  -1  -1  183.28   11.30 
  -5  -1  -1  168.08   11.10 
  -5  -1  -1  184.78   12.10 
  -5  -1  -1  171.48   10.70 
  -5  -1  -2   80.09    6.90 
  -5  -1  -2   81.39    7.00 
  -5  -1  -2   84.59    7.90 
  -5  -1  -2   91.09    8.40 
  -5  -1  -2   81.39    7.40 
  -5  -1  -3   12.50    2.70 
  -5  -1  -3   11.20    3.00 
  -5  -1  -3   10.90    2.40 
  -5  -1  -3   13.40    3.20 
  -5  -1  -3   11.10    2.90 
  -5  -1  -4   10.50    2.60 
  -5  -1  -4    8.50    2.90 
  -5  -1  -4    8.50    2.60 
  -5  -1  -4    7.30    2.40 
  -5  -1  -5   65.79    7.90 
  -5  -1  -5   59.19    7.10 
  -5  -1  -6    4.50    2.30 
  -5  -1  -6    6.10    2.70 
  -5  -1  -7   -2.00    1.70 
  -5  -1  -8   14.30    4.00 
  -5  -1  -9   16.90    4.10 
  -5  -1 -10   30.20    4.60 
  -5  -1 -11    6.60    1.70 
  -5  -2   6   10.80    1.60 
  -5  -2   5   23.10    2.90 
  -5  -2   4    0.60    0.80 
  -5  -2   3    2.10    0.90 
  -5  -2   2    3.70    1.60 
  -5  -2   2    4.60    2.10 
  -5  -2   1   25.70    4.30 
  -5  -2   1   31.90    5.10 
  -5  -2   1   27.80    4.70 
  -5  -2   1   27.30    4.20 
  -5  -2   0   34.10    4.80 
  -5  -2   0   36.00    5.50 
  -5  -2   0   34.10    4.90 
  -5  -2   0   41.00    5.70 
  -5  -2   0   37.30    5.20 
  -5  -2   0   37.60    4.90 
  -5  -2  -1    3.80    1.70 
  -5  -2  -1    1.80    0.90 
  -5  -2  -1    3.20    1.60 
  -5  -2  -1    4.00    1.70 
  -5  -2  -2    1.80    1.20 
  -5  -2  -2    2.50    1.30 
  -5  -2  -2    2.40    1.40 
  -5  -2  -2    2.30    1.10 
  -5  -2  -3   32.50    4.40 
  -5  -2  -3   30.00    4.80 
  -5  -2  -3   33.00    5.20 
  -5  -2  -3   29.30    4.40 
  -5  -2  -4  216.58   13.50 
  -5  -2  -4  214.18   13.40 
  -5  -2  -4  204.88   12.10 
  -5  -2  -5  245.08   11.30 
  -5  -2  -5  268.27   15.90 
  -5  -2  -5  227.38   13.80 
  -5  -2  -5  251.47   14.20 
  -5  -2  -6  294.87   17.70 
  -5  -2  -6  285.37   16.10 
  -5  -2  -7  573.24   23.90 
  -5  -2  -8   60.49    7.90 
  -5  -2  -9   55.19    7.40 
  -5  -2 -10   10.20    2.80 
  -5  -2 -11    2.60    1.10 
  -5  -3   5   12.30    1.90 
  -5  -3   4   11.30    2.30 
  -5  -3   3   23.30    3.50 
  -5  -3   2   42.60    5.30 
  -5  -3   2   36.30    4.60 
  -5  -3   1   34.50    4.90 
  -5  -3   1   30.10    4.80 
  -5  -3   1   43.90    5.80 
  -5  -3   1   30.40    4.40 
  -5  -3   0    1.10    1.10 
  -5  -3   0    1.60    1.20 
  -5  -3   0    4.00    1.90 
  -5  -3   0    1.30    0.90 
  -5  -3   0    3.80    1.60 
  -5  -3  -1   14.90    3.10 
  -5  -3  -1   17.70    3.50 
  -5  -3  -1   17.30    3.60 
  -5  -3  -1   20.60    4.00 
  -5  -3  -1   22.40    3.90 
  -5  -3  -2    6.70    2.10 
  -5  -3  -2    5.60    2.10 
  -5  -3  -2    4.20    1.70 
  -5  -3  -3  187.38   11.70 
  -5  -3  -3  187.98   12.50 
  -5  -3  -3  175.88   10.80 
  -5  -3  -4   75.09    5.90 
  -5  -3  -4   75.89    7.80 
  -5  -3  -4   84.39    8.60 
  -5  -3  -4   81.89    7.50 
  -5  -3  -5   46.40    4.90 
  -5  -3  -5   40.90    6.10 
  -5  -3  -5   44.80    6.50 
  -5  -3  -5   49.40    6.10 
  -5  -3  -6   82.29    7.00 
  -5  -3  -6   87.89    9.50 
  -5  -3  -6   72.39    8.10 
  -5  -3  -6   79.69    8.20 
  -5  -3  -7    9.50    2.90 
  -5  -3  -8  172.48   12.80 
  -5  -3  -9   36.80    5.80 
  -5  -3 -10   56.39    6.50 
  -5  -3 -11  118.99    6.60 
  -5  -3 -11  119.39    7.70 
  -5  -4   4    0.90    0.70 
  -5  -4   3    1.10    0.90 
  -5  -4   2   10.40    2.40 
  -5  -4   1    2.40    1.40 
  -5  -4   0   11.70    2.90 
  -5  -4   0   14.30    2.90 
  -5  -4   0   11.20    2.80 
  -5  -4   0   13.30    3.20 
  -5  -4  -1  344.47   14.40 
  -5  -4  -1  372.16   16.60 
  -5  -4  -1  337.17   15.10 
  -5  -4  -2  497.95   19.70 
  -5  -4  -2  514.05   18.10 
  -5  -4  -3  334.87   11.90 
  -5  -4  -3  352.06   17.30 
  -5  -4  -3  339.47   14.60 
  -5  -4  -4  396.46   13.70 
  -5  -4  -4  383.06   16.80 
  -5  -4  -4  430.06   19.70 
  -5  -4  -4  379.56   15.60 
  -5  -4  -5  105.09    7.40 
  -5  -4  -5  100.69    9.20 
  -5  -4  -5  117.59   10.60 
  -5  -4  -5   93.09    8.00 
  -5  -4  -6  294.87   13.00 
  -5  -4  -6  299.57   17.10 
  -5  -4  -6  295.97   14.70 
  -5  -4  -7  162.18   10.10 
  -5  -4  -7  125.69   11.00 
  -5  -4  -7  153.98   11.10 
  -5  -4  -8   54.09    5.90 
  -5  -4  -8   59.79    7.00 
  -5  -4  -9   45.70    5.30 
  -5  -4  -9   33.30    5.10 
  -5  -4 -10   54.69    5.20 
  -5  -4 -10   53.49    5.90 
  -5  -4 -11    0.00    0.70 
  -5  -4 -11    1.40    0.90 
  -5  -5   4    3.60    0.90 
  -5  -5   3   28.80    3.20 
  -5  -5   2   27.00    3.60 
  -5  -5   1  103.79    7.70 
  -5  -5   0  387.06   15.50 
  -5  -5   0  337.17   14.50 
  -5  -5  -1   71.99    7.00 
  -5  -5  -2  142.79    7.70 
  -5  -5  -2  137.49   10.10 
  -5  -5  -3   30.50    3.60 
  -5  -5  -3   26.90    4.70 
  -5  -5  -4  175.08    9.10 
  -5  -5  -4  190.88   13.10 
  -5  -5  -5  254.37   11.40 
  -5  -5  -5  288.17   16.90 
  -5  -5  -6  100.99    7.50 
  -5  -5  -6   94.69   10.00 
  -5  -5  -7   90.29    7.30 
  -5  -5  -7   73.09    8.70 
  -5  -5  -8   62.89    6.10 
  -5  -5  -8   54.19    7.20 
  -5  -5  -9   33.40    4.40 
  -5  -5  -9   43.80    5.60 
  -5  -5 -10   25.10    3.40 
  -5  -5 -11    0.40    0.50 
  -5  -6   3   28.40    2.60 
  -5  -6   2   93.79    5.80 
  -5  -6   1  145.69    8.30 
  -5  -6   0   64.09    6.00 
  -5  -6  -1  132.09    7.30 
  -5  -6  -1  128.49    8.70 
  -5  -6  -2  226.08    9.80 
  -5  -6  -2  214.98   12.00 
  -5  -6  -3  128.79    7.50 
  -5  -6  -3  125.29    9.80 
  -5  -6  -4  127.09    7.70 
  -5  -6  -4  134.19   10.80 
  -5  -6  -5    2.40    1.00 
  -5  -6  -5    4.30    2.30 
  -5  -6  -6   -0.10    0.60 
  -5  -6  -6    0.30    1.00 
  -5  -6  -7   45.10    5.00 
  -5  -6  -7   37.70    6.40 
  -5  -6  -8   35.70    4.50 
  -5  -6  -8   31.50    5.60 
  -5  -6  -9   11.40    2.50 
  -5  -6  -9    9.30    2.70 
  -5  -6 -10   13.50    2.40 
  -5  -6 -10   12.10    2.60 
  -5  -6 -11    1.20    0.60 
  -5  -7   2   32.40    2.70 
  -5  -7   1   24.00    2.90 
  -5  -7   0   49.20    4.80 
  -5  -7  -1   54.09    4.60 
  -5  -7  -1   60.99    5.80 
  -5  -7  -2    3.70    1.30 
  -5  -7  -3   31.70    3.70 
  -5  -7  -3   29.70    4.40 
  -5  -7  -4   22.00    3.20 
  -5  -7  -4   18.10    3.80 
  -5  -7  -5    3.80    1.40 
  -5  -7  -5    1.00    0.90 
  -5  -7  -6    0.30    0.60 
  -5  -7  -6    0.00    0.70 
  -5  -7  -7  128.39    8.00 
  -5  -7  -7  134.09   11.70 
  -5  -7  -8   36.80    4.30 
  -5  -7  -8   30.30    5.40 
  -5  -7  -9   45.60    4.50 
  -5  -7  -9   49.30    6.20 
  -5  -7 -10   24.30    3.00 
  -5  -7 -10   26.00    3.80 
  -5  -7 -11   27.60    2.60 
  -5  -8   0    0.10    0.40 
  -5  -8  -1    0.90    0.60 
  -5  -8  -1    0.40    0.60 
  -5  -8  -2    2.30    0.90 
  -5  -8  -3   56.29    4.70 
  -5  -8  -4   20.50    2.90 
  -5  -8  -4   24.50    3.80 
  -5  -8  -5   72.19    5.60 
  -5  -8  -5   70.39    7.00 
  -5  -8  -6  231.68   10.00 
  -5  -8  -6  237.78   13.60 
  -5  -8  -7   86.79    6.10 
  -5  -8  -7   82.59    8.30 
  -5  -8  -8  113.39    6.80 
  -5  -8  -8  107.29    9.40 
  -5  -8  -9  135.29    7.00 
  -5  -8  -9  125.09    9.30 
  -5  -8 -10   39.70    3.40 
  -5  -8 -10   44.90    4.70 
  -5  -9  -1   71.29    4.40 
  -5  -9  -2   49.40    3.70 
  -5  -9  -2   54.29    4.50 
  -5  -9  -3   93.39    5.50 
  -5  -9  -4  102.19    6.00 
  -5  -9  -5  177.78    8.10 
  -5  -9  -5  154.98    8.60 
  -5  -9  -6  102.39    6.20 
  -5  -9  -6   96.99    7.40 
  -5  -9  -7   98.79    5.90 
  -5  -9  -7   88.39    7.40 
  -5  -9  -8   80.29    5.10 
  -5  -9  -8   74.69    6.80 
   5   9   8   68.39    4.20 
  -5  -9  -9   25.50    2.60 
  -5  -9  -9   22.50    3.50 
   5   9   9   24.60    2.50 
  -5 -10  -4   64.29    4.10 
  -5 -10  -5   39.70    3.30 
  -5 -10  -6   40.20    3.40 
  -5 -10  -7   27.70    2.70 
  -6   6   3   -0.70    0.50 
  -6   6   2   -0.20    0.50 
  -6   6   2    1.90    1.10 
  -6   6   1   -0.20    0.50 
  -6   6   1   -1.20    0.80 
  -6   6   0    1.10    0.70 
  -6   6   0    1.20    0.90 
  -6   6  -1    0.30    0.70 
  -6   6  -2   -0.20    0.50 
  -6   6  -3    0.50    0.50 
  -6   5   4    0.80    0.80 
  -6   5   3    3.00    1.20 
  -6   5   2   -0.60    0.80 
  -6   5   2    2.00    1.00 
  -6   5   1    0.80    0.80 
  -6   5   1    0.90    1.20 
  -6   5   0    0.50    0.60 
  -6   5   0    0.60    0.80 
  -6   5  -1    2.10    1.20 
  -6   5  -1   -0.50    1.00 
  -6   5  -2   -0.50    0.70 
  -6   5  -3    2.00    1.10 
  -6   5  -4    1.50    0.80 
  -6   5  -5    1.50    0.70 
  -6   4   4    0.20    0.50 
  -6   4   3    0.70    0.90 
  -6   4   2    0.10    0.80 
  -6   4   1   -0.10    0.90 
  -6   4   1    1.30    1.00 
  -6   4   0    0.40    0.90 
  -6   4   0    3.10    1.40 
  -6   4  -1    4.00    1.60 
  -6   4  -1    1.60    1.10 
  -6   4  -2   12.20    2.60 
  -6   4  -2   12.00    2.40 
  -6   4  -3    5.80    1.70 
  -6   4  -4    4.80    1.40 
  -6   4  -5    3.80    1.10 
  -6   3   4    1.40    0.90 
  -6   3   3    0.30    0.70 
  -6   3   2    2.40    1.40 
  -6   3   1   34.90    4.90 
  -6   3   0   16.60    3.40 
  -6   3  -1   18.70    3.50 
  -6   3  -1   14.10    2.80 
  -6   3  -2    5.50    1.90 
  -6   3  -2    6.20    1.90 
  -6   3  -3    2.70    1.40 
  -6   3  -3    1.60    1.30 
  -6   3  -4   24.30    3.40 
  -6   3  -5   16.40    2.70 
  -6   2   4    1.70    0.90 
  -6   2   4    4.20    1.20 
  -6   2   3    3.50    1.50 
  -6   2   2    4.40    1.70 
  -6   2   1    0.10    0.90 
  -6   2   1    0.80    1.10 
  -6   2   1    1.50    1.30 
  -6   2   0    5.00    1.80 
  -6   2   0    9.30    2.70 
  -6   2   0    6.50    2.00 
  -6   2  -1   13.30    3.00 
  -6   2  -1   17.50    3.50 
  -6   2  -1   15.40    3.10 
  -6   2  -2   28.30    4.30 
  -6   2  -2   28.40    4.30 
  -6   2  -3   72.89    6.80 
  -6   2  -3   62.19    6.40 
  -6   2  -4   10.00    2.30 
  -6   2  -4    6.20    2.00 
  -6   2  -5    1.30    1.00 
  -6   2  -5    0.10    0.70 
  -6   2  -6   -0.80    0.80 
  -6   2  -6    2.30    1.30 
  -6   2  -7    2.90    1.40 
  -6   1   4   29.00    3.00 
  -6   1   3   16.20    2.50 
  -6   1   2    5.00    1.90 
  -6   1   2   10.80    2.90 
  -6   1   1   18.00    3.70 
  -6   1   1   21.30    3.80 
  -6   1   0   33.60    4.90 
  -6   1   0   31.20    4.60 
  -6   1  -1    8.80    2.40 
  -6   1  -1   10.70    2.80 
  -6   1  -1    9.80    2.50 
  -6   1  -2    8.30    2.40 
  -6   1  -2    9.30    2.50 
  -6   1  -2    6.40    2.20 
  -6   1  -3    2.20    1.30 
  -6   1  -3    0.90    0.80 
  -6   1  -3    0.90    0.90 
  -6   1  -4   -2.40    1.40 
  -6   1  -5    6.60    2.20 
  -6   1  -6   -0.80    0.80 
  -6   1  -6    0.10    0.90 
  -6   1  -7    0.10    0.70 
  -6   1  -8    6.80    2.00 
  -6   0   4    4.20    1.20 
  -6   0   3    0.30    0.50 
  -6   0   2    2.70    1.70 
  -6   0   2    1.80    1.10 
  -6   0   1    4.20    1.80 
  -6   0   1   10.70    2.90 
  -6   0   1    7.80    2.40 
  -6   0   0    3.00    1.40 
  -6   0   0    0.90    1.00 
  -6   0   0    1.40    1.10 
  -6   0  -1    2.80    1.20 
  -6   0  -1    1.40    1.20 
  -6   0  -1    1.70    1.20 
  -6   0  -2    6.10    2.20 
  -6   0  -2    4.40    1.70 
  -6   0  -2    4.00    1.80 
  -6   0  -3   87.69    7.70 
  -6   0  -3   84.99    7.80 
  -6   0  -4   67.79    7.20 
  -6   0  -5  186.58   12.30 
  -6   0  -6  134.29   10.60 
  -6   0  -7    8.90    2.60 
  -6   0  -8   15.30    3.30 
  -6   0  -9    0.90    0.90 
  -6  -1   4    5.60    1.30 
  -6  -1   3    1.60    0.80 
  -6  -1   2    0.90    0.80 
  -6  -1   2    3.30    1.60 
  -6  -1   1    2.60    1.20 
  -6  -1   1    4.20    1.90 
  -6  -1   0    1.60    1.50 
  -6  -1   0   -0.30    0.90 
  -6  -1  -1    6.00    2.00 
  -6  -1  -1    4.40    1.90 
  -6  -1  -1    5.60    2.10 
  -6  -1  -2   21.80    3.80 
  -6  -1  -2   22.70    4.00 
  -6  -1  -2   25.50    4.70 
  -6  -1  -2   21.90    4.00 
  -6  -1  -3   12.70    2.90 
  -6  -1  -3   13.50    3.50 
  -6  -1  -3    8.40    2.50 
  -6  -1  -4   33.10    5.20 
  -6  -1  -4   31.10    4.90 
  -6  -1  -5    0.30    0.90 
  -6  -1  -6    1.70    1.50 
  -6  -1  -7   67.39    7.60 
  -6  -1  -8    7.50    1.80 
  -6  -1  -8    8.60    2.70 
  -6  -1  -9   46.50    4.20 
  -6  -1  -9   53.79    5.70 
  -6  -1 -10   28.10    3.30 
  -6  -2   4    0.20    0.40 
  -6  -2   3    0.70    0.60 
  -6  -2   2    0.40    0.80 
  -6  -2   1   23.70    3.90 
  -6  -2   1   26.80    3.70 
  -6  -2   0   79.69    7.20 
  -6  -2   0   86.39    7.70 
  -6  -2  -1  183.18   11.00 
  -6  -2  -1  227.58   13.60 
  -6  -2  -1  205.48   11.80 
  -6  -2  -2  138.49    9.60 
  -6  -2  -2  172.28   12.00 
  -6  -2  -2  156.38   10.40 
  -6  -2  -3  114.99    9.90 
  -6  -2  -3   91.79    8.20 
  -6  -2  -4   77.59    8.30 
  -6  -2  -4   69.49    7.20 
  -6  -2  -5   58.59    6.90 
  -6  -2  -5   72.19    7.50 
  -6  -2  -6   99.89    9.20 
  -6  -2  -7    4.80    1.60 
  -6  -2  -7    3.30    1.90 
  -6  -2  -8   37.60    4.30 
  -6  -2  -8   38.30    5.50 
  -6  -2  -9   18.40    2.80 
  -6  -2  -9   19.10    3.60 
  -6  -2 -10    1.70    0.80 
  -6  -2 -10    0.80    0.70 
  -6  -3   3    9.40    1.70 
  -6  -3   2   43.70    4.10 
  -6  -3   1   71.39    6.20 
  -6  -3   1   74.89    6.00 
  -6  -3   0   32.20    4.40 
  -6  -3   0   38.90    4.60 
  -6  -3  -1   24.90    4.00 
  -6  -3  -1   29.50    4.80 
  -6  -3  -1   32.00    4.60 
  -6  -3  -2   23.80    3.90 
  -6  -3  -2   25.50    4.50 
  -6  -3  -2   23.00    4.00 
  -6  -3  -3   74.39    7.90 
  -6  -3  -3   70.89    6.90 
  -6  -3  -4  136.09   10.90 
  -6  -3  -4  131.29    9.60 
  -6  -3  -5   50.09    6.60 
  -6  -3  -5   55.39    6.40 
  -6  -3  -6   42.60    4.60 
  -6  -3  -6   42.00    5.80 
  -6  -3  -6   50.19    6.20 
  -6  -3  -7   51.79    5.20 
  -6  -3  -7   53.99    6.50 
  -6  -3  -8   11.20    2.50 
  -6  -3  -8    9.20    2.60 
  -6  -3  -9   11.10    2.20 
  -6  -3  -9    8.80    2.30 
  -6  -3 -10    0.50    0.50 
  -6  -3 -10   -0.80    0.70 
  -6  -4   2   48.60    3.90 
  -6  -4   1   32.60    3.70 
  -6  -4   0   94.59    6.90 
  -6  -4   0   94.59    6.90 
  -6  -4  -1   69.39    6.20 
  -6  -4  -1   76.89    7.10 
  -6  -4  -1   77.69    6.90 
  -6  -4  -1   65.89    6.10 
  -6  -4  -2   85.89    7.10 
  -6  -4  -2  100.19    8.60 
  -6  -4  -2   99.49    7.80 
  -6  -4  -3   38.80    5.60 
  -6  -4  -3   39.10    5.00 
  -6  -4  -4    1.70    1.40 
  -6  -4  -4    2.90    1.60 
  -6  -4  -5    3.90    1.30 
  -6  -4  -5    6.80    2.50 
  -6  -4  -5    4.90    1.90 
  -6  -4  -6    4.90    1.50 
  -6  -4  -6    4.60    2.10 
  -6  -4  -6    7.10    2.40 
  -6  -4  -7    4.30    1.50 
  -6  -4  -7    2.50    1.50 
  -6  -4  -7    5.10    1.90 
  -6  -4  -8   32.00    4.00 
  -6  -4  -8   34.30    4.70 
  -6  -4  -9   -0.20    0.50 
  -6  -4  -9    0.80    0.70 
  -6  -4 -10    8.00    1.60 
  -6  -5   1   45.60    3.90 
  -6  -5   0   16.60    2.70 
  -6  -5  -1   11.20    2.40 
  -6  -5  -2   11.60    2.70 
  -6  -5  -2   12.50    2.50 
  -6  -5  -2   13.30    2.90 
  -6  -5  -3    4.70    1.70 
  -6  -5  -3    4.20    1.80 
  -6  -5  -4    5.60    1.50 
  -6  -5  -4    5.30    2.10 
  -6  -5  -5    2.90    1.20 
  -6  -5  -5    3.60    2.00 
  -6  -5  -6   85.19    6.20 
  -6  -5  -6   88.69    8.70 
  -6  -5  -7   18.90    3.00 
  -6  -5  -7   13.60    3.30 
  -6  -5  -8   50.09    4.80 
  -6  -5  -8   42.80    5.20 
  -6  -5  -9   19.80    2.80 
  -6  -5 -10   27.60    2.90 
  -6  -6   0    0.20    0.40 
  -6  -6  -1    3.60    1.40 
  -6  -6  -2   35.30    4.20 
  -6  -6  -2   35.20    4.20 
  -6  -6  -3    5.00    1.70 
  -6  -6  -3   10.00    2.50 
  -6  -6  -4   79.69    6.10 
  -6  -6  -4   90.09    5.60 
  -6  -6  -4   99.39    8.30 
  -6  -6  -5  139.69    7.20 
  -6  -6  -5  166.28   11.30 
  -6  -6  -6   80.79    5.70 
  -6  -6  -6   83.09    8.10 
  -6  -6  -7  148.09    7.90 
  -6  -6  -7  116.39    9.60 
  -6  -6  -8   90.59    6.00 
  -6  -6  -8   86.19    7.50 
  -6  -6  -9   85.29    5.40 
  -6  -6  -9   78.39    5.90 
  -6  -6 -10   62.99    4.00 
  -6  -7  -1   87.19    5.20 
  -6  -7  -2   51.29    4.50 
  -6  -7  -3  109.49    5.50 
  -6  -7  -3  120.39    7.30 
  -6  -7  -3  115.09    7.20 
  -6  -7  -4  162.18    7.10 
  -6  -7  -4  170.68    9.60 
  -6  -7  -5   87.39    5.40 
  -6  -7  -5   91.49    7.50 
  -6  -7  -6  139.39    7.00 
  -6  -7  -6  153.08   10.10 
  -6  -7  -7   64.99    4.80 
  -6  -7  -7   63.69    6.50 
  -6  -7  -8   59.39    4.40 
  -6  -7  -8   45.30    5.10 
  -6  -7  -9   54.59    3.90 
  -6  -7  -9   55.89    4.90 
  -6  -8  -4   43.70    3.30 
  -6  -8  -5   51.79    3.80 
  -6  -8  -5   56.59    4.90 
  -6  -8  -6   46.00    3.70 
  -6  -8  -6   54.99    5.20 
  -6  -8  -7   26.40    2.80 
  -6  -8  -7   25.00    3.60 
  -6  -8  -8   10.60    1.70 
  -6  -8  -8    8.60    2.00 
  -7   3   0    1.70    0.90 
  -7   2   0    1.20    1.20 
  -7   2  -2    8.80    1.90 
  -7   2  -3   21.60    3.00 
  -7   2  -4   48.50    4.30 
  -7   1  -1   -1.20    0.90 
  -7   1  -1    0.00    0.50 
  -7   1  -2    3.90    1.50 
  -7   1  -2    0.00    0.50 
  -7   1  -3   -2.00    1.10 
  -7   1  -4    1.30    1.00 
  -7   1  -5   -1.40    0.90 
  -7   0   0   37.00    4.30 
  -7   0  -1   28.50    3.90 
  -7   0  -1   27.30    3.80 
  -7   0  -2   21.30    3.40 
  -7   0  -2   21.10    3.40 
  -7   0  -3    6.20    1.90 
  -7   0  -3    5.40    1.80 
  -7   0  -4   14.90    2.80 
  -7   0  -4   13.80    2.80 
  -7   0  -5   13.10    2.70 
  -7   0  -6    0.50    0.70 
  -7  -1   0    1.60    1.30 
  -7  -1  -1    7.50    2.10 
  -7  -1  -1    7.70    2.00 
  -7  -1  -2    5.70    1.90 
  -7  -1  -2    6.80    2.00 
  -7  -1  -3   32.50    4.30 
  -7  -1  -3   28.10    4.00 
  -7  -1  -4   13.50    2.70 
  -7  -1  -4   13.30    2.80 
  -7  -1  -5   11.50    2.40 
  -7  -1  -5   12.20    2.60 
  -7  -1  -6   13.70    2.50 
  -7  -1  -6   18.10    3.20 
  -7  -1  -7    0.50    0.70 
  -7  -2   0   10.60    2.20 
  -7  -2  -1   21.10    3.30 
  -7  -2  -2    4.00    1.60 
  -7  -2  -2    6.60    1.90 
  -7  -2  -3    2.80    1.60 
  -7  -2  -3    0.80    0.90 
  -7  -2  -4    1.00    1.00 
  -7  -2  -4    1.90    1.20 
  -7  -2  -5    0.40    0.70 
  -7  -2  -5    0.10    0.70 
  -7  -2  -6    1.70    1.10 
  -7  -2  -6    1.60    0.70 
  -7  -2  -7    8.70    2.10 
  -7  -3  -1    1.80    1.10 
  -7  -3  -2    0.70    0.90 
  -7  -3  -3    0.70    0.80 
  -7  -3  -3   -0.20    0.60 
  -7  -3  -4    0.20    0.70 
  -7  -3  -4    1.20    0.90 
  -7  -3  -5   23.40    3.60 
  -7  -3  -5   24.50    3.70 
  -7  -3  -6    7.20    2.00 
  -7  -3  -7   11.30    2.30 
  -7  -4  -2    5.10    1.50 
  -7  -4  -3   48.30    4.60 
  -7  -4  -4   40.50    4.50 
  -7  -4  -4   46.10    5.30 
  -7  -4  -4   45.30    4.60 
  -7  -4  -5   44.20    4.70 
  -7  -4  -5   46.70    5.30 
  -7  -4  -5   47.30    4.70 
  -7  -4  -6   81.99    6.30 
  -7  -4  -6   70.99    6.10 
  -7  -4  -6   87.59    6.20 
  -7  -5  -4   73.29    5.30 
  -7  -5  -5   54.59    4.70 
  -7  -5  -5   62.49    5.80 
  -7  -5  -6   43.40    4.30 
  -7  -5  -6   28.70    3.90 
   0   0   0    0.00    0.00 
  
_computing_structure_solution     'SHELXT 2014/5 (Sheldrick, 2014)' 
;
_shelx_hkl_checksum              88996
loop_
_space_group_symop_operation_xyz
'x, y, z'
'-x, -y, -z'
loop_
_atom_site_label
_atom_site_type_symbol
_atom_site_fract_x
_atom_site_fract_y
_atom_site_fract_z
_atom_site_U_iso_or_equiv
_atom_site_adp_type
_atom_site_occupancy
_atom_site_site_symmetry_order
_atom_site_calc_flag
_atom_site_refinement_flags_posn
_atom_site_refinement_flags_adp
_atom_site_refinement_flags_occupancy
_atom_site_disorder_assembly
_atom_site_disorder_group
Br1 Br 0.79519(7) 0.91183(4) -0.02845(4) 0.0846(3) Uani 1 1 d . . . . .
N1 N 0.2353(4) 0.4793(2) 0.2135(2) 0.0536(6) Uani 1 1 d . . . . .
O1 O -0.016(2) 0.3072(9) 0.2439(10) 0.081(3) Uani 0.516(5) 1 d . . P A 1
O1' O -0.0839(18) 0.3554(10) 0.2653(9) 0.081(3) Uani 0.516(5) 1 d . . P A 2
C1 C 0.0698(6) 0.4251(4) 0.1790(3) 0.0629(8) Uani 1 1 d . . . . .
C2 C 0.0716(5) 0.5133(3) 0.0334(3) 0.0487(6) Uani 1 1 d . . . . .
O2 O 0.3967(6) 0.4966(3) 0.3715(3) 0.0842(8) Uani 1 1 d . . . . .
C3 C 0.2446(5) 0.6190(3) -0.0081(3) 0.0475(6) Uani 1 1 d . . . . .
O3 O 0.2248(4) 0.3004(2) 0.4096(2) 0.0622(6) Uani 1 1 d . . . . .
C4 C 0.3346(6) 0.7307(4) -0.1277(3) 0.0657(8) Uani 1 1 d . . . . .
H4 H 0.2823 0.7476 -0.2047 0.079 Uiso 1 1 calc R U . . .
C6 C 0.5760(5) 0.7913(3) -0.0206(3) 0.0571(7) Uani 1 1 d . . . . .
C5 C 0.4971(7) 0.8149(4) -0.1335(3) 0.0709(9) Uani 1 1 d . . . . .
H5 H 0.5545 0.8883 -0.2139 0.085 Uiso 1 1 calc R U . . .
C7 C 0.4983(5) 0.6822(3) 0.0996(3) 0.0565(7) Uani 1 1 d . . . . .
H7 H 0.5543 0.6661 0.1751 0.068 Uiso 1 1 calc R U . . .
C8 C 0.3345(5) 0.5979(3) 0.1039(3) 0.0474(6) Uani 1 1 d . . . . .
C9 C 0.2956(6) 0.4282(3) 0.3397(3) 0.0579(7) Uani 1 1 d . . . . .
C10 C 0.2458(5) 0.2296(3) 0.5518(3) 0.0581(7) Uani 1 1 d . . . . .
C11 C 0.4904(7) 0.2184(4) 0.5571(4) 0.0769(10) Uani 1 1 d . . . . .
H11A H 0.5735 0.1793 0.4939 0.115 Uiso 1 1 calc R U . . .
H11B H 0.5027 0.1604 0.6471 0.115 Uiso 1 1 calc R U . . .
H11C H 0.5504 0.3084 0.5339 0.115 Uiso 1 1 calc R U . . .
C12 C 0.1134(8) 0.3061(5) 0.6366(4) 0.0843(12) Uani 1 1 d . . . . .
H12A H 0.1866 0.3927 0.6115 0.126 Uiso 1 1 calc R U . . .
H12B H 0.1046 0.2521 0.7307 0.126 Uiso 1 1 calc R U . . .
H12C H -0.0355 0.3220 0.6217 0.126 Uiso 1 1 calc R U . . .
C13 C 0.1410(8) 0.0895(4) 0.5902(4) 0.0878(12) Uani 1 1 d . . . . .
H13A H -0.0134 0.1006 0.5850 0.132 Uiso 1 1 calc R U . . .
H13B H 0.1489 0.0320 0.6811 0.132 Uiso 1 1 calc R U . . .
H13C H 0.2212 0.0475 0.5288 0.132 Uiso 1 1 calc R U . . .
loop_
_atom_site_aniso_label
_atom_site_aniso_U_11
_atom_site_aniso_U_22
_atom_site_aniso_U_33
_atom_site_aniso_U_23
_atom_site_aniso_U_13
_atom_site_aniso_U_12
Br1 0.0840(4) 0.0862(4) 0.0803(3) -0.0166(2) -0.0253(2) -0.0380(2)
N1 0.0671(15) 0.0549(13) 0.0380(11) -0.0072(10) -0.0236(10) -0.0131(11)
O1 0.118(8) 0.070(5) 0.054(5) 0.004(3) -0.049(5) -0.038(4)
O1' 0.094(6) 0.102(7) 0.041(3) -0.009(4) -0.016(3) -0.051(5)
C1 0.0707(19) 0.071(2) 0.0448(16) -0.0070(14) -0.0255(14) -0.0233(16)
C2 0.0561(15) 0.0517(14) 0.0384(13) -0.0119(11) -0.0175(11) -0.0061(12)
O2 0.127(2) 0.0682(15) 0.0640(14) -0.0051(12) -0.0557(15) -0.0299(15)
C3 0.0538(14) 0.0511(14) 0.0397(12) -0.0143(11) -0.0187(11) -0.0011(11)
O3 0.0863(15) 0.0573(12) 0.0434(10) -0.0067(9) -0.0307(10) -0.0160(10)
C4 0.077(2) 0.0663(19) 0.0465(15) -0.0038(14) -0.0252(15) -0.0171(16)
C6 0.0589(16) 0.0574(16) 0.0554(16) -0.0170(13) -0.0175(13) -0.0110(13)
C5 0.084(2) 0.0652(19) 0.0521(17) -0.0001(14) -0.0236(16) -0.0234(17)
C7 0.0632(17) 0.0591(16) 0.0491(15) -0.0139(13) -0.0238(13) -0.0095(13)
C8 0.0533(14) 0.0462(13) 0.0427(13) -0.0109(11) -0.0191(11) -0.0041(11)
C9 0.0735(19) 0.0570(16) 0.0456(15) -0.0100(13) -0.0303(14) -0.0088(14)
C10 0.0671(18) 0.0636(17) 0.0394(14) -0.0060(12) -0.0244(13) -0.0083(14)
C11 0.070(2) 0.082(2) 0.069(2) -0.0091(18) -0.0312(17) 0.0011(18)
C12 0.095(3) 0.098(3) 0.0564(19) -0.0265(19) -0.0209(19) 0.010(2)
C13 0.108(3) 0.072(2) 0.069(2) 0.0005(18) -0.032(2) -0.027(2)
loop_
_atom_type_symbol
_atom_type_description
_atom_type_scat_dispersion_real
_atom_type_scat_dispersion_imag
_atom_type_scat_source
C C 0.0181 0.0091 'International Tables Vol C Tables 4.2.6.8 and 6.1.1.4'
H H 0.0000 0.0000 'International Tables Vol C Tables 4.2.6.8 and 6.1.1.4'
N N 0.0311 0.0180 'International Tables Vol C Tables 4.2.6.8 and 6.1.1.4'
O O 0.0492 0.0322 'International Tables Vol C Tables 4.2.6.8 and 6.1.1.4'
Br Br -0.6763 1.2805 'International Tables Vol C Tables 4.2.6.8 and 6.1.1.4'
loop_
_geom_angle_atom_site_label_1
_geom_angle_atom_site_label_2
_geom_angle_atom_site_label_3
_geom_angle
_geom_angle_site_symmetry_1
_geom_angle_site_symmetry_3
_geom_angle_publ_flag
C1 N1 C8 110.0(2) . . ?
C1 N1 C9 126.8(3) . . ?
C8 N1 C9 123.2(2) . . ?
O1' C1 N1 121.0(5) . . ?
O1 C1 N1 124.6(5) . . ?
O1' C1 C2 127.5(6) . . ?
O1 C1 C2 126.0(5) . . ?
N1 C1 C2 106.9(2) . . ?
C2 C2 C3 132.9(3) 2_565 . ?
C2 C2 C1 121.9(3) 2_565 . ?
C3 C2 C1 105.2(2) . . ?
C4 C3 C8 116.2(3) . . ?
C4 C3 C2 135.6(3) . . ?
C8 C3 C2 108.2(2) . . ?
C9 O3 C10 120.3(2) . . ?
C5 C4 C3 121.5(3) . . ?
C5 C4 H4 119.3 . . ?
C3 C4 H4 119.3 . . ?
C5 C6 C7 121.8(3) . . ?
C5 C6 Br1 119.6(2) . . ?
C7 C6 Br1 118.6(2) . . ?
C4 C5 C6 120.0(3) . . ?
C4 C5 H5 120.0 . . ?
C6 C5 H5 120.0 . . ?
C8 C7 C6 117.5(3) . . ?
C8 C7 H7 121.2 . . ?
C6 C7 H7 121.2 . . ?
C7 C8 N1 127.5(2) . . ?
C7 C8 C3 123.0(3) . . ?
N1 C8 C3 109.5(2) . . ?
O2 C9 O3 127.7(3) . . ?
O2 C9 N1 121.9(3) . . ?
O3 C9 N1 110.4(2) . . ?
O3 C10 C12 109.4(3) . . ?
O3 C10 C11 110.5(3) . . ?
C12 C10 C11 111.5(3) . . ?
O3 C10 C13 101.5(3) . . ?
C12 C10 C13 111.7(3) . . ?
C11 C10 C13 111.7(3) . . ?
C10 C11 H11A 109.5 . . ?
C10 C11 H11B 109.5 . . ?
H11A C11 H11B 109.5 . . ?
C10 C11 H11C 109.5 . . ?
H11A C11 H11C 109.5 . . ?
H11B C11 H11C 109.5 . . ?
C10 C12 H12A 109.5 . . ?
C10 C12 H12B 109.5 . . ?
H12A C12 H12B 109.5 . . ?
C10 C12 H12C 109.5 . . ?
H12A C12 H12C 109.5 . . ?
H12B C12 H12C 109.5 . . ?
C10 C13 H13A 109.5 . . ?
C10 C13 H13B 109.5 . . ?
H13A C13 H13B 109.5 . . ?
C10 C13 H13C 109.5 . . ?
H13A C13 H13C 109.5 . . ?
H13B C13 H13C 109.5 . . ?
loop_
_geom_bond_atom_site_label_1
_geom_bond_atom_site_label_2
_geom_bond_distance
_geom_bond_site_symmetry_2
_geom_bond_publ_flag
Br1 C6 1.891(3) . ?
N1 C1 1.401(4) . ?
N1 C8 1.407(4) . ?
N1 C9 1.416(3) . ?
O1 C1 1.250(10) . ?
O1' C1 1.207(11) . ?
C1 C2 1.508(4) . ?
C2 C2 1.387(6) 2_565 ?
C2 C3 1.461(4) . ?
O2 C9 1.187(4) . ?
C3 C4 1.402(4) . ?
C3 C8 1.410(3) . ?
O3 C9 1.311(4) . ?
O3 C10 1.486(3) . ?
C4 C5 1.363(5) . ?
C4 H4 0.9300 . ?
C6 C5 1.374(5) . ?
C6 C7 1.377(4) . ?
C5 H5 0.9300 . ?
C7 C8 1.377(4) . ?
C7 H7 0.9300 . ?
C10 C12 1.506(5) . ?
C10 C11 1.513(5) . ?
C10 C13 1.519(5) . ?
C11 H11A 0.9600 . ?
C11 H11B 0.9600 . ?
C11 H11C 0.9600 . ?
C12 H12A 0.9600 . ?
C12 H12B 0.9600 . ?
C12 H12C 0.9600 . ?
C13 H13A 0.9600 . ?
C13 H13B 0.9600 . ?
C13 H13C 0.9600 . ?
