#------------------------------------------------------------------------------
#$Date: 2022-01-01 07:13:54 +0200 (Sat, 01 Jan 2022) $
#$Revision: 271676 $
#$URL: file:///home/coder/svn-repositories/cod/cif/1/56/58/1565876.cif $
#------------------------------------------------------------------------------
#
# This file is available in the Crystallography Open Database (COD),
# http://www.crystallography.net/. The original data for this entry
# were provided by IUCr Journals, http://journals.iucr.org/.
#
# The file may be used within the scientific community so long as
# proper attribution is given to the journal article from which the
# data were obtained.
#
data_1565876
loop_
_publ_author_name
'Olejniczak, Anna'
'Katrusiak, Anna'
'Podsiad\/lo, Marcin'
'Katrusiak, Andrzej'
_publ_section_title
;
 Stochastic hydration of a high-nitrogen-content molecular compound
 recrystallized under pressure
;
_journal_issue                   1
_journal_name_full               IUCrJ
_journal_page_first              49
_journal_page_last               54
_journal_paper_doi               10.1107/S2052252521010381
_journal_volume                  9
_journal_year                    2022
_chemical_formula_moiety         'C4 H2 Cl N5'
_chemical_formula_sum            'C4 H2 Cl N5'
_chemical_formula_weight         155.56
_chemical_name_systematic        6-chloro-1,2,3,4-tetrazolo[1,5-b]pyridazine
_space_group_crystal_system      orthorhombic
_space_group_IT_number           62
_space_group_name_Hall           '-P 2ac 2n'
_space_group_name_H-M_alt        'P n m a'
_atom_sites_solution_hydrogens   geom
_atom_sites_solution_primary     direct
_audit_creation_date             2021-06-08
_audit_creation_method
;
Olex2 1.3
(compiled 2020.11.12 svn.r5f609507 for OlexSys, GUI svn.r6272)
;
_cell_angle_alpha                90
_cell_angle_beta                 90
_cell_angle_gamma                90
_cell_formula_units_Z            4
_cell_length_a                   10.697(4)
_cell_length_b                   6.2545(7)
_cell_length_c                   8.8012(10)
_cell_measurement_reflns_used    651
_cell_measurement_temperature    296(2)
_cell_measurement_theta_max      22.7070
_cell_measurement_theta_min      4.4090
_cell_volume                     588.8(2)
_computing_cell_refinement       'CrysAlisPro 1.171.40.67a (Rigaku OD, 2019)'
_computing_data_collection       'CrysAlisPro 1.171.40.67a (Rigaku OD, 2019)'
_computing_data_reduction        'CrysAlisPro 1.171.40.67a (Rigaku OD, 2019)'
_computing_molecular_graphics    'Olex2 1.3 (Dolomanov et al., 2009)'
_computing_publication_material  'Olex2 1.3 (Dolomanov et al., 2009)'
_computing_structure_refinement  'SHELXL 2018/3 (Sheldrick, 2015)'
_computing_structure_solution    'SHELXT 2018/2 (Sheldrick, 2018)'
_diffrn_ambient_environment      'diamond-anvil cell'
_diffrn_ambient_pressure         240000
_diffrn_ambient_temperature      296
_diffrn_detector                 'CCD plate'
_diffrn_detector_area_resol_mean 16.2413
_diffrn_detector_type            Eos
_diffrn_measured_fraction_theta_full 0.418
_diffrn_measured_fraction_theta_max 0.376
_diffrn_measurement_details
;
List of Runs (angles in degrees, time in seconds):

  # Type    Start    End  Width  t~exp~   \w     \q     \k     \f   Frames
--------------------------------------------------------------------------
  1  \f    -35.00  19.75   0.75   35.00   0.00 -30.00   0.00    --    73
  2  \f    140.00 200.00   0.75   35.00   0.00 -30.00   0.00    --    80
  3  \f    160.00 217.00   0.75   35.00   0.00  30.00   0.00    --    76
  4  \f    -20.00  34.75   0.75   35.00   0.00  30.00   0.00    --    73
  5  \w    -24.00  24.00   0.75   35.00    --   30.00  39.46 -12.90   64
  6  \w    -24.00  24.00   0.75   35.00    --   30.00  39.46 167.10   64
  7  \w    -50.00  10.00   0.75   35.00    --  -30.00  39.46 167.10   80
  8  \w    -50.00  10.00   0.75   35.00    --  -30.00  39.46 -12.90   80
  9  \w    -64.00  -8.50   0.75   35.00    --  -30.00  81.40 -28.90   74
 10  \w    -64.00  -8.50   0.75   35.00    --  -30.00  81.40 151.10   74
 11  \w    -19.00   8.00   0.75   35.00    --   30.00  81.40 151.10   36
 12  \w    -19.00   8.00   0.75   35.00    --   30.00  81.40 -28.90   36
 13  \w    -43.00 -21.25   0.75   35.00    --   30.00 134.60 -56.90   29
 14  \w    -43.00 -21.25   0.75   35.00    --   30.00 134.60 123.10   29
 15  \w    -90.00 -36.00   0.75   35.00    --  -30.00 134.60 123.10   72
 16  \w    -90.00 -36.00   0.75   35.00    --  -30.00 134.60 -56.90   72
;
_diffrn_measurement_device       'four-circle diffractometer'
_diffrn_measurement_device_type  'KM-4 CCD'
_diffrn_measurement_method
;
HP omega scans - for more details see:
A. Budzianowski, A. Katrusiak in High-Pressure Crystallography
(Eds.: A. Katrusiak, P. F. McMillan),
Dordrecht: Kluwer Acad. Publ., 2004 pp.157-168       
;
_diffrn_orient_matrix_type
'CrysAlisPro convention (1999,Acta A55,543-557)'
_diffrn_orient_matrix_UB_11      -0.0645736114
_diffrn_orient_matrix_UB_12      0.0130215977
_diffrn_orient_matrix_UB_13      -0.0159137254
_diffrn_orient_matrix_UB_21      0.0111260416
_diffrn_orient_matrix_UB_22      0.1071837514
_diffrn_orient_matrix_UB_23      -0.0225893624
_diffrn_orient_matrix_UB_31      0.0101583890
_diffrn_orient_matrix_UB_32      -0.0346873093
_diffrn_orient_matrix_UB_33      -0.0757064782
_diffrn_radiation_monochromator  graphite
_diffrn_radiation_probe          x-ray
_diffrn_radiation_type           'Mo K\a'
_diffrn_radiation_wavelength     0.71073
_diffrn_reflns_av_R_equivalents  0.0450
_diffrn_reflns_av_unetI/netI     0.0278
_diffrn_reflns_Laue_measured_fraction_full 0.418
_diffrn_reflns_Laue_measured_fraction_max 0.376
_diffrn_reflns_limit_h_max       4
_diffrn_reflns_limit_h_min       -4
_diffrn_reflns_limit_k_max       7
_diffrn_reflns_limit_k_min       -7
_diffrn_reflns_limit_l_max       10
_diffrn_reflns_limit_l_min       -11
_diffrn_reflns_number            2687
_diffrn_reflns_point_group_measured_fraction_full 0.418
_diffrn_reflns_point_group_measured_fraction_max 0.376
_diffrn_reflns_theta_full        25.242
_diffrn_reflns_theta_max         26.915
_diffrn_reflns_theta_min         4.429
_diffrn_source                   'fine-focus sealed X-ray tube'
_diffrn_source_type              'Enhance (Mo) X-ray Source'
_exptl_absorpt_coefficient_mu    0.559
_exptl_absorpt_correction_T_max  1.00000
_exptl_absorpt_correction_T_min  0.38331
_exptl_absorpt_correction_type   multi-scan
_exptl_absorpt_process_details
;
CrysAlisPro 1.171.40.67a (Rigaku Oxford Diffraction, 2019)
Empirical absorption correction using spherical harmonics,
 implemented in SCALE3 ABSPACK scaling algorithm.
;
_exptl_crystal_colour            colorless
_exptl_crystal_density_diffrn    1.755
_exptl_crystal_description       plate
_exptl_crystal_F_000             312
_exptl_crystal_size_max          0.30
_exptl_crystal_size_mid          0.26
_exptl_crystal_size_min          0.11
_refine_diff_density_max         0.082
_refine_diff_density_min         -0.092
_refine_diff_density_rms         0.022
_refine_ls_extinction_method     none
_refine_ls_goodness_of_fit_ref   1.081
_refine_ls_hydrogen_treatment    constr
_refine_ls_matrix_type           full
_refine_ls_number_parameters     61
_refine_ls_number_reflns         263
_refine_ls_number_restraints     6
_refine_ls_restrained_S_all      1.069
_refine_ls_R_factor_all          0.0495
_refine_ls_R_factor_gt           0.0249
_refine_ls_shift/su_max          0.000
_refine_ls_shift/su_mean         0.000
_refine_ls_structure_factor_coef Fsqd
_refine_ls_weighting_details
'w=1/[\s^2^(Fo^2^)+(0.0185P)^2^] where P=(Fo^2^+2Fc^2^)/3'
_refine_ls_weighting_scheme      calc
_refine_ls_wR_factor_gt          0.0378
_refine_ls_wR_factor_ref         0.0431
_reflns_Friedel_coverage         0.000
_reflns_number_gt                187
_reflns_number_total             263
_reflns_threshold_expression     'I > 2\s(I)'
_cod_data_source_file            lt5042.cif
_cod_data_source_block           C4H2N5Cl1@0_24GPa_phase_alpha_prim
_cod_original_cell_volume        588.8(3)
_cod_database_code               1565876
_shelx_shelxl_version_number     2018/3
_chemical_oxdiff_formula         C4H2N5Cl1
_shelx_space_group_comment
;
The symmetry employed for this shelxl refinement is uniquely defined
by the following loop, which should always be used as a source of
symmetry information in preference to the above space-group names.
They are only intended as comments.
;
_reflns_odcompleteness_completeness 39.16
_reflns_odcompleteness_iscentric 1
_reflns_odcompleteness_theta     26.86
_olex2_refinement_description
;
1. Fixed Uiso
 At 1.2 times of:
  All C(H) groups
2. Uiso/Uaniso restraints and constraints
Uanis(C6) \\sim Ueq: with sigma of 0.02 and sigma for terminal atoms of 0.01
3.a Aromatic/amide H refined with riding coordinates:
 C7(H7), C8(H8)
;
_shelx_res_file
;
TITL nowe1a in Pnma #62
    nowe1a.res
    created by SHELXL-2018/3 at 14:15:25 on 08-Jun-2021
REM reset to Pnma #62
CELL 0.71073 10.697082 6.254469 8.80118 90 90 90
ZERR 4 0.004456 0.00067 0.001047 0 0 0
LATT 1
SYMM 0.5-X,-Y,0.5+Z
SYMM 0.5+X,0.5-Y,0.5-Z
SYMM -X,0.5+Y,-Z
SFAC C H Cl N
UNIT 16 8 4 20
ISOR 0.02 0.01 C6

L.S. 44 0 0
PLAN  10
CONF
BOND
fmap 2 53
ACTA
MORE -1
BOND $H
REM <olex2.extras>
REM <HklSrc "%.\\nowe1a.hkl">
REM </olex2.extras>

WGHT    0.018500
FVAR       7.77602
CL1   3    0.615514    0.750000    0.911274    10.50000    0.11480    0.07850 =
         0.03464    0.00000   -0.00364    0.00000
C6    1    0.624162    0.750000    0.715795    10.50000    0.01554    0.04690 =
         0.03633    0.00000   -0.00888    0.00000
C7    1    0.747076    0.750000    0.652559    10.50000    0.02533    0.05918 =
         0.06611    0.00000   -0.00636    0.00000
AFIX  43
H7    2    0.818559    0.750000    0.712702    10.50000   -1.20000
AFIX   0
N6    4    0.535282    0.750000    0.492808    10.50000    0.01887    0.04320 =
         0.04373    0.00000    0.00470    0.00000
N1    4    0.618816    0.750000    0.267119    10.50000    0.01794    0.07080 =
         0.03976    0.00000   -0.00511    0.00000
N5    4    0.521591    0.750000    0.646467    10.50000    0.06929    0.05051 =
         0.03557    0.00000    0.00157    0.00000
C8    1    0.752257    0.750000    0.497625    10.50000    0.09425    0.06102 =
         0.05120    0.00000    0.02428    0.00000
AFIX  43
H8    2    0.829630    0.750000    0.449439    10.50000   -1.20000
AFIX   0
N2    4    0.491669    0.750000    0.261655    10.50000    0.10282    0.06091 =
         0.04235    0.00000   -0.02528    0.00000
N3    4    0.440827    0.750000    0.395582    10.50000    0.10600    0.05570 =
         0.05899    0.00000   -0.02257    0.00000
C9    1    0.649203    0.750000    0.414998    10.50000    0.06884    0.04687 =
         0.03601    0.00000    0.00229    0.00000
HKLF 4




REM  nowe1a in Pnma #62
REM wR2 = 0.0431, GooF = S = 1.081, Restrained GooF = 1.069 for all data
REM R1 = 0.0249 for 187 Fo > 4sig(Fo) and 0.0495 for all 263 data
REM 61 parameters refined using 6 restraints

END

WGHT      0.0183      0.0000

REM Highest difference peak  0.082,  deepest hole -0.092,  1-sigma level  0.022
Q1    1   0.9331  0.7500  0.5393  10.50000  0.05    0.08
Q2    1   0.7307  0.7500  0.9775  10.50000  0.05    0.08
Q3    1   0.8623  0.7500  0.3398  10.50000  0.05    0.08
Q4    1   0.6436  0.8957  0.3240  11.00000  0.05    0.07
Q5    1   0.5498  0.9811  0.9449  11.00000  0.05    0.07
Q6    1   0.4400  0.7500  0.1837  10.50000  0.05    0.07
Q7    1   0.5563  0.7500  0.8052  10.50000  0.05    0.07
Q8    1   0.4912  0.9013  0.9959  11.00000  0.05    0.07
Q9    1   0.8177  0.7500  0.6555  10.50000  0.05    0.06
Q10   1   0.8602  0.7500  0.6438  10.50000  0.05    0.06
;
_shelx_res_checksum              62593
_shelx_hkl_file
;
   0   0  -2 2597.08 213.836  15
   0   0   2 2807.82 224.104  13
   0   0  -2 2633.57 208.694  10
   0   0   3 28.4981 88.7142  12
   0   0  -3-46.8463 112.481  16
   0   0   3 62.5672 103.795   6
   0   0  -3-89.9726 126.577  10
   0   0   3-19.8346 109.769  13
   0   0  -3 170.474 138.002  15
   0   0  -3-95.3216 89.0531   7
   0   0  -3 38.1014 81.8276   9
   0   0  -4 426.651 176.284  10
   0   0   4 112.014 201.058  13
   0   0   4 310.155 142.788  12
   0   0  -4 283.700 173.405  16
   0   0  -4 401.272 147.497   9
   0   0   4 276.271 144.665   6
   0   0  -4 470.913 153.081   7
   0   0  -4 281.085 186.134  15
   0   0  -5 47.9923 196.146  16
   0   0   5-149.859 247.398  13
   0   0  -5 267.278 175.537   9
   0   0   5 316.534 199.766   6
   0   0  -5 85.0561 152.863   7
   0   0  -5-74.6413 221.594  15
   0   0  -5 247.145 233.521  10
   0   0  -6 49833.5 1662.39  15
   0   0  -6 51329.3 1354.06   9
   0   0   6 43783.9 1357.41   6
   0   0  -6 50098.9 1652.99  16
   0   0  -6 45208.5 1563.46  10
   0   0   6 49499.6 1750.22  13
   0   0  -7-207.931 314.153  10
   0   0  -7-340.469 375.998  16
   0   0   7 91.4708 412.802  13
   0   0  -7-241.446 360.687  15
   0   0  -8 6549.73 816.945  15
   0   0   8 6922.61 946.513  13
   0   0  -8 6909.81 821.010  16
   0   0  -8 6251.40 785.028  10
   0   0   9 300.594 517.192  11
   0   1  -2-36.1387 73.7947   2
   0   1   2 62.7299 91.2644  13
   0   1  -2-41.4286 85.2433  10
   0   1  -2-34.6486 89.8834   4
   0  -1  -2 5.97962 82.9637   9
   0  -1   2-84.4283 88.0046   1
   0   1   2-21.8459 90.9163  12
   0  -1   2-47.4031 91.3435   6
   0  -1  -2-153.760 116.383  16
   0  -1  -2-137.897 112.260  15
   0   1  -2-11.5414 93.2597   7
   0  -1   2-21.6756 76.2865   3
   0  -1   3 102331. 1527.33   1
   0  -1   3 104772. 1444.27   3
   0   1   3 101191. 1662.54  12
   0  -1  -3 107952. 1641.35   9
   0  -1   3 102721. 1678.43   6
   0  -1  -3 106267. 1748.16  15
   0  -1  -3 107774. 1336.27   8
   0   1   3 102550. 1423.57   5
   0   1  -3 95592.4 1635.62  10
   0   1  -3 101316. 1487.01  15
   0   1  -3 105562. 1462.77  16
   0  -1  -3 100578. 1684.19  16
   0   1  -3 103517. 1498.86   2
   0  -1   3 100365. 1569.01  13
   0   1   3 108021. 1775.88  13
   0   1  -3 99381.0 1614.90   7
   0   1  -3 104087. 1392.93   4
   0  -1  -3 108862. 1509.58  10
   0  -1  -4 137.090 223.927  15
   0  -1   4 504.250 241.638   6
   0  -1   4 175.073 170.375   3
   0   1   4 156.508 205.514  12
   0  -1   4 205.786 254.989  13
   0   1  -4 589.750 244.734  10
   0   1   4 243.761 204.593  13
   0  -1  -4 420.508 238.195  16
   0   1  -4 261.603 222.201   7
   0   1   4 293.806 137.132   6
   0  -1  -4-47.0351 191.467  10
   0  -1  -4 250.588 149.755   8
   0   1  -4 255.114 156.528   4
   0   1  -4 106.703 181.875  16
   0   1  -4 230.109 188.591  15
   0  -1  -4 153.372 209.465   9
   0   1   5 40773.0 1363.06  12
   0  -1  -5 38600.3 1232.16  10
   0   1  -5 38103.2 1250.11   7
   0   1  -5 36231.2 1334.43  10
   0  -1  -5 39060.0 1360.91  15
   0  -1   5 38030.0 1383.10  13
   0  -1  -5 39883.6 1236.83   9
   0  -1   5 39075.4 1295.57   6
   0   1  -5 39911.0 1295.84  15
   0  -1  -5 40090.8 1365.69  16
   0   1  -5 43151.7 1038.76   4
   0   1   5 36881.8 1375.58  13
   0   1  -5 38614.7 1239.14  16
   0   1  -6 413.021 251.175  15
   0   1   6 623.620 375.429  13
   0   1  -6 53.2173 226.246   7
   0   1   6-157.965 268.786  12
   0  -1  -6 228.554 321.765  15
   0  -1  -6-315.291 244.971   9
   0  -1  -6 256.581 263.554  10
   0  -1   6-34.6417 290.189   6
   0  -1   6-127.164 307.171  13
   0   1  -6 124.621 282.429  10
   0  -1  -6 241.471 306.854  16
   0   1  -6-3.45315 272.704  16
   0   1   7-43.5070 399.034  13
   0  -1  -7 177.750 331.046   9
   0   1  -7 264.304 362.240  16
   0   1  -7-401.092 353.967  15
   0  -1  -7-282.676 311.311  10
   0   1   7-228.934 369.123  12
   0  -1   7 202.188 314.691   6
   0  -1  -7 274.856 378.592  16
   0  -1  -7-342.576 369.332  15
   0   1  -7-239.179 381.594  10
   0   1   8 100.903 478.597  13
   0  -1  -8 903.121 531.871  16
   0   1  -8 272.845 394.385  16
   0   1  -8-17.7174 357.837  10
   0  -1  -8 166.068 379.617  15
   0   1   8 748.141 551.911  11
   0  -1  -8 6.61885 357.850  10
   0   1   9 8267.51 1066.72  13
   0   1   9 8835.11 1171.83  11
   0  -1  -9 8461.59 999.754  16
   0  -1  -9 7754.82 923.300  15
   0  -2   1-65.9472 127.918   3
   0   2  -1-68.6145 128.380   7
   0   2  -1-46.7584 119.075   2
   0   2   1 85.6325 89.5797   2
   0  -2   1-43.1656 120.291   1
   0   2  -1-54.8526 99.1203   5
   0  -2  -1 68.5737 101.571   3
   0  -2  -1 151.065 104.719   1
   0   2   1-0.04383 94.7210   4
   0  -2   1 58.5117 100.753   6
   0   2  -1 135.041 142.742   4
   0  -2  -1 6.52749 105.474   9
   0   2   1 137.956 148.773   5
   0  -2  -1 48.6686 106.895   8
   0  -2   1 12.2973 94.3521   8
   0   2  -2 1366.58 209.827  10
   0  -2   2 1523.89 235.887   1
   0  -2  -2 1602.57 234.667   8
   0  -2   2 1633.49 246.839   6
   0  -2  -2 1955.31 199.413   1
   0  -2  -2 1738.12 198.006   3
   0  -2  -2 1835.91 263.006   9
   0   2  -2 1486.05 237.024   4
   0  -2  -2 1987.99 254.412  16
   0   2  -2 1724.52 222.809   5
   0   2   2 1741.60 260.906  12
   0   2   2 2055.79 246.899  13
   0   2   2 1834.37 207.013   2
   0   2   2 1691.51 195.054   4
   0  -2  -2 1865.16 237.999  15
   0   2  -2 1724.60 249.110   2
   0  -2   2 1666.63 222.107   8
   0  -2   2 1495.58 220.557   3
   0   2   2 1638.50 249.591   5
   0   2  -2 1867.18 261.766   7
   0  -2  -3-312.779 227.332  16
   0   2   3-53.1950 161.234   5
   0   2  -3-31.1131 152.760  10
   0   2   3 66.8037 135.639  11
   0  -2   3-101.873 175.897   6
   0  -2  -3-221.212 146.229   3
   0  -2  -3-61.0077 184.712  15
   0  -2   3-145.330 190.894   3
   0  -2  -3-528.697 171.170  10
   0   2  -3-150.831 137.301   5
   0   2  -3-85.9905 141.305  16
   0  -2   3-150.612 158.449   1
   0  -2  -3-289.015 234.583   9
   0   2  -3-242.991 179.723   4
   0  -2  -3-180.746 185.450   8
   0   2  -3-155.462 175.575   2
   0   2   3 15.8443 98.3055   2
   0   2   3 22.3906 227.029  12
   0   2  -3 199.355 162.327   7
   0   2   3-251.611 209.690  13
   0   2   4 877.154 310.680  12
   0  -2   4 328.709 232.208   6
   0  -2  -4 363.010 219.726   9
   0  -2  -4 565.001 240.512  15
   0  -2   4 259.571 183.072   1
   0  -2  -4 286.249 177.848   8
   0   2   4 839.375 251.382   5
   0  -2  -4 320.540 173.599  10
   0  -2   4 814.849 251.117   3
   0   2  -4 503.132 172.798  16
   0   2   4 572.517 202.799  11
   0   2  -4 651.058 258.266   7
   0   2  -4 321.971 214.845  10
   0   2  -4 556.006 215.600   2
   0   2  -4 425.863 220.839   4
   0   2   4 220.998 222.811  13
   0  -2  -4 771.213 295.989  16
   0   2   5-157.757 228.041  11
   0   2  -5-6.10082 202.431   4
   0  -2  -5-81.2650 188.707   8
   0  -2  -5 10.2329 187.454  10
   0   2   5-198.012 227.753   5
   0  -2  -5 254.247 261.206   9
   0  -2  -5-167.652 252.347  15
   0  -2  -5-53.6379 257.917  16
   0   2  -5-28.5620 219.987  10
   0   2   5-148.034 291.295  12
   0  -2   5 261.204 313.133   6
   0   2  -5 84.6809 201.738  16
   0   2   5 184.132 310.964  13
   0  -2   5 221.830 232.667   3
   0   2  -5-50.2050 225.657   7
   0  -2  -6 31111.7 1296.49   9
   0  -2  -6 33136.2 1261.94  10
   0  -2   6 28909.0 1368.35   6
   0   2   6 32707.6 1485.03  12
   0  -2  -6 32340.3 1397.55  16
   0  -2  -6 30768.5 1385.04  15
   0   2   6 33743.3 1371.61  11
   0   2   6 32552.5 1509.28  13
   0   2  -6 27930.6 1308.88   7
   0   2  -6 33270.9 1436.41  10
   0   2   7 160.608 411.650  11
   0   2   7 692.373 465.901  13
   0   2  -7-444.023 384.298  10
   0  -2   7 272.884 384.186   6
   0  -2  -7-65.3159 362.887  16
   0   2   7 115.582 433.282  12
   0  -2  -7 95.9588 353.261   9
   0  -2  -7 51.8856 360.284  15
   0   2   8 5194.50 903.274  12
   0  -2  -8 4210.47 732.786  15
   0  -2  -8 5568.79 724.763   9
   0   2   8 7159.64 996.381  13
   0  -2   8 4165.15 682.567   6
   0  -2  -8 4312.66 728.081  16
   0  -2  -9 88.1410 434.643  16
   0   2   9-332.431 684.391  13
   0   2   9 31.8193 600.843  14
   0  -2  -9-243.133 468.075  15
   0   3   0 663.128 309.371   5
   0   3   0 505.593 289.950   4
   0   3   0 366.744 266.440   2
   0  -3   0 668.324 268.102   1
   0   3   0 752.477 237.191   7
   0  -3   0 1103.66 291.065   9
   0  -3   0 585.605 274.233   8
   0  -3   0 641.216 276.388   3
   0  -3   0 517.819 212.396   6
   0  -3   1 4082.06 464.549   9
   0   3   1 3419.72 383.197   4
   0  -3  -1 3374.68 401.864   8
   0  -3   1 3721.77 405.584   8
   0   3   1 3620.40 300.890   7
   0  -3   1 3882.14 435.908   3
   0   3   1 4016.81 418.757  14
   0  -3   1 3912.25 424.221   1
   0   3  -1 3202.82 410.416   2
   0  -3   1 3543.08 367.040   6
   0  -3  -1 3468.57 386.165   3
   0   3   1 3484.40 297.710  13
   0  -3  -1 4818.76 405.738  16
   0   3  -1 3954.84 444.088   4
   0   3   1 3429.46 426.240   5
   0   3  -1 4064.05 404.140   7
   0  -3  -1 3328.46 400.357   9
   0  -3  -1 3812.85 292.826  15
   0   3  -1 3517.25 397.763   5
   0   3   1 3718.80 398.162   2
   0  -3  -1 3275.63 369.311   1
   0  -3  -1 3466.74 297.933   6
   0   3  -2-61.7443 182.433   5
   0  -3   2-108.591 216.582   8
   0  -3  -2 57.3056 160.407  16
   0   3  -2-224.279 234.674   4
   0  -3   2-343.823 219.428   1
   0  -3  -2 7.08096 179.328   1
   0   3  -2-87.6978 188.354   7
   0  -3   2-44.1187 216.195   3
   0  -3  -2-55.9125 201.480   8
   0   3  -2 93.1577 189.328   2
   0   3   2 0.53525 220.494  12
   0  -3  -2 155.265 169.138   3
   0   3   2-318.581 264.127   5
   0  -3  -2-209.044 219.764   9
   0  -3   2 55.1115 199.284   6
   0   3   2 61.6111 156.433  13
   0  -3  -2-79.0112 192.712  15
   0   3   2-66.6898 207.203   4
   0   3   2-94.9214 172.510   2
   0   3   2 154.702 185.939  14
   0  -3   3 31422.5 1176.45   1
   0  -3   3 29060.0 1174.94   3
   0  -3  -3 32259.7 1010.53   3
   0   3  -3 30779.3 1210.64   7
   0   3  -3 32101.2 1204.23   4
   0  -3  -3 31179.5 1085.35  16
   0   3  -3 30940.0 1219.69   2
   0   3   3 30403.9 1055.07   4
   0  -3  -3 30034.8 1037.23  15
   0  -3   3 30551.6 1207.16   6
   0   3   3 31936.2 1248.27  12
   0  -3  -3 30671.5 1183.73   9
   0   3  -3 29919.6 1100.66  10
   0   3   3 32813.9 1160.33  14
   0  -3  -3 31075.5 916.637   1
   0   3   3 31941.2 977.268   2
   0   3  -3 33076.7 1056.55   5
   0   3   3 31245.5 1115.60  13
   0   3   3 32252.0 1223.14   5
   0  -3  -3 31664.0 1144.56   8
   0   3  -4 45.7563 229.574   2
   0   3   4-173.538 254.191  13
   0  -3  -4 59.2179 253.362  15
   0  -3   4-40.7382 239.476   1
   0  -3   4 195.204 291.589   3
   0  -3  -4 204.286 294.568   9
   0   3   4 146.236 269.738   5
   0  -3  -4-195.533 265.394  16
   0   3  -4 58.9294 241.101  10
   0   3  -4 315.662 267.045   7
   0  -3  -4 179.264 230.961   8
   0  -3   4 30.2354 290.303   6
   0   3   4-37.6814 289.154  12
   0   3  -4-181.486 251.831   4
   0   3   5 14259.4 977.713  13
   0   3   5 12867.9 949.622  12
   0  -3  -5 14726.7 850.218   8
   0  -3  -5 13323.5 913.653   9
   0  -3  -5 14772.7 942.501  16
   0  -3   5 18851.5 1120.04   3
   0  -3  -5 13743.4 903.363  15
   0   3   5 14471.2 960.496   5
   0   3  -6 316.560 368.792  10
   0   3   6 356.550 430.602  13
   0  -3  -6 19.2892 322.174   9
   0   3  -6-28.7192 313.989   4
   0   3  -6 210.830 376.320   7
   0  -3  -6-289.387 364.014  16
   0  -3  -6 73.8049 317.318  15
   0   3   6 447.795 461.284  12
   0  -3   6-49.4966 404.244   6
   0   3   7 183.163 499.609  14
   0  -3   7-199.008 492.716   6
   0   3   7 56.3026 455.484  12
   0  -3  -7 215.315 367.082   9
   0   3   7-134.100 459.856  13
   0  -3  -7 209.575 403.195  15
   0  -3  -7 165.777 406.724  16
   0  -3  -8-1079.58 610.593  15
   0   3   8-1188.37 743.423  12
   0  -3  -8 105.800 602.659   9
   0   3   8-1013.80 651.428  13
   0   3   8-185.410 633.410  14
   0  -3  -9 3232.95 742.915  16
   0   3   9 4418.36 1074.50  14
   0  -3  -9 4263.92 761.367   9
   0   3   9 4393.91 986.833  13
   0  -3  -9 3034.58 704.680  15
   0   4   0 444258. 4075.72   7
   0   4   0 435516. 4733.80   2
   0  -4   0 453764. 3998.52   6
   0  -4   0 439182. 4658.06   8
   0   4   0 450583. 4792.02   4
   0  -4   0 438729. 4633.20   3
   0  -4   0 433325. 4315.32   9
   0   4   0 447153. 4319.17  12
   0  -4   0 455362. 4646.45   1
   0   4   0 436568. 4926.19   5
   0  -4   1 286.071 257.249   1
   0  -4   1 14.0828 233.336   8
   0  -4  -1 23.3607 248.796   3
   0   4  -1-46.8768 269.333   4
   0   4   1 13.0807 261.222   4
   0   4   1 89.2760 222.136   2
   0  -4  -1 249.824 252.691   8
   0  -4   1 228.990 278.277   3
   0  -4  -1-151.710 244.200   1
   0   4  -1-63.1906 275.261   5
   0   4   1-90.5907 303.082   5
   0   4  -1 115.527 273.430   2
   0   4   1 151.295 246.279  12
   0   4  -1 30.7540 214.253   7
   0  -4   1-291.027 246.387   6
   0  -4  -1 3.73057 226.485   9
   0  -4   2 1275.76 344.538   6
   0   4   2 974.049 330.567   4
   0  -4   2 702.103 309.608   1
   0   4  -2 846.509 297.046   7
   0  -4   2 1021.92 351.022   8
   0  -4  -2 884.778 351.648   8
   0   4  -2 957.836 382.076   4
   0   4  -2 988.798 340.738   5
   0   4   2 877.718 371.559   5
   0  -4  -2 1070.14 336.053   9
   0   4  -2 968.383 355.213   2
   0  -4  -2 735.568 275.221   1
   0   4   2 902.698 309.928   2
   0   4   2 750.778 360.196  12
   0  -4   2 1577.63 427.068   3
   0  -4  -2 844.709 295.865   3
   0  -4  -3 75.6162 292.501   9
   0  -4  -3-119.413 247.706  16
   0  -4  -3 88.3755 283.936   8
   0  -4   3 181.649 349.320   3
   0  -4   3-21.3655 282.723   8
   0   4   3-143.400 230.647   2
   0   4  -3-218.239 246.279   5
   0  -4   3 167.105 323.176   6
   0   4  -3-50.9768 270.004   7
   0   4   3-14.2165 329.297  12
   0   4  -3 137.497 290.962   2
   0  -4   3 222.029 294.320   1
   0   4   3-240.705 314.694   5
   0   4  -3 248.098 323.836   4
   0  -4   4 402.879 392.217   3
   0   4  -4-207.073 332.540   2
   0  -4   4-128.702 314.576   1
   0   4  -4 355.749 352.216   4
   0  -4  -4 310.354 316.697   8
   0   4   4 202.519 319.167  14
   0   4   4 664.488 352.249  13
   0   4  -4 233.559 314.492   7
   0   4   4 206.539 360.082   5
   0  -4  -4 290.146 321.702  16
   0   4   4 1078.40 415.270  12
   0  -4  -4 641.585 324.684  15
   0  -4   4 196.750 333.464   6
   0  -4  -4 96.8843 348.605   9
   0   4   5 300.019 372.735  13
   0   4  -5 206.366 322.689   2
   0  -4   5-70.3539 390.282   3
   0   4   5 246.780 403.359   5
   0  -4  -5 81.6783 296.119   8
   0  -4  -5 426.796 417.245   9
   0  -4  -5 290.620 323.672  15
   0   4  -5 468.260 362.790   4
   0  -4   5-210.114 433.984   6
   0  -4   5 126.147 355.993   1
   0  -4  -5 392.006 362.317  16
   0   4   5 334.549 398.385  14
   0   4   5-61.3941 425.323  12
   0   4  -5-743.974 450.389   7
   0  -4  -6 10431.2 919.828  15
   0   4   6 10465.4 1041.98  13
   0   4  -6 9552.22 966.841   7
   0   4   6 10412.4 1103.02  12
   0  -4   6 10791.6 1030.26   3
   0   4  -6 11370.8 986.542   4
   0  -4   6 9059.51 1023.11   6
   0  -4  -6 9701.75 918.351  16
   0  -4  -6 9346.67 920.532   9
   0   4   6 11042.3 1060.91  14
   0  -4  -7 348.133 455.783  15
   0   4   7 163.001 568.524  12
   0   4   7 82.2789 547.259  14
   0  -4  -7 804.243 480.070   9
   0   4   7-633.342 608.734  13
   0  -4  -7 142.973 419.040  16
   0   4   8 3218.41 992.634  12
   0   4   8 3729.29 979.712  14
   0  -4  -8 2133.45 641.275  15
   0  -4  -8 2082.59 665.149  16
   0   4   8 2671.54 863.889  13
   0  -4  -8 1197.20 557.259   9
   0  -4  -9 381.152 534.700  16
   0   4   9 619.817 826.066  12
   0   4   9-608.980 933.577  14
   0  -4  -9-1542.88 650.351   9
   0  -5   0 766.418 369.711   3
   0   5   0 845.788 460.437   5
   0  -5   0-93.0671 325.229   1
   0   5   0-6.16373 391.684   4
   0  -5   0 442.584 379.771   8
   0   5   0 278.896 347.672   2
   0  -5  -1 961.792 383.339   9
   0   5  -1 1357.31 481.555   5
   0   5  -1 1279.61 459.781   2
   0   5   1 1072.64 378.502   2
   0  -5   1 1266.14 454.321   3
   0  -5  -1 1308.09 415.275   1
   0   5   1 727.712 379.901   5
   0  -5  -1 930.079 436.791   8
   0  -5   1 1006.92 403.179   6
   0   5   1 455.540 383.198   4
   0   5  -1 1450.95 515.772   4
   0   5   1 787.265 379.030  12
   0  -5   1 1364.08 411.558   1
   0  -5   1 926.392 405.249   8
   0  -5  -1 1189.38 447.728   3
   0   5  -1 827.629 347.683   7
   0   5   2-11.9294 359.698  12
   0  -5   2 50.7978 330.001   8
   0   5   2-628.272 352.897   2
   0  -5  -2 483.428 361.497   3
   0   5  -2 115.072 431.572   4
   0  -5  -2-217.517 403.517   8
   0  -5   2-428.279 381.588   6
   0   5   2 201.480 375.513   4
   0   5  -2-220.722 376.772   2
   0   5  -2 35.7041 346.618   5
   0   5  -2 320.951 301.656   7
   0  -5   2-150.064 414.894   3
   0  -5  -2-117.813 286.578   1
   0   5   2 459.234 430.912   5
   0  -5   2 438.897 353.536   1
   0  -5  -2-251.276 339.545   9
   0  -5   3 4929.24 726.701   3
   0   5  -3 5323.57 644.606   5
   0  -5   3 4757.96 696.272   1
   0   5  -3 5139.53 732.264   2
   0   5  -3 4049.31 698.378   4
   0  -5  -3 4820.91 678.518   8
   0  -5  -3 4912.68 657.866   9
   0   5   3 4642.99 724.635  12
   0   5  -3 4070.94 611.386   7
   0   5   3 6669.30 879.076   5
   0  -5   3 4811.86 657.859   6
   0  -5   4 50.2174 460.561   3
   0   5  -4 565.164 453.531   2
   0  -5  -4 639.096 471.269   8
   0   5   4 620.805 512.171  12
   0   5   4 8.23104 448.696   5
   0   5  -4 211.070 402.501   7
   0  -5  -4-235.064 442.311   9
   0  -5   4-433.852 520.666   6
   0  -5   4-383.404 425.852   1
   0   5  -4 553.969 483.164   4
   0   5   5 3169.26 748.332  12
   0   5   5 3493.23 762.262   5
   0  -5  -5 4042.41 685.216   8
   0   5  -5 4186.45 761.731   4
   0   5  -5 2505.72 633.731   7
   0  -5   5 2234.95 618.962   3
   0  -5  -5 3050.92 682.565   9
   0  -5   5 2511.43 683.910   6
   0   5   6 321.439 552.919  12
   0  -5  -6 532.736 525.231   9
   0  -5  -7-596.174 545.602   9
   0   5   7 91.8178 653.775  12
   0  -5  -8-994.086 601.207   9
   0  -5  -8 411.906 591.694  16
   0   5   8-702.665 865.870  12
   0   6   0 75658.8 2723.91   5
   0  -6   0 67086.1 2442.50   1
   0  -6   0 64188.5 2373.85   8
   0   6   0 73329.0 2571.70   2
   0  -6   0 68757.4 2452.66   3
   0   6   0 71261.0 2698.07   4
   0  -6  -1-84.6782 429.953   3
   0   6  -1-208.277 500.659   4
   0  -6   1 165.544 403.201   8
   0   6   1-65.2930 475.792   5
   0   6  -1 146.341 479.404   2
   0   6  -1 422.296 543.050   5
   0  -6  -1-533.666 401.202   1
   0   6   1 75.6022 406.741   2
   0  -6   1-702.624 509.827   3
   0   6   1-352.237 522.306   4
   0  -6  -1-449.456 393.778   8
   0  -6   1 86.7513 391.148   1
   0  -6  -2 689.557 490.599   9
   0   6   2 27.1634 407.601   2
   0   6  -2 522.831 462.769   5
   0  -6   2 862.363 562.172   3
   0   6   2 74.3402 493.337  12
   0  -6  -2 503.072 445.383   3
   0   6  -2 190.308 544.817   4
   0   6  -2 855.107 507.193   2
   0  -6  -2-153.886 439.226   8
   0  -6   2 529.862 474.801   1
   0  -6   2-50.5840 379.305   8
   0   6   2-248.172 610.161   5
   0   6  -3-355.590 469.392   5
   0  -6  -3 406.504 474.934   9
   0   6  -3-469.934 461.842   2
   0  -6  -3 158.853 378.152   8
   0  -6   3 780.955 600.455   3
   0  -6   3-93.6635 446.498   1
   0  -6   3-743.394 542.057   6
   0   6  -3 730.391 557.140   4
   0   6   3-399.805 429.216  12
   0   6   3 899.294 634.794   5
   0  -6  -4-1094.09 537.194   9
   0   6  -4-224.759 649.807   4
   0   6   4 487.670 473.950  12
   0   6   4 610.147 560.455   5
   0  -6  -4-62.6339 474.939   8
   0  -6  -5-421.304 484.506   9
   0  -6  -5-212.998 509.140   8
   0   6   5-1049.72 751.212  12
   0   6   5 371.634 632.499   5
   0   6   6 1982.47 999.376   5
   0  -6  -6 225.634 494.970   9
   0   6   6 2174.69 867.856  12
   0   7   0 282.033 680.857   4
   0   7   0 536.346 637.382   5
   0  -7   0 174.641 499.708   1
   0  -7   0 364.111 499.647   8
   0   7   0-524.253 529.105   2
   0  -7   0 353.590 506.911   3
   0   7   1 528.778 693.418   5
   0   7  -1 718.715 518.678   2
   0   7  -1 503.291 676.774   5
   0   7   1-88.8643 510.626   2
   0  -7   1 701.179 559.498   8
   0  -7   1-803.101 634.022   3
   0  -7  -1 787.664 511.747   8
   0   7  -1-914.608 628.267   4
   0  -7   1-104.445 504.133   1
   0   7   1-96.5960 663.563   4
   0  -7  -1 470.712 514.825   1
   0  -7  -1 1340.81 663.617   3
   0  -7  -2-609.270 547.921   8
   0  -7   2 904.113 707.555   3
   0   7   2-880.343 738.890   5
   0  -7   2 8.47256 502.805   1
   0   7  -2-335.311 507.837   2
   0   7  -2 109.382 634.813   4
   0  -7  -3 772.601 550.540   9
   0  -7  -3 751.366 556.013   8
   0   7   3 273.041 680.854   5
   0   7   3-850.044 777.313  12
   0   7   4 431.519 776.119  12
   0   7   4 412.074 779.280   5
   0  -7  -4-104.249 600.624   9
   0  -7  -4 808.799 667.065   8
   1   0  -2 17493.1 541.126  16
   1   0  -2 17823.9 555.033  15
  -1   0   2 19290.5 632.491  11
   1   0  -2 19046.7 581.436  10
  -1   0   2 18905.4 617.829  14
   1   0  -3 17968.3 539.497   9
   1   0  -3 18284.9 586.322   7
   1   0  -3 17815.1 683.072  10
  -1   0   3 18027.1 621.978   6
   1   0  -3 17903.0 673.295  15
  -1   0   3 17411.4 699.758  14
   1   0  -3 17341.1 648.997  16
  -1   0   3 18090.1 726.581  11
  -1   0   4 89811.2 1492.22  12
   1   0  -4 88185.4 1732.74  10
   1   0  -4 89700.1 1707.13  16
   1   0  -4 87396.3 1461.90   7
  -1   0  -4 86345.1 1779.38  16
  -1   0   4 90510.6 1578.08   6
   1   0  -4 88112.9 1728.83  15
   1   0  -4 88190.9 1370.70   9
  -1   0   4 86200.7 1793.14  11
   1   0  -5 51450.0 1502.46  15
  -1   0   5 55542.4 1356.26  12
   1   0  -5 53602.0 1515.86  10
   1   0  -5 53682.5 1508.58  16
  -1   0  -5 55273.0 1611.30  16
  -1   0   5 53669.0 1614.58  11
  -1   0   5 52741.3 1566.16  13
   1   0  -5 55952.6 1226.07   9
  -1   0   5 56921.7 1412.95   6
   1   0  -5 55102.9 1303.42   7
   1   0  -6 215.891 204.644   7
   1   0  -6-339.647 299.397  10
  -1   0   6-236.479 336.776  11
  -1   0   6 1.86450 310.908  13
   1   0  -6 301.211 313.325  16
   1   0  -6-122.383 312.612  15
  -1   0   6-0.95325 253.143   6
  -1   0   7 7301.63 823.389  11
  -1   0   7 8131.92 823.090  14
   1   0  -7 7124.54 724.036  16
  -1   0   7 5618.44 725.833  13
   1   0  -7 6697.78 712.886  15
   1   0  -7 7027.29 722.486  10
   1   0  -8 10164.9 937.820  10
  -1   0   8 12807.9 1115.04  14
  -1   0   8 11199.5 1129.06  11
   1   0  -8 10832.6 973.555  15
  -1   0   8 12705.4 1185.75  13
   1   0  -8 12262.6 1019.08  16
  -1   0   9 2474.12 779.719  13
   1   0  -9 2066.85 575.990  10
   1   0  -9 1743.34 522.838  16
   1   0  -9 1365.01 524.854  15
  -1   0   9 3302.33 731.043  14
  -1   0   9 3203.67 799.035  11
  -1   0  10 1570.80 828.444  13
   1   0 -10 1720.30 538.893  15
   1   0 -10 1619.38 597.027  10
   1   0 -10 2233.34 698.716  16
  -1   0  10 1868.29 732.469  14
  -1   0  10 2482.11 932.200  11
  -1  -1   1 21652.9 634.618   6
   1   1  -1 21082.6 578.616   4
   1  -1  -1 21049.2 611.220   9
   1   1   1 21991.6 634.449   5
   1   1   1 21831.9 669.994  12
   1  -1  -2 120887. 1580.27  16
   1   1  -2 117825. 1425.57   2
  -1  -1   2 117978. 1469.78   3
  -1   1   2 117719. 1742.72  14
   1   1  -2 117956. 1568.74  10
  -1  -1  -2 120389. 1625.99  15
  -1  -1   2 117116. 1426.78   1
  -1  -1   2 117457. 1635.21   6
  -1   1   2 113779. 1727.44  11
   1  -1  -2 118263. 1574.28  15
   1   1   2 118007. 1781.99  13
  -1  -1   2 116171. 1620.68  11
   1   1   2 120961. 1825.27  12
   1  -1  -2 119874. 1558.51   9
   1   1  -2 116852. 1440.00   4
   1   1  -2 116654. 1576.24   7
   1  -1  -3 93.8764 120.350  10
  -1  -1  -3 106.711 104.074   8
  -1   1   3 354.801 175.239  11
  -1  -1  -3-15.3115 132.113   9
   1  -1  -3 196.785 98.0528   8
   1  -1  -3 158.827 137.654   9
  -1  -1   3 232.809 130.824   3
  -1   1   3 142.159 90.0945   5
  -1  -1  -3 386.543 154.713  15
   1   1  -3 216.008 127.689  15
   1  -1  -3 254.129 146.386  16
  -1  -1   3 285.636 142.706  14
  -1  -1   3 235.116 108.558   1
   1  -1  -3 158.807 128.062  15
   1   1  -3 201.873 103.281   2
   1   1  -3 191.821 123.971   4
  -1  -1   3 350.107 190.114   6
   1   1  -3 397.511 172.199  10
  -1   1   3 234.082 158.367  14
   1   1  -3 198.850 134.578   7
   1   1  -3-18.1576 105.406  16
  -1  -1   3 17.4893 145.745  11
   1   1   3 123.150 138.963  12
  -1  -1  -3 216.970 143.569  16
   1   1   3 295.247 194.766  13
  -1   1   4 92604.7 1397.08   5
  -1   1   4 90221.8 1806.20  11
   1  -1  -4 92507.8 1236.97   7
   1  -1  -4 93054.8 1709.46   9
   1   1  -4 90518.3 1769.22   7
  -1  -1  -4 90322.9 1436.72   8
   1  -1  -4 92582.3 1865.03  16
   1   1  -4 89317.7 1417.58   4
   1   1  -4 89734.5 1640.58  16
  -1  -1  -4 90295.4 1895.04  15
  -1   1   4 87830.6 1491.29   6
   1   1   4 93993.2 2126.81  13
   1   1  -4 90120.4 1693.71  15
  -1  -1   4 89380.0 1686.18  13
   1   1   4 83806.4 2051.65  12
   1  -1  -4 90980.2 1254.13   8
  -1  -1   4 84147.1 1418.16   1
  -1  -1   4 84461.2 1766.63   6
  -1  -1   4 89652.2 1903.82  11
  -1  -1  -4 87761.9 1701.69   9
  -1  -1   4 91793.1 1473.86   3
  -1   1   4 89986.2 1938.18  14
  -1   1   4 87800.7 1773.11  12
  -1  -1  -4 93121.0 1902.75  16
   1   1  -4 88175.7 1414.00   2
   1  -1  -4 87536.1 1829.07  15
   1  -1  -4 94642.7 1733.68  10
   1   1  -4 85594.1 1814.44  10
   1   1  -5 63914.2 1735.59  10
   1  -1  -5 67862.3 1624.64  10
   1  -1  -5 68434.1 1591.05   9
  -1  -1   5 69061.4 1502.71   1
  -1  -1   5 71678.8 1898.82  11
   1   1  -5 69808.6 1686.11  15
   1   1  -5 67203.3 1591.21  16
   1  -1  -5 66094.8 1743.54  16
  -1   1   5 66621.1 1842.97  13
  -1   1   5 67409.9 1874.84  14
   1   1  -5 65068.1 1632.97   7
   1   1   5 66498.9 2005.28  13
  -1   1   5 69263.1 1796.79  11
  -1  -1   5 68099.1 1729.20  13
  -1  -1   5 68415.8 1751.90   6
  -1  -1  -5 64980.9 1793.15  16
  -1  -1  -5 66012.4 1624.14   9
  -1   1   5 68091.9 1732.57  12
  -1  -1  -5 67079.8 1816.01  15
   1  -1  -5 67278.3 1797.00  15
   1   1  -6-396.653 322.475  10
   1  -1  -6 245.905 277.766  10
  -1  -1  -6 262.269 282.851   9
   1  -1  -6-12.6324 267.094  16
   1  -1  -6 139.035 268.817   9
  -1   1   6 487.370 375.353  13
  -1  -1  -6-22.8628 297.013  15
  -1   1   6 321.089 315.955  14
  -1  -1  -6 169.362 353.319  16
  -1   1   6 120.140 286.304  12
   1   1  -6 49.1899 261.684  15
   1  -1  -6-139.967 302.704  15
  -1  -1   6 228.746 278.732  13
   1   1   6-52.3326 381.696  13
   1   1  -6 268.742 257.869  16
   1   1  -6 253.356 235.739   7
  -1  -1   6 351.966 340.680   6
  -1   1   6 586.006 350.295  11
  -1  -1   6 640.539 342.426  11
  -1   1   7 6694.53 760.155  12
   1  -1  -7 5891.44 594.733   9
   1  -1  -7 5363.74 628.292  10
  -1  -1   7 6137.78 721.683  13
  -1  -1   7 6463.57 727.344  14
  -1  -1   7 6137.69 698.018   6
   1   1  -7 5428.81 617.241   7
   1  -1  -7 5326.95 676.193  15
   1   1  -7 5697.41 666.577  15
   1   1  -7 5581.01 636.297  16
   1  -1  -7 4725.08 659.738  16
  -1   1   7 5543.05 733.687  14
  -1   1   7 5583.40 756.883  13
  -1   1   7 5346.09 735.569  11
   1   1  -7 6491.73 726.130  10
  -1  -1   7 5848.43 743.127  11
  -1   1   8 28056.5 1704.99  14
   1  -1  -8 23356.0 1401.75  15
   1   1  -8 25392.5 1417.12  15
   1  -1  -8 25386.5 1459.37  16
  -1  -1   8 28082.3 1659.81  13
  -1  -1   8 24545.3 1453.01  14
  -1   1   8 26585.0 1649.06  13
   1  -1  -8 25102.6 1378.18  10
   1   1  -8 26113.2 1462.13  10
  -1   1   8 26651.7 1640.68  11
  -1  -1   8 26534.4 1594.50  11
   1   1  -8 24887.1 1340.20  16
   1  -1  -9 707.746 492.696  16
   1   1  -9 176.345 477.059  10
   1  -1  -9 115.323 412.838  10
   1   1  -9 433.811 427.277  15
  -1   1   9 398.678 566.830  11
   1   1  -9-582.733 511.274  16
  -1   1   9-511.681 596.254  13
  -1  -1   9-392.377 560.576  14
   1  -1  -9-0.40098 416.174  15
  -1   1   9 1422.44 636.000  14
  -1  -1   9 695.069 635.969  13
  -1  -1   9-792.287 604.642  11
   1   1 -10 296.901 515.180  10
   1  -1 -10 278.099 457.075  10
   1  -1 -10 2230.25 688.977  15
  -1   1  10 506.283 828.453  11
  -1   1  10 693.739 758.455  14
   1  -1 -10 1457.56 631.831  16
  -1   1  10 2970.81 1018.77  13
  -1  -1  10-406.800 741.446  11
   1   2   0 76.5653 109.674   4
   1   2   0 16.4747 118.041   5
  -1  -2   0-59.1564 98.7646   9
  -1  -2   0-9.38884 108.116   1
   1  -2   0 52.4096 108.378   8
  -1  -2   0 25.3358 108.168   8
   1  -2   0 116.815 107.489   1
  -1  -2   0 81.8076 128.377   3
  -1   2   0-80.4092 109.354   2
   1  -2   0-25.6502 106.189   3
  -1   2   0 131.815 120.429   4
   1   2   0-28.6844 117.614   2
  -1  -2   0-44.5411 94.6635   6
   1   2   0 13.1272 89.0524  12
   1   2   0-7.57711 97.2032   7
   1   2  -1 35851.8 933.881   5
  -1   2   1 34323.3 1036.21   5
   1  -2   1 35101.6 1043.98   3
   1  -2  -1 37357.8 979.719   9
   1   2   1 36534.4 916.651   2
  -1  -2  -1 37423.4 1011.22   8
  -1  -2   1 34399.0 881.781   8
  -1  -2  -1 36312.7 929.216   1
   1   2   1 38448.5 979.647   4
   1   2  -1 36859.0 1005.39   2
   1  -2  -1 36310.2 967.470   8
   1   2  -1 35397.2 989.761   4
  -1   2   1 38150.9 930.880   4
  -1  -2   1 35034.1 975.281   1
  -1  -2   1 36422.6 884.078  11
  -1   2   1 35387.8 914.287   2
   1   2   1 35708.4 967.827  12
   1  -2  -1 37655.7 916.781   1
   1   2  -1 37552.8 965.371   7
   1  -2  -1 34942.4 860.658   3
  -1  -2  -1 39483.4 1009.76   3
  -1  -2   1 37593.8 986.283   6
   1  -2   1 34616.1 1037.18   1
  -1  -2   1 37417.8 1031.28   3
   1   2   1 36142.1 1011.47   5
  -1   2  -1 37219.3 1059.11   2
   1  -2  -1 37350.3 849.426  15
  -1   2  -1 35558.9 1040.70   4
  -1  -2  -1 36920.2 964.596   9
   1   2  -2 9601.02 456.159   5
  -1   2   2 8778.78 538.730   5
   1   2  -2 9205.19 542.253   7
  -1  -2  -2 9627.83 468.515   1
   1  -2  -2 9263.46 413.986   3
  -1   2   2 9555.16 436.321   4
  -1   2   2 9331.51 600.568  14
   1   2   2 9054.42 456.476   2
  -1  -2  -2 9911.11 543.653   8
  -1  -2   2 8682.74 428.190   8
   1   2  -2 8719.05 527.747   4
   1  -2  -2 9261.36 496.330  15
  -1  -2  -2 9117.97 486.649  16
   1   2   2 9275.70 532.538  13
  -1  -2   2 8987.58 551.279   3
  -1  -2  -2 9259.82 550.406   9
  -1  -2   2 9338.82 565.552   6
  -1  -2  -2 8584.60 480.666  15
   1  -2  -2 9205.03 512.043   8
   1   2   2 8645.12 555.793  12
  -1  -2   2 9182.68 538.256   1
   1  -2  -2 9229.72 539.046   9
  -1  -2   2 9826.84 501.755  11
   1   2  -2 9351.67 542.728   2
   1  -2  -2 9328.49 516.288  16
   1   2  -2 9389.81 483.264  10
   1   2   2 8835.84 547.493   5
   1   2  -3 8235.86 419.160   5
  -1  -2   3 8493.70 573.350  11
  -1   2   3 8995.40 594.914   5
   1   2  -3 8497.03 614.732   7
   1  -2  -3 8641.65 537.204   8
   1   2   3 8376.60 426.901   2
  -1  -2  -3 8478.62 425.592   1
  -1  -2  -3 8820.78 543.840   8
   1   2  -3 8374.58 563.549  10
  -1  -2   3 8923.88 461.733   8
  -1   2   3 9459.24 670.154  11
   1   2  -3 8535.19 579.065   4
  -1  -2   3 9130.21 647.834   6
   1   2  -3 9229.90 572.744   2
  -1  -2   3 8417.55 445.776  14
  -1  -2  -3 8310.46 580.418   9
  -1  -2  -3 8590.99 558.083  16
   1  -2  -3 8362.43 552.456  15
   1   2  -3 7913.71 405.930  15
   1  -2  -3 8786.95 597.118   9
  -1   2   3 8785.74 658.650  14
   1  -2  -3 8218.97 546.070  16
   1   2   3 8327.51 606.098  13
   1   2   3 8641.09 639.829  12
  -1  -2   3 8713.34 581.593   1
  -1  -2  -3 8498.42 564.823  15
  -1  -2   3 9193.50 610.098   3
   1   2  -3 8566.42 409.976  16
   1   2   3 8165.60 563.870   5
   1  -2  -3 8558.87 444.695  10
  -1  -2   3 8810.86 430.122  13
   1  -2  -3 8632.31 371.627   3
   1   2   4 49061.1 1574.07  12
  -1  -2   4 47901.8 1450.27  11
  -1  -2  -4 50135.7 1465.72   9
   1  -2  -4 48665.3 1423.57   9
  -1  -2   4 49044.8 1235.84  13
  -1  -2  -4 50254.4 1298.07   8
  -1  -2  -4 52387.9 1494.82  15
   1  -2  -4 49342.0 1218.95   8
   1   2  -4 48323.5 1307.06   4
   1   2  -4 49104.1 1491.64   7
   1   2  -4 50796.8 1341.72   2
  -1  -2   4 48130.5 1490.41   6
  -1  -2  -4 49562.6 1441.92  16
   1  -2  -4 49070.5 1439.43  16
  -1  -2   4 48469.4 1323.19   1
   1   2  -4 48083.7 1155.24  15
   1  -2  -4 47719.3 1407.96  15
   1   2   4 48637.0 1594.76  13
  -1   2   4 49416.2 1566.39  14
  -1  -2   4 50622.9 1212.55  14
  -1  -2   4 49555.0 1364.28   3
   1   2  -4 49313.6 1122.60  16
  -1   2   4 51647.8 1378.51   5
  -1   2   4 52499.4 1516.33  11
   1  -2  -4 48696.5 1193.79  10
   1   2  -4 46361.2 1388.39  10
  -1   2   5 32398.7 1389.68  13
  -1  -2  -5 28992.6 1237.15  16
  -1  -2  -5 31929.3 1271.07   9
  -1  -2  -5 33777.0 1103.07   8
   1   2  -5 35042.8 1198.47   2
   1   2  -5 32825.5 1302.53   7
   1   2  -5 31877.2 1283.47  10
  -1  -2   5 32530.2 1195.69  13
   1   2  -5 34669.3 1161.38   4
  -1  -2   5 33928.9 1182.62   3
   1   2  -5 32871.4 1084.60  16
   1  -2  -5 30791.4 1269.53  16
   1  -2  -5 32220.4 1257.37   9
   1   2   5 33168.3 1462.81  12
  -1  -2   5 32931.0 1204.06   1
   1   2  -5 32874.0 1124.35  15
  -1  -2  -5 32086.6 1313.09  15
  -1   2   5 33253.8 1418.60  14
   1  -2  -5 33326.4 1305.82  15
   1   2   5 33504.7 1475.98  13
  -1  -2   5 31314.7 1322.23   6
  -1   2   5 29960.9 1350.44  12
  -1  -2   5 33451.1 1146.50  14
  -1   2   5 36025.0 1370.65  11
  -1  -2   5 33928.0 1364.17  11
   1  -2  -5 31672.0 1082.90  10
   1  -2  -6-69.8873 256.140  10
   1   2  -6 193.206 278.597  10
  -1  -2   6 15.3945 374.602  11
   1  -2  -6-76.5283 297.396  16
  -1  -2  -6-199.768 287.632   9
   1  -2  -6-60.1113 295.996   9
  -1  -2   6-75.7082 344.292   6
  -1  -2  -6-133.818 313.755  15
  -1  -2  -6 726.908 395.650  16
  -1   2   6 492.945 370.788  14
   1   2   6-111.255 356.889  13
  -1   2   6-228.371 359.189  13
   1   2   6-503.639 419.323  12
  -1   2   6-169.227 343.805  12
   1   2  -6 542.423 279.021  15
   1   2  -6-106.067 275.081   7
   1  -2  -6-32.9489 331.378  15
  -1   2   6 510.721 378.192  11
   1  -2  -7 4876.29 693.702  16
  -1   2   7 4898.90 729.177  13
   1   2  -7 4351.54 654.201  10
   1  -2  -7 4583.75 613.089   9
  -1  -2   7 4142.37 687.708  11
   1  -2  -7 4724.38 651.280  15
   1   2  -7 4851.38 638.913   7
  -1   2   7 5179.00 751.925  14
  -1  -2  -7 5433.52 684.111   9
  -1   2   7 4469.45 710.983  12
   1   2   7 5631.64 851.714  13
  -1  -2   7 4755.64 712.524   6
  -1  -2  -7 4648.58 680.999  15
  -1   2   7 5521.46 726.899  11
  -1  -2  -7 4607.08 678.803  16
   1   2  -8 7743.01 880.749  10
   1  -2  -8 8862.99 879.304   9
   1  -2  -8 8057.04 864.370  16
  -1   2   8 9229.79 1096.41  14
  -1   2   8 9930.11 1145.04  13
  -1   2   8 9305.83 1108.16  12
   1  -2  -8 8046.71 886.853  15
   1   2  -8 8023.43 859.449   7
  -1  -2   8 7966.04 930.402   6
  -1  -2   8 8455.31 1004.77  11
   1  -2  -9 1592.16 605.424  16
   1   2  -9 1540.79 550.473  10
  -1  -2   9 2492.50 684.538   6
   1  -2  -9 2249.77 639.840  15
  -1   2   9 1390.77 653.064  14
  -1   2   9 2319.04 801.326  13
  -1  -2   9 3208.59 789.893  11
   1  -2 -10 1998.09 715.752  16
  -1   2  10 1254.35 946.752  13
   1  -2 -10 1825.18 673.201  15
  -1   2  10 1163.49 907.448  14
  -1   3   0-151.162 203.610   4
  -1  -3   0 101.067 212.880   3
  -1   3   0 157.762 190.089   2
   1   3   0 176.071 220.461   5
  -1  -3   0 257.523 201.428   9
   1  -3   0 209.280 215.727   3
   1  -3   0-189.647 197.261   1
  -1   3   0-38.4453 228.063   5
   1   3   0 124.613 197.840   4
  -1  -3   0 177.481 212.364   8
   1  -3   0 233.394 175.958   8
   1   3   0 207.802 180.896   7
   1   3   0 43.7164 195.231   2
   1   3   0 42.8776 150.403  12
  -1  -3   0 231.189 224.961   6
  -1  -3   0 112.979 209.879   1
   1  -3   0 320.117 194.977   6
  -1  -3  -1 3698.77 395.587   3
  -1  -3   1 3524.01 422.101   3
  -1   3  -1 3491.33 421.094   2
   1   3   1 3141.56 402.923   5
  -1  -3  -1 3194.85 368.420   9
   1   3  -1 3127.34 372.695   5
  -1  -3   1 3136.26 286.030   9
   1  -3   1 3242.22 408.045   3
   1  -3  -1 3048.95 374.432   9
  -1   3   1 3481.13 450.845   5
  -1   3  -1 3292.60 413.353   5
   1  -3  -1 2841.89 338.345   1
  -1  -3  -1 3677.40 416.414   8
   1  -3  -1 3296.06 387.685   8
  -1  -3   1 3036.96 353.210   8
  -1   3   1 3414.07 383.629   2
   1  -3  -1 3323.18 284.810  15
   1   3   1 3904.37 304.486   7
  -1  -3  -1 3511.41 392.017   6
   1  -3   1 3116.59 381.734   8
   1   3   1 2935.65 344.822   2
   1   3  -1 3353.22 381.538   7
   1   3  -1 2915.20 389.268   2
  -1  -3  -1 3675.19 285.096  16
  -1   3   1 3563.92 390.419   4
  -1   3  -1 3028.26 408.838   4
   1  -3   1 3251.33 413.881   1
   1  -3  -1 3629.96 287.458   6
   1   3   1 2946.97 349.725  12
   1   3  -1 3044.75 274.721  12
  -1  -3  -1 3592.41 388.815   1
  -1  -3   1 3081.98 359.778   6
  -1  -3   1 3050.96 328.378  11
   1   3   1 2925.29 358.132   4
   1  -3   1 3396.94 383.263   6
   1  -3  -1 3773.86 383.308   3
   1   3  -1 3141.71 398.180   4
  -1  -3   1 2754.01 372.685   1
   1   3  -1 3185.68 255.798  10
  -1   3   2 31234.7 1239.19   5
  -1   3  -2 33197.7 1197.78   5
   1  -3  -2 30717.4 1062.14  16
   1  -3  -2 32220.7 968.715  15
  -1  -3  -2 32024.7 1149.21   9
  -1  -3   2 31453.5 974.889  11
   1  -3  -2 30808.5 1115.81   9
   1   3   2 32996.8 1126.73   4
  -1  -3  -2 32182.1 1165.15   8
  -1  -3   2 30267.5 1043.34   8
   1  -3  -2 30496.4 1119.07   8
   1   3  -2 31368.1 1176.67   4
  -1   3   2 32723.3 1037.58   4
   1   3  -2 31499.9 1186.26   2
  -1   3  -2 30865.5 1203.18   4
  -1  -3   2 30679.4 1142.89   1
  -1  -3  -2 32785.0 1052.03   1
  -1   3   2 31372.1 1053.40   2
  -1   3  -2 32242.0 1259.59   2
   1   3  -2 30744.0 1150.99   7
  -1  -3  -2 31398.5 950.066  15
   1   3  -2 32503.1 1065.59   5
  -1  -3  -2 31653.7 971.045  16
   1   3   2 31416.4 1052.16  13
  -1   3   2 33735.3 1406.45  14
  -1  -3  -2 32125.9 1113.38   3
   1  -3   2 33160.3 1252.67   6
  -1  -3   2 30541.5 1179.95   3
   1   3   2 31576.3 1183.04  12
   1  -3   2 34608.0 1259.63   1
   1  -3  -2 30681.2 986.179   3
   1  -3   2 31759.2 1237.55   3
   1   3   2 30096.7 1005.32   2
  -1  -3   2 31662.7 1159.40   6
   1  -3  -2 33126.3 1048.89   1
   1   3   2 29635.2 1162.01   5
   1   3  -2 31266.5 899.462  10
   1  -3  -3 125.265 191.539  16
   1   3   3 68.5760 228.622   5
   1  -3  -3 252.609 176.941   3
  -1  -3  -3-19.8565 242.074   9
   1   3  -3 196.847 185.625   5
   1  -3  -3-111.654 207.488   9
  -1   3   3-89.0024 280.598   5
  -1  -3  -3 129.083 234.601   8
  -1  -3  -3-14.2663 201.289  16
  -1  -3  -3 183.782 207.120   1
   1   3   3 38.1806 160.363   2
   1  -3  -3-122.743 202.171  15
   1   3  -3 181.788 236.879   7
   1   3  -3-140.205 252.502   4
   1   3  -3-104.606 225.556   2
   1   3   3 92.1452 208.538  13
   1   3  -3 236.280 197.414  10
   1   3   3 360.964 296.052  12
   1  -3  -3 276.727 239.229   8
  -1   3   3 10.3030 213.313   4
  -1  -3   3 319.167 387.122   6
  -1   3   3 195.425 280.860  14
  -1  -3   3 400.662 560.570   1
  -1  -3  -3 132.994 175.843  15
   1   3  -4 32182.7 1214.86  10
  -1   3   4 33392.1 1368.44   5
  -1  -3  -4 31055.4 1226.47  15
  -1  -3   4 32797.3 1375.17   6
  -1  -3  -4 33823.3 1351.67   9
   1  -3  -4 31822.7 1296.27   9
  -1  -3  -4 31372.0 1212.76   8
   1  -3  -4 33337.7 1204.97   8
   1   3  -4 31860.7 1249.85   4
   1   3   4 31982.1 1329.56   5
   1   3  -4 31795.1 1275.55   2
   1  -3  -4 31678.6 1228.11  15
   1   3  -4 32787.4 1345.09   7
  -1  -3   4 31241.3 1265.45   1
   1  -3  -4 32116.0 1264.13  16
  -1  -3   4 32872.9 1309.80   3
   1   3   4 33007.8 1424.31  12
  -1  -3  -4 34584.7 1297.41  16
  -1   3   4 34258.2 1463.88  12
  -1  -3   4 33890.6 1268.81  11
  -1   3   4 34511.6 1498.53  14
   1   3   4 32609.8 1386.05  13
   1   3  -5 26611.3 1235.92  10
  -1   3   5 28167.9 1331.94   5
   1  -3  -5 26309.4 1254.90   9
  -1  -3  -5 28052.5 1190.87   8
   1  -3  -5 27097.8 1130.21   8
   1   3  -5 28339.9 1209.68   4
   1   3  -5 29094.0 1276.56   2
   1  -3  -5 28603.5 1300.38  16
  -1  -3  -5 28136.6 1290.74  15
   1   3  -5 25811.2 1281.41   7
   1  -3  -5 26836.3 1233.61  15
  -1  -3  -5 27705.5 1283.27  16
  -1   3   5 27711.1 1438.95  14
  -1  -3   5 28141.8 1273.53   1
  -1  -3   5 28309.0 1272.28   3
   1   3   5 27814.1 1440.49  13
  -1   3   5 27031.0 1363.78  13
  -1  -3   5 25958.7 1312.46   6
   1   3   5 24818.1 1353.11  12
  -1   3   5 24470.7 1384.55  12
  -1  -3   5 28009.9 1296.75  11
  -1  -3  -5 25050.5 1243.27   9
   1   3  -6 365.442 361.762   4
   1   3  -6-23.0854 348.649  10
  -1  -3  -6 146.031 373.386   9
   1  -3  -6-166.452 321.563   9
  -1   3   6 935.312 507.009  12
  -1  -3   6-291.730 363.911   1
  -1  -3  -6-320.377 393.991  16
   1  -3  -6 243.378 383.652  16
   1   3  -6-85.8003 359.580   7
  -1  -3  -6 184.442 354.766  15
  -1   3   6-149.615 411.201  14
   1   3   6 336.085 455.351  13
  -1   3   6 506.599 501.120  13
   1  -3  -6 130.752 345.859  15
   1   3   6 293.612 406.313  12
  -1  -3   6 139.354 413.262   6
  -1  -3   6-112.310 367.528  11
   1   3  -7 3127.76 620.867  10
  -1  -3  -7 2296.14 564.482   9
   1  -3  -7 1801.23 401.395   9
  -1  -3  -7 2658.25 573.415  16
   1  -3  -7 2117.60 537.325  16
   1  -3  -7 2295.00 561.852  15
  -1   3   7 2563.21 698.600  14
   1   3  -7 3146.31 592.242   7
   1   3   7 3265.54 743.526  13
  -1   3   7 3197.27 730.428  13
   1   3   7 3820.01 792.663  12
  -1   3   7 3391.76 765.487  12
  -1  -3   7 2269.30 625.933   6
  -1  -3   7 2572.28 624.158  11
   1  -3  -8 12467.0 1128.35  15
   1  -3  -8 13073.8 1126.29   9
   1  -3  -8 13183.0 1163.99  16
  -1   3   8 14737.4 1464.25  14
  -1   3   8 14197.8 1400.76  13
  -1  -3   8 13591.1 1235.09   6
  -1   3   8 11547.9 1365.23  12
  -1  -3   8 13216.1 1292.02  11
   1   3  -8 12434.0 1184.44  10
   1   3  -8 12120.3 1100.19   7
   1   3  -9-876.411 561.131  10
   1  -3  -9 305.911 449.714   9
   1  -3  -9 707.816 547.395  15
  -1   3   9 339.038 750.473  13
   1  -3  -9-137.032 509.678  16
  -1   3   9 997.384 757.292  12
  -1  -3   9 1064.84 666.957   6
  -1  -3   9-1324.47 823.896  11
  -1   3   9 369.999 709.335  14
  -1  -4   0-275.007 292.708   3
  -1   4   0-56.0292 254.741   2
  -1  -4   0-38.8988 233.055   1
   1   4   0 411.441 313.433   5
  -1  -4   0 302.959 257.739   9
  -1   4   0-250.515 307.473   5
   1  -4   0 223.915 238.887   6
  -1  -4   0 21.5529 240.902   8
   1  -4   0 30.7352 232.542   8
   1  -4   0 286.471 313.136   3
  -1   4   0-103.039 290.623   4
   1   4   0 48.5676 274.202   4
   1   4   0 218.226 213.823   7
   1  -4   0 6.47128 244.905   1
   1   4   0-85.5220 271.281   2
   1   4   0-55.4471 202.383  12
  -1  -4   0-189.543 224.202   6
   1   4  -1 6932.06 625.839   5
  -1   4   1 6839.40 741.673   5
  -1  -4   1 7638.26 681.517   1
  -1  -4  -1 6356.92 581.320   9
   1  -4  -1 6205.90 593.796   9
  -1  -4  -1 6060.77 624.321   8
  -1  -4   1 6632.93 621.263   8
   1   4   1 8096.53 683.180   4
   1   4  -1 6517.57 666.993   4
   1  -4   1 6336.43 608.623   8
  -1   4   1 7330.78 683.189   4
   1   4   1 7306.66 636.004   2
   1   4  -1 7344.12 686.810   2
  -1   4  -1 7049.15 712.955   2
  -1   4   1 7041.83 635.309   2
   1   4  -1 7130.14 602.559   7
   1  -4  -1 6232.37 597.443   8
   1  -4   1 7284.70 606.055   6
  -1   4  -1 5368.17 627.449   4
   1  -4  -1 7637.54 625.776   1
   1  -4   1 6345.09 619.979   1
  -1  -4  -1 7511.75 656.110   3
  -1  -4   1 6520.22 680.219   3
  -1  -4  -1 7365.95 620.723   1
   1   4   1 6838.76 593.137  12
   1  -4  -1 7379.09 622.179   3
   1  -4   1 6047.30 638.592   3
  -1   4  -1 6460.41 687.778   5
  -1  -4   1 6414.50 583.662   6
   1   4   1 6358.41 652.993   5
  -1  -4  -2 2403.12 400.007   1
  -1  -4   2 1913.17 450.128   3
   1   4   2 2228.79 466.209   5
  -1   4   2 2062.38 409.007   2
   1  -4  -2 2307.10 376.099   3
   1   4  -2 2648.74 446.620   5
  -1  -4  -2 1768.57 389.915   9
   1  -4   2 2214.84 530.564   3
  -1   4  -2 2421.79 463.442   2
   1  -4  -2 2110.41 413.813   9
  -1   4  -2 2312.31 432.167   5
  -1  -4  -2 2253.50 431.399   8
  -1  -4   2 1675.83 405.173   1
  -1  -4   2 2506.14 432.266   8
   1  -4  -2 2269.13 425.041   8
   1   4   2 2254.76 433.677   4
  -1   4   2 2369.92 436.620   4
   1   4  -2 1999.55 457.435   4
   1  -4   2 2045.08 427.945   1
   1   4   2 1805.86 362.568   2
   1   4  -2 2227.85 410.097   7
  -1   4  -2 2649.73 530.694   4
   1   4  -2 1917.21 429.306   2
   1   4   2 2294.24 417.259  12
   1  -4   2 2266.66 486.896   6
  -1  -4   2 2168.46 422.308   6
  -1  -4  -2 2096.47 386.718   3
  -1   4   2 2320.43 526.569   5
   1  -4  -2 2347.75 391.279   1
  -1  -4   3 1936.53 413.413   8
  -1  -4   3 1906.12 477.012   3
   1   4   3 1411.02 400.771   5
   1   4  -3 1454.18 340.159   5
  -1  -4  -3 1823.12 423.435   9
  -1   4   3 1199.84 458.265   5
   1  -4  -3 1080.05 369.948   9
  -1   4   3 1317.51 533.443  14
  -1  -4  -3 1352.83 396.024   8
   1  -4  -3 1101.79 345.868   8
   1   4   3 1379.29 359.307   2
   1   4   3 1595.58 450.450  12
   1   4  -3 1548.43 447.424   4
   1  -4  -3 1819.77 390.638  16
   1   4  -3 1507.83 403.675   7
  -1  -4   3 1696.41 425.158   1
   1   4  -3 1773.87 416.709   2
  -1  -4  -3 1597.61 407.929   3
  -1  -4   3 1272.57 356.389   6
  -1   4   4 13482.9 1088.21   5
  -1  -4  -4 13707.3 980.784   9
   1  -4  -4 13443.1 976.569   9
  -1  -4  -4 13551.6 949.182   8
   1  -4  -4 13728.7 934.442   8
   1   4  -4 11672.7 905.641   4
   1   4  -4 13213.9 978.051   2
  -1  -4   4 13302.1 964.091   1
   1  -4  -4 14359.6 915.744  15
  -1  -4  -4 13416.1 843.483  15
   1  -4  -4 15399.4 965.685  16
  -1   4   4 15383.8 1271.47  14
   1   4   4 14052.5 998.394  13
  -1   4   4 14152.2 986.095  13
  -1  -4   4 12500.4 976.263   3
   1   4   4 13788.0 1048.69  12
  -1   4   4 13012.9 1084.91  12
  -1  -4   4 13427.2 1002.78   6
   1   4  -4 13361.9 972.437   7
  -1  -4  -4 14863.5 929.590  16
   1   4   4 11502.4 955.152   5
  -1   4   5 11388.1 1043.32   5
   1   4  -5 10426.1 841.619  10
  -1  -4  -5 9706.72 908.817   9
  -1  -4   5 9081.89 910.414   6
  -1  -4  -5 9654.16 826.326   8
   1  -4  -5 9885.56 821.108   8
   1   4  -5 10420.7 889.509   4
  -1  -4   5 10333.0 941.536   1
   1  -4  -5 9676.53 824.239  15
  -1   4   5 8075.96 972.661  12
  -1  -4  -5 11626.6 909.700  16
  -1   4   5 10708.4 983.893  13
  -1   4   5 11891.9 1165.96  14
   1   4  -5 10548.6 929.882   7
   1  -4  -5 9842.38 881.098  16
   1   4   5 10756.4 983.756  13
   1   4   5 11087.0 1028.92  12
  -1  -4   5 10503.8 907.414  11
  -1  -4  -5 10933.5 848.359  15
  -1  -4   5 11516.6 940.415   3
   1   4  -5 10059.8 893.834   2
   1  -4  -5 9168.47 886.448   9
   1   4   5 9165.95 910.238   5
  -1  -4   6 78.5591 398.501   3
   1   4  -6-33.9556 396.583  10
   1   4  -6-560.489 432.335   2
  -1  -4  -6-304.430 428.005   9
   1  -4  -6-319.588 427.036   9
   1  -4  -6-268.959 446.610  16
  -1  -4  -6 399.093 424.262  16
  -1   4   6 1092.45 634.756  14
   1   4  -6-604.227 432.568   4
   1  -4  -6 712.940 421.597  15
   1   4  -6 234.234 428.846   7
  -1  -4   6-637.106 445.161   1
  -1   4   6-319.866 517.839  13
   1   4   6-264.717 475.892  12
  -1   4   6 166.591 528.258  12
  -1  -4   6 334.991 500.684   6
  -1  -4   6-54.1416 421.489  11
   1   4  -7 2132.44 594.627  10
  -1  -4  -7 1322.80 521.112   9
   1  -4  -7 2189.48 592.712   9
  -1  -4  -7 2112.76 580.298  16
   1  -4  -7 1528.70 518.390  15
  -1   4   7 2270.53 817.622  14
   1   4   7 1157.39 569.430  14
   1   4  -7 1935.14 623.511   7
  -1   4   7 455.857 653.758  13
   1   4   7 1043.08 569.566  12
   1  -4  -7 1307.65 505.701  16
  -1   4   7 595.771 564.334  12
  -1  -4   7 1855.41 702.644   6
  -1  -4   7 2306.38 740.894  11
   1  -4  -8 2354.39 636.256   9
   1  -4  -8 2626.50 641.261  15
  -1   4   8 4829.23 1099.32  14
  -1   4   8 3632.43 919.414  13
   1   4  -8 2773.18 675.048   7
  -1   4   8 3178.44 1022.50  12
   1  -4  -8 2906.19 732.123  16
  -1  -4   8 1181.75 706.067   6
  -1  -4   8 3388.82 897.869  11
   1  -4  -9 1500.98 666.407   9
   1  -4  -9 1067.43 587.384  16
  -1   4   9-132.707 1009.08  14
   1  -4  -9 1224.45 577.502  15
  -1   4   9 3661.81 1366.24  12
  -1   4   9 1120.92 1021.59  13
  -1  -5   0 120.371 375.521   3
   1   5   0 61.3581 359.785   5
  -1   5   0-285.817 366.687   2
   1  -5   0 174.723 340.364   3
  -1   5   0 323.645 443.681   5
  -1  -5   0 454.790 360.761   8
   1  -5   0-40.4829 318.767   8
   1  -5   0 44.4021 301.669   1
  -1  -5   0-500.452 366.770   1
   1   5   0-44.8269 380.334   4
  -1   5   0 235.652 443.114   4
   1   5   0 462.284 391.856   2
   1   5   1 505.041 408.794   4
  -1  -5   1 58.7834 406.346   3
   1   5   1 752.548 480.112   5
   1   5  -1 332.916 373.877   5
   1  -5   1 238.259 367.973   3
  -1   5   1 643.313 369.725   2
  -1  -5  -1 436.836 357.717   9
  -1   5  -1 177.192 338.587   2
  -1   5   1-49.2642 453.677   5
  -1   5  -1 360.163 437.818   5
   1  -5  -1 610.654 342.798   9
  -1  -5  -1 1244.91 498.562   8
   1  -5  -1 709.950 370.995   3
  -1  -5   1 300.826 487.240   8
  -1  -5  -1 1056.84 420.296   1
   1  -5   1 732.644 363.706   8
   1  -5  -1 57.3155 317.285   8
  -1   5  -1 111.175 434.451   4
   1   5  -1 771.023 478.093   4
  -1  -5   1 731.892 383.581   1
  -1   5   1 383.311 424.948   4
   1   5  -1 420.113 302.518   7
   1   5   1 274.202 355.992   2
   1   5  -1 253.415 352.006   2
   1   5   1 705.091 361.581  12
  -1  -5   1 452.109 379.972   6
   1  -5  -1 611.132 359.973   1
   1  -5   1 599.899 417.402   1
   1  -5   1 214.215 293.368   6
  -1  -5  -1 701.322 450.192   3
  -1   5   2 6534.85 724.771   2
  -1  -5   2 4618.93 704.082   3
   1   5   2 5180.69 735.012   5
   1  -5  -2 5510.68 637.056   3
   1   5  -2 4972.77 629.328   5
  -1  -5  -2 5022.36 656.090   9
  -1   5   2 5752.36 870.801   5
   1  -5  -2 4635.82 617.656   9
  -1  -5  -2 5261.95 715.087   8
   1   5  -2 5924.67 782.121   4
  -1  -5  -2 5727.02 641.743   1
   1  -5  -2 5752.37 719.607   8
   1   5   2 5717.72 713.652   4
   1   5  -2 5485.80 652.424   7
  -1  -5   2 5811.41 704.796   8
  -1   5   2 6098.78 793.946   4
   1   5   2 5585.88 642.642   2
   1  -5  -2 6145.25 685.874   1
  -1  -5   2 4979.45 691.707   1
   1   5   2 4799.38 679.739  12
   1   5  -2 4334.98 695.331   2
  -1   5   2 5242.65 753.083  12
  -1  -5   2 4738.25 655.931   6
  -1   5  -2 5775.61 817.509   4
  -1  -5  -2 5167.07 680.403   3
   1   5  -3 263.840 382.187   7
  -1  -5   3-136.086 429.648   3
  -1  -5   3 206.345 361.017   1
   1   5   3 231.604 399.558   5
   1   5  -3-1384.43 415.973   5
  -1  -5  -3 112.610 371.972   9
  -1   5   3 156.148 530.074   5
   1  -5  -3 219.446 332.402   9
  -1  -5  -3-214.971 365.232   8
   1  -5  -3-455.320 401.934   8
  -1  -5   3-315.376 427.337   8
   1   5  -3-86.0579 429.634   4
   1   5   3 360.308 449.547  12
  -1   5   3 346.020 456.911  12
  -1  -5   3 306.706 400.396   6
   1   5  -3 166.840 362.420   2
  -1  -5   4 6929.60 863.349   3
   1   5   4 6296.15 825.451   5
  -1  -5  -4 8691.00 910.474   9
   1  -5  -4 8431.50 900.438   9
  -1   5   4 8508.65 1091.04   5
  -1  -5  -4 7723.12 870.801   8
   1   5  -4 8685.06 902.441   4
   1  -5  -4 7630.40 856.513   8
  -1  -5   4 7310.97 895.362   1
   1   5  -4 6902.75 813.911   7
   1   5  -4 9265.30 948.829   2
   1   5   4 8591.15 977.835  12
  -1   5   4 7948.75 973.119  12
  -1  -5   4 7871.21 913.899   6
   1   5  -5 5889.57 835.299   2
   1   5   5 5999.20 895.843   5
  -1  -5   5 6006.97 824.905   3
  -1  -5   5 6162.82 863.522   1
  -1   5   5 7023.71 1067.47   5
  -1   5   5 5486.76 949.243  12
  -1  -5  -5 7168.73 901.900   9
   1  -5  -5 7718.03 920.323   9
  -1  -5  -5 5246.08 738.502   8
   1  -5  -5 6258.06 784.576   8
   1   5  -5 6207.65 843.294   4
   1   5  -5 6113.49 832.191   7
   1   5   5 6139.46 886.777  12
  -1  -5   5 6573.49 910.059   6
  -1  -5   6-170.945 548.434   3
  -1  -5  -6-356.173 526.718   9
   1   5  -6 75.7728 477.637   2
   1  -5  -6 327.820 462.044   9
  -1  -5   6-157.433 554.220   1
  -1  -5  -6-739.205 410.817   8
   1   5  -6-515.518 565.506   4
   1   5  -6-302.677 468.246   7
   1   5   6 247.524 569.728  12
  -1   5   6 243.431 661.180  12
  -1  -5   6 89.7781 527.402   6
  -1  -5  -7 1522.55 637.539   9
   1  -5  -7 972.549 577.148   9
   1   5  -7 478.713 528.695   4
   1   5  -7 611.196 532.469   7
  -1   5   7-189.823 704.030  13
   1   5   7 166.168 720.022  12
  -1   5   7-480.650 763.021  12
  -1  -5   7 734.237 678.982   6
   1  -5  -8 4011.38 873.238   9
  -1   5   8 3008.00 1104.33  12
   1  -5  -8 2936.94 769.075  16
  -1   5   8 2766.34 1098.19  13
  -1  -6   0-494.266 514.697   3
  -1  -6   0-14.0753 449.243   1
   1  -6   0-29.4779 449.465   3
   1   6   0 551.345 528.622   5
  -1   6   0-774.192 600.809   5
  -1  -6   0-330.848 423.642   8
   1   6   0-149.689 506.428   4
  -1   6   0-619.294 600.408   4
   1  -6   0-42.5360 401.127   8
   1   6   0-225.320 427.262   2
  -1  -6   1 1201.69 521.010   3
   1   6   1 1000.43 570.122   5
   1   6  -1 1036.11 490.659   5
  -1  -6   1 855.496 506.944   1
  -1   6   1 2331.54 739.853   5
  -1  -6  -1 632.375 487.830   8
  -1  -6   1 1313.82 528.837   8
   1  -6  -1 1110.56 530.614   3
   1   6  -1 1584.48 596.127   4
  -1   6   1 2151.90 718.883   4
   1   6   1 973.238 472.543   2
   1   6   1 1011.89 584.125   4
   1   6  -1 1244.39 510.342   2
  -1  -6  -1 902.138 474.388   3
  -1  -6  -1 920.959 469.318   1
  -1  -6   2 427.036 510.456   3
   1  -6  -2 382.004 458.338   3
   1   6   2 576.461 549.787   5
   1   6  -2 162.000 417.239   5
  -1   6   2 119.630 570.268   5
  -1  -6  -2-733.217 476.625   9
   1  -6  -2 1304.71 515.592   9
  -1  -6   2 1062.57 477.105   1
  -1  -6  -2 583.543 497.452   8
  -1  -6   2 261.171 472.992   8
   1   6  -2-179.803 513.106   4
   1  -6  -2-10.6094 365.991   8
   1   6   2 846.031 513.096  12
  -1   6   2 332.959 596.986  12
   1   6   2 1288.60 510.259   2
  -1  -6  -2 301.588 456.104   3
   1   6  -2-202.073 427.060   2
  -1  -6   3 854.227 590.128   3
  -1  -6   3-226.170 467.674   1
   1   6   3 270.693 517.119   5
   1   6  -3 661.407 599.377   4
  -1   6   3-551.723 576.104   5
  -1  -6  -3 37.2814 443.733   9
   1  -6  -3-80.6111 429.501   9
  -1  -6  -3 81.0798 441.966   8
   1   6  -3-322.940 448.052   7
   1   6   3 815.553 573.614  12
   1  -6  -3 736.757 500.416   8
  -1   6   3 198.855 569.091  12
  -1  -6   3 481.601 519.981   6
   1   6  -3 412.164 439.434   2
  -1  -6   4 2696.38 726.338   1
  -1  -6   4 2284.02 750.479   3
   1   6  -4 2862.43 704.379   2
   1   6   4 2889.08 720.176   5
  -1   6   4 2941.13 892.332   5
  -1  -6  -4 2338.93 649.188   9
   1  -6  -4 1708.04 575.076   9
  -1  -6  -4 2026.79 615.967   8
   1   6  -4 2620.80 707.779   4
   1   6  -4 2566.18 580.986   7
   1  -6  -4 2179.86 588.745   8
   1   6   4 2860.72 729.201  12
  -1   6   4 2529.98 770.241  12
  -1  -6   4 2500.89 701.706   6
  -1  -6   5 1936.14 745.639   3
  -1  -6   5 2598.81 737.609   1
   1   6   5 2902.06 844.932   5
  -1   6   5 2396.13 919.937   5
   1   6  -5 2078.49 665.969   2
  -1  -6  -5 2282.39 687.251   9
   1  -6  -5 1629.60 619.384   9
  -1  -6  -5 1479.72 601.727   8
   1  -6  -5 1452.51 559.151   8
   1   6  -5 1999.03 717.740   4
   1   6  -5 2190.63 677.675   7
   1   6   5-25.2692 635.872  12
  -1   6   5 1995.42 913.358  12
  -1  -6   5 1953.41 758.828   6
  -1  -6   6 526.368 655.349   3
   1   6   6-565.812 697.585   5
  -1  -6  -6-422.994 518.803   9
   1  -6  -6 63.1420 488.301   9
   1   6  -6 271.670 598.883   4
   1   6  -6-128.429 566.050   7
  -1  -6  -6 194.091 472.344   8
   1   6   6-176.855 749.475  12
  -1   6   6 593.951 834.486  12
  -1  -6   6 1617.98 934.963   6
   1   7   0-1562.62 620.877   2
   1   7   0-924.716 633.561   5
  -1  -7   0 4.44594 494.586   8
  -1  -7   0 519.785 530.689   1
   1   7   0-924.020 702.887   4
  -1  -7   0 896.883 630.307   3
   1   7   1 1013.92 609.246   2
   1   7  -1 650.762 586.651   2
   1   7   1 231.035 544.784   5
   1   7  -1 807.062 622.405   5
  -1  -7  -1 261.470 520.367   8
   1   7   1-15.0473 607.089   4
  -1  -7   1 559.812 595.018   8
  -1  -7   1 340.664 588.191   3
  -1  -7  -1 1898.04 629.485   1
   1   7  -1-74.7424 653.015   4
  -1  -7   1 152.647 501.317   1
  -1  -7  -1-1126.31 666.497   3
   1   7  -2 916.681 513.549   2
   1   7   2 115.661 583.418   5
   1   7  -2 1204.50 682.938   5
  -1   7   2 893.777 750.540   5
  -1  -7  -2 743.837 598.935   8
  -1  -7   2 995.570 620.692   8
   1  -7  -2 1353.09 559.539   8
   1   7  -2 105.012 591.629   4
  -1  -7   2-34.5684 514.759   1
  -1  -7   2 959.406 627.178   3
  -1  -7   3-301.290 602.226   3
   1   7   3 270.169 596.207   5
   1   7  -3 314.040 477.944   2
  -1   7   3-384.556 750.944   5
   1   7  -3-274.161 659.694   4
  -1  -7  -3 37.5484 567.663   8
  -1  -7   3 1.60884 540.877   1
   1   7   3 245.419 657.091  12
  -1   7   3-20.8347 601.485  12
   1  -7  -3-592.484 599.485   8
  -1  -7   4 1500.78 838.293   3
   1   7   4 1907.83 796.257   5
  -1   7   4-116.839 887.302   5
   1   7  -4 2746.22 845.206   2
  -1  -7  -4 2580.73 768.330   9
  -1  -7  -4 559.359 591.807   8
   1   7  -4 818.605 673.700   4
  -1  -7   4 939.735 738.358   1
   1   7   4 711.885 681.949  12
  -1   7   4 92.2467 701.123  12
  -1  -7   4 3102.36 875.052   6
   1  -7  -4-291.920 502.284   8
   2   0  -3 128412. 1913.12  15
  -2   0   3 123513. 2384.63  14
  -2   0   3 128130. 2383.67   6
  -2   0   3 131858. 2521.66  11
   2   0  -3 131152. 1723.53   7
   2   0  -3 131982. 1945.01  16
   2   0  -3 126771. 1972.18  10
   2   0  -4 601.698 268.757  10
   2   0  -4 398.013 262.723  15
   2   0  -4 613.545 236.796   7
  -2   0   4 307.084 259.955  14
   2   0  -4 765.675 278.813  16
  -2   0   4 318.977 251.120   6
  -2   0   4-2.75096 293.385  11
   2   0  -5 55.8063 255.178  10
   2   0  -5 301.889 203.850   9
   2   0  -5 105.185 252.297  16
   2   0  -5 95.1524 261.966  15
   2   0  -5-143.753 207.429   7
  -2   0   5 157.036 280.739  14
  -2   0   5 186.893 226.132   6
  -2   0   5 468.282 306.724  11
   2   0  -6 4007.51 555.269  10
   2   0  -6 4643.14 555.269  16
   2   0  -6 3939.46 546.176  15
   2   0  -6 4423.66 475.365   7
  -2   0   6 4399.05 613.985  14
  -2   0   6 4571.84 566.367   6
  -2   0   6 3998.20 625.760  11
   2   0  -7 5551.42 686.199  10
   2   0  -7 5869.42 688.836  16
   2   0  -7 6759.26 756.480  15
  -2   0   7 6655.08 847.141  14
  -2   0   7 7146.48 881.974  13
  -2   0   7 7211.56 913.690  11
   2   0  -8 2154.67 561.765  10
   2   0  -8 3604.95 616.172  16
   2   0  -8 4337.84 703.058  15
  -2   0   8 3225.01 710.657  14
  -2   0   8 2824.80 736.393  13
  -2   0   8 3421.99 769.233  11
   2   0  -9 9936.59 985.304  10
  -2   0   9 14091.9 1498.32  11
   2   0  -9 9468.90 1026.64  15
  -2   0   9 10943.7 1252.16  14
  -2   0   9 12093.2 1315.90  13
   2   0  -9 11513.8 1048.62  16
   2   0 -10 174.601 555.272  16
   2   0 -10-124.858 444.929  10
   2   0 -10 4.49964 533.583  15
  -2   0  10-581.138 772.963  14
  -2   0  10 835.523 945.666  13
  -2   0  10-872.745 921.588  11
   2   0 -11-1288.35 734.414  16
   2   1  -2 76.3729 122.450  10
   2   1  -2 249.300 136.724   7
  -2  -1   2 330.070 169.977   6
  -2  -1   2 163.992 216.595  11
   2   1  -3 16369.0 712.140   7
   2  -1  -3 16357.3 709.798   9
   2   1  -3 17522.4 632.443   2
   2   1  -3 16100.2 643.041   4
  -2  -1   3 15396.0 664.719   1
   2  -1  -3 15935.6 732.146  16
   2  -1  -3 16515.3 740.834  15
  -2  -1   3 16029.0 882.398  14
  -2   1   3 13060.9 865.072  14
  -2  -1   3 15014.1 660.724   3
   2   1  -3 16775.6 684.883  16
   2   1  -3 16538.8 642.678  15
  -2  -1   3 17105.1 851.856   6
  -2   1   3 15105.9 1013.19  11
  -2  -1   3 16303.8 874.001  11
   2  -1  -3 15782.6 685.990  10
   2   1  -3 16346.7 734.470  10
   2  -1  -4 362.463 209.362  10
   2   1  -4 71.1901 222.006  10
  -2   1   4 520.400 318.200  14
   2  -1  -4 221.613 180.664   9
  -2   1   4 307.963 159.652   5
   2   1  -4-66.1760 145.806   4
   2  -1  -4-54.5036 194.179  16
   2   1  -4-90.9568 173.895  16
   2   1  -4 53.1844 151.797   2
   2  -1  -4 81.8482 212.311  15
   2   1  -4 195.359 200.217  15
   2   1  -4 261.168 197.819   7
  -2  -1   4-205.904 265.396  14
  -2  -1   4 106.786 160.750   3
  -2  -1   4 261.731 255.499   6
  -2  -1   4 2.73989 157.849   1
  -2   1   4 18.9296 274.282  11
  -2  -1   4-35.6805 286.115  11
   2  -1  -4-77.3541 140.253   7
   2   1  -5 4209.86 514.787  10
   2  -1  -5 4344.48 444.085   9
   2  -1  -5 4972.18 530.544  16
   2   1  -5 4084.77 443.784  16
   2   1  -5 4928.40 506.404   7
   2  -1  -5 5037.79 549.756  15
  -2  -1   5 4397.29 548.568  14
  -2   1   5 4237.10 599.500  14
  -2  -1   5 4239.04 517.755   6
   2   1  -5 4948.53 502.301  15
  -2   1   5 3778.07 581.187  11
  -2  -1   5 4082.08 555.198  11
   2  -1  -5 4664.52 487.867  10
   2  -1  -6 42929.7 1405.16   9
   2  -1  -6 44569.1 1616.78  16
   2   1  -6 44701.1 1497.77  16
   2  -1  -6 43222.6 1606.62  15
   2   1  -6 43490.9 1516.76  15
   2   1  -6 42252.9 1459.55   7
  -2  -1   6 44018.5 1713.78  14
  -2   1   6 41976.2 1815.95  14
  -2  -1   6 40096.0 1576.71  13
  -2  -1   6 44390.3 1656.28   6
  -2   1   6 44154.8 1670.28  12
  -2   1   6 44273.1 1851.19  11
  -2  -1   6 42426.0 1788.84  11
   2  -1  -6 43349.7 1534.22  10
   2   1  -6 45200.4 1668.01  10
   2  -1  -7 578.711 327.568  10
   2   1  -7 514.226 350.902  10
   2   1  -7 645.240 346.249  16
   2  -1  -7 1454.03 482.554  16
   2   1  -7 650.968 377.033  15
   2   1  -7 1116.45 406.706   7
  -2  -1   7 1550.93 508.044  14
  -2   1   7 523.657 514.622  14
  -2  -1   7 577.601 419.668  13
  -2   1   7 624.734 494.837  13
   2  -1  -7 794.396 450.219  15
  -2  -1   7 1159.31 453.310   6
  -2   1   7 998.638 502.018  11
  -2  -1   7 1198.57 477.627  11
   2  -1  -8 955.342 466.872  10
   2   1  -8-278.409 399.008  10
   2  -1  -8-413.562 480.382  16
   2   1  -8 690.642 423.839  16
   2   1  -8 492.381 420.130  15
   2  -1  -8-515.090 494.989  15
  -2  -1   8 935.631 583.940  14
  -2   1   8-820.749 719.982  14
  -2  -1   8 200.111 480.996  13
  -2   1   8 30.6493 611.796  13
  -2   1   8 314.475 543.612  11
  -2  -1   8-148.721 491.094  11
   2  -1  -9 688.942 443.953  10
   2   1  -9 1181.40 525.826  10
   2  -1  -9 606.079 422.083  16
   2   1  -9 1131.37 448.758  16
   2  -1  -9 1206.92 537.795  15
   2   1  -9 281.194 438.068  15
  -2   1   9 1048.39 629.928  14
  -2  -1   9 124.467 587.167  13
  -2   1   9-447.390 650.864  13
  -2   1   9 1101.89 731.154  11
  -2  -1   9 808.137 616.479  11
  -2  -1   9 1727.38 755.027  14
   2   1 -10 3793.20 762.308  10
   2  -1 -10 3594.72 721.118  10
   2  -1 -10 3739.22 775.242  16
   2  -1 -10 4514.09 859.790  15
   2   1 -10 4266.04 764.674  15
  -2  -1  10 4735.18 1119.39  14
  -2   1  10 2666.23 1029.04  14
  -2   1  10 3501.75 1182.13  13
  -2   1  10 7279.87 1434.23  11
  -2  -1  10 3891.58 1028.30  11
   2  -1 -11-351.830 632.832  10
   2   2   0 64011.0 1419.73   2
  -2  -2   0 65557.5 1459.10   1
  -2  -2   0 63917.5 1393.14   8
   2   2   0 63437.8 1440.19   4
  -2  -2   0 66213.9 1554.07   3
   2   2   0 66572.6 1436.81   5
   2   2  -1 27013.1 865.170   7
   2   2  -1 27770.7 942.404   2
  -2  -2   1 27711.2 974.737   1
  -2  -2   1 26982.6 878.811   8
   2   2  -1 28570.7 960.976   4
  -2  -2   1 27645.7 1000.16   3
  -2  -2   1 24250.1 1034.40   6
   2   2  -1 27091.3 867.769   5
  -2  -2   2 4998.63 489.818   6
   2  -2  -2 4503.06 413.708   9
   2   2  -2 4582.39 407.303   2
  -2  -2   2 5026.66 375.906   8
   2   2  -2 4691.97 425.258   4
  -2  -2   2 5000.24 457.456   1
   2   2  -2 4359.98 405.402   7
  -2  -2   2 4878.67 454.924   3
  -2  -2   2 4471.26 508.446  11
   2   2  -2 4727.73 361.347   5
   2   2  -2 4762.02 393.104  10
  -2   2   3 64930.4 1686.55   5
   2  -2  -3 63301.4 1563.08   9
  -2  -2   3 65101.3 1207.34   8
   2   2  -3 57753.9 1456.92   4
   2   2  -3 63812.5 1501.35   2
  -2   2   3 62175.3 1155.55   4
  -2  -2   3 63105.5 1555.71   1
   2  -2  -3 62142.4 1550.37  16
   2   2  -3 65139.4 1166.04  15
   2  -2  -3 65080.4 1536.26  15
   2   2  -3 63451.1 1603.61   7
  -2   2   3 64011.5 2160.23  14
  -2  -2   3 59176.4 1669.89   6
  -2  -2   3 62425.4 1567.94   3
   2  -2  -3 64584.8 1073.22   3
  -2  -2   3 65264.7 1746.52  11
   2  -2  -3 63536.3 1295.06  10
   2   2  -3 62418.6 1524.74  10
   2  -2  -4 302.005 198.574  10
   2   2  -4 503.613 289.507  10
   2  -2  -4 235.602 207.825   9
  -2   2   4 690.848 281.901   5
   2   2  -4 382.345 198.232  16
   2  -2  -4 119.949 220.972  16
   2   2  -4 71.1136 190.964   4
   2  -2  -4 412.302 252.744  15
   2   2  -4-19.2201 192.428  15
   2   2  -4 42.3695 194.562   2
   2   2  -4 414.094 269.101   7
  -2   2   4-147.399 355.118  14
  -2  -2   4 288.889 253.077  14
  -2  -2   4 534.248 309.650   6
  -2  -2   4-159.768 295.303  11
  -2  -2   4-125.806 237.875   3
  -2  -2   4 3.31363 197.420   1
   2  -2  -5 268.289 260.849  10
   2   2  -5-298.561 323.187  10
   2  -2  -5 11.6899 255.838   9
  -2  -2   5 178.021 262.076   1
   2   2  -5-45.4757 210.408   4
   2  -2  -5-143.555 300.159  16
   2  -2  -5-170.379 300.366  15
   2   2  -5 67.2299 237.596  15
   2   2  -5 121.634 286.910   7
   2   2  -5-85.7732 210.841  16
  -2  -2   5 286.985 326.761  14
  -2   2   5 125.851 360.355  14
   2   2  -5 32.2749 207.376   2
  -2  -2   5 13.1438 203.367  13
  -2  -2   5 410.395 361.625   6
  -2   2   5 37.4746 468.916  11
  -2  -2   5-317.863 288.247   3
  -2  -2   5 88.8102 320.155  11
   2  -2  -6 2485.04 467.678  10
   2   2  -6 2753.36 488.572  10
   2  -2  -6 2254.53 439.997   9
   2  -2  -6 2169.00 489.576  16
   2  -2  -6 2667.57 539.513  15
   2   2  -6 2061.77 467.078   7
  -2   2   6 2882.87 656.952  14
  -2   2   6 2892.71 648.633  12
  -2  -2   6 2609.08 548.757   6
  -2   2   6 3002.22 735.792  11
  -2  -2   6 2065.46 551.119  11
   2  -2  -7 4510.96 578.260  10
   2   2  -7 3728.30 589.384  10
   2  -2  -7 4524.57 612.097   9
   2  -2  -7 4970.15 696.092  16
   2  -2  -7 4991.29 704.544  15
   2   2  -7 5686.41 709.133   7
  -2   2   7 4290.46 828.586  14
  -2   2   7 5664.27 905.899  13
  -2   2   7 3530.44 733.373  12
  -2  -2   7 4162.76 697.679   6
  -2   2   7 5572.48 941.324  11
  -2  -2   7 4054.36 711.963  11
   2   2  -8 2462.46 629.530  10
   2  -2  -8 2611.40 551.243   9
   2  -2  -8 1774.95 572.953  16
   2  -2  -8 1457.97 560.335  15
   2   2  -8 1434.92 509.844   7
  -2   2   8 2028.26 675.710  14
  -2   2   8 1304.07 740.693  13
  -2   2   8 3379.17 891.023  12
  -2  -2   8 1761.64 625.464   6
  -2  -2   8 2523.33 718.897  11
   2   2  -9 6376.57 874.517  10
   2  -2  -9 8436.27 1044.57  16
   2  -2  -9 6037.37 855.230  15
  -2   2   9 8833.43 1382.93  14
  -2   2   9 8124.53 1295.14  13
  -2  -2   9 8061.20 1097.88   6
  -2  -2   9 7888.01 1170.61  11
   2   2 -10 215.449 510.533  10
   2  -2 -10 14.7709 574.094  15
  -2   2  10 428.277 1016.03  14
   2  -2 -10 433.082 597.886  16
  -2   2  10 671.227 943.955  13
  -2  -2  10 432.743 770.487  11
  -2  -3   0 168176. 2297.97   9
   2   3   0 171095. 2298.59   7
  -2  -3   0 168898. 2638.04   8
   2   3   0 173656. 2663.90   2
   2   3   0 173805. 2651.42   4
  -2  -3   0 176133. 2726.62   1
  -2  -3   0 171466. 3123.66   6
  -2  -3   0 165685. 2748.81   3
   2   3   0 170536. 2630.27   5
   2   3  -1 8914.97 605.344   7
   2   3   1 9423.34 501.522   7
  -2  -3  -1 8252.68 595.602   9
  -2  -3   1 9610.85 498.748   9
   2   3   1 8821.06 600.355   2
   2   3   1 8849.35 638.356   4
  -2  -3  -1 9063.29 662.134   8
  -2  -3   1 8404.47 592.560   8
   2   3  -1 8892.30 643.413   2
  -2  -3  -1 8913.59 624.855   1
   2   3  -1 7458.27 598.382   4
  -2  -3   1 8423.75 650.852   1
  -2  -3  -1 8740.46 458.367  16
  -2  -3  -1 9408.61 670.939   3
  -2  -3   1 8918.33 692.846   6
  -2  -3   1 8110.81 642.883   3
   2   3   1 7673.04 649.213  12
   2   3  -1 9058.14 463.322  10
   2   3   1 8592.10 654.982   5
   2   3  -1 8471.68 602.969   5
   2   3  -2 84.0714 187.471  10
  -2  -3  -2 85.4203 168.663  16
   2   3   2 104.954 222.091   5
   2   3  -2-76.2663 181.349   5
  -2  -3  -2-9.91934 225.538   9
   2  -3  -2 208.098 179.557   3
   2  -3  -2 67.0180 178.847   9
  -2   3   2-49.5500 251.681   5
  -2  -3  -2-126.148 258.410   8
  -2  -3   2 96.5418 197.040   8
   2   3   2 13.5683 181.084   2
   2   3  -2 162.659 241.045   4
   2   3  -2-244.358 264.312   2
   2   3  -2-12.5219 226.302   7
   2  -3  -2 146.235 189.549  15
  -2   3   2-268.096 263.639   4
  -2  -3  -2-9.10530 177.196   1
   2   3   2 184.273 251.614  12
  -2  -3   2-56.4413 268.544   6
  -2  -3   2 41.8796 218.698   1
  -2  -3   2 184.666 308.289  11
  -2  -3   2 118.368 242.285   3
   2   3   3 3667.17 472.722   5
  -2  -3  -3 5000.26 554.903   9
   2  -3  -3 5108.07 536.973   9
  -2   3   3 5508.75 653.312   5
   2   3   3 4674.77 439.209   2
  -2  -3  -3 4596.02 511.090   8
  -2  -3  -3 5354.96 480.094   1
  -2  -3   3 5343.73 490.001   8
   2   3  -3 4736.25 536.457   4
   2  -3  -3 4608.05 479.042   8
   2   3  -3 4637.79 515.832   2
  -2  -3  -3 5185.22 477.152  16
   2  -3  -3 4954.50 505.331  16
  -2  -3   3 4873.31 549.513   1
   2   3  -3 5312.20 563.307   7
  -2  -3   3 5377.12 592.195   3
   2   3   3 5506.19 641.367  12
   2  -3  -3 5081.48 411.064   3
  -2  -3   3 4692.13 570.026   6
   2  -3  -3 4460.85 474.428  15
  -2  -3   3 4588.94 540.735  11
   2   3  -3 5192.87 446.773   5
   2   3  -3 5242.19 499.800  10
  -2  -3   4 215.841 298.574   3
   2   3  -4 356.740 272.717  10
  -2  -3   4 142.678 300.702   1
  -2  -3  -4-234.014 296.025   9
  -2   3   4 222.119 340.153   5
   2  -3  -4 246.219 281.685   9
  -2  -3  -4 184.243 260.024   8
  -2  -3  -4 284.250 263.337  16
   2  -3  -4-153.823 283.771  16
   2   3  -4 387.861 274.849   4
   2  -3  -4-100.051 293.803  15
   2   3  -4-83.8194 294.655   7
   2   3  -4 296.268 287.908   2
  -2   3   4 13.9761 513.969  14
   2  -3  -4 54.2555 207.823   8
   2   3   4 169.750 377.911  12
  -2  -3   4 66.5170 327.518   6
  -2  -3   4 7.26240 287.423  11
   2   3  -5 1725.31 396.564  10
  -2   3   5 1645.82 498.620   5
   2  -3  -5 2133.72 472.283   9
   2  -3  -5 2160.58 459.686  16
   2  -3  -5 1034.18 384.869  15
   2   3  -5 2122.67 477.326   7
   2   3  -5 1820.07 422.378   4
  -2   3   5 1449.86 581.451  14
   2   3  -5 1547.82 363.207   2
  -2  -3   5 1638.39 458.547   1
  -2  -3   5 1161.57 450.813   6
  -2  -3   5 1289.19 459.201  11
  -2  -3   5 1984.27 436.702   3
   2  -3  -6 20242.1 1203.63   9
   2   3  -6 19743.0 1086.19   4
   2  -3  -6 20033.9 1253.86  16
   2  -3  -6 20306.0 1244.99  15
   2   3  -6 20344.0 1243.73   7
  -2   3   6 21073.7 1619.06  14
  -2  -3   6 20277.7 1251.38   1
  -2  -3   6 19389.3 1315.37   6
  -2   3   6 20853.9 1517.21  12
  -2  -3   6 20515.5 1364.49  11
   2   3  -6 19666.2 1183.89  10
   2   3  -7 709.189 423.203  10
   2  -3  -7-286.599 452.812   9
   2  -3  -7 871.276 471.626  16
   2  -3  -7 254.586 443.084  15
  -2   3   7 740.366 649.781  14
  -2   3   7 461.418 627.321  13
  -2   3   7 754.154 601.757  12
  -2  -3   7 443.700 485.041   6
   2   3  -7-90.3300 399.756   7
  -2  -3   7 132.845 509.498  11
   2   3  -8 860.479 534.320  10
   2  -3  -8 97.8079 390.823   9
   2  -3  -8 162.760 459.041  16
   2  -3  -8 556.351 532.729  15
  -2   3   8-73.8160 794.843  14
   2   3  -8-272.553 454.825   7
  -2   3   8 464.093 731.035  13
  -2   3   8-46.7842 695.964  12
  -2  -3   8-1009.49 711.769   6
  -2  -3   8 308.117 631.447  11
   2   3  -9-48.5314 474.224  10
   2  -3  -9 16.2941 441.606   9
   2  -3  -9-300.787 547.588  16
   2  -3  -9-83.3559 495.641  15
  -2   3   9 531.097 973.617  14
   2   3  -9 1234.84 606.362   7
  -2   3   9-237.701 866.238  13
  -2   3   9 562.820 944.033  12
  -2  -3   9-500.403 690.602   6
  -2  -3   9 1755.17 862.447  11
  -2  -3  10 2647.15 982.461   6
  -2  -4   0 14233.0 787.340   9
   2   4   0 13288.4 898.399   4
  -2  -4   0 14082.0 913.815   8
   2   4   0 13105.7 865.992   2
  -2  -4   0 15248.5 953.964   1
   2   4   0 15413.4 808.926   7
  -2  -4   0 15291.1 1034.63   6
  -2  -4   0 13571.8 922.360   3
   2   4   0 16103.2 946.422  12
   2   4   0 14072.8 917.288   5
  -2  -4  -1 7100.86 632.778   9
   2   4   1 6500.72 643.334   4
  -2  -4  -1 6762.67 666.393   8
  -2  -4   1 6762.77 667.834   8
   2   4  -1 6700.30 688.850   4
   2   4   1 6843.83 642.122   2
   2   4  -1 6512.54 657.773   2
  -2  -4  -1 7195.49 658.223   1
  -2  -4   1 7772.09 716.606   1
   2   4  -1 6848.15 630.226   7
  -2  -4  -1 6581.30 664.924   3
  -2  -4   1 7399.85 720.621   6
  -2  -4   1 8455.06 787.537   3
   2   4   1 6421.26 661.304  12
   2   4   1 5675.32 656.807   5
   2   4  -1 6403.12 630.048   5
  -2  -4   2 450.708 383.686   3
  -2  -4   2 166.885 277.852   1
   2   4   2 431.295 330.512   5
   2   4  -2 435.276 256.129   5
  -2  -4  -2 527.627 316.014   9
   2  -4  -2 686.226 282.730   3
  -2   4   2 948.050 448.646   5
  -2  -4  -2 354.234 301.496   8
  -2  -4   2 335.882 301.790   8
   2   4   2 1172.73 356.643   2
   2   4  -2 855.680 399.800   4
   2   4  -2 971.726 376.448   7
   2   4  -2 326.902 311.043   2
  -2   4   2 626.360 320.471   4
   2   4   2 379.838 327.515  12
   2  -4  -2 775.449 324.039   8
  -2  -4  -2 799.238 345.239   3
  -2  -4   2 722.774 332.463   6
  -2  -4  -2 647.486 318.352   1
  -2   4   3 13797.7 1142.56   5
  -2  -4  -3 13124.3 928.860   9
   2  -4  -3 12481.2 906.181   9
  -2  -4  -3 13455.9 961.584   8
  -2  -4   3 14002.4 914.301   8
   2   4  -3 14477.4 1004.04   4
   2   4   3 13510.9 859.152   2
   2  -4  -3 12839.9 895.615   8
   2   4  -3 13315.9 969.082   2
  -2  -4  -3 13540.1 830.091   1
   2  -4  -3 14232.8 835.256  15
   2   4  -3 13621.1 955.005   7
  -2  -4   3 12225.7 952.134   1
  -2  -4   3 12559.1 1005.88   6
  -2  -4   3 12756.8 984.905   3
   2   4   3 12144.8 1001.15  12
   2   4   3 10684.4 882.238   5
   2   4  -3 13363.2 848.113   5
  -2  -4   4 213.970 390.348   3
   2   4   4-29.2786 341.027   5
  -2  -4  -4 1151.73 444.164   9
  -2   4   4 563.978 491.425   5
   2  -4  -4 223.552 365.592   9
  -2  -4   4-122.394 378.800   1
  -2  -4  -4-183.283 354.713   8
  -2  -4  -4-247.104 298.904  16
   2  -4  -4 184.365 287.481   8
   2   4  -4 891.198 398.509   4
   2  -4  -4-98.8525 321.292  15
   2   4  -4-479.542 412.825   7
   2   4  -4 292.786 344.640   2
   2   4   4 544.741 473.896  12
  -2  -4   4-383.531 492.074   6
   2   4  -5-105.051 315.576  10
  -2  -4  -5 536.423 438.479   9
  -2   4   5 666.222 542.625   5
   2  -4  -5 244.698 393.342   9
  -2  -4  -5-947.249 420.693   8
   2  -4  -5 52.7869 328.860  16
  -2  -4  -5 697.403 440.144  16
   2   4  -5 402.233 352.241   4
   2  -4  -5 478.102 351.065  15
   2   4  -5-762.117 452.621   7
  -2   4   5 751.964 750.319  14
   2  -4  -5-304.293 280.611   8
  -2  -4   5-518.645 419.620   1
   2   4   5 184.373 463.632  12
   2   4  -5-308.350 326.158   2
  -2   4   5-559.113 560.468  12
  -2  -4   5 387.374 466.364   6
  -2  -4   5 703.920 518.721  11
  -2  -4   5-523.258 430.908   3
   2   4  -6 1196.34 477.459  10
   2  -4  -6 711.310 456.751  16
   2  -4  -6 212.228 420.529   9
  -2  -4   6 565.685 502.787   1
   2   4  -6 622.962 418.280   4
   2  -4  -6 1169.63 501.217  15
  -2   4   6 2290.26 942.061  14
   2   4  -6 3.58925 433.111   7
  -2   4   6 503.022 528.877  13
  -2   4   6 1449.57 784.051  12
  -2  -4   6 1267.23 591.569   6
  -2  -4   6 550.975 462.303  11
   2   4  -6 1339.02 481.617   2
  -2  -4   6 850.288 524.599   3
   2   4  -7 1303.46 440.655  10
   2  -4  -7 1979.23 602.660   9
   2  -4  -7 1852.85 593.021  16
   2  -4  -7 458.011 449.547  15
  -2   4   7 1705.93 821.928  14
   2   4  -7 1026.59 567.188   7
  -2   4   7 3229.78 919.729  13
  -2   4   7 4003.08 1068.54  12
  -2  -4   7 657.137 547.078   6
  -2  -4   7 1927.83 729.841  11
   2   4  -8 1071.30 572.447  10
   2  -4  -8-172.311 552.173   9
   2  -4  -8 1186.80 589.924  15
  -2   4   8 1278.05 909.076  14
   2   4  -8 631.222 495.631   7
  -2   4   8 178.991 819.063  13
  -2   4   8-349.017 1017.40  12
  -2  -4   8 210.467 679.474   6
   2  -4  -8 899.064 535.805  16
  -2  -4   8-385.668 814.214  11
   2   4  -9 4454.67 915.742  10
   2  -4  -9 1783.17 692.024   9
   2  -4  -9 2359.51 779.665  15
   2  -4  -9 2948.29 790.225  16
  -2   4   9 4202.07 1497.77  14
   2   4  -9 2721.13 785.729   7
  -2   4   9 1162.28 1081.04  13
  -2   4   9 4051.72 1433.12  12
  -2  -4   9 1904.98 855.412   6
  -2  -4   9 1794.95 1037.69  11
   2   5   0 32367.4 1548.07   4
  -2  -5   0 33228.3 1570.00   8
   2   5   0 31287.2 1509.22   2
  -2  -5   0 31011.5 1508.54   1
  -2  -5   0 32514.6 1589.58   3
   2   5   0 34024.6 1571.97   5
  -2  -5  -1 1447.00 446.933   1
   2   5   1 664.633 424.194   5
   2   5  -1 1814.42 499.065   5
  -2  -5   1 1668.21 501.480   1
  -2  -5  -1 1394.73 447.905   9
  -2  -5  -1 510.628 424.952   8
  -2  -5   1 875.346 403.708   8
   2   5  -1 634.650 410.243   4
   2   5   1 1073.90 401.395   2
   2   5  -1 1375.48 423.037   7
   2   5  -1 1604.80 470.915   2
   2   5   1 1239.24 427.866  12
  -2  -5   1 915.846 443.547   6
  -2  -5  -1 305.517 357.617   3
  -2  -5   1 1255.38 500.486   3
   2   5   1 854.812 438.222   4
  -2  -5  -2 99.8331 368.370   1
   2   5   2-598.583 418.571   5
   2   5  -2-115.107 338.655   5
  -2  -5  -2 440.108 439.378   9
  -2  -5   2-14.9873 367.453   1
  -2  -5  -2 1280.46 528.342   8
   2   5  -2 695.801 477.934   4
   2   5   2 257.749 380.461   4
  -2  -5   2 37.8105 362.525   8
   2   5   2-112.992 344.012   2
   2   5  -2 55.1778 336.175   7
   2   5  -2 355.327 440.930   2
   2   5   2-80.2241 394.692  12
  -2  -5   2-583.597 484.893   6
  -2  -5  -2-136.618 374.245   3
  -2  -5   2-335.402 417.808   3
  -2  -5   3 764.969 463.402   1
   2   5   3 437.382 384.333   5
  -2  -5  -3 664.054 421.649   9
   2   5  -3 1081.08 492.054   4
  -2   5   3 1040.99 555.327   5
   2  -5  -3 771.554 422.507   9
  -2  -5  -3 387.366 437.217   8
   2   5  -3 718.730 425.841   7
   2   5  -3 1330.77 496.954   2
   2   5   3 1095.79 511.827  12
  -2  -5   3 761.524 472.039   6
  -2  -5   3 1404.04 503.784   3
   2   5   4-721.265 518.104   5
  -2  -5  -4 20.9483 433.360   9
  -2   5   4 476.914 630.069   5
   2  -5  -4-114.619 364.940   9
  -2  -5  -4 88.4978 377.778   8
   2   5  -4-228.907 433.822   7
   2   5  -4 212.472 400.281   4
  -2  -5   4-106.593 431.426   1
   2   5   4 161.326 510.889  12
   2   5  -4 139.406 386.921   2
  -2  -5   4-671.040 530.737   6
  -2   5   4 727.474 639.841  12
  -2  -5   4 366.054 440.416   3
  -2  -5  -5 579.638 462.263   9
  -2   5   5 160.448 777.454   5
  -2  -5   5 599.443 551.679   1
   2  -5  -5-258.978 461.126   9
  -2  -5  -5-88.9993 406.572   8
   2   5  -5-265.883 456.332   4
   2   5  -5 874.985 467.026   7
   2   5   5 488.194 613.740  12
  -2   5   5 444.800 550.867  12
  -2  -5   5 852.996 611.732   6
   2   5  -5-49.3815 401.587   2
  -2  -5   5 332.183 528.752   3
   2   5  -6 5225.22 837.050   2
   2  -5  -6 5980.72 872.481   9
   2   5  -6 5041.30 784.536   4
   2   5  -6 3665.52 720.553   7
  -2  -5   6 4958.23 931.281   1
  -2   5   6 5125.50 1093.80  12
  -2  -5   6 6324.63 987.670   6
  -2  -5   6 6748.48 966.046   3
   2  -5  -7 596.100 530.615   9
   2  -5  -7 168.079 439.288  16
  -2   5   7 230.093 753.353  13
  -2   5   7 290.566 866.219  12
  -2  -5   7-22.5868 677.334   6
   2  -5  -8 513.223 595.431   9
   2  -5  -8-794.308 534.136  16
  -2   5   8 1158.76 1313.78  14
  -2   5   8-749.942 888.743  13
   2   6   0 2667.72 626.275   5
  -2  -6   0 2313.84 620.339   8
  -2  -6   0 2232.97 591.791   1
   2   6   0 3108.26 685.168   4
   2   6   0 2446.52 600.459   2
  -2  -6   0 2529.36 695.081   3
   2   6   1 1976.96 610.566   5
   2   6  -1 1666.92 543.547   5
  -2  -6  -1 1598.68 565.415   1
  -2  -6  -1 1742.65 590.654   8
  -2  -6   1 1351.33 542.402   8
   2   6   1 1566.18 528.941   4
   2   6  -1 1284.34 537.295   4
  -2  -6   1 1734.10 582.592   1
   2   6   1 1185.07 489.430   2
   2   6  -1 1375.83 550.811   2
  -2  -6  -1 665.634 464.650   3
  -2  -6   1 1214.47 575.842   3
   2   6   2 552.618 478.246   5
   2   6  -2 135.314 415.735   5
  -2  -6  -2 364.396 501.744   9
  -2  -6  -2 246.660 480.837   8
   2   6   2 450.198 481.434   4
  -2  -6   2-14.3158 438.797   8
   2   6  -2-276.937 507.921   4
  -2  -6   2 322.595 472.256   1
   2   6   2-584.579 480.965   2
   2   6   2-506.640 482.955  12
   2   6  -2 1057.76 506.185   2
  -2  -6  -2-124.677 507.058   3
  -2  -6   2 459.190 510.267   3
   2   6   3 2338.34 701.398   5
  -2  -6  -3 1467.78 558.588   9
  -2  -6  -3 1845.24 615.968   8
   2   6  -3 1517.10 606.735   4
   2   6  -3 2047.84 568.624   7
   2   6   3 837.100 635.963  12
  -2  -6   3-105.458 537.815   6
   2   6  -3 1521.67 612.267   2
  -2  -6   3 1399.71 606.670   1
  -2  -6   3 523.185 502.807   3
   2   6   4-223.112 515.501   5
  -2  -6  -4 125.274 484.996   9
  -2  -6   4 433.016 543.441   1
  -2  -6  -4-651.063 537.661   8
   2   6  -4-467.280 532.940   4
   2   6  -4 207.722 478.375   7
   2   6   4-836.549 639.135  12
  -2  -6   4-297.247 647.277   6
   2   6  -4 214.290 461.128   2
  -2  -6   4 977.888 690.105   3
   2   6  -5-292.944 543.041   2
   2   6  -5-134.135 511.888   4
   2   6  -5 613.083 531.882   7
  -2  -6   5 645.155 689.701   1
  -2  -6   5-811.861 671.235   6
  -2   6   5 330.467 792.112  12
  -2  -6   5-146.547 549.882   3
   2   6  -6-311.370 580.607   2
   2  -6  -6 341.020 496.846   9
  -2  -6   6-1516.61 916.165   1
   2   6  -6-757.019 642.631   4
   2   6  -6-33.0085 654.241   7
  -2  -6   6-709.406 860.113   6
  -2   6   6 408.101 939.803  12
  -2  -6   6 148.387 672.802   3
   2   6  -7 1370.51 794.133   4
   2   7   0 5520.87 941.468   5
   2   7   0 4083.01 864.688   4
  -2  -7   0 4396.86 861.457   8
   2   7   0 5260.41 873.688   2
  -2  -7   0 3561.94 826.601   3
  -2  -7   0 4156.39 784.850   1
   2   7   1 473.154 620.783   5
   2   7  -1 580.383 526.394   5
  -2  -7   1-65.5337 524.999   1
   2   7   1-438.043 736.014   4
  -2  -7  -1-69.5333 522.529   8
  -2  -7   1 1192.50 664.509   8
   2   7  -1 63.0002 583.303   4
  -2  -7  -1 57.1032 585.787   3
   2   7   1 18.7795 474.866   2
   2   7  -1 420.404 512.192   2
  -2  -7   1 1063.44 638.145   3
  -2  -7  -1-473.888 555.355   1
   2   7   2-344.004 534.816   5
   2   7  -2-940.900 575.523   5
  -2  -7   2-207.804 561.788   1
  -2  -7  -2 158.149 519.689   8
  -2  -7   2-797.517 635.969   8
   2   7  -2-159.050 610.612   4
  -2  -7  -2 254.219 597.475   3
  -2  -7   2 461.013 636.678   3
   2   7  -2-76.6830 478.912   2
   2   7   3-1336.65 741.275   5
  -2  -7  -3 1110.59 687.094   8
   2   7  -3 497.591 621.565   4
  -2  -7   3 40.3405 533.597   1
  -2  -7   3-746.613 638.417   3
   2   7  -3-557.947 590.772   2
   2   7   4 1414.38 782.160   5
   2   7  -4 352.547 522.696   2
  -2  -7  -4 10.6090 535.353   8
   2   7  -4 550.361 539.735   7
  -2  -7   4-1276.05 862.027   6
   3   0  -4 18208.6 769.655   7
   3   0  -4 17426.9 843.460  15
  -3   0   4 19396.2 1400.35  11
   3   0  -4 17485.0 896.369  10
   3   0  -5 4476.89 551.578  10
   3   0  -5 4614.59 511.059  16
   3   0  -5 5241.14 480.344   7
   3   0  -5 4441.76 513.040  15
  -3   0   5 4842.83 776.953  14
  -3   0   5 4947.38 780.958  11
   3   0  -6-42.3541 317.365  10
   3   0  -6-479.007 340.556  16
   3   0  -6 86.9042 334.659  15
   3   0  -6 301.064 262.002   7
  -3   0   6 294.870 504.676  14
  -3   0   6 436.265 537.068  11
   3   0  -7 3759.77 627.637  10
   3   0  -7 4417.87 631.989  16
   3   0  -7 4616.91 660.932  15
  -3   0   7 3854.52 879.673  14
  -3   0   7 4371.85 895.259  11
   3   0  -8 4261.53 677.109  10
   3   0  -8 4329.76 666.569  16
   3   0  -8 4849.84 765.132  15
  -3   0   8 2694.62 797.896  14
  -3   0   8 2884.78 841.991  13
  -3   0   8 4036.91 904.539  11
   3   0  -9 8.94663 461.344  10
   3   0  -9 1283.62 564.578  16
   3   0  -9-128.094 467.870  15
  -3   0   9 1287.95 780.231  14
  -3   0   9-257.292 803.656  13
  -3   0   9 1974.32 931.175  11
   3   0 -10 2672.35 713.320  10
   3   0 -10 2792.16 624.997  16
   3   0 -10 1893.36 709.171  15
  -3   0  10 2461.77 1104.82  13
  -3   0  10 4579.43 1380.99  11
   3   1  -4 14549.1 646.113   2
  -3  -1   4 14871.6 846.441   1
   3  -1  -4 13966.1 779.301  16
   3   1  -4 15502.8 790.608   7
   3  -1  -4 14136.6 795.370  15
   3   1  -4 14333.7 734.780  15
  -3   1   4 13117.6 1169.01  14
  -3  -1   4 13488.4 1005.65   6
  -3  -1   4 15223.3 1189.30  11
   3   1  -4 15884.2 851.951  10
   3  -1  -5 49688.0 1614.21  16
   3   1  -5 47949.3 1451.89  16
   3   1  -5 47100.5 1485.74   7
   3  -1  -5 45359.7 1542.34  15
   3   1  -5 46998.9 1449.50  15
  -3  -1   5 47639.5 2075.29  14
  -3   1   5 48680.7 2246.24  14
  -3  -1   5 47776.2 1904.01   6
  -3   1   5 45780.2 2385.98  11
  -3  -1   5 48021.8 2088.36  11
   3  -1  -5 44696.3 1481.53  10
   3   1  -5 48561.1 1612.16  10
   3  -1  -6 5195.23 598.226  10
   3   1  -6 4623.17 596.993  10
   3   1  -6 5558.71 576.506  16
   3  -1  -6 5814.54 652.476  16
   3   1  -6 5831.96 634.486  15
   3  -1  -6 5062.01 650.419  15
   3   1  -6 5493.67 609.925   7
  -3  -1   6 6754.00 944.406  14
  -3   1   6 4869.67 897.604  14
  -3  -1   6 4777.08 736.113   6
  -3   1   6 5885.22 1025.21  11
  -3  -1   6 5884.69 901.744  11
   3  -1  -7 619.989 400.081  10
   3   1  -7 309.264 412.150  10
   3  -1  -7 388.991 401.749  16
   3   1  -7 1533.27 424.093  16
   3  -1  -7 1027.93 461.414  15
   3   1  -7 1303.29 430.539  15
   3   1  -7 1245.62 437.528   7
  -3  -1   7 881.926 573.525  14
  -3   1   7 1043.91 704.570  14
  -3  -1   7 371.147 504.172  13
  -3  -1   7 2321.75 656.119   6
  -3   1   7 2245.65 836.323  11
  -3  -1   7 941.187 655.086  11
   3  -1  -8 2594.46 596.718  10
   3   1  -8 888.316 506.857  10
   3  -1  -8 823.207 512.652  16
   3   1  -8 1536.68 486.560  16
   3  -1  -8 1510.49 536.757  15
   3   1  -8 1825.67 607.114  15
  -3  -1   8 1372.00 748.638  14
  -3   1   8-338.905 836.010  14
  -3  -1   8 1598.43 723.031  13
  -3   1   8 1567.06 828.536  13
  -3   1   8 1999.27 860.435  11
  -3  -1   8 2327.19 821.051  11
   3  -1  -9-208.235 451.007  10
   3   1  -9-404.088 461.253  10
   3  -1  -9-658.640 499.103  16
   3  -1  -9 550.866 494.474  15
   3   1  -9 316.409 409.009  15
  -3  -1   9-474.116 836.143  14
  -3   1   9-555.508 782.179  14
  -3  -1   9-282.490 796.709  13
  -3   1   9 117.374 893.963  13
  -3   1   9 190.605 933.328  11
  -3  -1   9 74.7098 736.025  11
   3  -1 -10 1450.59 546.557  10
   3   1 -10 3521.92 784.749  10
   3  -1 -10 3258.00 783.337  16
   3  -1 -10 2876.61 758.599  15
  -3   1  10 3062.58 1222.36  14
  -3   1  10 2912.16 1240.72  13
  -3   1  10 2396.05 1281.31  11
  -3  -1  10 4190.94 1292.37  11
   3   2  -3-8.31310 197.154  10
  -3  -2   3 48.4438 163.127   8
   3   2  -3-162.144 178.794   2
   3   2  -3-168.166 147.954  15
   3   2  -3 419.960 231.003   7
  -3  -2   3-33.2654 247.772   1
  -3  -2   3 311.801 351.834   6
  -3  -2   3 684.185 480.087  11
   3   2  -4 12494.9 709.843   2
  -3  -2   4 10510.8 805.691   1
   3   2  -4 11605.3 772.552   7
   3   2  -4 11482.4 625.318  15
  -3  -2   4 11478.7 942.633   6
  -3  -2   4 12001.1 1075.50  11
   3   2  -4 11862.4 770.197  10
   3  -2  -5 3476.62 457.573  10
   3   2  -5 3061.36 501.000  10
   3  -2  -5 3175.62 488.888  16
   3  -2  -5 3512.07 529.206  15
   3   2  -5 3222.59 421.465  15
   3   2  -5 3166.33 419.171   2
   3   2  -5 2693.34 450.784   7
  -3   2   5 3510.05 887.525  14
  -3  -2   5 1908.14 516.840   6
  -3  -2   5 3673.36 726.969  11
  -3  -2   5 2985.84 518.451   1
   3  -2  -6 179.338 320.138  10
   3   2  -6 182.435 345.543  10
   3  -2  -6-251.811 278.268   9
   3  -2  -6 148.869 304.109  16
   3  -2  -6 774.881 432.325  15
   3   2  -6 35.3395 341.293   7
  -3   2   6-664.992 681.498  14
  -3  -2   6 705.913 502.465   6
  -3  -2   6 163.053 479.840  11
   3  -2  -7 5475.16 686.236  10
   3   2  -7 3906.03 652.549  10
   3  -2  -7 2301.74 466.083   9
   3  -2  -7 3671.83 642.411  16
   3  -2  -7 3066.61 642.391  15
   3   2  -7 2623.21 574.870   7
  -3   2   7 4031.68 953.142  14
  -3  -2   7 4300.60 827.822   6
  -3   2   7 3797.84 935.580  12
  -3  -2   7 3002.32 849.914  11
   3   2  -8 3175.59 653.438  10
   3  -2  -8 2672.83 621.951  16
   3  -2  -8 3098.22 687.292  15
   3   2  -8 2860.82 614.896   7
  -3   2   8 2699.35 958.072  14
  -3   2   8 3000.39 999.475  13
  -3  -2   8 3142.92 790.357   6
  -3  -2   8 2203.83 863.398  11
   3   2  -9-255.037 486.292  10
   3  -2  -9 419.541 540.547  16
   3  -2  -9-292.037 566.185  15
  -3   2   9-232.755 978.370  14
  -3   2   9-17.5663 1038.17  13
  -3  -2   9 462.631 677.501   6
  -3  -2   9-1373.80 843.884  11
   3   2 -10 1794.23 699.353  10
   3  -2 -10 3270.96 796.721  16
   3  -2 -10 2727.62 801.951  15
   3   3  -1 28248.3 1185.67   2
   3   3  -1 26650.6 1159.33   4
  -3  -3   1 25660.7 1115.65   8
  -3  -3   1 26752.9 1250.02   1
   3   3  -1 27575.3 1084.98   7
  -3  -3   1 25958.4 1259.65   3
   3   3  -2 22226.7 1065.43   4
   3   3  -2 19130.8 983.924   2
  -3  -3   2 20526.0 981.836   8
  -3  -3   2 19327.6 1090.65   1
   3   3  -2 19620.1 965.849   7
  -3  -3   2 20212.1 1139.12   3
  -3  -3   2 20465.2 1281.37   6
   3   3  -2 20620.6 839.089  10
   3   3  -3 290.343 237.237  10
  -3  -3   3 622.259 273.875   8
   3   3  -3 563.263 303.896   4
   3   3  -3 795.162 311.350   2
   3   3  -3 587.995 295.527   7
  -3  -3   3 760.740 440.292   6
  -3  -3   3-162.182 322.440   1
  -3  -3   3-288.171 330.316   3
   3   3  -4 7843.39 690.257   4
   3   3  -4 6553.85 644.062   2
  -3  -3   4 5786.40 752.172   1
   3   3  -4 6935.49 703.799   7
  -3  -3   4 6889.28 733.061   3
  -3  -3   4 6445.57 814.605   6
  -3  -3   4 5557.43 824.415  11
   3   3  -4 7251.81 645.374  10
   3  -3  -5 20281.5 1154.21   9
   3   3  -5 18992.7 1050.50   4
   3   3  -5 19243.9 1081.07   2
  -3  -3   5 19245.5 1253.90   1
   3  -3  -5 20464.2 1176.02  15
   3   3  -5 20021.1 1188.67   7
  -3  -3   5 20450.2 1230.13   3
  -3  -3   5 21557.6 1459.79   6
  -3  -3   5 21881.3 1542.47  11
   3   3  -5 20221.4 1117.86  10
   3   3  -6 2956.25 587.266  10
   3  -3  -6 2522.47 523.441   9
   3  -3  -6 2435.57 519.471  16
   3  -3  -6 2484.99 573.581  15
   3   3  -6 3343.74 622.789   7
  -3   3   6 2478.11 920.760  14
  -3  -3   6 3285.60 720.400   6
  -3  -3   6 2394.18 748.386  11
   3   3  -7 1478.18 532.633  10
   3  -3  -7 549.318 413.055   9
   3  -3  -7 249.325 403.259  16
   3  -3  -7 596.707 499.870  15
   3   3  -7-511.769 496.569   7
  -3   3   7 1625.15 886.142  14
  -3  -3   7-123.696 548.394   6
  -3   3   7 288.437 792.737  12
  -3  -3   7 45.1074 690.326  11
   3   3  -8 898.177 423.083  10
   3  -3  -8 338.306 505.943  16
   3  -3  -8 236.177 511.787  15
  -3   3   8-1129.23 1070.97  14
   3   3  -8 986.401 558.561   7
  -3   3   8 1971.07 926.044  13
  -3  -3   8 741.736 644.285   6
  -3   3   8 1938.08 948.189  12
  -3  -3   8 710.380 733.539  11
   3   3  -9-402.255 559.613  10
   3  -3  -9 1536.07 574.711  16
   3  -3  -9 338.439 528.841  15
  -3   3   9-652.216 1088.31  14
   3   3  -9 128.646 574.434   7
  -3   3   9 1078.22 1116.15  13
  -3  -3   9 356.662 682.762   6
  -3  -3   9 566.896 857.415  11
   3   3 -10 387.533 654.924   7
  -3  -3  10 1739.63 992.381   6
   3   4   0-69.1043 301.013   5
  -3  -4   0-241.737 276.547   9
  -3  -4   0-368.429 298.384   8
   3   4   0-103.683 298.325   4
   3   4   0-119.197 279.779   2
   3   4   0 275.120 267.710   7
  -3  -4   0 36.2578 293.327   1
  -3  -4   0-260.547 339.261   3
  -3  -4  -1 12287.1 851.420   9
   3   4  -1 11700.5 889.157   4
   3   4   1 12194.7 865.986   2
  -3  -4  -1 10977.0 888.333   8
  -3  -4   1 12907.0 912.536   8
   3   4  -1 12439.0 916.786   2
  -3  -4  -1 13202.6 926.505   1
  -3  -4   1 13673.4 988.425   1
   3   4  -1 12804.8 842.327   7
  -3  -4   1 12643.7 982.862   3
   3   4   1 12334.9 904.997   5
   3   4  -1 12489.2 890.297   5
  -3  -4   2 4463.72 576.419   8
   3   4  -2 4962.37 622.363   4
   3   4  -2 5032.37 616.571   2
   3   4  -2 4750.00 577.199   7
  -3  -4   2 4777.78 724.211   6
  -3  -4   2 4446.92 654.347   1
  -3  -4   2 4531.35 707.101   3
   3   4  -2 4758.13 569.462   5
  -3  -4   3 200.801 368.539   8
   3   4  -3 1034.52 429.080   4
   3   4  -3 9.32090 335.802   2
   3   4  -3 353.540 366.365   7
  -3  -4   3-237.366 449.983   6
  -3  -4   3 229.650 446.248   3
  -3  -4   3 254.228 357.351   1
  -3  -4   4 3498.59 650.586   1
   3   4  -4 4099.80 624.980   4
   3   4  -4 3962.38 621.109   7
   3   4  -4 3441.14 566.914   2
  -3  -4   4 3953.32 741.246   6
  -3  -4   4 4343.78 709.918   3
   3   4  -5 874.797 416.306  10
  -3  -4   5 526.966 481.961   1
   3   4  -5 392.593 392.945   4
   3   4  -5 1033.26 476.306   7
   3   4  -5 795.660 386.343   2
  -3  -4   5 1677.76 675.864   6
  -3  -4   5 661.177 479.168   3
  -3  -4   5 1443.70 689.173  11
   3   4  -6 445.175 377.129  10
   3   4  -6 642.720 447.702   4
   3   4  -6-385.361 499.349   7
  -3  -4   6 60.0754 580.177   1
  -3  -4   6 858.513 659.095   6
  -3  -4   6 19.1057 661.650  11
   3   4  -7 1657.69 526.102  10
   3  -4  -7 1739.28 653.273  15
   3   4  -7 1498.99 578.985   7
  -3   4   7 2031.87 1041.96  13
  -3  -4   7 2246.70 759.977   6
  -3   4   7 3535.56 1270.67  12
  -3  -4   7 4759.81 1061.66  11
   3   4  -8-492.864 524.624  10
   3  -4  -8-330.033 536.352  15
   3   4  -8 1670.78 637.970   7
  -3   4   8 490.414 1048.92  13
  -3  -4   8 1284.37 721.467   6
  -3   4   8 1021.17 1132.47  12
  -3  -4   8-131.642 915.982  11
   3   4  -9-268.202 488.761  10
   3   4  -9 608.236 622.394   7
  -3  -4   9 556.432 1006.21  11
   3   5   0-36.7932 396.849   5
  -3  -5   0 198.235 371.482   8
   3   5   0-515.143 427.821   4
   3   5   0-235.082 389.406   2
  -3  -5   0-1.79135 441.438   3
  -3  -5   0-404.166 412.756   1
   3   5   1 3923.29 675.082   5
   3   5  -1 5241.69 687.338   5
  -3  -5  -1 4633.11 646.678   9
  -3  -5  -1 4145.65 732.478   8
  -3  -5   1 4867.50 709.515   8
   3   5  -1 4366.45 686.718   4
   3   5   1 4351.82 632.496   2
   3   5  -1 4956.26 751.614   2
   3   5  -1 4826.57 666.204   7
  -3  -5   1 4858.07 777.718   3
  -3  -5  -1 4450.45 712.138   1
  -3  -5   1 4040.11 695.792   1
  -3  -5   2 4128.96 724.857   1
   3   5  -2 3428.68 578.647   5
  -3  -5   2 3822.04 632.026   8
   3   5  -2 5020.28 748.680   4
   3   5   2 4405.65 667.066   2
   3   5  -2 4445.46 701.362   2
   3   5  -2 5171.53 702.415   7
  -3  -5   2 4410.57 835.008   6
  -3  -5  -2 4903.96 669.042   1
  -3  -5   2 5181.53 828.136   3
  -3  -5   3 138.652 483.950   1
   3   5  -3 694.594 485.126   4
   3   5  -3 617.865 476.748   7
   3   5  -3-28.6493 377.561   2
  -3  -5   3 342.314 603.012   6
  -3  -5   3 485.196 525.229   3
  -3  -5   4 1728.69 622.943   1
   3   5  -4 2182.74 614.923   4
   3   5  -4 2634.03 630.534   7
   3   5  -4 1161.71 467.736   2
  -3  -5   4 2709.99 756.474   6
  -3  -5   4 1768.54 658.095   3
   3   5  -5 4898.08 793.821   4
  -3  -5   5 4313.54 864.655   1
   3   5  -5 4947.04 780.976   7
   3   5  -5 3235.24 694.203   2
  -3  -5   5 4282.76 852.557   6
  -3  -5   5 5448.24 888.703   3
  -3  -5   6 1738.18 795.754   1
   3   5  -6 820.339 557.427   4
   3   5  -6 549.321 518.895   7
  -3  -5   6 1954.51 740.905   6
  -3  -5   6 1179.82 525.274   3
   3   5  -6 1146.51 570.790   2
   3   5  -7 337.375 478.746   7
  -3  -5   7 797.986 743.144   6
   3   6   0 439.411 517.053   5
  -3  -6   0 647.599 503.027   1
  -3  -6   0-315.436 451.186   8
   3   6   0-247.710 418.912   4
   3   6   0-92.5532 397.051   2
  -3  -6   0-313.057 543.814   3
   3   6   1 2146.27 643.610   5
   3   6  -1 2694.39 672.888   5
  -3  -6  -1 2220.77 614.295   1
  -3  -6   1 1732.74 599.338   1
  -3  -6  -1 2009.20 652.332   8
  -3  -6   1 2251.57 681.529   8
   3   6  -1 1579.83 575.847   4
   3   6   1 1750.59 503.322   2
   3   6  -1 1428.72 542.239   2
  -3  -6   1 655.119 534.009   3
   3   6   2 1332.66 570.278   5
   3   6  -2 676.407 425.562   5
  -3  -6   2-321.359 562.925   1
  -3  -6   2 5.99186 566.785   8
   3   6  -2 544.541 526.078   4
   3   6  -2 623.568 407.506   2
  -3  -6   2 745.003 599.293   3
  -3  -6   3 292.306 582.746   1
   3   6  -3 712.290 535.493   4
   3   6  -3-36.1214 459.758   7
   3   6  -3 54.7373 448.299   2
  -3  -6   3-957.396 695.077   6
  -3  -6   3 389.749 580.143   3
   3   6  -4-2332.28 778.947   4
   3   6  -4-2226.40 817.556   7
  -3  -6   4-404.234 569.835   1
   3   6  -4-861.550 644.707   2
  -3  -6   4-1911.94 851.303   3
  -3  -6   5 58.7226 662.434   1
   3   6  -5 977.870 655.000   4
   3   6  -5-37.4257 546.893   7
  -3  -6   5-791.625 776.982   6
  -3  -6   5 59.7180 599.098   3
   3   6  -5 773.734 515.287   2
   3   6  -6 629.530 561.503   4
  -3  -6   6 337.236 714.523   1
   3   6  -6-819.152 633.516   7
  -3  -6   6-1013.61 881.045   6
  -3  -6   6 186.495 653.010   3
   3   6  -6-117.690 502.954   2
   3   7   0 85.6099 571.730   5
  -3  -7   0-526.540 587.779   8
  -3  -7   0-257.032 574.810   1
   3   7   0-129.816 481.849   2
  -3  -7   0-230.779 587.650   3
   3   7   1 644.507 540.336   5
   3   7  -1 342.806 594.471   5
  -3  -7  -1 810.400 586.101   8
   3   7  -1 747.856 646.262   4
  -3  -7   1 1679.22 656.195   8
  -3  -7   1-782.136 641.372   1
   3   7  -1-318.475 631.348   2
  -3  -7   1-95.3104 576.227   3
   3   7  -2 287.024 498.545   5
   3   7  -2 806.260 615.739   4
  -3  -7   2 1716.03 757.685   8
  -3  -7   2 1962.54 787.925   1
   3   7  -2 785.949 612.977   2
  -3  -7   2 2407.20 818.825   3
   3   7  -3-800.042 614.841   4
   3   7  -3-1031.22 567.660   2
  -3  -7   3 56.6442 603.426   3
  -3  -7   3-369.133 623.410   1
   3   7  -4 157.014 608.656   7
  -3  -7   4 1151.23 833.895   6
   4   0  -7 2158.29 507.403  10
   4   0  -7 2556.05 563.117  15
  -4   0   7 2726.23 1069.11  11
   4   0  -8 8214.58 874.062  15
  -4   0   8 10255.6 1592.82  11
   4   0  -8 8981.97 937.502  10
   4   0  -9 2136.18 640.903  10
   4   0  -9 604.158 511.801  15
  -4   0   9 1623.98 1150.78  13
  -4   0   9 657.488 989.602  11
   4   0 -10 3905.66 781.494  10
   4   0 -10 4734.88 836.316  15
  -4   0  10 3175.55 1313.88  13
   4   1  -6 2994.95 535.198  10
   4   1  -6 3197.41 502.389  15
   4   1  -6 2869.09 468.012   7
  -4  -1   6 2459.24 849.505  11
   4   1  -7 4992.65 707.874  10
   4   1  -7 5243.38 684.991  15
   4   1  -7 4821.62 624.895   7
  -4  -1   7 4889.14 1194.68  11
   4  -1  -8 256.045 394.773  10
   4   1  -8 888.371 519.528  10
   4  -1  -8 134.282 442.058  15
   4   1  -8 433.004 423.005  15
  -4  -1   8-1.38899 812.830  13
  -4  -1   8-37.6057 969.233  11
   4   1  -9 5994.63 880.555  10
   4  -1  -9 6586.22 919.417  15
   4   1  -9 5011.59 777.147  15
  -4   1   9 4172.28 1363.68  13
   4   1 -10-470.726 480.852  10
   4  -1 -10-599.605 599.932  15
  -4   1  10-1215.78 1459.80  13
  -4  -1  10 760.672 1233.52  11
   4   2  -5-456.453 357.428  10
   4   2  -5-19.1173 295.876   7
  -4  -2   5 599.459 564.838   1
   4   2  -6 56886.3 1962.69   7
  -4  -2   6 63475.8 2811.57   6
  -4  -2   6 60696.0 3080.90  11
   4   2  -6 60564.8 2044.98  10
   4   2  -7 2620.43 624.793  10
   4   2  -7 2644.01 619.963   7
  -4  -2   7 1390.72 778.312   6
  -4  -2   7 1980.85 845.144  11
   4   2  -8 6294.90 876.643  10
   4   2  -8 5492.00 752.334   7
  -4  -2   8 6588.97 1204.97   6
  -4  -2   8 8547.03 1478.68  11
   4   2  -9 1830.47 575.222  10
  -4  -2   9 59.0555 1013.53  11
   4   3  -4 2753.80 472.841  10
   4   3  -4 3143.93 455.509   2
   4   3  -4 2435.50 468.197   7
  -4  -3   4 3692.25 866.368   6
  -4  -3   4 2534.42 592.258   1
   4   3  -5 9533.05 782.137   2
  -4  -3   5 10660.0 1182.54   1
   4   3  -5 10729.3 895.432   7
  -4  -3   5 10990.8 1292.44   6
   4   3  -5 9486.27 830.026  10
   4   3  -6 1224.86 483.501  10
   4   3  -6 2380.19 551.823   7
  -4  -3   6 1744.62 826.248   6
  -4  -3   6 2534.71 976.708  11
   4   3  -7 2170.15 557.138  10
   4   3  -7 2758.57 603.678   7
  -4  -3   7 1238.89 722.689   6
  -4  -3   7 1554.68 979.488  11
   4   3  -8 1658.08 574.841  10
   4   3  -8-1162.05 584.361   7
  -4  -3   8 1988.42 930.218   6
  -4  -3   8 959.170 972.290  11
   4   3  -9 1661.67 613.835  10
   4   3  -9 3727.95 745.387   7
  -4  -3   9 3770.60 1206.00   6
  -4  -3   9 3991.08 1393.22  11
   4   4  -3 5467.79 681.897   2
   4   4  -3 3917.00 586.094   7
  -4  -4   3 4483.57 775.624   1
   4   4  -4 1491.74 450.242   2
   4   4  -4 1028.01 438.036   7
  -4  -4   4 1685.67 792.838   6
  -4  -4   4 1286.75 660.196   1
  -4  -4   5-459.003 645.193   1
   4   4  -5-654.821 430.672  10
   4   4  -5-254.241 395.620   2
   4   4  -5 809.125 490.260   7
  -4  -4   5 834.336 723.027   6
   4   4  -6 22548.5 1439.81   7
  -4  -4   6 22960.6 1897.18   1
  -4  -4   6 23264.7 1908.16   6
   4   4  -6 22563.0 1365.73  10
   4   4  -7 1091.60 501.212  10
   4   4  -7 768.004 453.600   7
  -4  -4   7 713.327 775.771   6
  -4  -4   7 2239.19 1156.44  11
   4   4  -8 555.919 490.215  10
   4   4  -8 2762.66 760.521   7
  -4  -4   8 2725.58 993.770   6
   4   5  -3 100.241 412.339   2
   4   5  -3 412.513 417.825   7
  -4  -5   3-464.840 513.305   3
  -4  -5   3-18.6569 550.970   1
  -4  -5   4 1041.23 664.144   1
   4   5  -4 592.376 517.367   7
   4   5  -4 123.967 392.448   2
  -4  -5   4 1171.81 744.851   6
  -4  -5   4 811.868 576.857   3
  -4  -5   5 2366.99 837.007   1
   4   5  -5 2905.62 700.254   7
   4   5  -5 3000.64 666.915   2
  -4  -5   5 2125.72 816.774   6
  -4  -5   5 3063.75 817.985   3
  -4  -5   6 2300.92 1002.10   1
   4   5  -6 2783.42 696.919   7
   4   5  -6 808.180 517.202   2
  -4  -5   6 877.206 806.504   6
   4   5  -7 1606.03 639.571   7
  -4  -5   7 1140.43 895.930   6
  -4  -6   3 714.582 628.841   1
   4   6  -3 476.903 524.941   2
  -4  -6   3 96.7068 588.443   3
   4   6  -4 1900.56 669.423   7
   4   6  -4 326.788 469.051   2
  -4  -6   4 520.352 615.052   3
   4   6  -5-222.918 561.314   7
  -4  -6   5-443.740 829.448   1
  -4  -6   5 101.874 832.077   6
   4   6  -5-18.4005 494.187   2
  -4  -6   5-321.238 662.713   3
   4   6  -6 3615.59 833.422   2
  -4  -6   6 7144.23 1515.00   1
   0   0   0    0.00    0.00   0

TITL nowe1a in Pnma
REM Pnma (#62 with fixed user cell (not necessary: std = user cell)!)
CELL 0.71073  10.697082   6.254469   8.801180  89.9851  90.0774  89.9948
ZERR    4.00   0.004456   0.000670   0.001047   0.0092   0.0194   0.0186
LATT  1
SYMM -x+1/2,-y, z+1/2
SYMM -x, y+1/2,-z
SYMM  x+1/2,-y+1/2,-z+1/2
SFAC C H N Cl
UNIT 16.00 8.00 20.00 4.00
TREF
HKLF 4
END
;
_shelx_hkl_checksum              21736
_olex2_submission_special_instructions 'No special instructions were received'
_oxdiff_exptl_absorpt_empirical_details
;
Empirical correction (ABSPACK) includes:
- Absorption correction using spherical harmonics
- Frame scaling
;
_oxdiff_exptl_absorpt_empirical_full_max 2.247
_oxdiff_exptl_absorpt_empirical_full_min 0.812
loop_
_space_group_symop_operation_xyz
'x, y, z'
'-x+1/2, -y, z+1/2'
'x+1/2, -y+1/2, -z+1/2'
'-x, y+1/2, -z'
'-x, -y, -z'
'x-1/2, y, -z-1/2'
'-x-1/2, y-1/2, z-1/2'
'x, -y-1/2, z'
loop_
_atom_site_label
_atom_site_type_symbol
_atom_site_fract_x
_atom_site_fract_y
_atom_site_fract_z
_atom_site_U_iso_or_equiv
_atom_site_adp_type
_atom_site_occupancy
_atom_site_site_symmetry_order
_atom_site_calc_flag
_atom_site_refinement_flags_posn
_atom_site_refinement_flags_adp
_atom_site_refinement_flags_occupancy
_atom_site_disorder_assembly
_atom_site_disorder_group
Cl1 Cl 0.61551(16) 0.750000 0.91127(9) 0.0760(13) Uani 1 2 d S T P . .
C6 C 0.624(2) 0.750000 0.7158(5) 0.033(6) Uani 1 2 d S TU P . .
C7 C 0.7471(17) 0.750000 0.6526(7) 0.050(9) Uani 1 2 d S T P . .
H7 H 0.818559 0.750000 0.712702 0.060 Uiso 1 2 calc R U P . .
N6 N 0.5353(13) 0.750000 0.4928(5) 0.035(5) Uani 1 2 d S T P . .
N1 N 0.6188(12) 0.750000 0.2671(6) 0.043(7) Uani 1 2 d S T P . .
N5 N 0.5216(12) 0.750000 0.6465(5) 0.052(6) Uani 1 2 d S T P . .
C8 C 0.7523(17) 0.750000 0.4976(5) 0.069(7) Uani 1 2 d S T P . .
H8 H 0.829630 0.750000 0.449439 0.083 Uiso 1 2 calc R U P . .
N2 N 0.4917(12) 0.750000 0.2617(6) 0.069(8) Uani 1 2 d S T P . .
N3 N 0.4408(11) 0.750000 0.3956(4) 0.074(5) Uani 1 2 d S T P . .
C9 C 0.6492(18) 0.750000 0.4150(6) 0.051(7) Uani 1 2 d S T P . .
loop_
_atom_site_aniso_label
_atom_site_aniso_U_11
_atom_site_aniso_U_22
_atom_site_aniso_U_33
_atom_site_aniso_U_23
_atom_site_aniso_U_13
_atom_site_aniso_U_12
Cl1 0.115(4) 0.0785(5) 0.0346(5) 0.000 -0.0036(8) 0.000
C6 0.016(19) 0.0469(19) 0.036(2) 0.000 -0.009(5) 0.000
C7 0.03(3) 0.059(2) 0.066(5) 0.000 -0.006(6) 0.000
N6 0.019(19) 0.0432(14) 0.044(3) 0.000 0.005(5) 0.000
N1 0.02(2) 0.071(2) 0.040(2) 0.000 -0.005(5) 0.000
N5 0.07(2) 0.0505(15) 0.036(3) 0.000 0.002(3) 0.000
C8 0.09(2) 0.061(2) 0.051(4) 0.000 0.024(5) 0.000
N2 0.10(2) 0.0609(19) 0.042(2) 0.000 -0.025(6) 0.000
N3 0.106(19) 0.0557(16) 0.059(3) 0.000 -0.023(4) 0.000
C9 0.07(2) 0.0469(17) 0.036(3) 0.000 0.002(6) 0.000
loop_
_atom_type_symbol
_atom_type_description
_atom_type_scat_dispersion_real
_atom_type_scat_dispersion_imag
_atom_type_scat_source
C C 0.0033 0.0016 'International Tables Vol C Tables 4.2.6.8 and 6.1.1.4'
H H 0.0000 0.0000 'International Tables Vol C Tables 4.2.6.8 and 6.1.1.4'
Cl Cl 0.1484 0.1585 'International Tables Vol C Tables 4.2.6.8 and 6.1.1.4'
N N 0.0061 0.0033 'International Tables Vol C Tables 4.2.6.8 and 6.1.1.4'
loop_
_geom_angle_atom_site_label_1
_geom_angle_atom_site_label_2
_geom_angle_atom_site_label_3
_geom_angle
_geom_angle_site_symmetry_1
_geom_angle_site_symmetry_3
_geom_angle_publ_flag
C7 C6 Cl1 116.0(16) . . ?
N5 C6 Cl1 116.0(16) . . ?
N5 C6 C7 128.0(6) . . ?
C6 C7 H7 122.4 . . ?
C8 C7 C6 115.3(19) . . ?
C8 C7 H7 122.4 . . ?
N5 N6 C9 125.5(16) . . ?
N3 N6 N5 124.1(14) . . ?
N3 N6 C9 110.4(5) . . ?
C9 N1 N2 106.0(13) . . ?
C6 N5 N6 112.9(15) . . ?
C7 C8 H8 119.5 . . ?
C9 C8 C7 121(2) . . ?
C9 C8 H8 119.5 . . ?
N3 N2 N1 112.7(8) . . ?
N2 N3 N6 105.5(13) . . ?
N1 C9 N6 105.3(17) . . ?
C8 C9 N6 117.3(7) . . ?
C8 C9 N1 137.4(18) . . ?
loop_
_geom_bond_atom_site_label_1
_geom_bond_atom_site_label_2
_geom_bond_distance
_geom_bond_site_symmetry_2
_geom_bond_publ_flag
Cl1 C6 1.723(5) . ?
C6 C7 1.43(3) . ?
C6 N5 1.26(3) . ?
C7 H7 0.9300 . ?
C7 C8 1.365(8) . ?
N6 N5 1.360(6) . ?
N6 N3 1.324(17) . ?
N6 C9 1.40(3) . ?
N1 N2 1.36(2) . ?
N1 C9 1.341(10) . ?
C8 H8 0.9300 . ?
C8 C9 1.32(3) . ?
N2 N3 1.298(12) . ?
loop_
_geom_torsion_atom_site_label_1
_geom_torsion_atom_site_label_2
_geom_torsion_atom_site_label_3
_geom_torsion_atom_site_label_4
_geom_torsion
_geom_torsion_site_symmetry_1
_geom_torsion_site_symmetry_2
_geom_torsion_site_symmetry_3
_geom_torsion_site_symmetry_4
_geom_torsion_publ_flag
Cl1 C6 C7 C8 180.000(2) . . . . ?
Cl1 C6 N5 N6 180.000(2) . . . . ?
C6 C7 C8 C9 0.000(3) . . . . ?
C7 C6 N5 N6 0.000(3) . . . . ?
C7 C8 C9 N6 0.000(3) . . . . ?
C7 C8 C9 N1 180.000(2) . . . . ?
N1 N2 N3 N6 0.000(1) . . . . ?
N5 C6 C7 C8 0.000(5) . . . . ?
N5 N6 N3 N2 180.000(2) . . . . ?
N5 N6 C9 N1 180.000(2) . . . . ?
N5 N6 C9 C8 0.000(3) . . . . ?
N2 N1 C9 N6 0.000(1) . . . . ?
N2 N1 C9 C8 180.000(1) . . . . ?
N3 N6 N5 C6 180.000(3) . . . . ?
N3 N6 C9 N1 0.000(2) . . . . ?
N3 N6 C9 C8 180.000(1) . . . . ?
C9 N6 N5 C6 0.000(3) . . . . ?
C9 N6 N3 N2 0.000(1) . . . . ?
C9 N1 N2 N3 0.000(1) . . . . ?
