#------------------------------------------------------------------------------
#$Date: 2021-11-30 12:26:09 +0200 (Tue, 30 Nov 2021) $
#$Revision: 270940 $
#$URL: file:///home/coder/svn-repositories/cod/cif/1/56/54/1565457.cif $
#------------------------------------------------------------------------------
#
# This file is available in the Crystallography Open Database (COD),
# http://www.crystallography.net/
#
# All data on this site have been placed in the public domain by the
# contributors.
#
data_1565457
loop_
_publ_author_name
'Adonin, Sergey A.'
'Bondarenko, Mikhail A.'
'Novikov, Alexander S.'
'Plyusnin, Pavel E.'
'Korolkov, Ilya V.'
'Sokolov, Maxim N.'
'Fedin, Vladimir P.'
_publ_section_title
;
 Five new Sb(V) bromide complexes and their polybromide derivatives with
 pyridinium-type cations: Structures, thermal stability and features of
 halogen&#x22EF;halogen contacts in solid state
;
_journal_name_full               'Inorganica Chimica Acta'
_journal_page_first              119278
_journal_paper_doi               10.1016/j.ica.2019.119278
_journal_volume                  502
_journal_year                    2020
_chemical_formula_sum            'C8 H12 Br6 N Sb'
_chemical_formula_weight         723.40
_space_group_crystal_system      triclinic
_space_group_IT_number           2
_space_group_name_Hall           '-P 1'
_space_group_name_H-M_alt        'P -1'
_atom_sites_solution_hydrogens   geom
_audit_creation_method           SHELXL-2014/7
_cell_angle_alpha                86.146(5)
_cell_angle_beta                 76.520(6)
_cell_angle_gamma                71.872(6)
_cell_formula_units_Z            2
_cell_length_a                   8.3195(6)
_cell_length_b                   8.9921(5)
_cell_length_c                   12.3360(9)
_cell_measurement_reflns_used    2283
_cell_measurement_temperature    130(2)
_cell_measurement_theta_max      28.8780
_cell_measurement_theta_min      3.7440
_cell_volume                     852.87(11)
_computing_cell_refinement       'CrysAlisPro 1.171.38.46 (Rigaku OD, 2015)'
_computing_data_collection       'CrysAlisPro 1.171.38.46 (Rigaku OD, 2015)'
_computing_data_reduction        'CrysAlisPro 1.171.38.46 (Rigaku OD, 2015)'
_computing_structure_refinement  'SHELXL-2014/7 (Sheldrick, 2014)'
_diffrn_ambient_temperature      130(2)
_diffrn_detector_area_resol_mean 10.6168
_diffrn_measured_fraction_theta_full 0.988
_diffrn_measured_fraction_theta_max 0.804
_diffrn_measurement_device_type  'New Xcalibur, AtlasS2'
_diffrn_measurement_method       '\w scans'
_diffrn_radiation_type           MoK\a
_diffrn_radiation_wavelength     0.71073
_diffrn_reflns_av_R_equivalents  0.0338
_diffrn_reflns_av_unetI/netI     0.0577
_diffrn_reflns_Laue_measured_fraction_full 0.988
_diffrn_reflns_Laue_measured_fraction_max 0.804
_diffrn_reflns_limit_h_max       10
_diffrn_reflns_limit_h_min       -10
_diffrn_reflns_limit_k_max       11
_diffrn_reflns_limit_k_min       -10
_diffrn_reflns_limit_l_max       15
_diffrn_reflns_limit_l_min       -15
_diffrn_reflns_number            6484
_diffrn_reflns_point_group_measured_fraction_full 0.988
_diffrn_reflns_point_group_measured_fraction_max 0.804
_diffrn_reflns_theta_full        25.500
_diffrn_reflns_theta_max         29.116
_diffrn_reflns_theta_min         3.699
_diffrn_source                   'fine-focus sealed X-ray tube'
_exptl_absorpt_coefficient_mu    15.650
_exptl_absorpt_correction_T_max  1.00000
_exptl_absorpt_correction_T_min  0.57724
_exptl_absorpt_correction_type   multi-scan
_exptl_absorpt_process_details
;
CrysAlisPro 1.171.38.46 (Rigaku Oxford Diffraction, 2015)
Empirical absorption correction using spherical harmonics,
 implemented in SCALE3 ABSPACK scaling algorithm.
;
_exptl_crystal_colour            purple
_exptl_crystal_density_diffrn    2.817
_exptl_crystal_description       block
_exptl_crystal_F_000             656
_exptl_crystal_size_max          0.370
_exptl_crystal_size_mid          0.350
_exptl_crystal_size_min          0.290
_refine_diff_density_max         1.313
_refine_diff_density_min         -1.037
_refine_diff_density_rms         0.213
_refine_ls_extinction_coef       .
_refine_ls_extinction_method     none
_refine_ls_goodness_of_fit_ref   0.987
_refine_ls_hydrogen_treatment    constr
_refine_ls_matrix_type           full
_refine_ls_number_parameters     130
_refine_ls_number_reflns         3685
_refine_ls_number_restraints     0
_refine_ls_restrained_S_all      0.987
_refine_ls_R_factor_all          0.0494
_refine_ls_R_factor_gt           0.0375
_refine_ls_shift/su_max          0.008
_refine_ls_shift/su_mean         0.000
_refine_ls_structure_factor_coef Fsqd
_refine_ls_weighting_details
'w=1/[\s^2^(Fo^2^)+(0.0372P)^2^] where P=(Fo^2^+2Fc^2^)/3'
_refine_ls_weighting_scheme      calc
_refine_ls_wR_factor_gt          0.0811
_refine_ls_wR_factor_ref         0.0893
_reflns_Friedel_coverage         0.000
_reflns_Friedel_fraction_full    .
_reflns_Friedel_fraction_max     .
_reflns_number_gt                2981
_reflns_number_total             3685
_reflns_threshold_expression     'I > 2\s(I)'
_cod_data_source_file            ICA-2020-502-119278.cif
_cod_data_source_block           BM117_a
_cod_database_code               1565457
_shelx_shelxl_version_number     2014/7
_shelx_space_group_comment
;
The symmetry employed for this shelxl refinement is uniquely defined
by the following loop, which should always be used as a source of
symmetry information in preference to the above space-group names.
They are only intended as comments.
;
_shelx_estimated_absorpt_t_min   0.068
_shelx_estimated_absorpt_t_max   0.093
_shelx_res_file
;

    BM117_a.res created by SHELXL-2014/7


TITL BM117_a.res in P-1
REM Old TITL BM117 in P-1

REM SHELXT solution in P-1
REM R1 0.090,  Rweak 0.003,  Alpha 0.027,  Orientation as input
REM Formula found by SHELXT:  C7 N Br6 Sb

CELL  0.71073   8.3195   8.9921  12.3360   86.146   76.520   71.872
ZERR   2.000 0.0006 0.0005 0.0009 0.005 0.006 0.006

LATT  1
SFAC C N BR SB H
UNIT 16 2 12 2 24
SIZE 0.35 0.37 0.29
TEMP -143
L.S. 10
BOND $H
LIST 6
FMAP 2
PLAN 10
EADP C8 C6
EADP C3 C6
EADP C5 C7
OMIT -1  -3   2
OMIT -1  -2   3
OMIT 0   2   3
OMIT 0   2   2
OMIT  -2  -4   2
OMIT  3   0   2
OMIT -2   1   4
OMIT  -1  -3   4
OMIT 3   1   1
OMIT 1   3   3
OMIT 2   2   2
OMIT -4  -3   2
OMIT 3   3   4
OMIT 1   2   4
OMIT 1  -2   1
OMIT 8   8   6
OMIT 7   8   7
OMIT -1   0   6
OMIT 1  10   0
OMIT 5   8   6
OMIT 5   7   2
OMIT 2   0   1
OMIT -1   0  13
OMIT -3   2   2

ACTA 51

WGHT    0.037200
FVAR       0.34199
SB1   4    0.667237    0.241135    0.210586    11.00000    0.00829    0.01251 =
         0.00733    0.00024   -0.00001   -0.00311
N1    2    0.278009    0.805400    0.263824    11.00000    0.02053    0.01236 =
         0.01868    0.00000   -0.00127   -0.00457
C1    1    0.424980    0.842355    0.186258    11.00000    0.02451    0.02878 =
         0.02648    0.00638   -0.00553   -0.01215
AFIX 137
H1A   5    0.428280    0.945483    0.204812    11.00000   -1.50000
H1B   5    0.410266    0.843089    0.109663    11.00000   -1.50000
H1C   5    0.533816    0.762989    0.192884    11.00000   -1.50000
AFIX   0
BR1   3    0.718165    0.438524    0.060027    11.00000    0.02716    0.01959 =
         0.01157    0.00440   -0.00104   -0.00997
BR2   3    0.357051    0.297302    0.188629    11.00000    0.01063    0.02506 =
         0.02267    0.00366   -0.00522   -0.00445
C2    1    0.252381    0.828775    0.373156    11.00000    0.02529    0.02167 =
         0.02749   -0.00441   -0.01406    0.00181
AFIX  43
H2    5    0.327040    0.870169    0.400973    11.00000   -1.20000
AFIX   0
BR3   3    0.767097    0.019534    0.069678    11.00000    0.01935    0.02004 =
         0.01386   -0.00600    0.00122   -0.00607
C3    1    0.116112    0.792097    0.445348    11.00000    0.02476    0.01775 =
         0.01797   -0.00193   -0.00320    0.00007
AFIX  43
H3    5    0.096522    0.809769    0.523066    11.00000   -1.20000
AFIX   0
BR5   3    0.980136    0.180313    0.230485    11.00000    0.01045    0.02357 =
         0.01992   -0.00099   -0.00358   -0.00458
C5    1   -0.138524    0.688260    0.485650    11.00000    0.02467    0.03404 =
         0.03850    0.00861    0.00123   -0.00292
AFIX 137
H5A   5   -0.249520    0.760597    0.475537    11.00000   -1.50000
H5B   5   -0.128401    0.695791    0.562524    11.00000   -1.50000
H5C   5   -0.133110    0.581036    0.470411    11.00000   -1.50000
AFIX   0
BR4   3    0.615164    0.049326    0.369434    11.00000    0.01934    0.01768 =
         0.01214    0.00519   -0.00208   -0.00689
C4    1    0.008666    0.730445    0.406206    11.00000    0.01906    0.01649 =
         0.02589    0.01050    0.00617    0.00502
C7    1   -0.072829    0.640022    0.242577    11.00000    0.02467    0.03404 =
         0.03850    0.00861    0.00123   -0.00292
AFIX 137
H7A   5   -0.056479    0.663170    0.162697    11.00000   -1.50000
H7B   5   -0.194869    0.687192    0.279467    11.00000   -1.50000
H7C   5   -0.040209    0.526436    0.253284    11.00000   -1.50000
AFIX   0
BR6   3    0.564852    0.454453    0.359087    11.00000    0.02221    0.01701 =
         0.01254   -0.00475    0.00072   -0.00378
C6    1    0.038631    0.706028    0.291825    11.00000    0.02476    0.01775 =
         0.01797   -0.00193   -0.00320    0.00007
C8    1    0.175148    0.745770    0.223594    11.00000    0.02476    0.01775 =
         0.01797   -0.00193   -0.00320    0.00007
AFIX  43
H8    5    0.196969    0.730338    0.145437    11.00000   -1.20000
AFIX   0
HKLF 4

REM  BM117_a.res in P-1
REM R1 =  0.0375 for    2981 Fo > 4sig(Fo)  and  0.0494 for all    3685 data
REM    130 parameters refined using      0 restraints

END

WGHT      0.0282      0.0000

REM Highest difference peak  1.313,  deepest hole -1.037,  1-sigma level  0.213
Q1    1   0.6585  0.2383  0.1386  11.00000  0.05    1.31
Q2    1   0.5764  0.4859  0.2776  11.00000  0.05    0.97
Q3    1   0.6387  0.0684  0.4375  11.00000  0.05    0.93
Q4    1   0.7114  0.4267  0.1388  11.00000  0.05    0.92
Q5    1   0.6052  0.0438  0.2944  11.00000  0.05    0.90
Q6    1   0.5540  0.2897  0.3660  11.00000  0.05    0.89
Q7    1   0.6647  0.2508  0.2822  11.00000  0.05    0.88
Q8    1   0.3620  0.2879  0.1167  11.00000  0.05    0.84
Q9    1   0.5512  0.2776  0.2773  11.00000  0.05    0.83
Q10   1   0.0309  0.7206  0.3378  11.00000  0.05    0.82
;
_shelx_res_checksum              12057
_shelx_hkl_file
;
   0   0   3   19.54    4.55
   0   0  -3   22.23    5.52
   0   0  -4    3.13    2.72
   0   0   4    6.33    4.04
   0   0   5 2763.66   90.84
   0   0  -5 2744.61   90.73
   0   0  -6  387.51   29.50
   0   0  -6  397.90   28.43
   0   0   6  409.80   29.04
   0   0  -7 8484.62  240.80
   0   0  -7 8873.03  245.85
   0   0   7 8639.17  240.84
   0   0   8  283.30   26.67
   0   0  -8  273.47   27.51
   0   0  -9   34.36   12.29
   0   0 -10   91.85   19.43
   0   0 -11   91.95   20.04
   0   0 -12  737.26   57.98
   0   0 -13   83.17   21.09
   0   0 -14 1311.18   84.63
   0   1 -14   14.52    9.33
   0   1 -13   14.73    6.84
   0   1 -12   19.30   10.38
   0   1 -11  221.44   29.32
   0   1 -10  201.68   26.97
   0   1  -9  181.86   24.09
   0   1  -8  632.53   43.98
   0  -1   8  682.43   41.99
   0  -1   7   36.53    9.13
   0   1  -7   37.87   10.00
   0  -1   6 1938.01   71.63
   0   1  -6 1654.15   71.05
   0  -1   5  140.92   14.41
   0   1  -5  122.92   14.78
   0  -1   4  936.10   39.47
   0   1  -4  951.27   41.20
   0  -1   3  829.71   33.95
   0   1  -3  978.95   37.07
   0  -1   2  932.82   31.15
   0   1  -2  959.43   30.74
   0   1   2 1358.20   43.12
   0  -1  -2 1425.69   43.96
   0  -1  -3  509.76   24.63
   0   1   3  463.83   23.33
   0   1   4  742.05   34.69
   0  -1  -4  790.64   36.23
   0  -1  -5   37.88    8.38
   0   1   5   34.08    7.52
   0  -1  -6 5442.06  160.71
   0   1   6 5444.55  159.92
   0  -1  -7  248.88   24.12
   0   1   7  245.36   23.22
   0   1   8 2066.20   83.21
   0  -1  -8 1895.34   82.34
   0  -1  -9  264.61   27.85
   0  -1  -9  235.20   27.70
   0  -1 -10   -5.30    7.91
   0  -1 -11  127.64   22.26
   0  -1 -12   28.47   11.40
   0  -1 -13 1700.93   96.15
   0  -1 -14   32.68   13.23
   0   2 -14  680.56   59.04
   0   2 -13  123.87   24.56
   0   2 -12   -1.49    6.75
   0   2 -11  659.51   50.80
   0   2 -10  722.56   50.88
   0   2  -9  738.35   49.34
   0  -2   8   -2.15    3.89
   0   2  -8    7.42    6.61
   0  -2   7 1297.77   57.93
   0   2  -7 1034.36   54.16
   0   2  -6   65.52   11.30
   0  -2   6   89.86   12.37
   0  -2   5 1168.55   49.09
   0   2  -5 1195.34   49.94
   0   2  -4 4145.38  114.57
   0  -2   4 3801.53  112.20
   0  -2   4 3943.27  113.69
   0  -2   3 2876.21   84.07
   0   2  -3 3075.81   85.12
   0  -2   3 3013.87   85.24
   0  -2   2 3337.16   89.20
   0   2  -2 3476.43   89.37
   0  -2   2 3382.11   94.79
   0  -2   1   40.09    3.81
   0  -2   1   39.02    5.36
   0   2  -1   45.00    6.22
   0   2  -1   42.86    4.00
   0  -2   0  191.45    8.94
   0   2   0  196.66    7.72
   0  -2   0  200.84   11.72
   0  -2   0  188.52   11.52
   0   2   0  193.57   11.50
   0  -2   0  214.98    7.77
   0   2   0  224.10   12.48
   0  -2  -1    3.26    2.22
   0  -2  -1    1.84    1.49
   0   2   1    0.13    1.85
   0  -2  -1    3.52    2.30
   0   2   1    0.86    1.42
   0   2   1    1.18    0.91
   0   2   2 4811.39  130.88
   0   2   2 5086.60  130.85
   0   2   2 5309.56  131.67
   0  -2  -2 5239.94  132.17
   0   2   3 7487.17  182.48
   0   2   3 7090.24  184.67
   0   2   3 6830.12  182.24
   0  -2  -3 7378.99  186.76
   0   2   4 2442.86   79.29
   0  -2  -4 2503.03   80.87
   0   2   5 2664.67   89.39
   0  -2  -5 2700.75   90.55
   0  -2  -6    8.32    5.59
   0   2   6   20.31    7.05
   0  -2  -7  132.55   17.11
   0   2   7   69.64   12.52
   0  -2  -8  357.74   31.17
   0   2   8  344.92   30.47
   0  -2  -9 2122.35   92.19
   0  -2 -10 2927.32  115.79
   0  -2 -10 2636.15  113.93
   0  -2 -11  221.87   28.95
   0  -2 -12  474.97   45.38
   0  -2 -13   15.13   10.82
   0  -2 -14   30.62   13.67
   0   3 -14    8.44    9.54
   0   3 -13  120.28   23.37
   0   3 -12  -11.18    7.79
   0   3 -11  107.93   19.64
   0   3 -10  325.64   33.67
   0  -3   9   66.14   13.03
   0   3  -9   36.27   11.15
   0  -3   8   23.63    7.94
   0   3  -8   14.00    6.32
   0  -3   7   50.97    9.99
   0   3  -7   48.72   10.18
   0  -3   6   79.87   11.88
   0   3  -6   96.33   13.09
   0   3  -5  233.06   18.85
   0  -3   5  213.00   18.21
   0  -3   5  218.98   17.89
   0  -3   4 1762.62   59.71
   0  -3   4 1729.61   58.85
   0  -3   4 1812.30   64.26
   0   3  -4 1705.25   58.74
   0  -3   3 3234.49   95.15
   0   3  -3 3174.09   88.25
   0  -3   3 3090.16   87.62
   0  -3   3 3124.73   87.39
   0   3  -2  323.57   15.80
   0  -3   2  341.45   20.38
   0  -3   2  319.17   15.32
   0   3  -1   38.80    6.67
   0  -3   1   47.37    7.33
   0  -3   1   41.21    4.50
   0  -3   1   48.00    7.15
   0   3   0    3.15    2.35
   0  -3   0   -1.69    1.98
   0  -3   0    2.24    1.48
   0  -3   0    1.80    1.09
   0  -3   0    1.47    1.27
   0  -3  -1  270.39   15.96
   0   3   1  244.51   15.26
   0  -3  -1  260.34   12.35
   0   3   1  252.09   16.03
   0   3   1  230.15   11.19
   0  -3  -1  234.69   15.50
   0   3   2 3053.02   85.06
   0   3   2 2782.44   78.89
   0   3   2 2745.63   82.75
   0  -3  -2 2881.42   84.42
   0  -3  -2 2941.34   81.59
   0  -3  -2 3104.67   84.84
   0  -3  -3 4028.19  113.55
   0   3   3 4157.06  111.94
   0   3   3 3929.67  110.05
   0   3   3 3884.99  110.81
   0  -3  -4 4731.91  137.54
   0   3   4 4966.75  133.56
   0   3   4 4685.57  132.75
   0   3   4 4859.20  135.12
   0   3   5    1.26    2.46
   0   3   5    3.35    3.52
   0  -3  -5   -2.63    4.26
   0   3   5    4.15    2.33
   0  -3  -6   25.66    8.22
   0   3   6   27.50    8.12
   0   3   6   12.43    4.55
   0   3   7  158.47   16.21
   0  -3  -7  148.42   18.96
   0   3   7  142.02   18.40
   0  -3  -8  923.94   53.82
   0  -3  -9 2280.81   97.68
   0  -3 -10 1804.19   87.56
   0  -3 -11 1674.99   88.05
   0  -3 -12   45.07   14.99
   0   3  13   87.35   15.71
   0  -3 -13   95.35   21.38
   0  -3 -14   76.15   20.02
   0   4 -14  605.77   55.98
   0   4 -13   59.79   16.67
   0   4 -12   26.76   11.16
   0   4 -11  209.51   28.11
   0   4 -10   91.92   17.18
   0   4  -9   25.91   10.16
   0  -4   9   38.45   10.12
   0  -4   8   -0.31    4.97
   0   4  -8   -2.20    6.03
   0  -4   8    9.22    4.42
   0  -4   7  956.13   49.52
   0  -4   7 1104.46   51.66
   0   4  -7  946.30   49.92
   0  -4   6  143.70   16.58
   0   4  -6  144.81   16.54
   0  -4   6  134.65   16.38
   0  -4   6  137.05   15.45
   0  -4   5   12.46    4.22
   0   4  -5   23.56    6.51
   0  -4   5   14.78    5.48
   0  -4   5   16.30    4.52
   0  -4   4  321.55   19.57
   0   4  -4  322.53   20.13
   0  -4   4  316.98   20.09
   0  -4   4  317.58   23.80
   0   4  -3    8.30    3.29
   0  -4   3   -1.27    2.38
   0  -4   3    3.58    2.22
   0   4  -2  325.92   16.93
   0  -4   2  341.09   23.39
   0  -4   2  331.69   16.57
   0  -4   2  343.69   23.31
   0  -4   1   11.45    2.78
   0  -4   1    9.40    1.87
   0   4  -1    3.41    3.72
   0  -4   1    4.19    2.64
   0  -4   1    9.12    3.87
   0  -4   0 3119.35   80.81
   0   4   0 3100.32   95.33
   0  -4   0 3169.48   95.95
   0  -4   0 3233.22   85.10
   0  -4   0 3231.59   95.13
   0  -4  -1  397.20   22.97
   0   4   1  374.90   16.02
   0  -4  -1  378.09   17.45
   0   4   1  416.43   24.01
   0   4   1  379.07   22.85
   0  -4  -1  422.81   23.96
   0  -4  -2  125.40   10.89
   0  -4  -2  156.91   14.02
   0   4   2  150.01   13.94
   0   4   2  132.44    9.93
   0   4   2  133.94   12.83
   0  -4  -2  162.37   14.38
   0   4   3  215.46   14.77
   0   4   3  218.44   17.00
   0   4   3  247.93   18.51
   0  -4  -3  212.99   16.58
   0  -4  -4  143.01   15.19
   0   4   4  151.95   14.89
   0   4   4  154.88   13.92
   0   4   4  135.30   13.55
   0   4   5 1598.37   60.63
   0   4   5 1637.16   60.97
   0  -4  -5 1504.40   63.99
   0   4   5 1610.63   61.89
   0  -4  -6   21.03    6.50
   0   4   6    9.26    4.92
   0   4   6   13.72    5.73
   0   4   6    7.34    4.09
   0   4   7 1766.78   75.02
   0  -4  -7 1822.53   78.23
   0   4   7 1765.08   69.14
   0   4   7 1714.14   68.77
   0   4   8  753.92   43.06
   0   4   8  826.62   44.30
   0   4   9  189.87   21.21
   0  -4  -9  249.53   28.59
   0   4   9  224.29   22.25
   0  -4 -10  716.38   51.46
   0   4  10  596.33   41.31
   0   4  10  610.28   39.74
   0   4  11   20.97    7.64
   0  -4 -12  923.77   65.39
   0   4  12  812.50   49.29
   0  -4 -13   75.61   19.29
   0   5 -14   23.40   10.80
   0   5 -13  289.74   36.12
   0   5 -12   -0.68    6.69
   0   5 -11   74.23   16.50
   0   5 -10 1079.32   63.22
   0  -5   9   45.92   10.44
   0   5  -9   42.81   11.11
   0  -5   8  485.55   34.51
   0   5  -8  462.06   34.54
   0  -5   7  131.03   16.15
   0   5  -7  105.93   15.11
   0  -5   6  491.25   30.11
   0  -5   6  468.51   31.05
   0  -5   6  451.18   32.80
   0   5  -6  453.51   29.77
   0   5  -5  148.50   14.91
   0  -5   5  163.20   18.47
   0  -5   5  153.02   14.69
   0  -5   5  164.53   15.75
   0  -5   4  640.02   37.75
   0   5  -4  612.91   30.23
   0  -5   4  614.52   29.74
   0  -5   4  613.69   28.64
   0   5  -3 1050.12   40.59
   0  -5   3 1064.01   40.04
   0  -5   3 1110.51   51.85
   0  -5   3 1080.59   37.40
   0  -5   3 1141.26   52.01
   0   5  -2    0.93    1.91
   0  -5   2    2.53    1.18
   0  -5   2    5.76    4.40
   0  -5   2    0.00    1.57
   0  -5   2    1.38    3.38
   0  -5   1 3330.15   86.07
   0  -5   1 3415.08  108.16
   0  -5   1 3398.65  107.45
   0   5  -1 3513.15  110.18
   0  -5   1 3515.01   93.15
   0  -5   0  431.27   27.64
   0  -5   0  420.13   19.98
   0  -5   0  415.96   17.24
   0   5   0  422.08   27.43
   0  -5   0  431.67   27.17
   0  -5  -1  974.98   43.30
   0   5   1  938.10   31.08
   0  -5  -1  983.36   44.29
   0   5   1  935.93   43.44
   0  -5  -1  917.39   34.60
   0  -5  -1  878.72   32.69
   0   5   2   74.83   10.93
   0  -5  -2   57.63    7.74
   0  -5  -2   64.88   10.25
   0   5   2   55.93    6.50
   0  -5  -2   58.10    9.82
   0   5   2   60.75   10.41
   0  -5  -3  321.75   23.97
   0  -5  -3  348.93   24.69
   0   5   3  332.23   24.49
   0  -5  -3  307.11   21.45
   0   5   3  326.12   19.16
   0   5   3  343.45   23.89
   0   5   4    6.60    4.16
   0   5   4    6.76    3.75
   0   5   4    3.22    4.26
   0  -5  -4    5.39    3.27
   0  -5  -5   -0.57    4.01
   0   5   5    8.30    5.23
   0   5   5   -0.05    2.65
   0   5   5   -0.75    2.20
   0  -5  -6 5325.99  165.36
   0   5   6 5221.39  158.18
   0   5   6 5379.47  158.43
   0   5   6 5287.64  157.48
   0   5   7  620.76   38.36
   0   5   7  579.65   37.07
   0   5   7  651.30   40.63
   0  -5  -7  632.08   43.25
   0   5   8  423.35   32.25
   0   5   8  425.44   31.98
   0  -5  -8  487.32   39.07
   0   5   9    5.69    4.37
   0  -5  -9    6.71    5.40
   0   5   9   19.35    8.03
   0  -5 -10  115.16   20.87
   0   5  10   86.33   14.75
   0   5  11  188.25   22.58
   0  -5 -12    0.50    7.89
   0   5  12   18.54    7.46
   0  -5 -13 2509.98  124.64
   0   6 -14   15.29    6.60
   0   6 -13   -0.94    5.43
   0   6 -12   39.56   12.72
   0   6 -11  136.25   21.73
   0   6 -10    5.48    5.81
   0  -6   9    7.23    4.15
   0   6  -9    4.97    5.77
   0   6  -8    1.21    3.89
   0  -6   8    4.53    3.40
   0  -6   7   41.15    8.93
   0   6  -7   31.67    8.84
   0   6  -6   13.61    5.91
   0  -6   6   13.73    5.82
   0  -6   6   11.77    4.63
   0  -6   5   65.19    9.13
   0  -6   5   41.95   11.02
   0   6  -5   65.85   10.15
   0  -6   5   63.25   10.33
   0   6  -4   10.02    3.86
   0  -6   4    1.44    1.79
   0  -6   4    7.26    3.34
   0  -6   4   -2.08    5.36
   0  -6   3    9.35    2.44
   0  -6   3    6.99    3.01
   0  -6   3    0.30    4.90
   0   6  -3   12.30    4.23
   0  -6   2    6.08    1.81
   0  -6   2    6.47    2.70
   0  -6   2    7.71    5.25
   0  -6   1   -2.27    4.17
   0   6  -1    0.12    4.21
   0  -6   1    4.20    2.62
   0  -6   1    3.36    1.54
   0  -6   1    6.47    4.16
   0  -6   0   84.77   12.65
   0  -6   0   65.07    6.39
   0  -6   0   76.06    8.39
   0   6   0   79.35   12.98
   0  -6   0   82.44   12.51
   0   6   1    1.60    3.71
   0  -6  -1    2.86    1.91
   0  -6  -1    5.53    4.69
   0  -6  -1    2.28    4.12
   0  -6  -1    2.39    1.73
   0  -6  -2   51.44    7.65
   0  -6  -2   48.81    9.58
   0  -6  -2   38.37    7.11
   0  -6  -2   60.49   11.08
   0   6   2   45.63   10.14
   0   6   2   45.44    6.16
   0   6   3   21.44    4.93
   0  -6  -3   23.78    6.97
   0  -6  -3   18.15    5.56
   0   6   3   37.20    9.43
   0  -6  -3   30.31    8.23
   0   6   3   42.69    9.23
   0   6   4    5.33    3.15
   0  -6  -4    5.52    3.70
   0   6   4    4.70    3.39
   0   6   4    5.09    5.14
   0   6   5  557.72   36.97
   0   6   5  523.76   31.49
   0   6   5  571.45   36.13
   0  -6  -5  558.62   36.98
   0  -6  -6   48.31   11.35
   0   6   6   58.14   10.59
   0   6   6   68.24   12.97
   0   6   6   63.75   11.63
   0  -6  -7  605.88   43.47
   0   6   7  562.45   38.56
   0   6   8   77.03   14.25
   0  -6  -8   81.81   16.50
   0   6   9   10.69    6.30
   0  -6  -9    0.82    6.79
   0   6  10  141.00   20.62
   0   6  11   18.86    7.82
   0   7 -11  210.46   27.10
   0   7 -10  482.64   39.61
   0   7  -9    3.59    4.71
   0   7  -8  672.51   41.55
   0  -7   8  536.16   44.04
   0  -7   7  211.36   26.89
   0   7  -7  289.95   24.74
   0  -7   6  271.16   23.54
   0   7  -6  243.77   21.55
   0  -7   6  244.97   18.72
   0  -7   6  228.92   26.94
   0  -7   5  140.01   12.67
   0   7  -5  138.16   14.97
   0  -7   5  141.47   20.57
   0  -7   5  154.53   16.47
   0  -7   4  225.34   18.24
   0  -7   4  254.85   13.51
   0  -7   4  266.33   27.62
   0   7  -4  267.80   19.86
   0  -7   3  573.01   19.26
   0  -7   3  591.86   29.58
   0  -7   3  555.15   40.25
   0  -7   2    1.97    2.50
   0  -7   2    2.56    5.56
   0   7  -1 1278.09   64.21
   0  -7   1 1306.06   61.57
   0  -7   1 1103.25   33.66
   0  -7   1 1293.21   44.72
   0  -7   0  331.37   19.76
   0  -7   0  324.88   28.03
   0  -7   0  292.36   15.34
   0   7   0  317.57   29.57
   0  -7  -1    2.93    4.65
   0  -7  -1    2.31    2.12
   0   7   1   13.20    5.76
   0  -7  -1    5.63    3.20
   0   7   2  474.25   35.34
   0  -7  -2  437.38   25.72
   0  -7  -2  446.75   25.82
   0  -7  -2  499.09   35.70
   0  -7  -3  368.33   24.87
   0   7   3  351.22   30.78
   0  -7  -3  386.06   31.34
   0  -7  -3  384.75   26.30
   0   7   3  407.38   22.80
   0  -7  -4  656.89   38.45
   0   7   4  604.81   31.70
   0   7   4  638.19   42.76
   0  -7  -5    4.89    4.67
   0   7   5    9.23    4.50
   0   7   5   16.22    8.04
   0   7   6  384.27   28.70
   0  -7  -6  459.61   35.65
   0   7   6  361.15   32.20
   0  -7  -7   17.38    9.29
   0   7   7   13.37    8.26
   0   7   8  146.86   21.07
   0  -7  -8  181.20   25.34
   0  -7  -9  955.07   62.46
   0   7   9  800.58   53.79
   0   7  10  101.11   18.48
   0   7  11  400.59   37.39
   0  -8  10   40.56   13.22
   0  -8   9  161.02   24.92
   0   8  -8   33.62    9.04
   0  -8   8   26.54   10.67
   0   8  -7   80.07   12.78
   0  -8   7   78.85   17.31
   0  -8   6   13.12    8.66
   0   8  -6    4.24    2.94
   0   8  -5   30.13    7.47
   0  -8   5   19.99    9.17
   0  -8   4  183.99   16.84
   0  -8   4  177.66   24.27
   0  -8   3   81.66   16.68
   0  -8   3   85.50   10.69
   0  -8   2   39.81   11.09
   0  -8   2   38.63    7.02
   0  -8   1   85.74   10.15
   0  -8   1   82.89   15.28
   0   8   0  407.17   36.88
   0  -8   0  412.21   23.86
   0  -8   0  430.33   36.30
   0   8   1   22.72    8.99
   0  -8  -1   35.17   10.27
   0  -8  -1   22.94    5.45
   0  -8  -1   15.54    3.64
   0  -8  -2  114.94   12.94
   0  -8  -2  153.97   20.55
   0  -8  -2  113.53   12.31
   0   8   2  117.68   19.04
   0  -8  -3  482.75   29.75
   0  -8  -3  432.36   27.81
   0  -8  -3  488.41   38.67
   0   8   3  496.21   39.62
   0   8   4   46.92   12.83
   0  -8  -4   37.36    8.98
   0  -8  -4   60.31   10.45
   0   8   5   90.57   17.03
   0  -8  -5  109.60   16.63
   0   8   6   14.73    7.86
   0  -8  -6   12.89    6.21
   0   8   7   38.68   12.44
   0  -8  -7   54.07   13.61
   0   8   8  172.45   25.13
   0   8   9  241.53   30.40
   0   8  10  545.38   47.04
   0  -9   7  104.02   20.66
   0  -9   6   22.57    7.87
   0  -9   5   79.47   16.77
   0  -9   4   72.63   16.75
   0  -9   3  109.30   19.80
   0  -9   2   16.05    9.49
   0  -9   1  357.07   35.60
   0  -9   0   29.25   10.86
   0   9   1   10.49    7.12
   0  -9  -1    4.12    6.02
   0  -9  -2  189.43   25.43
   0   9   2  207.55   28.19
   0  -9  -3   -3.55    6.24
   0   9   4   63.13   16.17
   0   9   5   33.51   11.63
   0   9   6  140.78   23.56
   0   9   7   98.35   20.74
   0   9   8    0.08    5.70
   0   9   9   -2.75    6.31
   0 -10   4  265.17   33.39
   0 -10   3    0.06    5.34
   0 -10   2  120.27   22.10
   0 -10   1   97.29   20.50
   0 -10   0  399.44   41.45
   0 -10  -1   14.24    9.76
   0 -10  -2   50.61   14.96
   0  10   2   29.36   12.29
   0  10   3  423.23   45.35
   0  10   4    2.87    6.19
   0  10   5  355.00   40.90
   0  10   6   75.17   20.03
   0  10   7  222.06   32.89
   1 -10  -3    5.45    7.19
   1 -10  -2    4.52    7.98
   1 -10  -1   31.04   12.35
   1 -10   0   20.36   11.28
   1 -10   1 1664.16   92.01
   1 -10   2  134.26   24.02
   1 -10   3  312.18   36.90
  -1   9   8   11.65    7.14
  -1   9   7  124.89   23.43
  -1   9   6    2.83    5.96
  -1   9   5  403.16   42.04
  -1   9   4  105.66   21.68
   1  -9  -3    5.53    4.67
   1  -9  -1   21.83   10.32
   1  -9   0  891.11   59.86
   1  -9   1   66.38   15.90
   1  -9   2 1141.08   69.15
   1  -9   3  273.32   32.26
   1  -9   4   13.12    8.17
   1  -9   5   35.55   11.98
   1  -9   6    3.45    4.55
   1  -8 -10   98.49   21.76
   1  -8  -9   25.67   10.82
  -1   8   9   39.28   11.74
  -1   8   8  243.14   30.01
   1  -8  -8  340.05   36.48
   1  -8  -7    3.05    4.13
  -1   8   7   -6.06    6.81
  -1   8   6   78.63   16.85
   1  -8  -6   64.89   14.21
  -1   8   5    1.75    5.14
   1  -8  -5    5.79    5.97
  -1   8   4    4.24    7.97
   1  -8  -4   -0.06    3.45
   1  -8  -3  461.71   32.35
  -1   8   3  451.15   39.94
   1  -8  -3  472.69   37.79
   1  -8  -2  139.71   16.05
   1  -8  -2  186.17   23.60
   1  -8  -2  164.42   17.34
   1  -8  -1  508.18   30.47
   1  -8  -1  510.01   39.68
   1  -8   0    9.20    3.64
   1  -8   0   13.10    4.99
   1  -8   0   17.00    8.14
   1  -8   1   38.25    6.06
   1  -8   1   29.23    6.85
   1  -8   1   15.09    6.98
   1  -8   2  112.33   13.32
   1  -8   2   89.40   17.00
   1  -8   2   80.01    8.22
   1  -8   3  190.34   12.91
   1  -8   3  228.56   19.76
   1  -8   4  950.11   59.66
   1  -8   5  208.41   27.14
  -1   8  -6  430.73   32.28
   1  -8   6  424.67   40.33
   1  -8   7   -3.66    7.48
  -1   8  -7   -0.11    3.58
   1  -8   8  245.25   31.33
  -1   8  -8  267.75   27.05
  -1   8  -9  247.52   27.70
   1  -8   9  241.28   31.29
   1  -7 -11   -6.24    5.73
   1  -7 -10  106.46   22.63
  -1   7   9  576.14   43.88
   1  -7  -9  676.40   54.33
  -1   7   8   -5.88    4.69
   1  -7  -8    3.57    6.87
  -1   7   7   80.48   15.25
   1  -7  -7  109.62   19.61
  -1   7   6   41.88   10.44
   1  -7  -6   38.01   11.10
  -1   7   5  497.32   38.29
   1  -7  -5  552.39   39.71
  -1   7   5  535.82   33.88
  -1   7   4   19.47    8.63
   1  -7  -4   13.14    4.59
  -1   7   4   31.74    7.26
   1  -7  -3  336.89   29.01
  -1   7   3  330.38   30.41
   1  -7  -3  318.40   24.84
   1  -7  -3  324.97   25.64
  -1   7   3  340.66   23.11
   1  -7  -2 1752.20   67.51
   1  -7  -2 1799.58   66.71
  -1   7   2 1771.38   80.68
   1  -7  -2 1860.48   78.19
   1  -7  -1    2.93    4.17
   1  -7  -1   -0.37    2.52
   1  -7  -1    0.64    2.29
   1  -7   0  119.20   17.60
   1  -7   0  115.02   11.56
   1  -7   0  111.23   12.91
   1  -7   1   51.99    8.77
   1  -7   1   51.39   11.61
   1  -7   1   50.32    6.78
   1  -7   2   56.54    6.97
   1  -7   2   48.22    8.43
   1  -7   3  465.77   28.94
   1  -7   3  564.27   25.10
   1  -7   3  512.20   39.34
  -1   7  -4  803.05   42.08
   1  -7   4  760.45   39.60
   1  -7   4  875.55   35.42
   1  -7   4  817.50   51.70
  -1   7  -5 2715.63   94.26
   1  -7   5 2784.68   86.88
   1  -7   5 2647.94  109.91
   1  -7   5 2561.55   91.40
  -1   7  -6    7.70    5.15
   1  -7   6   -7.14    7.11
  -1   7  -7    1.60    3.82
  -1   7  -8    3.33    3.47
  -1   7  -9   58.56   13.20
  -1   7 -10 1138.17   65.48
  -1   7 -11  509.92   44.03
  -1   7 -12 1048.33   67.70
   1  -6 -12   33.84   14.31
   1  -6 -11   41.72   14.87
   1  -6 -10    4.62    6.88
  -1   6  10    3.69    4.50
  -1   6   9   24.64    9.07
   1  -6  -9   25.70   11.12
  -1   6   8   45.20   11.03
   1  -6  -8   41.89   12.53
   1  -6  -7   56.83   13.67
  -1   6   7   58.42   11.50
  -1   6   7   42.82   10.57
   1  -6  -6   11.95    4.77
  -1   6   6    9.76    5.06
  -1   6   6   11.93    6.30
   1  -6  -5   -0.01    4.91
  -1   6   5    2.06    2.18
  -1   6   5    0.67    3.93
  -1   6   5    3.96    3.51
  -1   6   4   23.91    7.47
  -1   6   4   22.52    6.01
   1  -6  -4   26.29    7.44
  -1   6   3    8.60    3.86
   1  -6  -3   -1.05    3.99
  -1   6   3    6.57    5.61
   1  -6  -3   11.49    4.80
   1  -6  -3    9.17    5.01
   1  -6  -2   10.06    4.73
   1  -6  -2   18.03    6.34
  -1   6   2   13.89    6.51
   1  -6  -2    9.24    4.53
  -1   6   2   10.59    3.79
   1  -6  -2   12.90    5.20
   1  -6  -1   33.85    8.82
   1  -6  -1   43.93    7.52
  -1   6   1   34.61   10.23
   1  -6  -1   34.30    6.81
   1  -6   0    9.40    3.85
   1  -6   0   13.20    3.62
   1  -6   0   18.83    6.65
   1  -6   1    3.89    4.15
   1  -6   1    4.49    2.67
   1  -6   2    1.60    1.67
   1  -6   2    5.71    5.42
   1  -6   2   12.00    3.51
   1  -6   3  162.01   15.33
  -1   6  -3  169.97   16.39
   1  -6   3  196.59   14.05
   1  -6   3  188.69   21.75
   1  -6   4  501.41   37.00
  -1   6  -4  487.77   29.96
   1  -6   4  473.49   28.48
  -1   6  -5   10.52    4.97
   1  -6   5   17.91    6.13
  -1   6  -6  592.50   36.49
   1  -6   6  549.30   34.52
   1  -6   6  630.35   34.67
   1  -6   7   73.42   13.08
  -1   6  -7   83.04   14.28
   1  -6   7   85.70   13.05
   1  -6   8   92.48   14.65
  -1   6  -8   85.71   15.15
  -1   6  -9  122.70   18.69
  -1   6 -10  235.15   28.19
  -1   6 -11  888.17   60.03
  -1   6 -12    6.01    5.25
  -1   6 -13  453.62   45.41
  -1   6 -14   75.66   19.89
   1  -5 -12  785.12   62.83
   1  -5 -11  119.69   23.64
  -1   5  11   86.53   14.34
  -1   5  10   29.34    7.86
   1  -5 -10   53.40   13.99
  -1   5   9  978.13   49.60
   1  -5  -9 1107.65   66.26
   1  -5  -8   -5.40    5.27
  -1   5   8    5.08    3.68
  -1   5   8    3.00    3.63
  -1   5   7  218.00   20.88
   1  -5  -7  193.11   24.20
  -1   5   7  215.62   20.09
  -1   5   6  454.11   30.50
   1  -5  -6  417.86   33.51
  -1   5   6  442.91   31.40
  -1   5   6  466.36   29.71
  -1   5   5  432.14   29.08
  -1   5   5  437.01   29.48
  -1   5   5  432.19   27.95
   1  -5  -5  444.64   32.22
  -1   5   4    2.86    2.88
  -1   5   4   11.00    4.90
  -1   5   4    7.08    3.92
   1  -5  -4   -1.08    3.47
   1  -5  -3  433.17   27.27
  -1   5   3  405.37   27.65
  -1   5   3  406.74   23.99
   1  -5  -3  414.75   26.48
   1  -5  -3  461.86   29.02
  -1   5   2 2086.84   77.87
   1  -5  -2 2285.34   72.73
   1  -5  -2 2257.89   77.49
   1  -5  -2 2228.89   78.44
  -1   5   2 2156.45   69.55
  -1   5   1   70.03   11.39
   1  -5  -1   68.38    8.98
   1  -5  -1   73.44    8.50
   1  -5  -1   75.47   11.19
   1  -5  -1   70.20   10.98
   1  -5   0 1310.96   56.13
   1  -5   0 1310.38   54.61
   1  -5   0 1312.68   48.26
   1  -5   0 1315.96   44.51
   1  -5   1  761.14   41.23
   1  -5   1  782.14   40.77
   1  -5   1  812.32   30.89
   1  -5   1  792.11   34.01
   1  -5   2  824.16   35.04
   1  -5   2  792.16   43.01
   1  -5   2  829.18   31.97
   1  -5   2  816.14   43.97
   1  -5   3  104.76   15.01
   1  -5   3  133.30   12.72
  -1   5  -3  111.23   12.57
  -1   5  -4  224.55   18.91
   1  -5   4  259.31   23.78
   1  -5   4  214.78   17.74
  -1   5  -5  260.12   21.21
   1  -5   5  258.64   20.58
   1  -5   6   17.57    5.78
  -1   5  -6   24.57    7.44
   1  -5   6   30.10    8.11
  -1   5  -7 2055.18   83.98
   1  -5   7 2330.81   84.30
   1  -5   7 2312.15   86.35
   1  -5   8  535.36   36.58
  -1   5  -8  450.52   35.06
   1  -5   9  303.55   28.78
  -1   5  -9  283.57   28.80
  -1   5 -10   11.96    8.17
  -1   5 -11   18.84    8.84
  -1   5 -12   95.19   19.77
  -1   5 -13   62.87   17.60
  -1   5 -14  938.42   69.53
   1  -4 -12   81.78   20.04
  -1   4  11   -0.33    4.06
   1  -4 -11  -13.66    9.87
  -1   4  10   21.79    6.98
   1  -4 -10    3.33    5.09
  -1   4  10   17.99    6.05
  -1   4   9    4.86    3.43
  -1   4   9    3.56    4.03
   1  -4  -9   -1.50    6.99
  -1   4   8    9.56    4.58
  -1   4   8    6.62    3.90
   1  -4  -8   -0.79    4.79
  -1   4   7    2.02    2.82
  -1   4   7    4.24    3.43
   1  -4  -7   -0.13    4.59
   1  -4  -6  343.96   29.27
  -1   4   6  337.64   23.35
  -1   4   6  358.57   27.42
  -1   4   5   68.51   10.77
  -1   4   5   60.38    9.41
  -1   4   5   57.34    8.79
   1  -4  -5   56.47   10.83
   1  -4  -4  144.93   15.26
  -1   4   4  127.49   13.63
  -1   4   4  130.57   13.52
  -1   4   4  117.40   12.25
  -1   4   3 1049.26   43.02
  -1   4   3 1076.82   45.22
   1  -4  -3 1083.38   44.57
   1  -4  -3 1133.08   45.59
   1  -4  -3 1147.98   44.68
  -1   4   3 1104.11   43.04
   1  -4  -2   48.58    7.51
   1  -4  -2   45.23    7.75
  -1   4   2   48.77    6.77
  -1   4   2   44.84    8.12
   1  -4  -2   49.94    7.97
   1  -4  -1  116.57   11.36
   1  -4  -1  126.94   10.64
   1  -4  -1  118.96   12.25
   1  -4  -1  114.45   12.48
  -1   4   1  120.34   12.90
  -1   4   1  120.79   10.09
   1  -4   0   30.02    4.95
  -1   4   0   25.95    6.94
   1  -4   0   31.36    6.83
   1  -4   0   29.65    5.22
   1  -4   0   37.81    7.59
   1  -4   1  260.37   16.25
   1  -4   1  286.57   21.01
   1  -4   1  287.47   15.50
   1  -4   1  269.74   20.80
  -1   4  -2  154.92   12.91
   1  -4   2  164.58   12.98
   1  -4   2  190.76   17.71
   1  -4   3  266.56   17.82
  -1   4  -3  258.50   18.09
   1  -4   3  264.65   21.87
  -1   4  -4 1060.21   44.08
   1  -4   4 1078.60   51.14
   1  -4   4 1089.57   43.46
  -1   4  -5   13.72    5.01
   1  -4   5   13.76    4.99
   1  -4   5    9.39    4.42
  -1   4  -6  142.74   16.25
   1  -4   6  155.72   16.05
   1  -4   6  141.33   15.81
   1  -4   6  124.69   16.67
   1  -4   7  200.51   20.64
  -1   4  -7  175.39   19.56
   1  -4   7  191.07   19.55
  -1   4  -8 1339.50   65.88
   1  -4   8 1496.67   66.55
   1  -4   8 1438.19   67.25
  -1   4  -9  336.12   31.99
   1  -4   9  368.20   31.82
  -1   4 -10   36.92   11.94
  -1   4 -11   82.67   17.67
  -1   4 -12   34.56   12.25
  -1   4 -13  675.12   56.26
  -1   4 -14  285.41   37.95
   1  -3 -13   95.63   21.30
   1  -3 -12   18.29   12.36
  -1   3  11   82.14   12.21
   1  -3 -11   61.70   16.37
  -1   3  10  245.70   20.58
   1  -3 -10  256.24   30.34
  -1   3  10  225.55   22.55
  -1   3   9 1697.73   69.83
   1  -3  -9 1866.35   87.70
  -1   3   9 1910.78   67.83
  -1   3   8   -0.16    2.57
   1  -3  -8    1.97    5.03
  -1   3   8   -1.59    2.69
   1  -3  -7  164.77   20.53
  -1   3   7  146.72   13.91
  -1   3   7  154.68   18.77
  -1   3   7  133.40   13.89
   1  -3  -6  320.81   26.86
  -1   3   6  286.27   19.85
  -1   3   6  304.88   20.04
  -1   3   6  291.96   24.16
   1  -3  -5  495.81   31.16
  -1   3   5  502.07   30.02
  -1   3   5  493.22   25.16
  -1   3   5  446.42   24.40
  -1   3   4  318.87   18.93
  -1   3   4  292.93   20.40
  -1   3   4  291.82   17.73
   1  -3  -4  308.23   21.68
   1  -3  -3  150.37   12.28
  -1   3   3  137.47   12.20
  -1   3   3  148.15   12.31
   1  -3  -3  153.82   13.57
  -1   3   3  131.71   10.80
   1  -3  -2 1354.98   44.91
  -1   3   2 1255.54   44.46
  -1   3   2 1224.81   42.69
   1  -3  -2 1286.69   43.74
   1  -3  -2 1208.75   43.93
  -1   3   2 1164.91   42.53
  -1   3   1   61.06    6.92
   1  -3  -1   69.66    7.24
   1  -3  -1   68.72    7.94
  -1   3   1   66.64    8.36
   1  -3  -1   58.50    7.63
   1  -3   0  784.37   30.56
   1  -3   0  795.55   28.85
   1  -3   0  809.71   34.33
   1  -3   0  821.66   33.36
  -1   3   0  859.67   36.12
   1  -3   1  266.67   14.11
  -1   3  -1  254.91   15.53
   1  -3   1  266.05   15.25
   1  -3   1  275.62   18.62
   1  -3   2   37.04    7.05
  -1   3  -2   23.61    4.78
   1  -3   2   40.45    5.84
   1  -3   3  191.88   17.60
   1  -3   3  191.30   13.87
  -1   3  -3  195.61   14.47
  -1   3  -4  109.24   11.80
   1  -3   4  105.23   11.40
   1  -3   5  399.98   25.09
  -1   3  -5  416.68   25.82
   1  -3   6   52.59    9.97
   1  -3   6   43.29    8.74
  -1   3  -6   47.75    9.42
   1  -3   7  278.10   23.50
  -1   3  -7  258.39   23.71
   1  -3   7  299.84   26.00
  -1   3  -8   33.68    9.54
   1  -3   8   15.96    7.25
   1  -3   8   28.46    8.13
  -1   3  -9   16.63    6.81
   1  -3   9   26.46    8.30
  -1   3 -10  392.54   36.59
  -1   3 -11   23.24   10.30
  -1   3 -12  190.25   27.71
  -1   3 -13   23.11   12.04
  -1   3 -14   26.43   11.93
   1  -2 -13   -2.49    9.14
   1  -2 -12   43.52   14.13
  -1   2  12   30.53    7.67
   1  -2 -12   45.21   15.43
   1  -2 -11  287.68   33.50
  -1   2  11  273.35   22.12
  -1   2  10 1910.97   70.18
   1  -2 -10 1965.25   92.43
  -1   2   9   36.83    7.56
   1  -2  -9   38.56   11.32
  -1   2   8  826.56   37.32
   1  -2  -8  851.62   51.47
  -1   2   7   53.50    7.64
  -1   2   7   46.99    9.93
   1  -2  -7   57.09   11.95
   1  -2  -6  665.25   38.84
  -1   2   6  647.08   29.02
  -1   2   6  667.70   37.65
   1  -2  -5  417.21   27.49
  -1   2   5  372.17   20.67
  -1   2   5  412.63   26.66
  -1   2   5  412.09   20.31
   1  -2  -4  191.70   16.20
  -1   2   4  193.91   15.82
  -1   2   4  179.09   12.38
  -1   2   4  194.40   12.36
   1  -2  -3 2981.59   82.86
  -1   2   3 2867.55   75.34
  -1   2   2    3.76    2.38
  -1   2   2    5.69    2.52
   1  -2  -2    1.72    1.70
   1  -2  -2    4.31    2.60
  -1   2   2    4.97    1.99
  -1   2   1   83.49    7.30
   1  -2  -1  127.72    9.05
   1  -2  -1  100.22    8.47
   1  -2  -1   95.82    7.58
  -1   2   1  106.99    8.81
   1  -2   0 1841.29   54.03
   1  -2   0 1727.57   56.10
   1  -2   1 6589.71  177.71
   1  -2   1 7103.30  171.86
  -1   2  -1 6871.75  172.47
   1  -2   2  545.36   22.63
  -1   2  -2  544.62   23.09
  -1   2  -3  115.89   10.55
   1  -2   3  111.63   10.10
  -1   2  -4 2493.23   76.85
   1  -2   4 2395.30   75.61
   1  -2   5    6.82    4.41
  -1   2  -5    1.56    2.90
  -1   2  -6  630.29   36.73
   1  -2   6  735.00   38.59
   1  -2   6  705.61   36.94
   1  -2   7  373.10   28.90
  -1   2  -7  363.15   28.69
   1  -2   7  389.33   28.63
   1  -2   8 1273.06   60.69
  -1   2  -8 1106.44   58.85
  -1   2  -9   12.30    6.68
   1  -2   9    4.05    3.38
  -1   2 -10  328.83   33.50
  -1   2 -11 1795.87   89.96
  -1   2 -12   -3.25    7.12
  -1   2 -13  136.68   25.62
  -1   2 -14   52.78   17.96
   1  -1 -14  986.89   74.46
   1  -1 -13  452.76   47.16
   1  -1 -12 1011.46   70.01
   1  -1 -12 1042.87   68.17
   1  -1 -11  341.17   36.92
   1  -1 -11  322.49   35.43
   1  -1 -10  134.97   21.79
   1  -1  -9   85.50   16.01
   1  -1  -8    0.24    6.14
   1  -1  -7 1090.59   54.74
  -1   1   7  979.42   51.43
   1  -1  -6  705.17   39.37
  -1   1   6  623.96   36.83
   1  -1  -5  455.80   28.59
  -1   1   5  419.93   27.03
   1  -1  -4  179.59   15.62
  -1   1   4  191.75   15.50
  -1   1   4  210.93   11.28
  -1   1   3    7.52    1.97
   1  -1  -3    9.02    3.88
  -1   1   3    1.57    1.46
  -1   1   2    5.74    1.57
   1  -1  -2   10.21    3.03
   1  -1  -2    8.45    1.92
  -1   1   2    8.12    1.91
  -1   1   1  283.47   12.15
   1  -1  -1  266.92   10.39
  -1   1   1  269.71   12.99
   1  -1  -1  276.59   13.17
   1  -1  -1  254.17   11.36
  -1   1   0  701.38   23.90
   1  -1   0  701.15   24.30
   1  -1   0  760.26   24.33
   1  -1   1  225.35   11.35
  -1   1  -1  226.62   11.41
  -1   1  -2  368.21   16.83
   1  -1   2  379.46   17.15
   1  -1   3  110.16    9.69
  -1   1  -3   99.94    9.53
  -1   1  -4    6.78    3.70
   1  -1   4    0.59    2.03
   1  -1   5   40.69    7.74
  -1   1  -5   29.06    6.89
  -1   1  -6   62.00   11.68
   1  -1   6   61.42   10.42
   1  -1   6   67.63   10.87
   1  -1   7   62.16   11.58
  -1   1  -7   43.45    9.88
   1  -1   8   97.31   15.20
  -1   1  -8   72.88   13.79
  -1   1  -9   -5.19    6.45
   1  -1   9    6.03    3.68
  -1   1 -10   19.09    7.62
  -1   1 -11   -6.00    8.95
  -1   1 -12   92.36   18.91
  -1   1 -13   -1.84    6.24
  -1   1 -14   29.98   14.68
  -1   1 -15   23.98   12.82
   1   0 -14  102.92   23.44
   1   0 -13 2823.63  131.91
   1   0 -12 1873.62   98.92
   1   0 -11  454.18   41.35
   1   0 -11  403.68   40.39
   1   0 -10   76.38   16.12
   1   0 -10   81.69   16.90
   1   0  -9  100.58   17.59
  -1   0   8  907.76   50.66
   1   0  -8  864.19   50.69
  -1   0   7  961.49   49.60
   1   0  -7  957.07   51.08
   1   0  -6 5169.79  154.29
  -1   0   6 5074.60  151.31
  -1   0   5 2539.42   85.17
   1   0  -5 2639.96   86.75
  -1   0   4   35.80    6.76
   1   0  -4   28.89    6.13
  -1   0   3 2378.41   71.91
   1   0  -3 2507.87   73.28
   1   0  -2   37.63    5.26
  -1   0   2   33.28    4.54
  -1   0  -2  429.85   18.30
   1   0   2  436.61   18.46
  -1   0  -3  515.40   23.89
   1   0   3  504.23   23.50
   1   0   4 5835.97  161.15
  -1   0  -4 6085.46  160.76
  -1   0  -5    0.88    3.63
   1   0   5   -1.39    2.78
   1   0   5   -2.21    4.07
  -1   0  -6  237.98   21.48
   1   0   6  263.22   22.20
  -1   0  -7  720.39   43.11
   1   0   7  770.47   43.60
  -1   0  -8  626.22   42.11
   1   0   8  663.74   42.84
  -1   0  -9   82.87   15.43
  -1   0 -10  187.65   24.45
  -1   0 -11 1467.10   78.52
  -1   0 -12   21.02    9.58
  -1   0 -13  420.39   42.87
  -1   0 -14  279.66   36.62
  -1   0 -15  124.62   24.90
   1   1 -14  627.05   57.64
   1   1 -13  216.06   33.09
   1   1 -12  729.38   58.20
   1   1 -11  828.99   59.71
   1   1 -10   74.68   16.42
   1   1 -10   79.28   18.27
   1   1  -9 1273.16   68.99
   1   1  -9 1185.35   64.67
   1   1  -8   19.30    7.51
   1   1  -8   40.83   11.64
  -1  -1   8   31.28    8.50
  -1  -1   7 1973.83   77.40
   1   1  -7 1923.81   78.78
  -1  -1   6 1302.66   56.43
   1   1  -6 1428.77   60.16
  -1  -1   5 1021.49   43.85
   1   1  -5  973.32   45.08
   1   1  -4  686.00   33.07
  -1  -1   4  728.19   32.65
  -1  -1   3   14.58    4.02
   1   1  -3   13.86    3.99
  -1  -1   2  325.08   15.30
   1   1  -2  348.25   15.97
  -1  -1   2  329.84   12.61
   1   1  -1  350.36   11.88
  -1  -1   1  317.58   12.49
   1   1  -1  329.11   12.64
   1   1  -1  314.07   12.48
  -1  -1   1  337.64   12.34
  -1  -1   1  317.85   12.04
  -1  -1  -2  520.91   20.11
   1   1   2  442.76   20.85
  -1  -1  -3  525.99   24.96
   1   1   4   28.86    6.32
  -1  -1  -4   23.34    6.06
  -1  -1  -5    3.82    4.95
   1   1   5   26.13    6.80
   1   1   6   19.14    6.25
  -1  -1  -6    4.04    4.12
  -1  -1  -7  999.01   52.92
   1   1   7 1022.09   52.77
  -1  -1  -8  170.94   21.69
   1   1   8  162.89   19.99
  -1  -1  -9    7.10    5.77
  -1  -1 -10  970.40   60.82
  -1  -1 -11    7.56    6.35
  -1  -1 -12   -9.44   10.61
  -1  -1 -13   52.91   17.12
  -1  -1 -14  649.21   56.17
   1   2 -14   72.29   18.93
   1   2 -13  -11.51   10.33
   1   2 -12   29.93   12.69
   1   2 -11  633.16   51.93
   1   2 -10 5438.35  186.88
   1   2  -9   21.98    9.55
  -1  -2   8 1598.94   70.48
   1   2  -8 1618.22   73.24
   1   2  -8 1606.78   76.58
   1   2  -7   15.12    6.34
   1   2  -7   11.95    7.12
  -1  -2   7   15.03    5.84
  -1  -2   6   54.74    9.70
   1   2  -6   49.29    9.40
   1   2  -6   76.58   13.41
   1   2  -5  664.52   36.70
  -1  -2   5  664.62   29.56
   1   2  -5  618.10   34.09
  -1  -2   5  589.89   32.03
  -1  -2   4  731.87   29.47
   1   2  -4  647.69   32.65
  -1  -2   4  725.52   31.98
   1   2  -4  741.90   35.90
  -1  -2   3 9190.45  227.81
  -1  -2   3 9324.50  226.71
   1   2  -3 8980.57  232.75
   1   2  -3 9112.20  231.00
   1   2  -2  272.49   14.01
   1   2  -2  294.67   14.81
  -1  -2   2  261.45   12.61
  -1  -2   2  253.73   13.73
   1   2  -2  237.80   13.90
  -1  -2   1  872.78   30.05
   1   2  -1  866.15   26.00
   1   2  -1  882.22   25.47
   1   2  -1  863.29   30.58
  -1  -2   1  872.54   24.65
  -1  -2   1  931.26   30.77
   1   2  -1  939.33   30.17
  -1  -2   0   60.28    6.14
  -1  -2   0   57.67    6.06
   1   2   0   45.50    5.42
  -1  -2  -1   80.75    8.44
   1   2   1   84.65    7.86
  -1  -2  -1   65.09    5.07
   1   2   1   86.06    7.92
   1   2   2 1044.73   35.82
   1   2   3  305.40   18.84
   1   2   4 3767.73  111.76
   1   2   5  160.44   16.30
  -1  -2  -5  125.51   14.68
  -1  -2  -6  160.10   17.59
   1   2   6  143.13   16.84
  -1  -2  -7  174.11   20.44
   1   2   7  170.03   20.12
  -1  -2  -8   44.77   11.16
   1   2   8   41.35   10.95
  -1  -2  -9   59.90   13.93
  -1  -2 -10   88.42   17.79
  -1  -2 -11  363.08   37.37
  -1  -2 -12    0.48    5.79
  -1  -2 -13  165.07   27.83
  -1  -2 -14   76.84   19.52
   1   3 -14  177.37   29.96
   1   3 -13    8.32    6.18
   1   3 -12  102.13   20.54
  -1  -3  11  988.27   50.84
   1   3 -11 1116.92   67.60
  -1  -3  10   11.44    5.36
   1   3 -10    2.42    6.75
  -1  -3   9 3814.75  123.32
   1   3  -9 4141.90  143.39
  -1  -3   8   61.39   11.85
   1   3  -8   72.59   14.41
  -1  -3   8   75.90   11.56
  -1  -3   7  318.91   25.54
  -1  -3   7  299.25   22.36
   1   3  -7  298.95   27.31
  -1  -3   6   28.52    7.30
   1   3  -6   18.98    6.72
  -1  -3   6   27.71    6.34
  -1  -3   5  429.16   24.48
   1   3  -5  420.38   27.17
  -1  -3   5  404.33   24.76
   1   3  -4 5529.39  152.20
  -1  -3   4 5931.90  151.55
   1   3  -4 5714.82  153.04
   1   3  -3    8.87    3.44
   1   3  -3    6.95    3.24
  -1  -3   3   16.17    3.75
  -1  -3   3    9.16    4.08
  -1  -3   2 6094.18  151.91
  -1  -3   2 6142.86  161.84
   1   3  -2 6499.54  162.54
   1   3  -2 6141.93  154.02
  -1  -3   2 6479.02  163.94
  -1  -3   1   75.03    8.37
   1   3  -1   65.41    4.10
   1   3  -1   83.89    8.85
  -1  -3   1   77.26    8.35
  -1  -3   1   63.74    4.58
   1   3   0   85.36    8.82
  -1  -3   0   99.94    9.56
   1   3   0   84.14    8.75
  -1  -3   0   89.46    9.34
   1   3   1    8.60    1.78
   1   3   1   14.35    3.91
   1   3   1   13.96    3.77
  -1  -3  -1   11.26    3.44
  -1  -3  -1   11.23    3.53
   1   3   2  219.72   15.84
   1   3   2  208.98   15.06
   1   3   2  180.16   12.15
   1   3   3 6090.61  154.96
   1   3   3 5894.21  153.40
   1   3   4   18.35    5.14
   1   3   5 1569.09   62.34
   1   3   6   93.91   13.75
   1   3   7  963.23   51.57
   1   3   8  132.88   18.85
  -1  -3  -8  120.02   18.56
  -1  -3  -9   87.78   17.00
  -1  -3 -10 2383.27  104.71
  -1  -3 -11   -2.26    6.78
  -1  -3 -12   41.85   13.47
  -1  -3 -13  184.91   28.72
  -1  -3 -14  438.73   46.91
   1   4 -14  194.19   31.46
   1   4 -13  506.91   49.45
   1   4 -12  503.96   46.66
   1   4 -11   96.19   19.85
  -1  -4  10    9.69    5.10
   1   4 -10   -3.50    6.43
  -1  -4   9   33.58    8.52
   1   4  -9   25.44    9.04
   1   4  -8 1105.11   59.86
  -1  -4   8 1139.35   53.69
  -1  -4   7 1370.42   58.81
  -1  -4   7 1489.62   61.57
  -1  -4   6 1513.95   59.79
  -1  -4   6 1519.39   60.37
   1   4  -6 1485.24   62.74
  -1  -4   5 1761.41   64.24
   1   4  -5 1653.98   61.42
   1   4  -4    7.29    3.54
  -1  -4   4   12.37    4.27
  -1  -4   4   11.65    3.74
  -1  -4   3  850.00   30.39
  -1  -4   3  950.76   40.73
   1   4  -3  916.30   33.04
  -1  -4   3  967.70   42.28
  -1  -4   2   90.18    7.44
  -1  -4   2   83.77   10.44
  -1  -4   2   66.76    4.79
  -1  -4   2   89.67   10.65
   1   4  -2   88.60   10.88
   1   4  -2   86.82    6.62
  -1  -4   1 3507.47  101.45
  -1  -4   1 3555.68  101.10
  -1  -4   1 3306.00   85.29
   1   4  -1 3482.51  100.52
   1   4   0 2916.16   87.56
   1   4   0 2962.81   87.91
  -1  -4   0 2736.83   86.96
  -1  -4   0 2987.00   87.76
  -1  -4   0 2807.93   71.34
  -1  -4  -1 1337.76   48.43
   1   4   1 1136.96   32.65
   1   4   1 1248.99   46.65
  -1  -4  -1 1216.09   47.02
   1   4   1 1317.59   47.67
   1   4   2 2228.76   72.02
   1   4   2 2072.25   61.62
  -1  -4  -2 2329.79   73.73
   1   4   2 2281.14   73.52
   1   4   3    9.40    3.34
   1   4   3    6.20    4.64
   1   4   3    3.83    3.01
   1   4   4  784.29   36.77
   1   4   4  802.01   39.59
   1   4   4  878.90   40.52
   1   4   5   80.84   11.73
   1   4   5   55.48    9.88
   1   4   5   66.41   10.61
   1   4   6  791.31   41.97
   1   4   6  782.94   42.78
   1   4   6  753.28   41.10
   1   4   7  512.69   34.96
   1   4   7  582.59   38.89
   1   4   8   81.22   14.67
  -1  -4  -9  315.63   32.17
  -1  -4 -10   -5.46    8.07
  -1  -4 -11   95.89   19.75
  -1  -4 -12   -4.89    6.47
  -1  -4 -13    9.51   11.34
  -1  -4 -14   22.31   12.91
   1   5 -14  368.38   42.88
   1   5 -13  861.82   64.60
   1   5 -12  131.08   23.57
   1   5 -11   -0.12    4.39
   1   5 -10    9.42    6.21
   1   5  -9   31.89   10.34
  -1  -5   9   44.58   10.27
  -1  -5   8  214.57   21.60
   1   5  -8  214.17   23.12
  -1  -5   7 2868.19   95.24
   1   5  -7 2638.55   96.87
  -1  -5   7 2768.10   99.44
  -1  -5   6 3946.49  120.07
   1   5  -6 4070.51  124.89
  -1  -5   6 4170.44  130.57
  -1  -5   5  500.01   26.32
  -1  -5   5  537.60   35.23
  -1  -5   5  519.81   33.17
   1   5  -5  512.58   28.44
   1   5  -4   74.56    8.93
  -1  -5   4   67.41   11.67
  -1  -5   4   77.35   11.77
  -1  -5   4   64.54    7.35
  -1  -5   3   69.14    7.86
   1   5  -3   69.45    7.26
  -1  -5   3   78.88   11.76
  -1  -5   3   64.23    5.77
  -1  -5   3   73.02   11.58
  -1  -5   2  672.20   35.43
   1   5  -2  627.85   34.36
   1   5  -2  635.52   23.37
  -1  -5   2  614.82   34.32
  -1  -5   2  627.61   24.08
  -1  -5   1 1793.88   66.45
  -1  -5   1 1764.05   49.75
   1   5  -1 1839.35   66.64
  -1  -5   1 1956.71   68.46
   1   5   0 4926.73  145.64
  -1  -5   0 5103.34  145.63
  -1  -5   0 5130.59  126.05
   1   5   0 5254.30  147.45
  -1  -5   0 4940.40  145.91
   1   5   1 6316.43  167.53
  -1  -5  -1 6071.89  167.27
   1   5   1 5937.14  166.47
  -1  -5  -1 6442.99  168.33
  -1  -5  -1 6049.63  147.60
   1   5   1 5706.02  142.95
  -1  -5  -2   46.33    9.22
   1   5   2   45.55    8.78
   1   5   2   43.36    4.89
   1   5   2   47.59    9.15
  -1  -5  -2   54.92    9.30
   1   5   3   19.52    6.77
   1   5   3   21.94    4.56
   1   5   3   30.71    7.39
   1   5   4   17.15    6.66
   1   5   4   13.21    4.62
   1   5   4   12.89    5.08
   1   5   5  642.51   38.06
   1   5   5  666.30   35.85
   1   5   5  698.69   39.22
   1   5   6 1644.50   68.87
   1   5   6 1660.66   70.41
   1   5   6 1771.62   71.71
   1   5   7 1884.94   79.39
   1   5   7 1969.20   81.73
   1   5   7 2062.77   82.02
   1   5   8 1510.85   69.47
   1   5   8 1440.61   67.42
   1   5   9    2.53    4.58
   1   5  10  319.01   30.78
  -1  -5 -10  362.99   37.01
   1   5  11   -0.75    5.33
  -1  -5 -11    1.16    5.84
   1   5  12  219.07   27.57
  -1  -5 -12  269.77   35.14
  -1  -5 -13  368.53   42.34
   1   5  13  294.59   32.77
   1   6 -13   14.51    9.80
   1   6 -12   69.61   16.06
   1   6 -11   67.25   15.96
   1   6 -10  172.71   23.55
   1   6  -9   27.29    9.11
   1   6  -8   77.76   13.41
  -1  -6   8   65.42   11.46
  -1  -6   7  251.23   20.87
  -1  -6   7  250.47   26.47
   1   6  -7  261.03   22.97
  -1  -6   6  397.07   24.41
   1   6  -6  440.69   27.84
  -1  -6   6  370.82   32.53
   1   6  -5  734.04   34.51
  -1  -6   5  696.93   30.37
  -1  -6   5  723.89   44.36
  -1  -6   4   12.05    2.90
  -1  -6   4   11.76    6.18
   1   6  -4   17.50    4.78
   1   6  -3  873.12   32.84
  -1  -6   3  818.87   45.34
  -1  -6   3  826.49   45.66
  -1  -6   3  916.96   35.22
  -1  -6   2  453.08   19.80
   1   6  -2  468.74   32.67
  -1  -6   2  422.56   30.24
  -1  -6   2  450.34   31.63
  -1  -6   1 1230.96   55.30
  -1  -6   1 1259.42   56.13
   1   6  -1 1212.39   55.08
  -1  -6   1 1222.73   37.80
  -1  -6   0 2061.47   77.67
  -1  -6   0 2134.20   79.44
  -1  -6   0 2059.49   57.61
   1   6   0 2041.13   77.14
  -1  -6  -1  978.79   47.68
  -1  -6  -1  954.45   47.57
  -1  -6  -1  925.04   31.93
   1   6   1  919.86   46.90
   1   6   1  976.22   47.77
   1   6   2 1124.07   52.66
   1   6   2 1147.40   53.60
  -1  -6  -2 1105.19   52.19
   1   6   2 1128.65   35.46
  -1  -6  -2 1179.63   54.22
   1   6   3    9.14    6.43
   1   6   3   11.56    5.32
   1   6   3    5.74    2.64
   1   6   4  563.78   28.27
   1   6   4  561.06   36.50
   1   6   4  573.77   36.05
   1   6   5  636.94   34.00
   1   6   5  638.42   39.39
   1   6   5  631.90   40.53
   1   6   6 1100.39   57.28
   1   6   6 1112.53   52.42
   1   6   7 1385.13   63.93
   1   6   7 1314.52   65.06
   1   6   8  130.43   19.07
   1   6   9  116.50   18.66
   1   6  10   27.20   10.26
  -1  -6 -10   31.43   12.15
  -1  -6 -11   69.10   17.80
   1   6  11   39.40   11.83
   1   6  12  204.61   27.50
  -1  -6 -12  225.90   32.09
   1   6  13  379.92   37.94
  -1  -6 -13  428.39   46.53
  -1  -7  12    5.38    4.70
   1   7 -11  543.42   42.77
  -1  -7  11  531.67   46.57
   1   7 -10   67.87   13.85
  -1  -7  10   83.99   17.91
   1   7  -9  774.42   47.25
  -1  -7   9  778.32   54.78
   1   7  -8    8.96    5.87
  -1  -7   8   12.83    8.37
   1   7  -7   55.42    9.85
  -1  -7   7   54.78   13.98
  -1  -7   6   76.00    9.04
   1   7  -6   73.92   10.99
  -1  -7   6  101.29   17.31
   1   7  -5  134.73   13.43
  -1  -7   5  104.80    8.63
  -1  -7   5  123.74   18.97
  -1  -7   4 3417.27  125.40
   1   7  -4 3657.81  102.51
  -1  -7   3  190.09   22.33
  -1  -7   3  189.69   14.40
  -1  -7   2 1301.71   63.52
  -1  -7   2 1373.23   44.65
   1   7  -2 1366.86   66.31
  -1  -7   1   52.57   11.57
   1   7  -1   50.95   11.24
  -1  -7   1   53.89    5.96
  -1  -7   0   15.30    3.23
   1   7   0   12.15    6.20
  -1  -7   0    9.60    5.78
  -1  -7  -1  247.40   14.27
  -1  -7  -1  265.85   25.20
   1   7   1  212.72   23.00
   1   7   2   65.79    6.15
   1   7   2   73.07   13.78
  -1  -7  -2   72.08    8.13
  -1  -7  -2   60.65   12.45
   1   7   3 5426.88  140.23
  -1  -7  -3 5613.13  169.72
   1   7   4  572.67   40.21
   1   7   4  559.68   28.10
   1   7   5  694.02   45.79
   1   7   5  720.22   36.16
   1   7   6  196.17   19.34
   1   7   6  236.41   25.98
   1   7   7    4.36    3.49
   1   7   7    5.87    6.42
   1   7   8  256.78   28.32
   1   7   9   44.83   12.69
   1   7  10 1450.12   80.31
  -1  -7 -10 1868.00   92.81
   1   7  11  188.26   26.60
  -1  -7 -11  229.36   32.49
   1   7  12   98.73   19.72
  -1  -7 -12  106.22   23.81
  -1  -8  10  171.98   26.59
  -1  -8   9    6.58    6.51
  -1  -8   8   37.24   12.18
   1   8  -7   74.48   11.63
  -1  -8   7   50.10   13.72
  -1  -8   6   17.35    7.17
   1   8  -6   13.16    4.80
   1   8  -5  122.80   12.55
  -1  -8   5  113.55   19.75
  -1  -8   4   60.04   14.24
  -1  -8   3 1640.29   79.37
  -1  -8   3 1729.49   57.97
  -1  -8   2   98.35   17.00
  -1  -8   2  103.02    9.58
   1   8  -1   77.59   16.05
  -1  -8   1   57.78    6.70
  -1  -8   1   69.38   14.74
  -1  -8   0   10.79    3.12
  -1  -8   0   13.14    6.67
   1   8   0    7.96    5.24
  -1  -8  -1    5.28    2.85
   1   8   1    3.13    6.82
  -1  -8  -1  -10.39    6.74
  -1  -8  -2 1390.91   48.81
   1   8   2 1371.52   69.59
  -1  -8  -2 1428.52   69.90
   1   8   3   98.25   17.35
  -1  -8  -3  109.87   11.46
   1   8   3  103.41    9.12
  -1  -8  -3  145.92   20.86
   1   8   4 2073.90   91.73
   1   8   5  141.52   20.90
   1   8   5  130.97   14.05
   1   8   6    9.90    7.19
   1   8   7   -1.61    5.84
   1   8   8   23.39   10.23
   1   8   9 1458.39   80.98
  -1  -8 -10  136.98   23.83
   1   8  10  108.49   20.90
   1   8  11  524.70   47.83
  -1  -8 -11  703.78   58.64
   1   8  12   53.07   16.09
  -1  -8 -12   48.55   15.47
  -1  -9   8   36.85   11.40
  -1  -9   7  178.14   26.41
  -1  -9   6  241.22   30.39
  -1  -9   5   -3.11    5.30
  -1  -9   4   59.81   15.40
  -1  -9   3   42.96   12.59
  -1  -9   2  144.20   21.92
  -1  -9   1  342.60   34.88
   1   9  -1  354.44   36.50
  -1  -9   0  187.61   25.31
   1   9   0  208.92   27.79
  -1  -9  -1  866.43   56.49
   1   9   1  848.40   56.72
   1   9   2   42.19   12.29
  -1  -9  -2   48.54   13.41
   1   9   3  126.54   20.85
   1   9   4   31.29   11.45
   1   9   5  384.01   38.43
   1   9   6  686.28   53.43
   1   9   7   98.65   20.62
   1   9   8  697.51   56.02
   1   9   9   32.44   13.09
   1   9  10  137.17   25.21
  -1  -9 -10  191.58   29.41
  -1  -9 -11   44.02   14.79
   1   9  11   15.77    7.40
  -1 -10   5    8.50    8.09
  -1 -10   4   38.01   12.21
  -1 -10   2   21.96    9.01
   1  10   0 1217.18   76.71
  -1 -10   0 1195.14   74.10
   1  10   1   42.65   14.04
  -1 -10  -1   59.73   16.22
   1  10   2   14.55   10.55
  -1 -10  -2   28.49   11.89
   1  10   3    9.00    9.66
   1  10   4   12.71    8.74
   1  10   5  204.97   29.95
   1  10   6  365.42   41.06
   1  10   8    6.25    7.74
   2 -10  -3   51.40   14.96
   2 -10  -2    5.00    5.37
   2 -10  -1    8.08    7.49
   2 -10   0   54.58   15.71
   2 -10   1  309.22   37.70
   2  -9  -3  185.00   25.99
   2  -9  -2    8.30    7.20
   2  -9  -1   36.44   12.85
   2  -9   0   21.72   10.35
   2  -9   1  704.32   53.83
   2  -9   2  949.36   63.94
   2  -9   3   49.20   15.29
   2  -9   4   -2.14    6.51
   2  -9   5    2.39    6.27
   2  -8  -9  736.92   61.20
   2  -8  -8   43.10   14.95
   2  -8  -7  735.71   56.71
   2  -8  -6   22.84    9.80
   2  -8  -5   61.65   13.20
   2  -8  -4  303.47   30.08
   2  -8  -3    7.27    4.91
   2  -8  -3    4.65    4.12
   2  -8  -2 1491.72   65.85
   2  -8  -2 1618.60   77.88
   2  -8  -1   51.08   13.20
   2  -8  -1   66.80   10.91
   2  -8   0  592.30   44.59
   2  -8   0  651.26   35.73
   2  -8   1  154.25   15.52
   2  -8   1  176.10   23.98
   2  -8   2   36.39    7.07
   2  -8   2   37.59   11.43
   2  -8   3  468.66   40.45
   2  -8   3  340.93   22.66
   2  -8   4    7.02    6.47
   2  -8   5  393.30   38.55
   2  -8   6    5.62    5.70
  -2   8  -6   16.03    8.00
   2  -8   7   59.01   14.83
  -2   8  -7   74.28   14.62
   2  -8   8   11.37    5.60
  -2   8  -8   39.32   10.94
  -2   8  -9   -7.72    5.82
   2  -7 -10  277.54   37.64
   2  -7  -9   18.20    8.67
   2  -7  -8 1587.27   88.46
  -2   7   8 1504.58   76.75
   2  -7  -7  151.74   23.65
  -2   7   7  165.82   23.06
   2  -7  -6   22.54    9.08
  -2   7   6   34.40   11.29
   2  -7  -5   47.74   11.96
  -2   7   5   68.34   14.84
   2  -7  -4  101.88   16.42
   2  -7  -3 1904.09   77.04
   2  -7  -3 1793.09   77.28
   2  -7  -2  111.62   15.25
   2  -7  -2   85.99   14.98
   2  -7  -1 3506.62  110.00
   2  -7  -1 3249.58  118.65
   2  -7   0  144.82   14.99
   2  -7   0  138.88   19.55
   2  -7   1    4.37    3.78
   2  -7   1   -0.53    2.57
   2  -7   1   -0.53    4.45
   2  -7   2   18.95    6.12
   2  -7   2   30.58    6.69
   2  -7   2   19.74    7.63
   2  -7   3    0.13    5.68
   2  -7   3    0.99    2.30
   2  -7   3   -3.01    3.03
   2  -7   4 2631.09  110.74
   2  -7   4 2798.30   89.99
   2  -7   5  149.05   15.82
  -2   7  -5  185.44   20.94
   2  -7   5  168.21   23.78
  -2   7  -6 1261.19   62.31
  -2   7  -7   30.14    8.12
  -2   7  -8  102.22   17.35
  -2   7  -9    1.84    4.46
  -2   7 -10    0.72    4.48
  -2   7 -11  801.24   57.27
  -2   7 -12   55.49   14.71
   2  -6 -11  300.11   39.06
   2  -6 -10   35.67   13.72
  -2   6   9  257.13   25.29
   2  -6  -9  262.70   33.92
  -2   6   8   27.19    8.58
   2  -6  -8   19.33    9.15
   2  -6  -7  159.75   23.43
  -2   6   7  111.99   16.81
  -2   6   6  261.85   25.77
   2  -6  -6  275.69   29.42
  -2   6   5  181.79   21.53
   2  -6  -5  163.88   20.86
   2  -6  -4  985.87   51.60
  -2   6   4  975.07   53.48
  -2   6   4  937.58   47.72
  -2   6   3   33.61    7.49
   2  -6  -3   30.14    7.80
   2  -6  -3   42.30    9.90
   2  -6  -2 2094.68   75.82
   2  -6  -2 2006.56   78.16
   2  -6  -2 1928.20   74.40
   2  -6  -1  467.73   32.30
   2  -6  -1  477.50   28.67
   2  -6  -1  472.15   30.17
   2  -6   0  623.47   39.01
   2  -6   0  653.40   32.71
   2  -6   0  620.29   34.94
   2  -6   1 1036.46   43.31
   2  -6   1  983.86   52.04
   2  -6   1 1011.15   46.34
   2  -6   2  352.33   22.40
   2  -6   2  327.93   24.18
   2  -6   2  324.44   29.09
   2  -6   3 1239.67   63.83
   2  -6   3 1348.65   52.82
   2  -6   4    2.78    2.96
   2  -6   4    2.94    3.72
  -2   6  -4    3.54    4.71
  -2   6  -5 2064.75   81.20
   2  -6   5 2080.15   79.00
  -2   6  -6  589.66   38.78
  -2   6  -7  188.19   22.02
  -2   6  -8   99.93   16.75
   2  -6   8  114.24   16.32
  -2   6  -9    6.99    6.76
  -2   6 -10  259.13   30.12
  -2   6 -11   20.12    9.45
  -2   6 -12  607.58   51.90
  -2   6 -13  103.37   21.75
   2  -5 -11   17.72   11.39
   2  -5 -10   16.94   10.54
   2  -5  -9   28.44   12.23
  -2   5   9   37.07    9.00
   2  -5  -8  163.81   24.12
  -2   5   8  138.97   16.53
   2  -5  -7   81.52   15.88
  -2   5   7  103.91   14.33
  -2   5   7   95.80   12.83
   2  -5  -6  947.86   54.01
  -2   5   6  908.02   46.11
   2  -5  -5 3107.43  109.56
  -2   5   5 2964.24  102.19
  -2   5   5 3101.15  104.91
   2  -5  -4  207.24   20.98
   2  -5  -4  211.39   19.53
  -2   5   4  196.76   18.97
  -2   5   4  216.79   20.92
   2  -5  -3   35.69    8.14
   2  -5  -3   36.27    7.69
  -2   5   3   42.77    8.45
   2  -5  -3   40.69    9.13
  -2   5   3   30.53    8.33
   2  -5  -2   24.54    6.72
   2  -5  -2   30.52    7.09
   2  -5  -2   34.04    7.78
  -2   5   2   33.47    6.75
   2  -5  -2   32.21    7.43
   2  -5  -1   87.88   10.92
   2  -5  -1   91.49   11.79
   2  -5  -1   80.38   12.02
   2  -5  -1   98.06   12.86
   2  -5   0  877.61   43.58
   2  -5   0  902.57   38.73
   2  -5   0  904.94   41.40
   2  -5   0  871.25   45.64
   2  -5   1 1794.81   71.90
   2  -5   1 1844.55   63.15
   2  -5   1 1896.48   75.54
   2  -5   1 1894.49   66.63
   2  -5   2 4012.40  135.35
   2  -5   2 4416.83  126.65
   2  -5   2 4319.46  122.76
   2  -5   3    0.23    3.07
  -2   5  -3    8.55    4.02
   2  -5   4  132.77   14.89
  -2   5  -4  123.79   15.67
  -2   5  -5   32.67    8.41
   2  -5   5   32.67    7.65
   2  -5   6  271.74   23.55
  -2   5  -6  236.87   22.97
  -2   5  -7 1702.27   73.50
  -2   5  -8  708.79   46.24
   2  -5   8  775.41   44.69
  -2   5  -9 1693.73   80.06
  -2   5 -10   -0.43    4.76
  -2   5 -11   10.56    6.75
  -2   5 -12   40.58   14.13
  -2   5 -13  122.70   23.49
  -2   5 -14  429.49   46.62
   2  -4 -12    8.08    9.78
   2  -4 -11  104.27   21.76
   2  -4 -10    9.79    8.26
   2  -4  -9  116.39   20.80
  -2   4   9   84.71   11.57
   2  -4  -8   28.68   11.51
  -2   4   8   17.20    5.69
  -2   4   8   21.95    5.72
   2  -4  -7  121.84   19.10
  -2   4   7  144.42   14.03
  -2   4   7  160.44   15.47
   2  -4  -6  997.68   53.08
  -2   4   6  986.62   43.30
  -2   4   6  896.99   39.62
  -2   4   5  167.63   18.02
   2  -4  -5  179.86   19.64
  -2   4   5  153.05   15.11
  -2   4   5  139.77   13.58
   2  -4  -4 1015.70   43.86
  -2   4   4 1039.98   45.61
  -2   4   4 1125.06   48.67
   2  -4  -4 1094.32   50.33
   2  -4  -3   10.05    4.70
  -2   4   3   11.50    4.26
   2  -4  -3    7.82    5.17
  -2   4   3   15.69    5.74
   2  -4  -3   19.90    5.33
   2  -4  -2    4.79    2.94
  -2   4   2    6.92    3.77
   2  -4  -2    0.71    2.73
   2  -4  -2   -1.02    3.36
   2  -4  -1   51.67    8.27
   2  -4  -1   73.31    9.89
  -2   4   1   57.12    8.21
   2  -4  -1   65.54    9.02
   2  -4  -1   65.16    9.95
   2  -4   0 1494.53   53.09
   2  -4   0 1469.68   59.12
   2  -4   0 1500.04   56.86
   2  -4   0 1492.61   54.81
   2  -4   1 6250.08  179.42
   2  -4   1 6711.03  172.92
   2  -4   1 6201.51  169.09
   2  -4   2  948.77   39.56
   2  -4   2 1065.09   49.25
  -2   4  -2  951.06   42.49
   2  -4   2 1030.25   42.38
   2  -4   3 2431.42   77.90
   2  -4   3 2386.76   87.89
  -2   4  -3 2240.49   78.28
  -2   4  -4   19.26    5.95
   2  -4   4   15.64    5.31
  -2   4  -5   54.03    9.85
   2  -4   5   62.31    9.91
   2  -4   6  425.69   29.15
  -2   4  -6  367.39   28.29
  -2   4  -7 1597.12   70.70
   2  -4   7 1772.15   71.15
  -2   4  -8 4064.74  137.56
  -2   4  -9  146.55   20.98
  -2   4 -10  452.10   39.09
  -2   4 -11   71.64   16.45
  -2   4 -12    6.66    7.20
  -2   4 -13  226.93   31.81
  -2   4 -14  408.18   44.86
   2  -3 -12  557.23   52.38
   2  -3 -11    5.64    7.57
  -2   3  10  100.79   11.03
   2  -3 -10  139.32   22.83
  -2   3   9  207.87   17.05
   2  -3  -9  206.43   26.94
  -2   3   9  208.56   16.06
  -2   3   8  542.33   27.94
  -2   3   8  546.14   27.62
   2  -3  -8  543.02   42.30
  -2   3   7   16.73    4.29
   2  -3  -7    8.78    5.43
  -2   3   7   17.72    4.61
  -2   3   6   25.24    5.80
  -2   3   6   24.16    7.70
  -2   3   6   26.49    5.10
   2  -3  -6   23.64    7.74
   2  -3  -5  352.13   27.01
  -2   3   5  306.86   17.76
  -2   3   5  340.94   25.34
  -2   3   5  330.63   20.00
   2  -3  -4   -1.71    2.22
  -2   3   4   -1.09    1.84
  -2   3   4    1.28    2.34
  -2   3   4    2.91    3.53
   2  -3  -4    3.02    4.29
  -2   3   3 1420.30   52.99
   2  -3  -3 1484.47   55.28
  -2   3   3 1423.29   51.55
   2  -3  -3 1415.57   47.22
   2  -3  -3 1305.87   48.03
   2  -3  -2  465.27   24.03
   2  -3  -2  465.84   22.60
  -2   3   2  496.92   25.77
   2  -3  -2  498.87   26.35
   2  -3  -1 1669.78   54.85
   2  -3  -1 1684.66   56.32
   2  -3  -1 1683.89   57.53
   2  -3  -1 1679.40   58.20
  -2   3   1 1601.15   55.23
   2  -3   0   27.03    5.41
   2  -3   0   26.85    5.48
   2  -3   0   28.35    6.05
   2  -3   1    0.10    2.20
   2  -3   1   -0.34    2.15
   2  -3   1    2.39    3.04
  -2   3  -2  135.38   13.11
   2  -3   2  161.48   13.83
  -2   3  -3  147.33   14.00
   2  -3   3  169.87   14.47
   2  -3   4 3709.28  106.32
  -2   3  -4 3306.85  104.28
  -2   3  -5  655.35   35.44
   2  -3   5  715.05   36.03
  -2   3  -6  839.27   43.55
   2  -3   6  902.78   44.04
  -2   3  -7  789.72   44.20
   2  -3   7  862.11   45.40
  -2   3  -8   20.36    7.72
  -2   3  -9 1195.75   63.95
  -2   3 -10   85.42   16.92
  -2   3 -11 1256.76   73.20
  -2   3 -12  272.86   34.15
  -2   3 -13  111.04   22.30
  -2   3 -14  266.44   36.79
   2  -2 -13  216.40   33.17
   2  -2 -12   24.62    6.60
   2  -2 -11  194.10   28.45
   2  -2 -10   44.17   11.55
  -2   2  10   34.82    5.84
   2  -2  -9  884.94   56.91
  -2   2   9  864.30   33.46
  -2   2   9  840.36   38.38
   2  -2  -8  419.39   35.71
  -2   2   8  442.29   21.14
  -2   2   8  420.98   23.41
  -2   2   7   64.21    7.20
   2  -2  -7   59.10   12.47
  -2   2   7   67.42    8.00
   2  -2  -6 1444.70   63.39
  -2   2   6 1436.84   61.76
  -2   2   6 1386.75   45.76
  -2   2   6 1439.81   45.78
   2  -2  -5  110.42   14.21
  -2   2   5  109.41   13.39
  -2   2   5   95.69    7.94
  -2   2   5  102.00    8.72
  -2   2   4    7.72    2.46
  -2   2   4    8.04    3.76
  -2   2   4    8.43    2.72
   2  -2  -4    6.85    3.94
   2  -2  -3  281.97   19.32
   2  -2  -3  223.75   13.41
  -2   2   3  254.50   18.22
  -2   2   3  285.62   15.97
   2  -2  -2 4580.24  121.55
  -2   2   2 4237.82  119.78
   2  -2  -2 4438.57  111.92
   2  -2  -2 4220.26  114.39
   2  -2  -1 1295.75   44.35
  -2   2   1 1200.64   42.83
   2  -2  -1 1276.16   39.70
   2  -2   0   30.09    5.38
   2  -2   0   43.05    6.74
   2  -2   0   29.86    5.30
  -2   2  -1  600.54   27.62
   2  -2   1  626.46   27.71
   2  -2   1  624.48   27.10
   2  -2   2   49.02    6.98
  -2   2  -2   44.46    6.71
  -2   2  -3 1993.46   65.81
   2  -2   3 2165.20   67.16
  -2   2  -4  755.27   34.78
   2  -2   4  748.44   34.45
  -2   2  -5 6561.62  182.36
   2  -2   5 6823.82  183.71
  -2   2  -6 1368.70   57.60
   2  -2   6 1368.66   56.61
  -2   2  -7   14.52    6.63
   2  -2   7    7.89    5.50
   2  -2   8   78.62   14.24
  -2   2  -8   77.72   14.07
  -2   2  -9   21.60    9.41
  -2   2 -10 2642.40  109.05
  -2   2 -11  708.19   52.63
  -2   2 -12 2006.07   99.11
  -2   2 -13  538.50   49.46
  -2   2 -14   42.14   15.26
   2  -1 -13   11.42    9.17
   2  -1 -13   23.42   13.01
   2  -1 -12  172.76   28.08
   2  -1 -11  -14.10   12.57
   2  -1 -10   18.23    8.55
  -2   1  10    9.75    2.97
  -2   1   9   73.60    7.59
   2  -1  -9   99.15   17.96
   2  -1  -8  122.82   18.58
  -2   1   8  109.06    8.66
  -2   1   7    1.40    2.84
  -2   1   7    4.02    1.71
  -2   1   6   -1.10    3.35
   2  -1  -6    3.61    3.70
  -2   1   6    2.33    1.42
  -2   1   5   32.30    7.26
   2  -1  -5   30.20    7.42
  -2   1   5   25.33    3.32
  -2   1   5   21.87    3.39
  -2   1   4    6.68    1.88
  -2   1   4    3.64    3.03
   2  -1  -4    8.44    5.02
  -2   1   4    4.12    1.34
   2  -1  -3    5.57    1.64
  -2   1   3   10.46    3.69
   2  -1  -3    2.18    2.97
   2  -1  -2   -1.09    2.56
   2  -1  -2    2.91    1.45
   2  -1  -2    5.99    1.45
  -2   1   2    2.85    2.02
   2  -1  -1   41.04    6.07
   2  -1  -1   33.39    4.72
  -2   1   1   47.20    6.30
   2  -1   0   59.28    6.87
   2  -1   0   78.43    8.11
   2  -1   1    8.12    3.11
  -2   1  -1    1.31    2.15
  -2   1  -2  218.56   14.18
   2  -1   2  214.41   13.98
  -2   1  -3  100.45   10.08
   2  -1   3  102.67   10.12
  -2   1  -4 1518.60   54.10
   2  -1   4 1539.97   54.42
  -2   1  -5  569.30   31.46
   2  -1   5  613.76   31.74
  -2   1  -6  318.02   24.30
   2  -1   6  312.35   24.06
  -2   1  -7  756.64   43.09
   2  -1   7  863.89   45.78
   2  -1   8    2.68    2.92
  -2   1  -8   -2.53    5.96
   2  -1   8    7.73    4.93
  -2   1  -9  755.61   48.37
  -2   1 -10  106.09   18.79
  -2   1 -11 1557.66   81.48
  -2   1 -12  641.73   51.42
  -2   1 -13  112.38   22.13
  -2   1 -14  259.84   35.13
  -2   1 -15   32.05   16.41
   2   0 -13 1197.36   79.39
   2   0 -13 1205.53   81.70
   2   0 -12   27.39   12.59
   2   0 -12   12.41    7.52
   2   0 -11  208.77   28.49
   2   0 -10   22.68   11.42
   2   0  -9 1308.54   69.93
   2   0  -8  369.52   32.02
   2   0  -7   35.18    8.37
  -2   0   7   38.91    9.30
   2   0  -6 2281.04   83.63
  -2   0   6 2301.48   82.55
  -2   0   5    5.90    3.62
   2   0  -5    0.98    3.41
  -2   0   4   28.85    6.52
   2   0  -4   49.09    8.43
   2   0  -3  583.52   27.74
  -2   0   3  571.75   26.88
   2   0  -2 4316.70  113.15
  -2   0   2 4080.85  112.78
   2   0  -1  503.92   22.12
  -2   0   1  498.68   21.59
   2   0   0  446.84   19.16
   2   0   0  456.68   20.05
  -2   0  -1 4914.04  122.96
   2   0   1 4674.26  123.47
   2   0   2   48.07    5.95
  -2   0  -2   49.65    6.00
   2   0   3  160.86   12.29
  -2   0  -3  164.67   12.13
   2   0   4  263.52   18.23
  -2   0  -4  251.07   17.57
   2   0   5  685.79   34.11
  -2   0  -5  628.98   33.22
   2   0   6  279.00   24.10
  -2   0  -6  273.88   22.41
   2   0   7  977.75   52.47
  -2   0  -7 1012.48   50.89
  -2   0  -8 3995.25  137.94
   2   0   8 4368.72  138.65
  -2   0  -9   13.68    6.50
  -2   0 -10   18.38    7.89
  -2   0 -11   29.23   10.76
  -2   0 -12   28.15   12.48
  -2   0 -13 1177.53   75.74
  -2   0 -14  377.78   42.71
  -2   0 -15 1787.51  103.17
   2   1 -14   17.58   12.09
   2   1 -13   41.93   15.20
   2   1 -12  252.94   34.14
   2   1 -12  245.84   32.58
   2   1 -11    2.22    7.39
   2   1 -11   -3.66    7.61
  -2  -1  10    5.12    3.39
   2   1 -10    0.64    4.92
   2   1  -9  176.53   23.70
  -2  -1   9  193.95   14.14
   2   1  -8  121.60   18.54
  -2  -1   8  133.77   10.76
   2   1  -7   51.15   10.79
  -2  -1   7   36.04    5.02
   2   1  -6    3.49    4.07
  -2  -1   6    5.00    1.77
  -2  -1   6    7.29    3.48
   2   1  -5  149.71   15.33
  -2  -1   5  129.53    7.57
  -2  -1   5  125.77   13.51
  -2  -1   4    8.85    3.89
  -2  -1   4    2.68    1.09
   2   1  -4    3.53    2.82
  -2  -1   3 1285.14   37.12
   2   1  -3 1396.24   47.57
  -2  -1   3 1304.02   45.58
  -2  -1   2  651.30   26.52
   2   1  -2  671.66   19.61
  -2  -1   2  666.77   21.07
   2   1  -2  699.36   27.23
  -2  -1   1  244.01   13.18
   2   1  -1  268.62   13.78
   2   1  -1  225.79   10.30
   2   1   0  641.21   22.77
   2   1   0  700.53   24.46
   2   1   1  148.66    9.23
  -2  -1  -1  154.61    9.00
   2   1   2  855.01   30.20
  -2  -1  -2  844.41   29.14
  -2  -1  -3   24.79    4.88
   2   1   3   19.95    4.65
  -2  -1  -4 1139.00   43.30
   2   1   4 1117.46   44.93
  -2  -1  -5  181.90   17.00
   2   1   5  224.40   19.44
   2   1   6   52.69   10.08
  -2  -1  -6   44.03    9.11
  -2  -1  -7 2468.09   91.65
   2   1   7 2648.60   94.16
  -2  -1  -8  128.91   17.69
   2   1   8  157.70   19.61
  -2  -1  -9  869.19   51.94
  -2  -1 -10   15.60    8.40
  -2  -1 -11  208.69   27.17
  -2  -1 -12   69.33   16.67
  -2  -1 -13  139.43   24.10
  -2  -1 -14 2224.53  112.80
  -2  -1 -15   22.53   13.31
   2   2 -14   48.61   17.14
   2   2 -13  162.35   28.95
   2   2 -12   24.89   12.81
   2   2 -11   91.48   19.81
   2   2 -11   73.77   17.47
  -2  -2  10  425.83   24.76
   2   2 -10  447.06   41.29
   2   2 -10  430.07   39.37
   2   2  -9 1636.94   80.57
   2   2  -9 1540.91   75.77
  -2  -2   9 1439.31   52.84
   2   2  -8  668.53   44.74
  -2  -2   8  621.60   40.11
  -2  -2   8  626.10   28.90
   2   2  -7   -3.30    5.43
  -2  -2   7   -1.91    2.27
  -2  -2   7    4.09    2.59
   2   2  -6 1563.76   65.51
  -2  -2   6 1647.70   63.14
  -2  -2   6 1556.50   50.23
  -2  -2   5    1.47    1.87
   2   2  -5   -8.38    5.39
  -2  -2   5   -3.14    3.73
   2   2  -4  185.03   15.62
  -2  -2   4  182.41   11.06
  -2  -2   4  188.68   14.73
   2   2  -3  235.35   12.84
  -2  -2   3  208.59   13.83
   2   2  -3  218.31   14.95
  -2  -2   3  202.82   12.51
  -2  -2   3  190.57   11.18
  -2  -2   2  791.86   28.62
   2   2  -2  877.32   30.90
  -2  -2   2  863.02   29.62
   2   2  -2  875.41   28.53
  -2  -2   2  837.24   30.20
   2   2  -1    1.07    1.58
   2   2  -1    1.06    1.52
   2   2  -1    1.15    1.17
  -2  -2   1    2.46    2.03
  -2  -2   1    4.39    1.85
   2   2   0  324.25   16.05
   2   2   0  285.06   11.58
   2   2   0  294.77   13.16
  -2  -2  -1 3841.69   92.20
   2   2   1 3543.57   93.60
  -2  -2  -2    7.57    2.32
   2   2   2    8.32    2.76
   2   2   3  181.42   14.06
  -2  -2  -3  154.90   11.80
  -2  -2  -4  180.55   14.75
   2   2   4  190.51   16.43
  -2  -2  -5  309.80   21.72
  -2  -2  -6    1.98    3.88
   2   2   6    6.96    5.33
  -2  -2  -7   78.85   13.10
   2   2   7   97.38   14.59
   2   2   8  213.97   23.69
  -2  -2  -8  196.02   22.76
  -2  -2  -9   -8.62    7.23
  -2  -2 -10  517.55   42.24
  -2  -2 -11  290.20   32.00
  -2  -2 -12  201.65   28.13
  -2  -2 -13  253.73   32.34
  -2  -2 -14   10.00    9.91
   2   3 -14  158.17   28.99
   2   3 -13   58.10   16.34
   2   3 -12   19.94   10.90
   2   3 -11   17.54    9.63
  -2  -3  10 1044.87   47.37
   2   3 -10 1216.23   68.16
   2   3 -10 1195.91   69.81
   2   3  -9  729.09   51.05
   2   3  -9  674.62   47.24
  -2  -3   9  618.36   33.29
  -2  -3   8  197.89   17.00
  -2  -3   8  168.33   19.90
   2   3  -8  184.35   23.07
   2   3  -7   77.92   13.97
  -2  -3   7   83.95   12.86
   2   3  -7   87.62   15.31
  -2  -3   7   79.14   10.02
   2   3  -6   14.29    6.25
  -2  -3   6    8.65    4.35
   2   3  -6   16.46    7.26
  -2  -3   6    9.47    3.96
   2   3  -5  961.46   45.31
  -2  -3   5 1006.55   42.01
  -2  -3   5  954.36   38.03
   2   3  -5 1005.85   47.76
  -2  -3   4   49.47    7.07
   2   3  -4   45.49    7.69
  -2  -3   4   51.89    6.92
  -2  -3   4   49.45    7.97
   2   3  -3 1410.35   45.97
   2   3  -3 1277.96   45.18
  -2  -3   3 1249.92   42.41
  -2  -3   3 1306.36   46.11
  -2  -3   3 1274.57   44.56
   2   3  -2 1437.87   44.76
  -2  -3   2 1420.31   48.21
   2   3  -2 1551.72   48.55
  -2  -3   2 1476.32   48.95
  -2  -3   2 1414.17   43.31
   2   3  -1    1.88    1.19
   2   3  -1    1.30    2.08
  -2  -3   1    1.27    1.55
   2   3  -1    4.52    2.63
  -2  -3   1    1.35    2.35
  -2  -3   1    1.33    1.13
   2   3   0 2655.39   80.64
   2   3   0 2830.38   71.70
   2   3   0 2783.02   81.38
  -2  -3   0 2862.46   82.07
   2   3   1   57.88    7.94
  -2  -3  -1   41.23    3.15
   2   3   1   57.77    7.99
   2   3   2 1393.07   50.83
  -2  -3  -2 1449.16   42.13
  -2  -3  -3   17.89    4.23
  -2  -3  -4 1990.10   67.10
   2   3   4 2047.82   69.48
  -2  -3  -5  619.44   34.41
   2   3   5  625.85   35.16
  -2  -3  -6    6.35    4.82
   2   3   6   17.32    6.66
  -2  -3  -7 2064.47   83.49
   2   3   7 2124.36   85.32
   2   3   8   26.98    8.99
  -2  -3  -8   26.12   10.09
  -2  -3  -9    6.11    5.82
  -2  -3 -10  208.96   26.26
  -2  -3 -11 1706.55   86.52
  -2  -3 -12  427.83   41.28
  -2  -3 -13   43.66   12.86
  -2  -3 -14  236.14   32.40
   2   4 -14  213.74   32.88
   2   4 -13 1324.03   83.14
   2   4 -12    7.92    6.76
   2   4 -11  369.50   37.43
   2   4 -10   23.34   10.02
  -2  -4  10   11.49    5.21
   2   4  -9  133.16   20.22
  -2  -4   9  124.90   15.25
  -2  -4   8  233.15   22.92
  -2  -4   8  248.93   20.98
   2   4  -8  249.31   26.90
  -2  -4   7  378.08   27.31
   2   4  -7  385.18   31.90
  -2  -4   7  335.75   24.25
   2   4  -7  416.05   32.09
  -2  -4   6 1280.35   51.78
  -2  -4   6 1271.41   55.13
  -2  -4   6 1234.77   50.76
   2   4  -6 1308.48   58.00
   2   4  -5   43.10    9.01
  -2  -4   5   47.49    7.91
  -2  -4   5   34.34    7.63
  -2  -4   5   49.41    7.40
   2   4  -5   49.47    9.11
  -2  -4   4  197.94   13.60
  -2  -4   4  175.08   15.26
  -2  -4   4  171.67   16.16
   2   4  -4  171.25   15.46
   2   4  -4  180.34   15.78
   2   4  -3   49.17    7.13
  -2  -4   3   53.12    5.91
   2   4  -3   44.84    6.34
   2   4  -3   44.06    7.32
  -2  -4   3   51.63    8.59
  -2  -4   3   48.73    7.96
   2   4  -2   23.25    3.87
   2   4  -2   13.62    2.63
  -2  -4   2   14.24    2.68
  -2  -4   2   18.88    4.88
   2   4  -2   14.67    4.57
  -2  -4   2   17.27    5.15
  -2  -4   1    8.89    4.08
   2   4  -1    5.82    1.57
   2   4  -1    9.03    3.92
   2   4  -1    2.30    3.09
   2   4   0   66.88    4.04
  -2  -4   0   76.30    9.81
   2   4   0   70.11    9.23
  -2  -4   0   66.28    9.07
   2   4   0   73.83    9.65
   2   4   1   36.97    7.37
   2   4   1   22.32    5.54
  -2  -4  -1   32.83    6.65
   2   4   2  113.68   13.14
   2   4   2  117.01   12.93
  -2  -4  -2  106.87    7.95
   2   4   2  106.79    9.48
  -2  -4  -3   12.37    4.24
   2   4   3    5.24    3.95
   2   4   3    9.91    4.91
   2   4   3    4.92    2.82
   2   4   4   23.88    6.02
  -2  -4  -4   14.54    4.82
   2   4   4   26.96    6.85
   2   4   5    4.14    2.56
  -2  -4  -5   -2.48    4.24
   2   4   6   72.28   12.30
  -2  -4  -6   62.57   11.60
  -2  -4  -7   -1.02    4.30
   2   4   7    0.55    3.10
   2   4   8   11.44    6.65
  -2  -4  -8   11.67    7.34
  -2  -4  -9    8.78    7.00
  -2  -4 -10   59.31   14.58
  -2  -4 -11   21.98   11.82
  -2  -4 -12   45.47   14.09
  -2  -4 -13   25.64   12.67
  -2  -4 -14    6.37    5.50
   2   5 -14  569.35   53.60
   2   5 -13   58.57   16.11
   2   5 -12 2153.90  106.47
   2   5 -11    2.68    5.20
   2   5 -10   12.60    7.46
  -2  -5   9  170.13   19.62
   2   5  -9  180.39   23.08
  -2  -5   8   40.32    9.36
   2   5  -8   61.81   13.64
  -2  -5   8   37.73    9.98
  -2  -5   8   48.98   10.09
  -2  -5   7 2340.07   82.42
   2   5  -7 2218.13   87.68
  -2  -5   7 2443.26   91.24
  -2  -5   7 2324.31   85.63
   2   5  -6    7.10    5.12
  -2  -5   6    2.95    3.25
  -2  -5   6    9.84    5.97
  -2  -5   6    8.05    3.70
  -2  -5   5 2143.92   77.53
  -2  -5   5 2134.28   79.95
  -2  -5   5 2116.52   67.54
   2   5  -5 2119.91   73.08
   2   5  -4   -2.30    2.13
  -2  -5   4    2.93    2.24
  -2  -5   4   -0.29    2.88
  -2  -5   4    2.69    3.12
  -2  -5   3  920.54   44.19
   2   5  -3  970.33   32.87
  -2  -5   3  986.15   44.53
   2   5  -3  953.75   44.16
  -2  -5   3  944.53   30.74
   2   5  -2  485.61   28.37
   2   5  -2  408.60   14.46
  -2  -5   2  476.75   28.28
  -2  -5   2  479.32   28.66
   2   5  -1   56.99    9.70
   2   5  -1   60.80   10.01
  -2  -5   1   51.83    9.09
  -2  -5   1   43.25    8.25
   2   5   0 2959.60   95.80
   2   5   0 3130.93   97.49
  -2  -5   0 3088.55   97.30
  -2  -5   0 2904.49   96.00
   2   5   1   17.26    2.26
   2   5   1   17.82    5.98
   2   5   1   22.60    6.02
  -2  -5  -1   23.46    6.63
   2   5   2  251.19   20.98
   2   5   2  224.20   13.10
   2   5   2  244.85   20.29
  -2  -5  -2  230.79   13.42
   2   5   3  324.41   20.09
   2   5   3  372.21   27.10
  -2  -5  -3  358.59   20.92
   2   5   4 1698.98   64.68
   2   5   4 1980.26   74.07
   2   5   4 2041.43   74.40
  -2  -5  -4 1722.61   64.57
   2   5   5  766.51   40.68
   2   5   5  792.65   44.01
   2   5   5  803.18   43.76
  -2  -5  -5  756.93   40.22
   2   5   6   98.29   14.71
   2   5   6  126.00   16.36
   2   5   6  109.07   15.08
  -2  -5  -6  101.52   14.68
   2   5   7 1157.27   58.87
   2   5   7 1030.48   55.99
   2   5   7 1054.95   55.18
  -2  -5  -7 1084.85   56.52
   2   5   8   -0.35    5.77
  -2  -5  -8    5.66    7.04
   2   5   8   -1.07    4.63
  -2  -5  -9   18.80    7.23
  -2  -5 -10  131.49   21.59
  -2  -5 -11  536.89   46.20
  -2  -5 -12   51.81   16.25
  -2  -5 -13   85.18   20.49
   2   5  14  787.57   60.11
  -2  -5 -14  912.05   68.23
  -2  -6  13  359.49   37.41
   2   6 -12    0.93    5.86
  -2  -6  12    0.35    5.25
  -2  -6  11  727.88   52.71
   2   6 -11  780.62   54.83
   2   6 -10  113.72   19.16
  -2  -6  10  118.31   20.11
   2   6  -9  258.15   27.03
  -2  -6   9  255.28   28.12
  -2  -6   8  432.23   29.61
  -2  -6   8  475.49   37.30
   2   6  -8  475.64   34.58
   2   6  -7   70.31   11.93
  -2  -6   7   59.81   12.61
  -2  -6   7   69.69   10.56
   2   6  -6 1506.54   58.60
  -2  -6   6 1359.46   51.19
  -2  -6   6 1398.61   66.20
   2   6  -5    8.91    4.38
  -2  -6   5    4.72    2.55
  -2  -6   5    7.97    5.28
  -2  -6   5    6.32    4.46
  -2  -6   4  846.24   29.51
  -2  -6   4  812.02   45.64
  -2  -6   4  806.01   45.10
   2   6  -4  908.15   33.58
   2   6  -3    5.27    2.04
  -2  -6   3    3.67    3.08
  -2  -6   3    8.76    4.56
  -2  -6   2   22.56    6.93
   2   6  -2   13.21    5.22
  -2  -6   2   14.08    5.40
  -2  -6   1  528.04   33.10
   2   6  -1  445.26   30.42
  -2  -6   1  465.81   31.40
   2   6   0    6.73    3.87
  -2  -6   0    6.42    5.45
   2   6   0    5.20    3.98
  -2  -6   0    4.03    3.82
   2   6   1 1246.60   54.60
   2   6   1 1272.11   54.79
  -2  -6  -1 1347.31   57.12
  -2  -6  -1 1235.77   53.99
  -2  -6  -1 1130.30   31.92
  -2  -6  -1 1063.85   29.72
   2   6   2    3.19    3.63
   2   6   2    7.29    4.04
  -2  -6  -2   -1.22    2.64
  -2  -6  -2    9.75    5.16
   2   6   2   14.63    2.55
   2   6   3    5.53    3.95
  -2  -6  -3    3.06    2.50
   2   6   3   -1.34    4.14
   2   6   4  145.85   13.89
  -2  -6  -4  134.20   14.53
   2   6   4  122.35   16.82
  -2  -6  -5   38.89    8.01
   2   6   5   29.10    7.25
   2   6   5   39.24   10.15
   2   6   6  247.95   22.95
   2   6   6  282.87   27.63
  -2  -6  -6  332.73   27.70
   2   6   7   27.87    9.18
  -2  -6  -7   27.92    9.16
   2   6   7   23.76    7.81
   2   6   8  476.97   38.77
  -2  -6  -8  499.98   39.71
  -2  -6  -9  104.96   18.84
   2   6   9   80.92   16.07
   2   6  10  150.16   22.64
  -2  -6 -10  198.88   27.29
  -2  -6 -11  192.85   27.67
   2   6  11  128.58   21.61
  -2  -6 -12   -0.27    9.62
   2   6  12    5.19    7.32
   2   6  13  230.44   31.35
  -2  -6 -13  265.19   36.04
   2   6  14   26.36   11.31
  -2  -7  12   44.12   13.23
  -2  -7  11   70.21   17.16
  -2  -7  10 1351.68   75.23
  -2  -7   9 1503.69   78.64
   2   7  -9 1596.06   71.03
  -2  -7   8  191.29   24.90
   2   7  -8  183.27   19.70
   2   7  -7   15.11    5.41
  -2  -7   7   19.03    8.38
   2   7  -6   32.11    6.94
  -2  -7   6   16.08    7.52
  -2  -7   6   21.36    4.60
  -2  -7   5  314.14   29.68
   2   7  -5  328.66   19.31
  -2  -7   4  486.72   36.68
   2   7  -4  488.50   21.31
  -2  -7   3 2061.58   85.30
   2   7  -3 2170.71   87.60
   2   7  -2 2129.21   84.32
  -2  -7   2 2171.01   86.03
  -2  -7   1   10.51    5.46
   2   7  -1   17.83    7.45
   2   7   0  101.79   15.38
  -2  -7   0   84.92   13.90
  -2  -7  -1   48.57   10.82
   2   7   1   47.95   10.45
  -2  -7  -1   39.30    4.01
   2   7   2  116.63   16.72
  -2  -7  -2  132.65    8.64
  -2  -7  -2  134.48   18.56
   2   7   3  177.95   21.60
   2   7   3  208.02   12.53
   2   7   4  658.67   43.74
   2   7   4  680.70   30.49
   2   7   5  354.76   32.27
   2   7   5  359.02   24.32
  -2  -7  -5  390.53   28.87
   2   7   6    9.61    6.94
  -2  -7  -6   23.04    8.36
   2   7   6   18.58    7.10
   2   7   7  564.80   38.20
   2   7   7  494.80   40.18
  -2  -7  -8   11.97    7.10
   2   7   8    3.76    4.77
   2   7   9   -9.38    7.26
  -2  -7  -9   -0.44    4.50
  -2  -7 -10   53.07   14.30
   2   7  10   28.54   10.71
  -2  -7 -11  121.75   22.24
   2   7  11   88.36   18.70
   2   7  12   34.48   12.12
  -2  -7 -12   47.05   15.64
  -2  -7 -13   14.35   10.53
   2   7  13   16.59    9.87
  -2  -8  11  215.02   29.92
  -2  -8  10  439.27   42.67
  -2  -8   9  534.55   46.49
  -2  -8   8  604.03   48.18
  -2  -8   7   52.67   12.53
  -2  -8   6   19.39    9.80
  -2  -8   5   49.06   13.28
   2   8  -5   48.65    6.51
  -2  -8   4 1145.08   63.31
  -2  -8   3 1724.79   80.48
   2   8  -2  775.97   49.64
  -2  -8   2  776.95   49.86
   2   8  -1  324.66   30.46
  -2  -8   1  341.17   31.79
   2   8   0   10.38    7.22
  -2  -8   0    4.25    6.87
  -2  -8  -1   21.02    2.94
   2   8   1   21.19    7.52
  -2  -8  -1   20.88    8.50
  -2  -8  -2  185.42   10.89
   2   8   2  179.71   23.12
  -2  -8  -2  191.40   23.79
   2   8   3 1333.92   68.37
  -2  -8  -3 1314.64   43.86
   2   8   4 1403.32   47.76
   2   8   4 1437.03   72.97
   2   8   5  200.36   25.33
   2   8   5  226.84   17.58
  -2  -8  -5  223.61   21.99
  -2  -8  -6    8.95    5.46
   2   8   6    7.73    5.68
  -2  -8  -7    4.18    5.37
   2   8   7    5.87    6.79
  -2  -8  -8   56.27   13.55
   2   8   8   46.93   13.21
   2   8   9   16.51    9.32
  -2  -8  -9   19.01    9.27
   2   8  10  525.93   48.62
  -2  -8 -10  687.56   53.68
   2   8  11  242.76   33.22
  -2  -8 -11  345.09   39.94
  -2  -8 -12   36.45   12.84
   2   8  12   24.15   11.59
   2   8  13  141.50   26.20
  -2  -9   8  197.89   28.65
  -2  -9   7 1247.04   74.95
  -2  -9   6   75.17   17.34
  -2  -9   5  645.25   49.99
  -2  -9   4  131.44   22.01
  -2  -9   3   99.26   18.79
  -2  -9   2  355.76   35.20
   2   9  -2  343.00   35.34
  -2  -9   1  192.61   25.49
   2   9  -1  183.65   25.51
   2   9   0 1514.02   78.26
  -2  -9   0 1561.48   79.47
  -2  -9  -1  155.15   22.59
   2   9   1  157.89   23.23
  -2  -9  -2  363.60   36.09
   2   9   2  392.22   37.04
   2   9   3  173.21   24.46
  -2  -9  -3  112.52   12.48
   2   9   4   56.18   14.70
  -2  -9  -4   38.41    8.65
   2   9   5   85.43   18.08
  -2  -9  -5   87.24   13.81
  -2  -9  -6   54.97   11.99
   2   9   6   55.46   14.64
   2   9   7  149.67   25.01
  -2  -9  -7  206.25   24.47
   2   9   8  108.48   22.04
  -2  -9  -8  139.10   21.93
   2   9   9   43.37   14.43
  -2  -9  -9   57.90   16.14
  -2  -9 -10   60.28   15.89
   2   9  10   16.39    8.73
   2   9  11   24.82   10.69
  -2 -10   5   78.27   18.55
  -2 -10   4   40.23   13.46
  -2 -10   3    8.41    7.31
  -2 -10   2    7.80    6.31
   2  10  -1 1261.75   77.16
  -2 -10   1 1323.10   77.88
   2  10   0   41.65   14.00
  -2 -10   0   31.16   12.30
   2  10   1 1895.01   95.52
  -2 -10  -1 1985.55   97.79
   2  10   2  146.54   24.16
  -2 -10  -2  133.94   23.68
   2  10   3   16.02    9.29
   2  10   4   14.83    7.90
   2  10   5   14.02    9.01
   2  10   6 1069.88   72.87
   2  10   7   28.91   12.85
   2  10   8  578.37   53.87
   3 -10  -1  114.05   23.18
   3  -9  -3   40.97   12.32
   3  -9  -2   89.68   18.59
   3  -9  -1  177.38   26.47
   3  -9   0   47.05   13.20
   3  -9   1  117.56   21.35
   3  -9   2   -5.36    6.13
   3  -9   3  270.50   34.03
   3  -9   4   -2.55    6.14
   3  -8  -8  149.05   28.08
   3  -8  -7  209.01   30.91
   3  -8  -6   68.85   16.25
   3  -8  -5    8.85    7.69
   3  -8  -4   -7.81    6.56
   3  -8  -3    1.32    3.77
   3  -8  -3    5.61    5.46
   3  -8  -2   27.77    9.29
   3  -8  -2   40.63   10.99
   3  -8  -1   36.21    9.40
   3  -8  -1   16.94    8.68
   3  -8   0    0.83    3.05
   3  -8   0   -0.98    4.24
   3  -8   1   16.87    8.68
   3  -8   1   14.42    6.13
   3  -8   2   71.38   11.94
   3  -8   2   84.19   16.83
   3  -8   3   30.41   11.93
   3  -8   4   13.20    7.65
   3  -8   5    2.36    6.24
   3  -8   6    0.40    7.73
  -3   8  -7   13.42    8.37
   3  -8   7   -3.14    7.65
  -3   8  -8   -1.71    4.14
  -3   8  -9   12.32    6.52
   3  -7  -9  636.73   58.90
   3  -7  -8  822.20   64.19
   3  -7  -7  251.49   33.24
   3  -7  -6   20.46    8.81
   3  -7  -5    9.67    6.51
   3  -7  -4  184.75   23.92
   3  -7  -3   50.68   11.98
   3  -7  -3   50.85   11.11
   3  -7  -2  753.28   45.90
   3  -7  -2  780.40   47.61
   3  -7  -1 1083.52   53.83
   3  -7  -1 1018.20   56.35
   3  -7   0   34.28   10.32
   3  -7   0   32.84    8.53
   3  -7   1  114.94   14.99
   3  -7   1  106.72   17.59
   3  -7   2   -0.32    3.12
   3  -7   2    6.00    6.89
   3  -7   3  212.98   26.38
   3  -7   3  229.10   21.03
   3  -7   4   20.43    6.13
   3  -7   4   21.20    9.36
   3  -7   5  400.99   29.79
  -3   7  -6  354.10   33.14
   3  -7   6  376.68   29.66
  -3   7  -7    6.42    5.65
  -3   7  -8  395.53   37.14
  -3   7  -9   -2.62    4.83
  -3   7 -10   56.33   15.18
  -3   7 -11   60.37   15.48
  -3   7 -12  213.37   30.91
   3  -6 -10  595.52   57.02
   3  -6  -9   95.89   21.94
   3  -6  -8  290.66   35.79
   3  -6  -7  390.45   39.60
   3  -6  -6   23.16    9.23
   3  -6  -5  150.78   21.39
   3  -6  -4   12.73    8.86
   3  -6  -3  417.08   33.12
   3  -6  -3  452.36   31.25
   3  -6  -2  218.16   22.17
   3  -6  -2  218.06   21.54
   3  -6  -1  155.79   17.88
   3  -6  -1  160.61   18.74
   3  -6   0  199.12   19.26
   3  -6   0  191.06   21.02
   3  -6   1   -2.65    4.42
   3  -6   1   -1.16    4.92
   3  -6   2  336.62   25.24
   3  -6   2  323.17   30.22
   3  -6   3   -4.63    4.06
   3  -6   3    3.66    6.32
   3  -6   4   16.76    6.07
  -3   6  -4   19.09    7.86
  -3   6  -5  152.64   19.70
   3  -6   5  174.58   18.95
  -3   6  -6   16.72    8.03
  -3   6  -7    7.82    5.75
  -3   6  -8   42.95   11.84
  -3   6  -9  357.53   34.96
  -3   6 -10   18.26    8.51
  -3   6 -11   43.75   13.59
  -3   6 -12  115.28   21.96
   3  -5 -10  109.11   22.66
   3  -5  -9   98.35   20.35
   3  -5  -8   37.30   13.74
   3  -5  -7   55.98   13.56
   3  -5  -6 1434.68   72.69
   3  -5  -5   36.52   10.47
   3  -5  -4 2758.75  101.51
   3  -5  -4 2598.12   91.94
   3  -5  -3  116.87   16.46
   3  -5  -3  107.03   13.23
  -3   5   3   95.24   13.60
   3  -5  -3  106.35   14.11
  -3   5   2    1.86    3.29
   3  -5  -2    7.29    4.84
   3  -5  -2    0.93    2.71
   3  -5  -2   -2.43    4.53
   3  -5  -1   51.45    9.94
   3  -5  -1   56.49   10.59
   3  -5  -1   44.69    9.30
   3  -5   0    1.45    2.88
   3  -5   0   -3.64    2.53
   3  -5   0   -0.79    3.12
   3  -5   1 2174.82   76.81
   3  -5   1 2066.50   82.20
   3  -5   1 2154.14   78.94
   3  -5   2   64.31   10.47
   3  -5   2   83.00   12.22
   3  -5   3 1085.70   49.67
   3  -5   3 1171.71   53.09
   3  -5   4   41.00    8.87
   3  -5   4   29.41    8.05
  -3   5  -4   37.55    9.57
  -3   5  -5  213.82   22.49
  -3   5  -6   56.71   11.81
  -3   5  -7    2.32    6.66
  -3   5  -8  411.80   35.35
  -3   5  -9   -4.43    6.35
  -3   5 -10    5.64    6.49
  -3   5 -11   69.90   17.12
  -3   5 -12  121.80   23.28
  -3   5 -13    4.13    5.60
   3  -4 -11  101.61   22.96
   3  -4 -10  624.68   53.91
   3  -4  -9   18.38   10.91
   3  -4  -8  185.29   26.49
   3  -4  -7  372.75   34.73
   3  -4  -6   86.39   16.14
   3  -4  -5 4184.52  139.02
   3  -4  -4  445.89   32.30
   3  -4  -4  373.38   24.42
   3  -4  -3  651.56   38.59
   3  -4  -3  645.37   33.96
   3  -4  -3  729.83   33.30
  -3   4   3  679.56   37.87
   3  -4  -2    9.64    4.97
  -3   4   2    2.05    2.12
   3  -4  -2    2.14    2.38
   3  -4  -2    4.43    3.20
   3  -4  -2   -2.50    3.50
   3  -4  -1   19.46    6.33
   3  -4  -1   19.53    6.06
   3  -4  -1   17.54    5.31
   3  -4  -1   20.32    6.20
   3  -4   0  639.47   36.84
   3  -4   0  646.23   34.96
   3  -4   0  638.97   34.90
   3  -4   0  622.61   33.95
   3  -4   1   17.68    5.69
   3  -4   1    4.27    3.11
   3  -4   1   14.38    5.24
   3  -4   2 3411.52  117.16
   3  -4   2 3674.24  111.62
   3  -4   2 3454.61  108.31
   3  -4   3  595.73   39.76
   3  -4   3  596.20   33.37
  -3   4  -3  546.42   33.32
   3  -4   3  637.48   35.31
   3  -4   4    5.85    4.06
  -3   4  -4   -1.70    3.61
  -3   4  -5  297.90   25.40
   3  -4   5  356.74   26.75
  -3   4  -6  127.05   16.99
  -3   4  -7  137.66   18.49
  -3   4  -8   33.05   11.24
  -3   4  -9 1212.71   65.80
  -3   4 -10   17.28    9.23
  -3   4 -11  242.43   30.59
  -3   4 -12  506.00   46.97
  -3   4 -13   33.26   13.05
  -3   4 -14   67.42   18.39
   3  -3 -11   46.00   14.98
   3  -3 -10  137.61   23.82
   3  -3  -9  848.25   59.28
   3  -3  -8 2515.19  107.32
   3  -3  -7  352.81   32.49
   3  -3  -6  818.34   49.53
   3  -3  -5    4.21    5.81
   3  -3  -4  667.92   38.80
   3  -3  -4  590.63   28.54
  -3   3   4  695.38   37.74
   3  -3  -3  962.13   45.25
   3  -3  -3  863.06   37.10
   3  -3  -3 1010.92   35.76
  -3   3   3  934.79   44.31
   3  -3  -2 1746.52   63.97
   3  -3  -2 1682.33   54.07
   3  -3  -2 1609.93   57.82
  -3   3   2 1649.75   61.72
   3  -3  -1 3299.50   94.69
   3  -3  -1 3230.47   99.14
   3  -3  -1 3155.93  100.17
   3  -3  -1 3247.55  101.46
  -3   3   1 3244.13  100.22
   3  -3   0  163.34   16.03
   3  -3   0  159.13   14.96
   3  -3   0  140.30   14.40
   3  -3   1 1003.10   47.93
   3  -3   1 1025.03   44.11
   3  -3   1 1017.77   44.44
   3  -3   2   68.76   10.04
   3  -3   2   69.15    9.99
  -3   3  -2   61.35    9.69
  -3   3  -3  686.88   36.63
   3  -3   3  811.47   38.80
   3  -3   4  708.96   36.78
  -3   3  -4  632.67   35.42
  -3   3  -5  295.94   23.94
   3  -3   5  347.21   25.33
  -3   3  -6  662.32   38.99
   3  -3   6  696.58   39.54
  -3   3  -7   32.30    9.49
  -3   3  -8   44.86   11.34
  -3   3  -9   20.96    7.98
  -3   3 -10   45.73   12.50
  -3   3 -11   54.13   14.56
  -3   3 -12   41.98   13.65
  -3   3 -13    2.04    6.37
  -3   3 -14   -5.82    9.77
   3  -2 -12   99.45   22.16
   3  -2 -11   58.67   17.43
   3  -2 -10  602.82   50.46
   3  -2  -9 1769.83   88.10
   3  -2  -8  829.39   53.36
  -3   2   8  758.46   25.80
   3  -2  -7 1721.55   78.05
   3  -2  -6   21.31    8.06
   3  -2  -5   13.81    6.46
  -3   2   5   12.49    5.21
  -3   2   4    5.21    3.24
   3  -2  -4   -0.85    1.59
   3  -2  -4    5.67    4.77
   3  -2  -3 2589.94   84.66
   3  -2  -3 2429.71   71.31
  -3   2   3 2565.02   83.54
   3  -2  -2 7324.91  179.39
   3  -2  -2 7379.81  195.52
   3  -2  -2 7090.77  184.97
  -3   2   2 7218.69  194.58
   3  -2  -1 1514.51   55.71
   3  -2  -1 1541.92   56.06
  -3   2   1 1514.18   55.06
   3  -2  -1 1427.95   51.35
   3  -2   0 3077.86   94.53
   3  -2   0 3220.99   96.05
   3  -2   1    6.36    3.03
   3  -2   1    3.66    3.56
   3  -2   2   83.25   10.45
  -3   2  -2   69.30    9.80
   3  -2   3  459.47   26.88
  -3   2  -3  410.00   25.05
  -3   2  -4 2586.88   86.93
   3  -2   4 2826.58   89.38
   3  -2   5 6363.05  171.52
  -3   2  -5 5714.67  168.86
  -3   2  -6  288.33   23.99
   3  -2   6  352.70   26.31
  -3   2  -7  216.64   21.84
   3  -2   7  236.21   22.28
  -3   2  -8   21.37    7.80
  -3   2  -9  205.72   24.42
  -3   2 -10  124.65   20.61
  -3   2 -11  710.00   52.66
  -3   2 -12 1184.49   73.19
  -3   2 -13   23.32   11.68
  -3   2 -14  152.35   27.97
   3  -1 -12   47.61   16.80
   3  -1 -11  367.34   40.15
   3  -1 -10  152.01   24.73
   3  -1  -9  163.96   23.43
  -3   1   9  134.22    9.77
   3  -1  -8  854.17   52.84
  -3   1   8  727.13   24.47
   3  -1  -7   79.83   14.39
   3  -1  -6 1421.71   64.56
   3  -1  -5   97.19   14.14
  -3   1   5   76.15   11.71
   3  -1  -4 1905.73   71.21
  -3   1   4 1980.92   71.21
   3  -1  -3 1425.72   53.62
   3  -1  -3 1268.99   37.94
  -3   1   3 1418.68   52.91
   3  -1  -2 1432.52   51.75
   3  -1  -2 1334.36   41.49
   3  -1  -2 1300.54   35.97
  -3   1   2 1452.75   51.90
   3  -1  -1 3703.75  107.33
  -3   1   1 3692.06  106.18
   3  -1   0   56.45    7.85
   3  -1   0   51.48    7.89
  -3   1  -1 2054.07   65.66
   3  -1   1 2009.77   65.60
   3  -1   1 1967.78   65.35
  -3   1  -2  305.44   19.03
   3  -1   2  307.32   19.86
   3  -1   3 1635.61   57.53
  -3   1  -3 1539.69   55.33
  -3   1  -4 2444.71   80.73
   3  -1   4 2644.89   83.68
   3  -1   5  833.27   39.96
  -3   1  -5  728.93   37.32
  -3   1  -6 2802.92   96.21
   3  -1   6 3052.70   99.87
  -3   1  -7    9.34    5.61
   3  -1   7   12.95    5.75
  -3   1  -8   87.54   14.79
   3  -1   8   90.73   15.91
  -3   1  -9   91.27   16.57
  -3   1 -10  194.46   25.42
  -3   1 -11  790.61   54.94
  -3   1 -12  173.80   25.96
  -3   1 -13  367.44   40.05
  -3   1 -14    3.77    9.23
   3   0 -13   22.25   11.00
   3   0 -12 1383.95   84.37
   3   0 -11  446.33   43.84
   3   0 -10   63.19   14.90
   3   0  -9  664.60   48.56
   3   0  -8   -8.79    7.77
   3   0  -7   89.30   14.67
   3   0  -6  192.42   20.68
  -3   0   6  221.75   21.21
   3   0  -5 6392.93  178.54
  -3   0   5 6101.79  175.79
  -3   0   4 1198.63   49.92
   3   0  -4 1211.29   50.75
  -3   0   3   75.27   10.00
   3   0  -3   83.50   10.45
   3   0  -2   71.02    9.24
  -3   0   2   79.32    9.62
  -3   0   1   22.82    5.14
   3   0  -1   14.53    4.16
   3   0   0 4392.76  120.57
   3   0   0 4548.70  123.06
   3   0   1  928.41   36.29
  -3   0  -1  948.37   35.96
  -3   0  -2 9982.22  249.85
   3   0   2 9999.00  251.50
  -3   0  -3 2020.93   64.53
   3   0   3 2041.67   66.34
  -3   0  -4   89.24   10.61
   3   0   4   93.11   11.06
  -3   0  -5   83.34   11.03
   3   0   5   98.00   12.06
  -3   0  -6    1.50    3.10
   3   0   6    4.50    4.39
  -3   0  -7 3973.46  129.86
   3   0   7 4253.22  134.20
  -3   0  -8  616.67   39.92
   3   0   8  625.80   42.62
  -3   0  -9 2667.52  103.55
  -3   0 -10  462.53   39.15
  -3   0 -11   20.20    9.19
  -3   0 -12    7.74    7.47
  -3   0 -13   13.71    9.09
  -3   0 -14  799.98   63.37
  -3   0 -15  157.69   29.27
   3   1 -13   82.24   20.76
   3   1 -13   79.29   20.22
   3   1 -12   98.97   22.70
   3   1 -12   97.25   21.65
   3   1 -11  176.45   26.96
   3   1 -10   14.97    7.59
   3   1  -9    0.20    7.21
   3   1  -8   -9.54    8.28
   3   1  -7   18.65    6.47
   3   1  -6 1832.85   74.00
  -3  -1   6 1878.55   53.81
  -3  -1   6 1930.86   73.39
   3   1  -5  675.42   36.43
  -3  -1   5  620.12   21.39
  -3  -1   5  696.13   36.04
   3   1  -4 1925.98   65.77
  -3  -1   4 1864.65   63.83
  -3  -1   3  259.06   18.06
   3   1  -3  267.79   18.57
   3   1  -2  183.71    8.62
   3   1  -2  200.57   14.86
  -3  -1   2  188.35   14.27
   3   1  -1  348.68   19.28
   3   1  -1  307.54   13.65
  -3  -1   1  329.52   18.78
   3   1   0   11.32    3.64
   3   1   0    4.41    1.80
  -3  -1  -1 8332.53  201.68
   3   1   1 7801.47  202.99
  -3  -1  -2 2965.93   82.52
   3   1   2 2906.15   84.62
  -3  -1  -3 2147.78   65.10
   3   1   3 2094.95   67.57
  -3  -1  -4  607.39   28.96
   3   1   4  655.24   31.98
  -3  -1  -5    2.12    3.27
   3   1   5    1.08    2.66
  -3  -1  -6 1112.12   49.02
   3   1   6 1133.43   52.96
  -3  -1  -7  224.34   21.69
   3   1   7  247.61   24.14
  -3  -1  -8 6063.35  183.78
   3   1   8 6191.80  189.86
  -3  -1  -9 1491.32   71.35
  -3  -1 -10  270.15   29.55
  -3  -1 -11    6.38    8.27
  -3  -1 -12   70.85   16.73
  -3  -1 -13  420.28   42.69
  -3  -1 -14   73.28   19.43
  -3  -1 -15 1624.36   96.33
   3   2 -13   29.60   13.18
   3   2 -13   19.56   11.41
   3   2 -12  487.90   47.63
   3   2 -12  463.90   47.50
   3   2 -11  158.82   26.67
   3   2 -11  142.27   24.33
   3   2 -10   59.79   14.34
  -3  -2   9  683.18   25.23
   3   2  -9  786.48   52.60
   3   2  -8    7.54    5.80
  -3  -2   8    7.57    2.10
  -3  -2   7   15.30    5.40
   3   2  -7    0.57    6.03
  -3  -2   7   10.19    2.60
  -3  -2   7   12.24    4.04
  -3  -2   6   16.25    5.41
  -3  -2   6    6.48    1.88
   3   2  -6    7.67    4.77
  -3  -2   6    5.48    2.49
   3   2  -5  262.36   21.81
  -3  -2   5  248.62   14.49
  -3  -2   5  271.35   20.72
   3   2  -4    3.99    3.74
  -3  -2   4    1.05    1.53
  -3  -2   4    4.85    3.09
   3   2  -3  290.42   19.32
  -3  -2   3  297.61   15.31
  -3  -2   3  313.35   19.42
   3   2  -3  320.04   13.93
   3   2  -2 3937.67  107.19
   3   2  -2 4195.26  113.54
   3   2  -2 4095.68  105.69
  -3  -2   2 4223.92  109.30
  -3  -2   2 4238.96  113.55
  -3  -2   1    3.32    2.25
   3   2  -1    9.81    2.90
   3   2  -1    6.47    3.08
   3   2   0  730.47   29.24
   3   2   0  742.71   27.35
   3   2   0  782.63   29.83
   3   2   1   43.89    5.47
  -3  -2  -1   57.89    5.97
  -3  -2  -2  437.04   18.73
   3   2   2  379.91   19.68
  -3  -2  -3  712.06   27.82
   3   2   3  622.42   29.08
   3   2   4 1038.13   43.25
  -3  -2  -4 1045.06   40.01
  -3  -2  -5 4590.61  133.36
   3   2   5 4922.54  141.81
  -3  -2  -6   14.20    5.97
   3   2   6   17.80    6.61
  -3  -2  -7 1155.68   54.91
   3   2   7 1274.23   62.99
  -3  -2  -8  255.94   25.36
   3   2   8  321.58   28.65
  -3  -2  -9  418.07   34.92
  -3  -2 -10 1016.57   60.05
  -3  -2 -11  180.95   25.53
  -3  -2 -12 1387.64   78.96
  -3  -2 -13   90.75   19.92
  -3  -2 -14  405.86   43.52
  -3  -2 -15  184.28   30.32
   3   3 -13  112.92   24.40
   3   3 -12  202.38   31.33
   3   3 -12  211.94   31.01
   3   3 -11  175.10   27.24
   3   3 -11  202.25   29.63
   3   3 -10  160.76   24.83
   3   3 -10  116.99   20.66
   3   3  -9   25.64    9.28
   3   3  -9   53.97   14.89
  -3  -3   9   39.31    6.21
  -3  -3   9   44.43    8.90
  -3  -3   8 1149.17   43.04
  -3  -3   8 1278.81   52.17
   3   3  -8 1185.86   64.04
   3   3  -7    9.27    6.12
  -3  -3   7   20.37    6.50
  -3  -3   7   13.93    3.89
  -3  -3   7   12.57    4.01
   3   3  -6  817.30   45.01
  -3  -3   6  914.11   43.12
  -3  -3   6  818.17   36.66
  -3  -3   6  779.69   32.18
   3   3  -5  625.21   34.68
  -3  -3   5  618.00   26.93
  -3  -3   5  647.16   32.99
  -3  -3   5  595.03   28.77
  -3  -3   4    4.36    2.66
   3   3  -4    2.93    3.54
  -3  -3   4    4.61    3.50
  -3  -3   4    4.40    2.66
   3   3  -3 1992.23   64.40
  -3  -3   3 1849.45   60.93
   3   3  -3 1996.73   59.58
  -3  -3   3 1977.67   62.39
   3   3  -2  882.91   33.92
   3   3  -2  891.59   33.39
  -3  -3   2  944.48   36.28
  -3  -3   2  904.57   34.57
   3   3  -2  884.99   35.02
   3   3  -1 2996.42   83.25
   3   3  -1 3032.02   86.22
   3   3  -1 2932.15   85.93
  -3  -3   1 3091.65   88.55
   3   3   0    2.92    2.00
   3   3   0    1.24    2.38
   3   3   0    1.83    1.94
   3   3   1  708.43   32.00
  -3  -3  -1  746.84   23.80
   3   3   1  664.79   24.95
  -3  -3  -2    8.10    2.23
   3   3   2    5.45    2.12
  -3  -3  -3  669.36   26.36
   3   3   3  675.54   31.07
  -3  -3  -4 7430.09  190.14
   3   3   4 7261.37  198.53
  -3  -3  -5  595.16   30.73
   3   3   5  615.90   35.59
  -3  -3  -6 3546.59  112.34
  -3  -3  -7  151.08   18.12
   3   3   7  192.58   21.08
  -3  -3  -8   58.77   12.47
   3   3   8   48.87   11.47
  -3  -3  -9  190.37   23.28
  -3  -3 -10  705.11   48.94
  -3  -3 -11 3921.36  146.12
  -3  -3 -12   61.21   15.73
  -3  -3 -13  820.07   60.52
  -3  -3 -14   69.91   17.93
   3   4 -13   13.10    7.13
   3   4 -12   98.26   22.34
   3   4 -11   17.69    9.38
  -3  -4  11   19.69    6.66
   3   4 -10   36.42   12.30
  -3  -4  10   34.72    9.41
   3   4 -10   35.49   11.92
  -3  -4   9  123.19   13.80
  -3  -4   9  174.64   19.20
   3   4  -9  192.53   26.14
   3   4  -9  174.55   23.96
  -3  -4   8    7.67    3.64
  -3  -4   8    6.38    4.38
   3   4  -8   16.37    7.93
   3   4  -8   -1.73    5.35
   3   4  -7   -2.73    5.75
  -3  -4   7    9.34    4.99
   3   4  -7    7.48    4.47
  -3  -4   7    7.07    4.07
  -3  -4   7    7.44    3.58
   3   4  -6   29.15    8.39
   3   4  -6   18.11    7.26
  -3  -4   6   17.86    5.57
  -3  -4   6   16.25    4.43
  -3  -4   6   16.79    5.54
   3   4  -5    8.24    3.54
  -3  -4   5   16.57    4.56
  -3  -4   5   19.88    5.67
  -3  -4   4   12.56    4.38
   3   4  -4    9.12    3.96
   3   4  -4    5.65    4.50
  -3  -4   4    9.53    4.61
  -3  -4   4   14.04    4.18
   3   4  -3   91.74   10.17
  -3  -4   3   65.61    9.05
   3   4  -3   70.62    9.03
  -3  -4   3   81.81    8.51
  -3  -4   3   77.38   10.14
  -3  -4   2   37.82    5.40
   3   4  -2   42.95    7.21
   3   4  -2   44.22    6.38
  -3  -4   2   52.80    8.37
   3   4  -1   18.70    3.65
   3   4  -1   24.54    5.43
   3   4  -1   16.54    4.77
  -3  -4   1   16.10    5.16
   3   4  -1   15.95    2.51
   3   4   0  276.46   18.96
   3   4   0  304.31   19.95
   3   4   0  261.46   13.07
  -3  -4   0  309.93   20.89
   3   4   1   15.08    2.90
   3   4   1   18.43    5.78
   3   4   1   15.76    4.95
   3   4   2  178.47   16.64
   3   4   2  166.09   16.41
  -3  -4  -2  183.23    9.39
   3   4   2  158.04   11.87
   3   4   3  325.88   23.84
  -3  -4  -3  322.57   16.42
  -3  -4  -4   52.58    7.43
  -3  -4  -5 1137.94   46.87
   3   4   6    1.94    3.68
  -3  -4  -6    3.78    4.97
  -3  -4  -7  349.43   27.90
   3   4   7  418.36   33.16
  -3  -4  -8  171.27   20.88
   3   4   8  191.87   23.44
  -3  -4  -9   54.20   13.02
  -3  -4 -10 1369.46   71.37
  -3  -4 -11   67.40   15.36
  -3  -4 -12 1386.99   78.01
  -3  -4 -13   55.39   15.82
  -3  -4 -14   85.75   19.28
   3   5 -13  470.80   46.76
   3   5 -12  447.72   43.93
   3   5 -11   62.71   16.05
  -3  -5  11   62.09   13.58
  -3  -5  10  183.08   21.97
   3   5 -10  214.52   27.13
   3   5  -9   17.61    8.02
  -3  -5   9   31.06    8.79
  -3  -5   8  797.22   44.47
  -3  -5   8  818.38   45.83
  -3  -5   8  719.43   40.38
   3   5  -8  821.44   50.66
   3   5  -8  905.09   53.48
   3   5  -7    5.95    3.84
  -3  -5   7    6.81    3.93
  -3  -5   7    4.64    4.24
  -3  -5   7    4.69    4.39
   3   5  -7    0.01    6.07
  -3  -5   6 1021.50   49.86
  -3  -5   6 1088.92   46.28
  -3  -5   6  986.67   47.16
   3   5  -6 1008.76   51.26
   3   5  -6 1151.62   54.76
  -3  -5   5  633.75   35.56
  -3  -5   5  633.82   36.51
  -3  -5   5  651.47   31.42
   3   5  -5  619.97   35.30
   3   5  -5  680.80   37.72
  -3  -5   4    5.04    2.73
   3   5  -4    5.55    3.73
   3   5  -4    6.01    4.29
  -3  -5   4    6.45    4.57
  -3  -5   4    3.54    3.30
   3   5  -4    5.67    3.69
   3   5  -3 1433.16   50.73
  -3  -5   3 1358.48   56.20
  -3  -5   3 1350.25   55.88
   3   5  -3 1413.06   54.97
  -3  -5   3 1373.34   45.53
   3   5  -3 1357.51   46.12
   3   5  -2   13.06    2.43
   3   5  -2   20.64    4.15
  -3  -5   2   18.99    6.13
   3   5  -2   14.17    5.34
  -3  -5   2   18.88    5.27
   3   5  -1  610.33   22.69
   3   5  -1  589.24   32.38
   3   5  -1  661.17   34.69
  -3  -5   1  618.40   34.23
   3   5   0   75.59   11.14
   3   5   0   63.99    5.38
   3   5   0   75.19   10.85
  -3  -5   0   66.52   10.79
   3   5   1 2685.03   91.61
   3   5   1 2917.68   92.84
   3   5   1 2764.51   73.38
   3   5   2 1530.15   59.52
   3   5   2 1433.71   59.36
  -3  -5  -2 1385.78   38.42
  -3  -5  -3    3.59    2.18
   3   5   3    0.11    3.97
   3   5   3    1.19    3.05
   3   5   4  422.56   29.67
   3   5   4  334.67   27.37
  -3  -5  -4  401.39   22.00
   3   5   4  373.82   25.53
  -3  -5  -5   11.65    4.59
   3   5   5   12.80    4.99
   3   5   5   10.00    4.62
   3   5   6  300.91   26.88
  -3  -5  -6  271.56   22.69
   3   5   6  269.39   25.57
  -3  -5  -7  414.90   30.58
   3   5   7  453.60   36.28
   3   5   8 3485.26  124.87
  -3  -5  -8 2868.28  109.95
  -3  -5  -9 1093.25   60.01
  -3  -5 -10   12.26    8.44
  -3  -5 -11    5.36    6.07
  -3  -5 -12   27.71   12.02
  -3  -5 -13  650.61   53.98
  -3  -5 -14  288.16   36.92
  -3  -6  12   85.39   17.09
   3   6 -11   42.42   12.10
   3   6 -10   21.32    8.29
  -3  -6  10   21.95    8.46
   3   6  -9   22.33    7.93
  -3  -6   9   31.40    9.84
   3   6  -8    1.90    3.93
  -3  -6   8    4.96    3.38
  -3  -6   8    2.32    4.32
   3   6  -7    8.16    4.77
  -3  -6   7    9.04    5.31
  -3  -6   7    5.07    2.91
  -3  -6   7    2.48    4.36
   3   6  -6   65.96   11.13
  -3  -6   6   58.21   11.09
  -3  -6   6   57.96    9.00
  -3  -6   6   70.69   12.84
  -3  -6   5  159.98   18.61
  -3  -6   5  147.33   12.82
  -3  -6   5  134.37   17.42
   3   6  -5  135.49   13.66
   3   6  -4    6.85    2.86
  -3  -6   4    6.96    4.24
   3   6  -4    0.90    3.80
  -3  -6   4    7.51    3.12
  -3  -6   4    8.74    5.22
   3   6  -3    2.78    1.21
  -3  -6   3    4.42    3.05
   3   6  -3    1.86    3.43
  -3  -6   3   -0.44    3.79
   3   6  -3    2.53    1.93
  -3  -6   2  595.90   35.78
  -3  -6   2  584.59   35.87
   3   6  -2  493.08   20.29
   3   6  -2  597.90   34.68
  -3  -6   1    8.10    4.71
   3   6  -1    5.26    4.66
   3   6  -1   10.89    5.07
  -3  -6   1   16.42    7.52
   3   6   0  150.05   17.14
   3   6   0  148.31   16.80
  -3  -6   0  163.44   17.95
   3   6   1  215.23   20.81
   3   6   1  226.83   21.13
   3   6   1  182.96    8.05
  -3  -6  -1  214.26   21.67
   3   6   2  356.27   27.81
   3   6   2  330.43   18.32
   3   6   3   59.75    8.71
   3   6   3   72.16   12.72
   3   6   3   76.63   12.70
  -3  -6  -3   74.95    6.74
   3   6   4   16.67    5.07
  -3  -6  -4   34.24    6.27
   3   6   4   21.73    7.54
   3   6   5  269.71   23.53
   3   6   5  266.97   26.40
  -3  -6  -5  277.66   20.73
   3   6   6   43.29    9.90
  -3  -6  -6   37.94    8.57
   3   6   6   42.90   11.63
   3   6   7  769.50   50.35
  -3  -6  -7  849.03   46.97
   3   6   8  560.20   43.57
  -3  -6  -8  550.20   39.97
  -3  -6  -9  130.93   19.90
   3   6   9  105.66   18.58
  -3  -6 -10   16.16    7.07
   3   6  10    8.40    5.14
  -3  -6 -11   86.33   18.09
   3   6  11   70.12   16.61
  -3  -6 -12    4.68    7.73
  -3  -6 -13  200.21   30.21
   3   6  13  173.23   28.39
   3   6  14  871.89   66.71
  -3  -6 -14 1079.89   73.76
   3   6  15  562.29   53.13
  -3  -7  10  454.83   40.79
  -3  -7   9   12.00    7.95
  -3  -7   8  281.37   29.94
   3   7  -8  292.41   25.34
   3   7  -7    3.49    3.72
  -3  -7   7   -1.95    6.13
  -3  -7   6  478.52   37.53
   3   7  -6  522.99   28.18
  -3  -7   5  402.10   33.61
   3   7  -5  453.69   22.55
   3   7  -4   10.71    2.30
  -3  -7   4   11.73    7.06
   3   7  -4   19.64    7.86
   3   7  -3  497.12   34.99
  -3  -7   3  488.32   36.10
   3   7  -2    1.18    4.37
  -3  -7   2   -3.73    5.54
   3   7  -1   15.87    7.53
  -3  -7   1    1.20    4.30
   3   7   0   43.13    9.88
  -3  -7   0   30.51    8.72
   3   7   1  643.13   41.25
  -3  -7  -1  711.51   44.18
   3   7   2  296.51   26.94
   3   7   2  278.23   10.31
   3   7   3   76.91    8.23
   3   7   3   83.50   15.05
  -3  -7  -3   99.55    7.56
   3   7   4  596.19   30.91
   3   7   4  571.72   41.40
  -3  -7  -4  655.08   29.32
  -3  -7  -5    8.63    5.17
   3   7   5    4.41    5.34
   3   7   5    5.19    3.83
  -3  -7  -6   52.98   10.39
   3   7   6   43.44    9.63
   3   7   6   55.81   13.58
  -3  -7  -7   11.27    5.34
   3   7   7    2.94    2.96
   3   7   7    5.71    6.57
  -3  -7  -8   -1.69    4.93
   3   7   8   11.08    6.68
  -3  -7  -9   -2.84    6.29
   3   7   9   -0.31    7.07
  -3  -7 -10  108.68   19.72
   3   7  10   72.67   16.98
   3   7  11  460.16   45.22
  -3  -7 -11  513.66   44.83
  -3  -7 -12   46.45   14.67
   3   7  12   39.53   13.11
  -3  -7 -13  158.06   26.40
   3   7  13  130.82   24.61
   3   7  14   59.76   17.24
  -3  -8  11    7.71    7.66
  -3  -8  10   23.68   10.87
  -3  -8   9  834.43   58.47
  -3  -8   8    5.21    4.46
  -3  -8   7   12.23    7.57
  -3  -8   6  250.86   28.55
  -3  -8   5  169.77   23.03
  -3  -8   4   39.90   11.41
   3   8  -3   39.00   11.68
  -3  -8   3   44.42   11.24
   3   8  -2  850.12   51.17
  -3  -8   2  928.47   54.71
   3   8  -1    5.88    4.94
   3   8   0  387.15   33.11
  -3  -8   0  345.64   31.58
   3   8   1  644.40   44.58
  -3  -8  -1  698.93   46.97
   3   8   2  148.30   21.16
   3   8   3  146.62   21.13
  -3  -8  -3  139.61    8.23
   3   8   4   57.63    7.26
  -3  -8  -4   73.98    8.87
   3   8   5  741.23   51.81
  -3  -8  -5  823.54   38.60
  -3  -8  -6   19.53    7.47
   3   8   6   14.26    9.28
   3   8   6   12.40    4.93
   3   8   7  484.78   42.59
  -3  -8  -7  573.67   38.38
  -3  -8  -8  228.82   25.23
  -3  -8  -9   25.32    9.40
   3   8   9    3.79    5.60
   3   8  10  519.21   48.41
  -3  -8 -10  655.42   49.37
  -3  -8 -11    4.20    5.21
   3   8  11   -2.91    6.10
   3   8  12  375.19   42.02
  -3  -8 -12  411.90   42.33
  -3  -8 -13   35.21   12.86
  -3  -9   9   10.94    8.50
  -3  -9   8  135.59   23.86
  -3  -9   7   42.97   13.75
  -3  -9   6  281.30   33.07
  -3  -9   5  171.73   25.40
  -3  -9   4   23.91   10.27
   3   9  -3    7.21    7.44
  -3  -9   3    7.80    6.81
   3   9  -2   23.86   10.16
  -3  -9   2   21.34    9.37
   3   9  -1   61.17   14.20
  -3  -9   1   69.39   15.87
   3   9   0    0.87    6.47
  -3  -9   0   21.53    9.42
   3   9   1   15.12    7.43
  -3  -9  -1   30.94   11.61
   3   9   2   19.86    8.20
   3   9   3    9.61    4.95
   3   9   4    2.05    5.55
   3   9   5   48.36   13.73
   3   9   6    7.02    6.41
   3   9   7   24.50   10.25
   3   9   8    1.87    6.14
   3   9   9   25.09   11.06
   3   9  10   -1.23    5.42
  -3 -10   6  530.59   49.24
  -3 -10   5  233.64   31.70
  -3 -10   4   13.59    9.61
  -3 -10   3    7.18    7.40
   3  10  -2  438.94   42.91
  -3 -10   2  452.06   43.52
   3  10  -1   -2.54    5.28
  -3 -10   1   -6.88    6.19
   3  10   0  465.87   42.96
  -3 -10   0  452.12   42.51
   3  10   1  562.90   47.57
  -3 -10  -1  580.74   49.70
   3  10   2   47.03   13.80
   3  10   3  181.93   26.70
   3  10   4   -3.33    8.37
   3  10   5  262.96   33.33
   3  10   6   -2.86    7.92
   3  10   7  333.58   39.51
   3  10   8  265.31   36.26
   3  11  -1   71.22   18.99
   3  11   0  112.11   22.20
   3  11   1  212.51   31.04
   3  11   2   39.72   14.22
   4  -9  -1    6.48    8.26
   4  -9   0   39.28   13.11
   4  -9   1    5.18    6.38
   4  -9   2  553.78   49.96
   4  -8  -6   55.50   17.19
   4  -8  -5    8.48    7.42
   4  -8  -4   -0.24    4.52
   4  -8  -3   35.97   12.08
   4  -8  -2   16.25    7.91
   4  -8  -2    6.83    5.61
   4  -8  -1  114.84   18.57
   4  -8  -1   82.96   16.55
   4  -8   0   -0.82    4.92
   4  -8   0    0.64    3.48
   4  -8   1  138.35   22.57
   4  -8   2   69.12   15.92
   4  -8   3  189.31   27.32
   4  -8   4  257.44   32.67
   4  -8   5   10.18    4.48
   4  -8   6  164.58   27.28
  -4   8  -8  363.13   38.90
  -4   8  -9  138.67   24.39
   4  -7  -7  483.27   49.03
   4  -7  -6    0.46    7.78
   4  -7  -5  210.93   28.83
   4  -7  -4  295.93   33.01
   4  -7  -3   80.31   16.26
   4  -7  -3   78.54   13.88
   4  -7  -2  160.81   22.32
   4  -7  -2  177.84   22.67
   4  -7  -1    6.36    5.10
   4  -7  -1    2.37    3.57
   4  -7   0  691.09   43.81
   4  -7   0  607.13   43.84
   4  -7   1    3.32    4.17
   4  -7   1    7.21    7.17
   4  -7   2  235.10   27.90
   4  -7   2  222.78   23.55
   4  -7   3  123.40   17.65
   4  -7   3  105.70   19.14
   4  -7   4   21.36    7.40
   4  -7   4   17.24    8.35
   4  -7   5 1019.81   55.73
   4  -7   6   18.96    7.42
  -4   7  -7  584.70   47.91
   4  -7   7  583.06   42.64
  -4   7  -8   15.37    8.07
  -4   7  -9    8.60    4.39
  -4   7 -10   30.11   11.57
  -4   7 -11    9.51    7.01
   4  -6  -8   91.91   22.11
   4  -6  -7   31.12   11.90
   4  -6  -6   17.08   10.75
   4  -6  -5    9.91    6.72
   4  -6  -4  124.70   20.45
   4  -6  -3   35.49   11.17
   4  -6  -3   34.48    8.49
   4  -6  -2    0.08    5.49
   4  -6  -1  244.64   24.79
   4  -6  -1  254.54   24.47
   4  -6   0   48.79   11.17
   4  -6   0   39.44   10.08
   4  -6   1   13.69    4.62
   4  -6   1    5.74    5.28
   4  -6   2   11.84    6.85
   4  -6   2   30.18    9.34
   4  -6   3   28.70    8.56
   4  -6   4    5.76    5.62
   4  -6   5   41.06   10.00
  -4   6  -5   51.87   12.58
  -4   6  -6  913.08   56.07
   4  -6   6  999.40   55.16
  -4   6  -7   43.85   12.63
  -4   6  -8   40.26   11.95
  -4   6  -9   14.57    8.04
  -4   6 -10    4.69    5.41
  -4   6 -11  265.77   34.41
   4  -5  -9    4.23    6.38
   4  -5  -8    2.40    5.40
   4  -5  -7  484.38   44.52
   4  -5  -6    2.49    5.07
   4  -5  -5  152.90   22.10
   4  -5  -4  432.45   36.31
   4  -5  -4  370.97   28.07
   4  -5  -3   27.71    7.59
   4  -5  -3    8.14    4.28
   4  -5  -3   28.67    7.04
   4  -5  -2  259.01   25.41
   4  -5  -2  207.94   21.58
   4  -5  -2  253.50   21.11
   4  -5  -1    3.38    4.05
   4  -5  -1    1.61    4.47
   4  -5   0  436.80   31.34
   4  -5   0  482.32   33.28
   4  -5   1   23.00    7.63
   4  -5   1   39.64    9.66
   4  -5   2  210.32   21.27
   4  -5   3  226.48   22.45
  -4   5  -4    7.16    5.96
   4  -5   4   -0.91    3.93
  -4   5  -5  109.46   17.38
  -4   5  -6    1.31    4.08
  -4   5  -7    4.31    4.26
  -4   5  -8  200.59   25.83
  -4   5  -9  370.02   36.74
  -4   5 -10  231.60   29.56
  -4   5 -11   13.86    9.06
  -4   5 -12   31.71   12.67
   4  -4 -10  281.31   37.35
   4  -4  -9    7.89    7.00
   4  -4  -8  173.79   26.18
   4  -4  -7   12.08    8.89
   4  -4  -6   93.59   17.94
   4  -4  -5  308.93   30.96
   4  -4  -4  226.50   24.97
   4  -4  -4  235.30   19.41
   4  -4  -3  120.28   12.01
   4  -4  -3   93.57   12.31
   4  -4  -3   88.56   14.31
   4  -4  -2   21.62    7.83
   4  -4  -2   31.33    7.33
   4  -4  -2   35.59    6.75
   4  -4  -1 1694.28   69.32
   4  -4  -1 1667.99   70.52
   4  -4  -1 1814.29   64.49
   4  -4   0   40.45    9.20
   4  -4   0   55.73   10.48
   4  -4   0   52.31   10.32
   4  -4   1   23.29    7.25
   4  -4   1   22.10    7.59
   4  -4   2  528.41   34.07
  -4   4  -3  227.64   22.58
   4  -4   3  220.73   21.52
  -4   4  -4    0.87    3.80
  -4   4  -5   31.52    9.04
  -4   4  -6 1143.59   59.02
  -4   4  -7   10.94    6.31
  -4   4  -8  371.90   33.60
  -4   4  -9  618.65   46.00
  -4   4 -10  165.02   24.53
  -4   4 -11   14.55    9.06
  -4   4 -12   13.73    7.83
  -4   4 -13   90.76   20.90
   4  -3 -10   19.90    8.22
   4  -3  -9  308.05   36.22
   4  -3  -8   16.20   10.37
   4  -3  -7  416.86   37.98
   4  -3  -6    7.00    5.70
   4  -3  -5   15.50    8.10
   4  -3  -4   38.35    6.70
   4  -3  -4   41.28    9.85
   4  -3  -3   20.80    5.11
   4  -3  -3   32.71    5.31
   4  -3  -3   29.18    7.91
  -4   3   2   60.34   10.76
   4  -3  -2   59.29   10.78
   4  -3  -2   52.84    8.42
   4  -3  -2   57.18    7.33
   4  -3  -1   11.61    4.18
   4  -3  -1   17.99    6.36
   4  -3  -1   17.95    4.56
   4  -3  -1   20.79    6.23
   4  -3   0   14.00    4.95
   4  -3   0   14.11    6.22
   4  -3   0   21.17    6.41
   4  -3   1    6.44    4.29
   4  -3   1    9.17    5.24
   4  -3   1    5.45    2.80
   4  -3   2   89.51   12.60
   4  -3   2   55.82    9.90
   4  -3   3   49.25    9.91
   4  -3   3   34.37    8.66
  -4   3  -3   42.00    9.33
   4  -3   4   17.31    5.92
  -4   3  -4   21.81    6.60
  -4   3  -5   10.27    5.37
  -4   3  -6   15.17    6.42
  -4   3  -7    4.42    5.28
  -4   3  -8   -1.79    4.60
  -4   3  -9   17.92   10.07
  -4   3 -10   77.11   16.80
  -4   3 -11  -10.59    9.34
  -4   3 -12   16.54    8.93
  -4   3 -13   -5.29    6.95
   4  -2 -11    1.89    8.53
   4  -2 -10   24.63   11.21
   4  -2  -9   13.16    7.48
   4  -2  -8 3772.61  141.97
   4  -2  -7  333.35   33.20
   4  -2  -6  341.55   31.13
   4  -2  -5  420.21   33.32
   4  -2  -4  124.32    9.66
   4  -2  -4  125.37   16.80
  -4   2   3   72.74   11.64
   4  -2  -3   66.94   11.83
   4  -2  -3   72.88    7.87
  -4   2   2   32.63    7.43
   4  -2  -2   25.54    7.47
   4  -2  -2   30.55    6.13
   4  -2  -2   30.79    4.42
   4  -2  -1 3189.34   98.37
   4  -2  -1 3219.66  103.98
   4  -2  -1 3232.97  103.04
   4  -2   0  100.10   12.97
   4  -2   0  110.89   13.47
   4  -2   1  413.63   26.84
   4  -2   1  347.76   24.95
  -4   2  -2 1748.15   67.73
   4  -2   2 1799.35   67.71
  -4   2  -3  578.29   33.45
   4  -2   3  637.92   35.53
   4  -2   4   16.40    6.44
  -4   2  -4   14.36    6.25
  -4   2  -5    5.96    4.48
   4  -2   5    6.82    3.99
  -4   2  -6 1087.31   53.16
   4  -2   6 1241.89   57.68
  -4   2  -7   13.68    6.42
  -4   2  -8  645.23   42.67
  -4   2  -9  912.62   55.23
  -4   2 -10   93.29   17.67
  -4   2 -11  206.49   28.17
  -4   2 -12    0.42    5.42
  -4   2 -13  472.31   46.42
  -4   2 -14    7.71    6.54
   4  -1 -11  344.10   40.42
   4  -1 -10  206.11   29.94
   4  -1  -9  817.08   57.69
   4  -1  -8   21.22    9.69
   4  -1  -7  519.76   40.30
   4  -1  -6  181.47   21.81
   4  -1  -5  153.18   19.23
  -4   1   4   93.95   13.22
   4  -1  -4   96.56   14.11
   4  -1  -3   15.76    5.41
   4  -1  -3   22.93    3.71
  -4   1   3   19.56    5.82
   4  -1  -2  740.57   23.05
   4  -1  -2  701.60   37.29
   4  -1  -2  730.26   29.55
  -4   1   2  747.93   37.70
   4  -1  -1  208.66   18.65
   4  -1  -1  208.47   17.92
  -4   1   1  220.11   18.75
   4  -1   0  300.05   21.82
   4  -1   0  302.29   21.58
   4  -1   1    4.48    3.85
   4  -1   1   -1.20    3.18
   4  -1   2   92.86   11.75
  -4   1  -2   97.69   12.12
  -4   1  -3  210.91   18.18
   4  -1   3  256.10   20.48
  -4   1  -4   13.54    5.55
   4  -1   4   12.15    4.97
  -4   1  -5  305.75   23.50
   4  -1   5  349.37   26.14
  -4   1  -6   38.51    8.95
   4  -1   6   39.13    9.29
  -4   1  -7   -0.82    4.63
  -4   1  -8  278.32   26.68
  -4   1  -9  269.58   27.79
  -4   1 -10  212.83   26.29
  -4   1 -11   -5.04    6.90
  -4   1 -12  470.56   43.92
  -4   1 -13    7.57    9.06
  -4   1 -14    6.87    9.33
   4   0 -12 1262.59   83.84
   4   0 -11  853.23   64.61
   4   0 -10 1542.49   85.41
   4   0  -9   32.65   11.22
   4   0  -8   -6.54    6.53
   4   0  -7   -1.29    4.06
   4   0  -6 1875.09   78.87
   4   0  -5 3471.91  116.84
   4   0  -4 1015.25   48.59
  -4   0   4 1028.49   48.02
   4   0  -3 1624.21   61.36
  -4   0   3 1721.06   62.44
   4   0  -2  115.18   13.41
  -4   0   2  116.72   13.16
   4   0  -1  270.89   20.45
   4   0  -1  290.53   20.04
  -4   0   1  294.92   21.11
   4   0   0    5.94    4.07
   4   0   0    7.64    3.64
   4   0   1 1482.40   53.97
   4   0   1 1385.76   53.33
  -4   0  -2 2702.19   86.25
   4   0   2 2990.19   89.85
  -4   0  -3   96.24   11.29
   4   0   3  104.50   12.61
  -4   0  -4   18.31    5.34
   4   0   4   29.87    7.45
  -4   0  -5    7.00    4.48
   4   0   5    9.58    4.88
  -4   0  -6  616.41   35.70
   4   0   6  676.05   39.40
  -4   0  -7    1.41    3.92
   4   0   7    5.45    4.45
  -4   0  -8  313.25   27.13
  -4   0  -9  473.44   36.60
  -4   0 -10   32.85   10.06
  -4   0 -11  235.76   29.33
  -4   0 -12   20.14   10.85
  -4   0 -13  109.28   22.28
  -4   0 -14    4.03    7.02
   4   1 -12  627.64   56.58
   4   1 -11 1426.93   84.95
   4   1 -10  147.74   24.11
   4   1  -9  368.68   36.97
   4   1  -8   43.77   11.88
   4   1  -7  396.21   32.88
   4   1  -6 1140.85   56.80
   4   1  -5 1714.32   70.88
  -4  -1   5 1792.89   69.74
   4   1  -4 4181.48  128.93
  -4  -1   4 4296.60  128.39
   4   1  -3   53.66    9.23
   4   1  -3   40.35    3.18
  -4  -1   3   56.69    9.45
  -4  -1   2    9.31    4.10
   4   1  -2    6.00    4.05
   4   1  -2    4.37    1.34
   4   1  -1   13.05    4.90
   4   1  -1    9.16    3.66
   4   1   0  456.21   24.56
   4   1   0  469.44   25.67
   4   1   1 2217.92   70.76
   4   1   1 2166.66   71.15
  -4  -1  -2 1699.37   57.36
   4   1   2 1751.67   60.32
  -4  -1  -3 2052.59   66.96
   4   1   3 2118.76   70.70
  -4  -1  -4    7.56    3.39
   4   1   4    9.35    3.96
  -4  -1  -5 1559.89   58.82
   4   1   5 1592.14   62.80
  -4  -1  -6   52.34    9.97
   4   1   6   80.45   12.59
  -4  -1  -7   43.29    9.28
   4   1   7   45.70   10.18
  -4  -1  -8  628.35   40.25
   4   1   8  651.62   44.28
  -4  -1  -9  309.06   29.65
  -4  -1 -10   96.80   17.44
  -4  -1 -11   14.38    8.31
  -4  -1 -12 1121.02   69.07
  -4  -1 -13   22.16    9.70
  -4  -1 -14   39.87   13.94
   4   2 -12   -2.02    6.02
   4   2 -12    5.73    8.27
   4   2 -11   90.98   20.18
   4   2 -10  573.45   49.27
   4   2  -9    1.54    5.34
  -4  -2   9    8.23    2.74
   4   2  -8 3202.70  122.91
  -4  -2   8 3237.34   90.12
   4   2  -7  624.61   42.49
  -4  -2   7  646.46   26.08
   4   2  -6  605.65   40.10
  -4  -2   6  657.85   25.84
  -4  -2   5  133.26   15.45
  -4  -2   5  143.67   10.10
   4   2  -5  125.53   16.12
   4   2  -4  213.36   19.39
  -4  -2   4  218.75   18.77
   4   2  -3 2690.51   89.16
  -4  -2   3 2905.16   90.08
   4   2  -3 2823.03   74.13
   4   2  -2   11.71    4.52
   4   2  -2   12.82    2.80
  -4  -2   2   14.67    4.61
   4   2  -2   11.25    2.84
   4   2  -1 3900.12  105.91
   4   2  -1 3990.69  113.30
   4   2  -1 4008.12  110.57
   4   2   0  927.93   38.50
   4   2   0  940.71   36.67
   4   2   1  251.17   16.58
   4   2   1  286.76   18.38
  -4  -2  -2  460.45   22.40
   4   2   2  469.30   24.82
  -4  -2  -3   10.89    2.96
   4   2   3   15.50    4.50
  -4  -2  -4 1928.09   64.04
   4   2   4 1969.84   69.06
  -4  -2  -5   79.50   10.41
   4   2   5   84.09   12.33
  -4  -2  -6  795.10   39.82
   4   2   6  870.47   44.98
  -4  -2  -7  290.20   24.67
   4   2   7  317.40   28.79
  -4  -2  -8   19.20    6.96
   4   2   8   24.50    7.94
  -4  -2  -9   88.99   14.85
  -4  -2 -10   64.25   14.40
  -4  -2 -11   26.41    9.20
  -4  -2 -12   -6.03    8.43
  -4  -2 -13   26.97   12.58
  -4  -2 -14   12.54    9.74
   4   3 -13   18.93   11.44
   4   3 -12    4.71    7.70
   4   3 -12    4.15    7.67
   4   3 -11   49.33   15.88
   4   3 -11   45.72   15.05
   4   3 -10   30.78   11.67
   4   3  -9 2603.56  111.34
  -4  -3   9 2567.15   82.99
   4   3  -8  659.84   46.94
  -4  -3   8  711.94   33.37
   4   3  -7 2074.57   88.10
  -4  -3   7 2178.90   69.91
   4   3  -6   88.98   14.80
  -4  -3   6   84.37    9.73
  -4  -3   6   96.98   13.95
   4   3  -5   31.93    7.92
  -4  -3   5   29.37    5.68
  -4  -3   5   24.45    6.58
   4   3  -4  148.36   15.73
   4   3  -4  160.33   11.44
  -4  -3   4  148.03   14.85
  -4  -3   4  142.42   12.45
   4   3  -3   10.77    3.02
  -4  -3   3    9.79    3.36
   4   3  -3    4.56    2.81
   4   3  -2 8834.58  218.63
   4   3  -2 8628.75  224.39
   4   3  -2 8357.24  219.12
  -4  -3   2 9056.38  225.70
   4   3  -1 2459.13   73.45
   4   3  -1 2379.75   72.12
   4   3  -1 2362.22   73.82
   4   3  -1 2306.34   69.74
   4   3   0 2566.80   79.16
   4   3   0 2574.42   77.30
   4   3   0 2560.23   74.70
   4   3   1   22.54    4.78
   4   3   1   17.95    4.54
   4   3   1   27.07    5.82
   4   3   2   13.74    3.79
  -4  -3  -2    8.32    2.99
  -4  -3  -3  236.95   14.81
   4   3   3  222.72   16.82
  -4  -3  -4    6.57    2.24
   4   3   4    8.40    3.97
  -4  -3  -5 6007.04  165.95
   4   3   5 6399.12  177.01
  -4  -3  -6 1073.22   48.18
   4   3   6 1212.17   56.89
  -4  -3  -7   98.90   14.09
   4   3   7  107.52   16.65
  -4  -3  -8  403.25   31.35
   4   3   8  476.14   38.42
  -4  -3  -9  263.63   26.76
  -4  -3 -10   34.30   10.31
  -4  -3 -11   10.67    5.63
  -4  -3 -12 1387.42   77.67
  -4  -3 -13  115.41   22.58
  -4  -3 -14   63.34   17.57
   4   4 -13  208.73   33.74
   4   4 -12  342.09   40.75
   4   4 -12  355.93   41.95
   4   4 -11   32.20   13.25
   4   4 -11   38.90   14.18
  -4  -4  10  247.62   22.21
   4   4 -10  302.95   34.98
   4   4 -10  253.52   31.67
   4   4  -9   -0.81    6.31
   4   4  -9    4.96    8.35
  -4  -4   9    2.70    3.13
   4   4  -8  489.88   40.39
  -4  -4   8  497.30   30.55
   4   4  -7  195.62   23.56
  -4  -4   7  228.49   19.17
   4   4  -6  700.56   42.83
  -4  -4   6  726.32   36.15
  -4  -4   6  759.17   40.65
   4   4  -5 1082.95   51.17
  -4  -4   5 1132.59   46.88
  -4  -4   5 1095.71   48.22
  -4  -4   4   66.91    9.58
   4   4  -4   51.33    9.21
   4   4  -4   58.69    8.24
  -4  -4   4   55.71    8.84
   4   4  -3 1791.78   63.24
   4   4  -3 1830.93   60.50
  -4  -4   3 1746.56   62.94
  -4  -4   3 1809.35   62.02
   4   4  -2  229.77   16.29
   4   4  -2  234.53   16.79
   4   4  -2  229.62   17.58
  -4  -4   2  223.81   18.34
  -4  -4   2  225.37   16.65
   4   4  -1 2405.75   76.90
   4   4  -1 2404.71   76.97
   4   4  -1 2442.84   72.82
   4   4  -1 2343.90   67.71
   4   4   0  946.67   41.63
   4   4   0  890.72   35.09
   4   4   0  973.18   33.24
   4   4   0  946.23   40.93
   4   4   1  575.79   32.27
   4   4   1  605.17   32.44
   4   4   1  585.00   24.60
   4   4   1  626.79   26.76
   4   4   2 1290.40   54.18
  -4  -4  -2 1383.67   42.11
   4   4   2 1338.29   46.60
  -4  -4  -3   23.56    4.30
   4   4   3   22.61    5.74
  -4  -4  -4 2890.54   84.96
   4   4   4 3011.50   95.94
  -4  -4  -5  539.09   28.03
   4   4   5  551.67   35.17
  -4  -4  -6 1574.71   60.23
  -4  -4  -7  462.52   31.66
  -4  -4  -8   39.28   10.25
  -4  -4  -9  172.25   21.67
  -4  -4 -10   -0.26    5.65
  -4  -4 -11  770.02   53.00
  -4  -4 -12   74.07   17.71
  -4  -4 -13  245.10   32.23
  -4  -4 -14    4.31    6.61
   4   5 -12  101.41   20.89
   4   5 -11 1208.02   75.95
   4   5 -11 1180.96   75.32
   4   5 -10   10.12    7.97
  -4  -5  10    2.94    4.92
   4   5 -10   -0.07    5.87
   4   5  -9  158.19   23.43
  -4  -5   9  111.55   15.67
   4   5  -9  138.43   22.08
   4   5  -8  166.60   23.01
  -4  -5   8  157.06   18.38
   4   5  -8  183.77   24.07
  -4  -5   7  187.21   17.86
  -4  -5   7  208.26   20.30
  -4  -5   7  181.38   19.37
   4   5  -7  223.85   24.57
   4   5  -7  194.91   23.22
   4   5  -6 1635.95   70.88
  -4  -5   6 1468.86   61.31
  -4  -5   6 1542.33   63.96
  -4  -5   6 1573.37   62.70
   4   5  -6 1726.21   72.43
   4   5  -5  677.28   38.85
  -4  -5   5  638.10   36.41
  -4  -5   5  619.99   33.17
   4   5  -5  635.57   37.91
   4   5  -4 3600.48  109.56
   4   5  -4 3526.02  107.60
  -4  -5   4 3381.73  110.86
  -4  -5   4 3497.43  105.30
  -4  -5   3    1.32    2.47
   4   5  -3    3.57    2.83
   4   5  -3    2.82    3.34
  -4  -5   3   -1.02    2.99
   4   5  -2    0.91    2.82
   4   5  -2    7.15    3.96
   4   5  -2    1.60    2.17
  -4  -5   2    8.65    5.07
   4   5  -2    3.64    1.57
   4   5  -1    2.24    1.27
   4   5  -1    1.44    1.67
   4   5  -1    3.98    4.00
   4   5  -1    2.00    2.58
  -4  -5   1   -5.27    5.10
   4   5   0 1263.83   53.67
   4   5   0 1364.20   54.93
   4   5   0 1308.75   43.60
   4   5   1 5260.53  153.81
   4   5   1 5395.25  137.26
   4   5   1 4977.76  132.75
   4   5   2  609.30   36.64
   4   5   2  732.28   39.43
  -4  -5  -2  712.21   23.30
   4   5   2  626.02   27.73
   4   5   3 3466.21  118.48
   4   5   3 3773.00  119.37
  -4  -5  -3 3701.83   96.80
  -4  -5  -4  102.53    9.51
   4   5   4   89.55   13.30
  -4  -5  -5    2.40    2.26
   4   5   5   -6.09    4.98
  -4  -5  -6  121.14   14.05
  -4  -5  -7  826.69   44.06
   4   5   7  888.97   52.15
  -4  -5  -8 2665.24   98.40
  -4  -5  -9   15.30    7.02
  -4  -5 -10  577.74   43.74
  -4  -5 -11   61.05   14.93
  -4  -5 -12   30.32   11.27
  -4  -5 -13   39.57   13.45
  -4  -5 -14  142.71   26.07
   4   6 -10  139.09   21.46
  -4  -6  10   96.12   16.80
   4   6  -9   26.00    9.17
  -4  -6   9   17.31    7.13
   4   6  -9   27.65    9.99
   4   6  -8   11.06    7.56
  -4  -6   8    8.42    5.97
   4   6  -8    3.26    4.28
  -4  -6   7   86.33   12.50
   4   6  -7   59.95   11.39
  -4  -6   7   49.24   10.60
  -4  -6   7   58.29   11.49
   4   6  -7   68.72   13.39
  -4  -6   6  112.46   15.69
  -4  -6   6  139.54   17.89
  -4  -6   6  147.32   15.46
   4   6  -6  126.92   15.50
   4   6  -6  173.11   20.08
  -4  -6   5 1799.72   64.28
  -4  -6   5 1735.37   73.22
   4   6  -5 1693.98   64.82
  -4  -6   5 1660.30   71.12
   4   6  -4   68.53   10.44
   4   6  -4   67.09    8.94
   4   6  -4   62.49   11.09
  -4  -6   4   73.65    9.24
  -4  -6   4   70.07   12.39
   4   6  -3  418.08   24.12
   4   6  -3  388.82   27.48
  -4  -6   3  427.23   30.93
   4   6  -3  378.31   16.08
   4   6  -3  377.70   18.68
   4   6  -2    3.92    2.60
   4   6  -2    1.64    3.15
   4   6  -1  115.53   15.08
   4   6  -1  113.74    9.32
   4   6  -1   99.31   14.07
  -4  -6   1   87.28   13.57
   4   6   0 1164.62   53.75
   4   6   0 1077.11   52.42
   4   6   0 1172.43   37.44
   4   6   1  670.19   39.92
   4   6   1  757.46   42.02
   4   6   1  768.02   27.61
   4   6   2 4445.91  145.63
   4   6   2 4978.97  147.65
  -4  -6  -3    9.27    2.15
   4   6   3   11.56    6.18
   4   6   4  255.75   25.85
  -4  -6  -4  336.63   17.36
  -4  -6  -5   42.41    7.28
   4   6   5   39.97   10.86
   4   6   5   41.66    9.73
   4   6   6  113.58   18.66
  -4  -6  -6  122.82   14.02
   4   6   6   83.00   14.75
  -4  -6  -7 1974.81   75.66
   4   6   7 1921.27   86.65
  -4  -6  -8  537.06   37.22
  -4  -6  -9 2651.16  103.92
  -4  -6 -10  -10.05    9.48
  -4  -6 -11    4.97    6.05
  -4  -6 -12    3.48    6.58
  -4  -6 -13   55.64   16.57
  -4  -6 -14  650.31   57.11
  -4  -7  10   -4.79    7.36
  -4  -7   9  543.44   43.28
  -4  -7   8  244.63   28.18
  -4  -7   7   19.64    7.99
  -4  -7   6  114.70   18.12
   4   7  -6  128.31   13.42
  -4  -7   5    2.86    2.31
   4   7  -5    2.88    1.91
  -4  -7   5    2.29    4.52
   4   7  -5   -1.70    3.22
   4   7  -4   43.22   10.27
   4   7  -4   36.92    4.39
  -4  -7   4   36.37    9.81
   4   7  -4   42.66    7.76
   4   7  -3    5.24    5.37
  -4  -7   3    0.16    3.75
   4   7  -3    2.29    1.95
   4   7  -2 1605.95   69.60
  -4  -7   2 1652.48   72.60
   4   7  -2 1601.72   49.87
   4   7  -1  746.52   42.85
  -4  -7   1  744.72   44.11
   4   7   0   48.72    4.11
   4   7   0   45.88   10.70
  -4  -7   0   54.00   12.11
   4   7   1  132.47    7.60
   4   7   1  127.20   17.28
   4   7   2    9.10    2.37
   4   7   2   11.48    5.40
   4   7   2    6.11    2.69
   4   7   3  879.60   50.91
  -4  -7  -3  838.63   23.62
   4   7   3  842.07   38.87
   4   7   4  145.57   20.16
  -4  -7  -4  170.94   11.03
   4   7   4  141.25   16.19
   4   7   5 1630.82   80.30
   4   7   5 1687.09   73.80
   4   7   6 1293.87   64.34
  -4  -7  -6 1399.91   54.25
   4   7   7   45.25   11.60
  -4  -7  -7   59.86   10.76
   4   7   7   33.83   10.75
   4   7   8  352.23   35.65
  -4  -7  -8  476.20   34.54
  -4  -7  -9   12.68    7.18
   4   7   9   -7.75    8.24
   4   7  10  504.91   45.53
  -4  -7 -10  651.96   46.73
  -4  -7 -11  111.06   20.24
   4   7  11  103.00   20.96
   4   7  12  309.20   37.82
  -4  -7 -12  401.06   40.66
   4   7  13  444.59   47.30
  -4  -7 -13  453.90   45.36
  -4  -7 -14    4.13    6.61
  -4  -8  10    2.97    4.70
  -4  -8   9  104.55   19.42
  -4  -8   8  371.60   36.87
  -4  -8   7   29.96   10.13
  -4  -8   6    9.08    7.37
  -4  -8   5  391.65   36.11
   4   8  -4   -1.43    5.48
  -4  -8   4    7.44    6.94
   4   8  -3  702.52   45.25
  -4  -8   3  709.52   48.21
   4   8  -2  760.12   47.15
  -4  -8   2  778.41   49.71
   4   8  -1 1147.38   60.81
  -4  -8   1 1161.61   62.34
   4   8   0   89.21   15.79
  -4  -8   0   74.09   14.88
   4   8   1    8.50    7.04
   4   8   2   70.97   14.73
   4   8   3   21.27    3.30
   4   8   3   25.25    9.05
   4   8   4 2266.23   68.93
   4   8   4 2188.33   93.46
   4   8   5 1016.47   47.23
  -4  -8  -5 1009.74   38.76
   4   8   6  539.37   35.99
   4   8   6  655.89   48.26
  -4  -8  -6  575.66   31.16
  -4  -8  -7   90.22   13.12
   4   8   7  116.38   20.23
  -4  -8  -8   46.63   10.42
   4   8   8   53.00   14.49
  -4  -8  -9   23.64    7.27
   4   8   9    1.75    7.70
  -4  -8 -10   68.54   14.87
   4   8  10   58.20   16.21
   4   8  11 1217.37   80.06
  -4  -8 -11 1421.88   77.71
   4   8  12  575.21   54.22
  -4  -8 -12  679.35   53.93
  -4  -8 -13  120.88   23.56
  -4  -9   8   15.79    8.49
  -4  -9   7   68.70   17.07
  -4  -9   6   37.49   11.75
  -4  -9   5    4.19    5.08
  -4  -9   4   -2.73    5.38
   4   9  -3    9.72    7.33
   4   9  -2   12.45    7.56
  -4  -9   2   -1.61    5.63
   4   9  -1   -2.86    5.55
  -4  -9   1  -12.18    8.35
   4   9   0   59.60   13.42
  -4  -9   0   52.92   13.69
   4   9   1  147.99   22.40
   4   9   2   38.69   12.22
   4   9   3  225.10   28.01
   4   9   4  228.29   28.71
   4   9   5  273.98   32.23
   4   9   6  163.62   26.23
   4   9   7   68.75   17.28
   4   9   8  197.24   28.77
   4   9   9   57.32   16.48
   4   9  10  429.18   45.67
  -4 -10   6   21.79   11.50
  -4 -10   5  687.30   56.75
  -4 -10   4   -4.54    7.30
  -4 -10   3  125.48   22.55
   4  10  -2  196.13   27.46
  -4 -10   2  185.14   27.25
   4  10  -1    3.70    5.35
  -4 -10   1   14.71    8.30
   4  10   0  223.29   28.82
  -4 -10   0  220.28   30.15
   4  10   1  116.44   21.14
   4  10   2 1043.62   67.06
   4  10   3   14.19    8.79
   4  10   4   47.77   14.09
   4  10   5   66.15   17.49
   4  10   6   34.40   12.85
   4  10   7  575.30   51.56
   4  11  -2   83.42   19.83
   4  11  -1   11.59    8.17
   4  11   0   -1.84    6.71
   4  11   1  253.89   33.42
   4  11   2   16.21    9.93
   5  -8   0  283.08   32.07
   5  -8   1  123.07   22.01
   5  -8   2  222.08   30.14
   5  -8   3  455.66   44.18
   5  -8   4   -6.21    6.97
   5  -7  -6  522.01   50.89
   5  -7  -5   97.37   22.06
   5  -7  -4    4.85    5.26
   5  -7  -3   10.72    9.21
   5  -7  -2   15.89    9.05
   5  -7  -1 1344.41   74.15
   5  -7  -1 1486.11   72.19
   5  -7   0  598.44   45.29
   5  -7   0  656.04   46.35
   5  -7   1  573.74   43.93
   5  -7   1  637.19   47.14
   5  -7   2  128.09   19.99
   5  -7   2  140.95   22.26
   5  -7   3    8.47    7.29
   5  -7   3    0.87    5.04
   5  -7   4  155.08   21.43
   5  -7   4  136.84   24.13
   5  -7   5   60.81   13.50
   5  -7   6 1172.72   66.99
   5  -7   7  448.78   39.33
  -5   7  -8  155.14   26.01
  -5   7  -9    5.00    6.70
   5  -6  -6  147.05   25.96
   5  -6  -5   -4.46    7.31
   5  -6  -4   13.46    9.28
   5  -6  -3   17.42    8.28
   5  -6  -2  512.05   42.64
   5  -6  -2  568.35   37.23
   5  -6  -1  226.78   26.29
   5  -6  -1  269.77   25.68
   5  -6   0 1152.24   63.52
   5  -6   0 1149.36   60.01
   5  -6   1  715.76   47.28
   5  -6   1  730.63   48.15
   5  -6   2   47.33   13.11
   5  -6   2   34.34    8.74
   5  -6   3   69.02   13.87
   5  -6   3   85.59   16.97
   5  -6   4    0.35    4.74
   5  -6   5 1110.01   62.19
  -5   6  -6  524.83   45.21
   5  -6   6  582.89   43.52
  -5   6  -7  883.47   59.94
   5  -6   7  894.76   57.43
  -5   6  -8  468.71   43.43
  -5   6  -9    6.48    6.26
  -5   6 -10    8.87   10.53
   5  -5  -7   14.24    8.76
   5  -5  -6    4.62    5.73
   5  -5  -5  367.69   37.91
   5  -5  -4   44.49   13.33
   5  -5  -3 1271.80   68.63
   5  -5  -3 1270.66   52.26
   5  -5  -2    2.24    5.40
   5  -5  -2    0.30    2.46
   5  -5  -1   89.21   15.93
   5  -5  -1   82.99   12.76
   5  -5   0   27.77    9.28
   5  -5   0   18.57    6.56
   5  -5   1  117.04   17.50
   5  -5   1  133.47   19.20
   5  -5   2 1380.78   66.51
   5  -5   3   38.88    9.90
   5  -5   4 1418.31   68.67
   5  -5   5   50.25   11.99
  -5   5  -5   59.06   13.95
  -5   5  -6  193.75   25.28
   5  -5   6  208.58   24.71
  -5   5  -7  373.76   36.28
  -5   5  -8  104.14   19.20
  -5   5  -9 1025.02   65.90
  -5   5 -10   14.63    9.75
  -5   5 -11  400.34   42.87
   5  -4  -8   89.78   19.80
   5  -4  -7  282.16   34.49
   5  -4  -6   69.70   15.92
   5  -4  -5    5.23    6.31
   5  -4  -4 1677.77   81.00
   5  -4  -3   14.76    5.83
   5  -4  -3   14.64    4.24
   5  -4  -3   25.59    8.42
   5  -4  -2   42.95   10.53
   5  -4  -2   38.76    8.93
   5  -4  -2   42.11    7.51
   5  -4  -1   33.81   10.31
   5  -4  -1   33.15    8.97
   5  -4  -1   47.79    8.90
   5  -4   0   70.23   11.66
   5  -4   0   58.72   12.52
   5  -4   1  260.67   25.34
   5  -4   2  232.31   23.92
   5  -4   3 4099.87  136.26
   5  -4   4   60.19   12.36
  -5   4  -4   20.69    8.72
  -5   4  -5  198.40   23.38
  -5   4  -6    5.51    5.10
  -5   4  -7   10.06    6.62
  -5   4  -8 1018.79   61.55
  -5   4  -9  135.81   22.22
  -5   4 -10 2819.39  120.65
  -5   4 -11   68.72   16.97
  -5   4 -12   31.64   13.22
   5  -3  -9    3.30    5.88
   5  -3  -8    0.28    6.55
   5  -3  -7  174.46   26.62
   5  -3  -6   91.46   17.74
   5  -3  -5    7.71    6.18
   5  -3  -4    5.32    3.55
   5  -3  -4   -1.35    6.61
   5  -3  -3   17.93    7.81
   5  -3  -3   16.09    4.97
   5  -3  -3   13.43    3.16
   5  -3  -2   35.04    9.98
   5  -3  -2   26.70    6.72
   5  -3  -2   39.52    6.08
   5  -3  -1  299.91   20.02
   5  -3  -1  231.90   21.29
   5  -3  -1  258.45   25.27
   5  -3   0  101.80   14.83
   5  -3   0  103.26   15.69
   5  -3   1  162.36   20.30
   5  -3   1  149.48   18.42
   5  -3   2  429.42   32.30
   5  -3   3   11.60    5.73
  -5   3  -4  705.54   42.92
   5  -3   4  690.98   42.62
  -5   3  -5  277.58   26.33
  -5   3  -6  402.66   32.94
  -5   3  -7  377.80   33.48
  -5   3  -8  121.00   19.67
  -5   3  -9 1288.76   69.84
  -5   3 -10   45.06   13.54
  -5   3 -11  853.48   60.31
  -5   3 -12  242.06   32.44
  -5   3 -13   74.02   19.44
   5  -2  -9  -11.47   10.08
   5  -2  -8  260.69   32.43
   5  -2  -7  260.78   30.68
   5  -2  -6   79.31   16.27
   5  -2  -5   72.64   15.52
   5  -2  -4 1612.59   73.71
   5  -2  -4 1583.05   50.49
   5  -2  -3   27.55    8.75
   5  -2  -3   25.99    5.33
   5  -2  -2   50.46   11.90
   5  -2  -2   45.90    7.68
   5  -2  -2   42.27    5.41
   5  -2  -1 1122.96   49.70
   5  -2  -1 1186.02   56.03
   5  -2   0  621.05   37.85
   5  -2   1  123.01   15.54
   5  -2   2   15.74    6.34
  -5   2  -3  546.15   34.84
   5  -2   3  551.62   34.89
  -5   2  -4   10.15    5.86
  -5   2  -5 1147.09   55.41
  -5   2  -6 1593.10   70.38
  -5   2  -7  642.73   42.29
  -5   2  -8  250.27   26.32
  -5   2  -9   17.50    8.33
  -5   2 -10    1.07    5.21
  -5   2 -11  287.59   33.67
  -5   2 -12 1344.94   80.09
  -5   2 -13 1269.61   81.03
   5  -1 -10    5.38    7.46
   5  -1  -9   11.06    9.50
   5  -1  -8   17.48   10.38
   5  -1  -7  108.69   19.15
   5  -1  -6    2.01    5.42
   5  -1  -5  185.35   22.43
   5  -1  -4    2.80    1.17
   5  -1  -4    2.47    4.86
   5  -1  -3  120.48   16.52
   5  -1  -3  116.04    9.21
   5  -1  -2   24.83    5.06
   5  -1  -2   21.72    8.35
   5  -1  -1  305.50   25.59
   5  -1  -1  301.09   23.89
   5  -1   0  203.63   19.61
   5  -1   0  211.89   19.41
   5  -1   1    0.91    2.40
   5  -1   1   12.89    5.97
   5  -1   2  267.14   22.40
   5  -1   2  264.76   22.36
   5  -1   3   -2.97    3.38
  -5   1  -3    2.80    3.64
   5  -1   4   27.82    8.02
  -5   1  -4   29.34    7.56
  -5   1  -5  510.44   33.19
  -5   1  -6 1181.11   55.82
  -5   1  -7  914.95   49.57
  -5   1  -8   -2.27    5.51
  -5   1  -9   21.42    9.60
  -5   1 -10   22.99    8.92
  -5   1 -11  549.86   45.93
  -5   1 -12  675.40   53.69
  -5   1 -13  777.57   60.48
  -5   1 -14  802.50   64.32
   5   0 -10   84.97   19.73
   5   0  -9    0.23    6.53
   5   0  -8  357.47   36.03
   5   0  -7  258.01   29.27
   5   0  -6   59.74   13.81
   5   0  -5    1.94    5.02
   5   0  -4 1007.13   51.82
   5   0  -3   42.60    9.94
   5   0  -3   36.17    4.21
   5   0  -2  431.99   30.02
   5   0  -2  403.61   13.73
   5   0  -2  450.39   29.33
  -5   0   2  488.31   31.18
   5   0  -1  705.93   39.06
   5   0  -1  726.37   37.29
   5   0   0  313.40   23.53
   5   0   0  318.11   23.43
   5   0   1    5.78    3.39
   5   0   1   -1.72    4.31
   5   0   2   13.69    5.00
   5   0   2    3.48    3.99
  -5   0  -2    2.81    3.11
  -5   0  -3  870.63   42.02
   5   0   3  970.18   46.10
   5   0   4    3.13    3.40
  -5   0  -4   -0.02    3.36
  -5   0  -5  237.07   20.90
   5   0   5  280.11   24.90
  -5   0  -6  180.39   18.71
   5   0   6  194.56   21.28
  -5   0  -7    9.28    5.74
  -5   0  -8  355.17   30.32
  -5   0  -9    6.81    5.77
  -5   0 -10  551.41   42.17
  -5   0 -11  220.84   27.98
  -5   0 -12   -0.98    5.20
  -5   0 -13  154.09   25.68
  -5   0 -14    2.34    6.84
   5   1 -11    4.11    7.43
   5   1 -10  519.18   48.77
   5   1  -9   -8.05    6.72
   5   1  -8  102.61   19.15
   5   1  -7  418.46   37.05
   5   1  -6   -5.77    6.34
   5   1  -5  677.23   42.85
   5   1  -4   83.50   13.34
   5   1  -3   99.63   13.81
  -5  -1   3  112.67   14.34
   5   1  -3  109.22    6.97
   5   1  -2  266.44   22.41
   5   1  -2  286.51   12.41
   5   1  -2  282.23   21.96
  -5  -1   2  321.94   24.45
   5   1  -1 1051.87   47.55
   5   1  -1 1041.90   45.23
   5   1   0 1462.99   58.52
   5   1   0 1528.88   57.80
   5   1   1   19.90    5.58
   5   1   1   14.53    5.35
  -5  -1  -2 1356.60   52.80
   5   1   2 1470.62   57.38
   5   1   2 1373.38   55.37
  -5  -1  -3  100.85   12.34
   5   1   3  127.08   14.59
  -5  -1  -4   23.68    6.28
   5   1   4   33.03    8.30
  -5  -1  -5  332.75   24.01
   5   1   5  403.06   29.06
  -5  -1  -6  575.29   34.62
   5   1   6  635.63   39.67
  -5  -1  -7  138.73   17.11
  -5  -1  -8   19.06    8.29
  -5  -1  -9 2817.73  106.73
  -5  -1 -10   51.97   13.02
  -5  -1 -11   80.36   16.77
  -5  -1 -12   93.66   19.01
  -5  -1 -13  105.25   21.63
  -5  -1 -14  163.88   27.66
   5   2 -11    1.64    5.48
   5   2 -10   -1.61    6.77
   5   2  -9  352.79   37.51
   5   2  -8  536.19   43.13
   5   2  -7  139.63   20.18
   5   2  -6  105.31   16.74
   5   2  -5   -2.82    4.66
   5   2  -4  119.55   15.61
   5   2  -3    9.95    5.30
   5   2  -3    4.82    1.96
  -5  -2   3    5.26    3.18
   5   2  -2   88.17    7.60
   5   2  -2   95.13   12.28
  -5  -2   2   84.06   12.02
   5   2  -2   78.45   10.96
   5   2  -1   95.13    9.13
   5   2  -1  100.27   11.95
   5   2  -1   89.95   11.73
   5   2   0   -0.72    3.27
   5   2   0   11.91    4.52
   5   2   1   58.96    9.09
   5   2   1   43.02    8.10
   5   2   2   -2.16    3.42
  -5  -2  -2   -1.59    3.13
  -5  -2  -3  156.12   14.05
   5   2   3  157.33   15.70
  -5  -2  -4   84.93   10.59
   5   2   4   78.81   12.00
  -5  -2  -5    2.36    3.05
   5   2   5    7.25    4.34
  -5  -2  -6    6.85    4.04
   5   2   6   41.93    9.76
  -5  -2  -7    5.80    4.34
   5   2   7   11.86    6.61
  -5  -2  -8    5.66    4.75
  -5  -2  -9    5.68    5.52
  -5  -2 -10   -4.40    4.79
  -5  -2 -11   33.52   11.56
  -5  -2 -12    8.17    7.25
  -5  -2 -13   55.43   16.11
  -5  -2 -14    5.71    7.39
   5   3 -12   68.96   18.05
   5   3 -11  118.13   23.96
   5   3 -10   14.78    7.82
   5   3  -9  324.58   35.63
   5   3  -8 1028.87   62.09
   5   3  -7 1807.51   81.69
   5   3  -6   12.36    6.96
   5   3  -5  423.65   31.90
   5   3  -4  182.64   11.60
  -5  -3   4  176.92   18.26
   5   3  -3   27.60    6.86
   5   3  -3   34.05    5.20
  -5  -3   3   30.86    7.32
   5   3  -2  758.41   31.07
   5   3  -2  710.39   30.23
   5   3  -2  671.11   35.47
   5   3  -2  676.18   33.30
  -5  -3   2  764.53   38.29
   5   3  -1  772.90   32.94
   5   3  -1  787.33   37.46
   5   3  -1  761.17   34.69
   5   3   0  874.53   37.72
   5   3   0  863.90   38.93
   5   3   0  866.76   37.38
   5   3   1    4.57    2.66
   5   3   1    4.55    3.21
  -5  -3  -2 3175.07   92.24
   5   3   2 3169.49   97.33
  -5  -3  -3  251.49   16.97
   5   3   3  255.78   20.14
  -5  -3  -4   29.53    6.27
   5   3   4   32.09    7.66
  -5  -3  -5  460.31   27.08
   5   3   5  529.68   33.93
  -5  -3  -6  490.51   29.98
   5   3   6  515.25   35.49
  -5  -3  -7   57.61   10.77
   5   3   7   81.91   15.79
  -5  -3  -8   11.25    6.56
  -5  -3  -9 1266.68   63.13
  -5  -3 -10  124.24   19.30
  -5  -3 -11  135.26   21.65
  -5  -3 -12  414.22   39.67
  -5  -3 -13  178.80   27.15
  -5  -3 -14   69.68   19.40
   5   4 -12   13.98   10.28
   5   4 -12   17.34   11.84
   5   4 -11  476.81   48.18
   5   4 -11  452.20   47.21
   5   4 -10   86.77   19.87
   5   4  -9  301.43   34.19
   5   4  -8  380.44   36.51
  -5  -4   8  394.43   26.03
   5   4  -7  200.76   24.14
  -5  -4   7  230.11   18.73
   5   4  -6  479.84   36.10
  -5  -4   6  536.98   29.75
   5   4  -5   29.19    8.63
  -5  -4   5   25.05    7.28
  -5  -4   5   31.13    7.18
  -5  -4   4   76.51   11.93
   5   4  -4   93.20    9.97
   5   4  -4   83.70   12.88
   5   4  -3  112.35   11.24
  -5  -4   3  120.54   14.12
   5   4  -3   93.63   12.56
   5   4  -2  231.25   17.22
   5   4  -2  233.48   18.73
   5   4  -2  228.36   17.46
   5   4  -2  209.85   15.66
   5   4  -1  394.01   24.02
   5   4  -1  352.17   22.44
   5   4  -1  334.07   22.15
   5   4  -1  355.85   20.51
   5   4   0   60.88    7.83
   5   4   0   63.22    8.92
   5   4   0   55.32    8.71
   5   4   0   64.87    9.21
   5   4   1   10.06    3.79
   5   4   1    3.87    3.14
   5   4   1    5.00    3.66
   5   4   2   30.76    6.45
   5   4   2   25.34    6.67
  -5  -4  -2   26.05    4.90
  -5  -4  -3  209.54   14.39
   5   4   3  222.68   18.09
  -5  -4  -4   13.78    4.13
   5   4   4   23.00    6.57
   5   4   5   81.87   13.18
  -5  -4  -5   96.95   11.16
  -5  -4  -6  218.72   18.92
   5   4   6  246.22   24.74
  -5  -4  -7   46.99   10.01
   5   4   7   39.87   10.34
  -5  -4  -8  402.01   30.34
   5   4   8  391.51   38.15
  -5  -4  -9   17.40    7.87
  -5  -4 -10  160.75   21.68
  -5  -4 -11   89.15   17.68
  -5  -4 -12  182.49   26.24
  -5  -4 -13  135.98   24.12
  -5  -4 -14   -5.29    6.49
   5   5 -12 1739.36  100.30
   5   5 -11  199.32   29.85
   5   5 -11  198.77   30.85
   5   5 -10 1075.47   69.70
   5   5 -10 1035.90   69.92
   5   5  -9    6.21    5.03
   5   5  -9   13.73    8.12
   5   5  -8    7.94    5.69
   5   5  -8   12.25    6.18
  -5  -5   8    8.35    4.24
   5   5  -7    1.40    5.27
  -5  -5   7   14.69    5.47
   5   5  -6   29.19    8.32
  -5  -5   6   35.10    8.03
   5   5  -5 3807.89  124.31
  -5  -5   5 3851.47  119.70
  -5  -5   5 3688.60  119.75
   5   5  -4  563.01   34.52
   5   5  -4  626.75   32.24
  -5  -5   4  625.32   35.95
  -5  -5   4  560.12   32.88
   5   5  -3  615.26   33.40
   5   5  -3  579.76   31.24
   5   5  -3  546.67   27.02
   5   5  -2   13.13    5.70
   5   5  -2   13.71    5.01
   5   5  -2   10.44    3.43
   5   5  -2    9.59    4.33
   5   5  -1   49.09    6.70
   5   5  -1   44.82    7.66
   5   5  -1   42.11    8.46
   5   5  -1   48.04    9.11
   5   5   0   16.33    3.66
   5   5   0   13.40    5.22
   5   5   0   24.38    6.62
   5   5   0   14.10    4.41
   5   5   1   53.02    7.00
   5   5   1   44.28    9.33
   5   5   1   45.58    9.52
   5   5   1   49.31    7.73
   5   5   2 2410.98   87.08
   5   5   2 2353.40   75.35
   5   5   2 2439.71   75.30
   5   5   3  244.78   22.52
  -5  -5  -3  272.86   15.47
   5   5   3  279.51   20.08
  -5  -5  -4    6.26    3.26
   5   5   4    2.16    2.62
  -5  -5  -5  471.37   25.50
   5   5   5  485.10   33.55
  -5  -5  -6   74.96   10.36
   5   5   6   72.29   13.54
  -5  -5  -7   67.56   11.18
  -5  -5  -8   34.41    9.09
  -5  -5  -9  521.91   37.55
  -5  -5 -10   13.31    7.87
  -5  -5 -11   76.74   15.92
  -5  -5 -12  219.22   28.88
  -5  -5 -13    0.81    6.33
  -5  -5 -14    3.38    6.30
   5   6 -10  256.03   33.40
   5   6  -9  414.35   37.90
   5   6  -9  361.39   37.21
   5   6  -8   32.11   10.66
   5   6  -8   27.30    9.13
  -5  -6   8   17.91    7.11
   5   6  -7   35.29   10.97
   5   6  -7   26.56    8.87
  -5  -6   7   27.65    9.03
   5   6  -6 1038.86   55.83
  -5  -6   6 1026.37   53.67
  -5  -6   6  929.42   47.76
   5   6  -6 1078.13   54.29
   5   6  -5  120.79   16.33
   5   6  -5  101.72   14.33
  -5  -6   5   98.13   13.17
  -5  -6   5  110.67   15.89
   5   6  -4 2269.25   80.36
   5   6  -4 2201.84   79.61
  -5  -6   4 2051.34   82.58
   5   6  -4 2181.89   76.69
   5   6  -3  292.68   21.64
   5   6  -3  274.75   22.99
  -5  -6   3  275.95   25.30
   5   6  -3  250.29   15.24
   5   6  -2   64.61   10.96
   5   6  -2   60.29   11.27
   5   6  -2   77.17   10.25
   5   6  -1  132.86   12.22
   5   6  -1  136.14   16.78
   5   6  -1  142.34   16.87
   5   6  -1  139.06    8.61
   5   6   0   22.48    6.87
   5   6   0   22.40    5.12
   5   6   0   12.57    5.45
   5   6   1 1242.97   59.10
   5   6   1 1360.66   47.06
   5   6   2  297.70   26.34
   5   6   2  332.52   19.51
   5   6   3 1011.73   54.59
  -5  -6  -3 1192.52   37.39
  -5  -6  -4   -0.62    2.06
   5   6   4    0.37    4.47
  -5  -6  -5  196.91   14.99
  -5  -6  -6  470.89   26.92
  -5  -6  -7    5.43    3.72
   5   6   7    7.10    5.29
  -5  -6  -8  889.18   47.42
  -5  -6  -9   93.94   15.44
  -5  -6 -10  168.68   22.19
  -5  -6 -11  108.03   19.11
  -5  -6 -12  157.63   24.98
  -5  -6 -13  179.72   28.05
  -5  -6 -14    4.54    6.46
  -5  -7   8  341.04   32.77
  -5  -7   7 1291.78   68.17
   5   7  -7 1367.71   68.85
  -5  -7   6   13.56    7.66
   5   7  -6   12.38    7.31
  -5  -7   5  198.54   23.18
   5   7  -5  186.22   20.49
   5   7  -4   26.53    6.63
   5   7  -4   18.72    4.23
   5   7  -4   13.99    7.00
  -5  -7   4   16.83    7.26
   5   7  -3 1008.83   43.13
   5   7  -3  852.27   47.26
  -5  -7   3  868.17   51.26
   5   7  -2 1853.79   61.10
   5   7  -2 1642.68   71.71
  -5  -7   2 1614.41   76.04
   5   7  -1  304.97   18.18
   5   7  -1  268.20   25.42
   5   7   0 1644.81   50.91
   5   7   0 1357.33   66.07
   5   7   1   16.75    7.82
   5   7   1   11.68    2.96
   5   7   2  143.14   19.41
   5   7   2  133.65   11.18
   5   7   3   25.44    9.11
   5   7   4  443.23   36.53
  -5  -7  -4  504.10   20.66
   5   7   5  360.48   33.49
  -5  -7  -5  422.27   21.38
   5   7   5  398.75   31.63
  -5  -7  -6   35.32    6.61
   5   7   6   29.84    9.93
   5   7   6   19.96    7.82
   5   7   7  137.76   21.59
  -5  -7  -7  169.98   16.81
   5   7   7  146.28   21.22
  -5  -7  -8   11.97    6.38
   5   7   8   -1.83    6.77
  -5  -7  -9   -2.97    4.75
  -5  -7 -10   29.70    9.98
  -5  -7 -11   24.79    9.02
  -5  -7 -12    7.12    4.51
  -5  -7 -13   -2.24    6.33
  -5  -7 -14   13.96    9.16
  -5  -8   8 1610.00   84.07
  -5  -8   7   78.19   16.54
  -5  -8   6  270.24   30.91
  -5  -8   5   36.61   11.63
   5   8  -4    9.41    5.44
  -5  -8   4   11.42    6.97
   5   8  -3  425.33   34.62
  -5  -8   3  476.62   38.82
   5   8  -2  779.08   48.72
  -5  -8   2  916.07   55.94
   5   8  -1 2299.06   65.08
   5   8  -1 2762.74  100.22
   5   8   0    0.26    0.94
   5   8   0    0.79    4.30
   5   8   1   16.10    8.40
   5   8   1    7.30    2.85
   5   8   1    8.67    2.17
   5   8   2    3.51    7.38
   5   8   2    6.40    2.33
   5   8   2    4.00    2.23
   5   8   3    5.75    7.07
   5   8   3    4.73    2.40
   5   8   3    5.98    3.80
   5   8   4  686.77   46.52
  -5  -8  -4  413.22   13.67
   5   8   5  408.21   37.08
  -5  -8  -5  349.46   17.32
   5   8   6 1501.15   77.41
  -5  -8  -6 1345.33   49.47
  -5  -8  -7    0.24    2.54
   5   8   7    3.08    5.25
   5   8   8  115.00   21.11
  -5  -8  -8  195.65   19.78
  -5  -8  -9   49.17   11.11
   5   8   9   34.62   11.99
  -5  -8 -10    2.25    4.29
   5   8  10    6.32    7.95
   5   8  11  147.64   26.21
  -5  -8 -11  225.58   27.77
  -5  -8 -12  147.04   23.64
  -5  -9   8   52.61   15.76
  -5  -9   7  400.95   41.15
  -5  -9   6   14.18    8.20
  -5  -9   5  585.45   48.23
   5   9  -4  249.87   29.40
  -5  -9   4  244.93   30.18
   5   9  -3  132.67   20.33
  -5  -9   3  139.76   22.75
   5   9  -2  812.37   52.69
  -5  -9   2  839.89   57.68
   5   9  -1  106.46   18.50
   5   9   0 1150.18   64.93
   5   9   1    4.24    6.18
   5   9   2  367.77   35.74
   5   9   3  369.97   36.72
   5   9   4  193.14   26.50
   5   9   5  827.94   57.47
   5   9   6   79.70   17.79
   5   9   7  227.91   30.08
   5   9   8   -7.32    8.00
   5   9   9   22.50   10.23
  -5 -10   6  709.88   58.25
  -5 -10   5  250.72   33.50
  -5 -10   4  729.02   57.67
   5  10  -3  143.36   24.09
  -5 -10   3  129.08   23.81
   5  10  -2   -1.39    5.41
  -5 -10   2    3.86    5.58
   5  10  -1    5.03    5.21
   5  10   0    5.72    7.66
   5  10   1 1603.20   85.68
   5  10   2  758.64   55.97
   5  10   3  425.94   41.40
   5  10   4  169.24   26.22
   5  10   5   19.05    9.25
   5  10   6   24.19   10.16
   5  10   7    6.82    8.39
   5  11  -2   25.68    9.87
   5  11  -1    6.86    8.47
   5  11   0  290.99   35.70
   5  11   1  192.36   29.13
   6  -7  -3   11.52    7.86
   6  -7  -2    5.80    8.79
   6  -7  -1  146.61   24.04
   6  -7   0   64.23   15.45
   6  -7   1  405.11   39.32
   6  -7   2   -4.17    4.53
   6  -7   2   -1.32    4.86
   6  -7   3   68.36   15.58
   6  -7   3   73.15   16.94
   6  -7   4    6.05    7.00
   6  -7   4   19.83    9.31
   6  -7   5    1.35    5.51
   6  -7   5   -0.02    5.22
   6  -6  -4   -0.87    4.95
   6  -6  -3   18.06    9.86
   6  -6  -2   26.65   11.26
   6  -6  -1  283.09   32.98
   6  -6   0  908.57   60.67
   6  -6   0  941.16   53.66
   6  -6   1   19.21    9.35
   6  -6   2   52.31   13.20
   6  -6   2   55.67   14.19
   6  -6   3    1.65    4.71
   6  -6   3    0.06    4.30
   6  -6   4  137.10   22.01
   6  -6   5   20.16    9.56
   6  -6   6   47.58   13.39
   6  -6   7  358.50   36.79
   6  -6   8   -5.61    6.95
  -6   6  -8   -1.92    5.76
   6  -6   9   22.15   10.43
   6  -5  -5    7.31    8.79
   6  -5  -4  911.75   64.43
   6  -5  -3  319.86   35.34
   6  -5  -2  505.52   43.43
   6  -5  -1  151.84   22.82
   6  -5   0   -0.97    5.01
   6  -5   0   -1.88    4.13
   6  -5   1  157.09   20.65
   6  -5   1  164.66   22.57
   6  -5   2   51.85   13.97
   6  -5   3  510.66   40.46
   6  -5   4  109.15   18.97
   6  -5   5   58.50   14.01
  -6   5  -6   -2.46    5.80
   6  -5   6   -2.96    6.02
   6  -5   7   11.81    7.05
  -6   5  -7   13.70    9.28
  -6   5  -8    8.65    6.37
  -6   5  -9    0.81    4.57
   6  -4  -6   37.52   13.07
   6  -4  -5  983.85   66.10
   6  -4  -4  235.35   30.13
   6  -4  -3 2209.52   99.89
   6  -4  -2  911.23   56.48
   6  -4  -1  136.48   20.61
   6  -4  -1  162.48   16.28
   6  -4   0    3.66    5.18
   6  -4   0   10.60    4.95
   6  -4   1    5.09    5.65
   6  -4   2 1141.05   62.04
   6  -4   3  532.03   40.40
   6  -4   4 1229.43   65.38
  -6   4  -5  321.91   32.51
   6  -4   5  329.94   31.90
   6  -4   6   -1.39    6.10
  -6   4  -6    3.56    5.41
  -6   4  -7  134.87   21.11
  -6   4  -8   31.79   11.10
  -6   4  -9  461.36   42.67
  -6   4 -10  265.84   33.51
  -6   4 -11  265.80   34.68
   6  -3  -7  110.47   22.51
   6  -3  -6  842.21   60.77
   6  -3  -5   -0.96    5.74
   6  -3  -4  906.24   58.48
   6  -3  -3  401.29   35.65
   6  -3  -2  396.99   34.52
   6  -3  -2  356.16   26.24
   6  -3  -2  306.70   18.37
   6  -3  -1  698.95   41.06
   6  -3  -1  761.47   48.49
   6  -3   0   49.10   11.24
   6  -3   0   45.48   11.79
   6  -3   1 1111.51   59.30
   6  -3   2   79.76   14.26
   6  -3   3 1064.53   57.92
   6  -3   4  552.12   39.72
   6  -3   5  152.68   20.96
  -6   3  -5  154.46   21.10
  -6   3  -6  169.26   22.37
  -6   3  -7    5.66    4.18
  -6   3  -8  175.63   24.40
  -6   3  -9   38.32   12.16
  -6   3 -10  222.28   29.26
  -6   3 -11  187.76   27.96
   6  -2  -8  183.10   29.00
   6  -2  -7 2423.95  114.01
   6  -2  -6    6.49    7.34
   6  -2  -5  646.53   48.33
   6  -2  -4   22.09    9.91
   6  -2  -3    7.30    5.86
   6  -2  -3   17.16    4.53
   6  -2  -2  534.75   30.54
   6  -2  -2  534.31   39.24
   6  -2  -2  550.48   22.19
   6  -2  -1  624.44   37.00
   6  -2  -1  666.36   43.44
   6  -2   0 4956.54  158.33
   6  -2   1    5.79    5.72
   6  -2   2  615.35   41.43
   6  -2   3    9.63    6.53
   6  -2   4   31.07    9.25
  -6   2  -4   41.46   10.67
  -6   2  -5 1403.68   66.40
  -6   2  -6  301.71   28.53
  -6   2  -7 2840.79  109.56
  -6   2  -8   37.91   11.98
  -6   2  -9   22.36    9.29
  -6   2 -10   33.29   11.87
  -6   2 -11   26.39   10.88
  -6   2 -12  400.74   41.99
   6  -1  -8  412.43   42.37
   6  -1  -7   11.10    8.17
   6  -1  -6 1071.59   65.24
   6  -1  -5   12.23    8.08
   6  -1  -4   99.16    6.76
   6  -1  -4  122.60   19.41
   6  -1  -3   51.15   11.96
   6  -1  -3   57.14    7.11
   6  -1  -2  382.91   31.58
   6  -1  -2  387.53   23.78
   6  -1  -1 2828.85  104.13
   6  -1   0   20.77    8.20
   6  -1   1 2782.80  100.98
   6  -1   2   74.14   13.44
  -6   1  -3  158.67   18.86
   6  -1   3  166.68   19.52
  -6   1  -4  235.98   22.60
  -6   1  -5  365.12   29.72
  -6   1  -6 3296.04  115.47
  -6   1  -7   15.43    7.46
  -6   1  -8 1140.88   61.13
  -6   1  -9   38.19   11.92
  -6   1 -10   65.67   15.34
  -6   1 -11  175.04   25.74
  -6   1 -12   41.49   13.20
  -6   1 -13 1509.71   89.00
   6   0  -9  203.78   30.59
   6   0  -8   -8.26    5.23
   6   0  -7  189.22   26.46
   6   0  -6   10.97    9.18
   6   0  -5  503.65   39.60
   6   0  -4  746.01   47.28
   6   0  -3  975.34   54.42
   6   0  -3 1075.90   35.50
   6   0  -2  665.88   40.40
   6   0  -2  574.86   17.91
   6   0  -1   11.96    6.29
   6   0   0   94.35   14.25
   6   0   1   39.32    9.35
   6   0   2 2178.87   81.83
  -6   0  -3 1663.40   67.12
   6   0   3 1649.22   68.83
  -6   0  -4 1022.09   49.59
  -6   0  -5 1227.83   56.55
  -6   0  -6    0.92    4.22
  -6   0  -7  678.08   42.55
  -6   0  -8  196.79   22.57
  -6   0  -9 1487.63   73.42
  -6   0 -10  910.18   57.29
  -6   0 -11  369.65   37.15
  -6   0 -12  385.98   40.17
  -6   0 -13   29.62   13.34
   6   1  -9    8.64    9.21
   6   1  -8  137.98   22.84
   6   1  -7    8.49    7.58
   6   1  -6   56.77   13.89
   6   1  -5   71.36   14.73
   6   1  -4 1184.46   60.12
   6   1  -3 1466.08   66.61
   6   1  -2  132.09    7.99
   6   1  -2  125.39   16.53
   6   1  -1   80.96   13.36
   6   1  -1   81.24   12.24
   6   1   0   13.58    5.98
   6   1   0    5.32    4.12
   6   1   1  387.66   28.68
   6   1   1  424.33   29.23
   6   1   2 1143.07   52.74
   6   1   2  977.28   48.22
  -6  -1  -3 3531.44  114.81
   6   1   3 4005.75  123.91
  -6  -1  -4 2764.07   96.10
   6   1   4 3131.93  105.05
  -6  -1  -5   76.72   12.20
  -6  -1  -6    4.30    4.24
  -6  -1  -7   35.85    9.11
  -6  -1  -8 1103.46   57.49
  -6  -1  -9 1264.87   64.87
  -6  -1 -10 1572.01   77.55
  -6  -1 -11 1560.25   80.82
  -6  -1 -12   17.06    8.35
  -6  -1 -13   11.55    8.36
   6   2 -10    3.39    6.95
   6   2  -9    7.32    6.49
   6   2  -8    5.11    5.25
   6   2  -7  178.46   25.05
   6   2  -6   22.18   11.29
   6   2  -5   -0.49    5.20
   6   2  -4   -1.59    5.51
   6   2  -3   27.78    8.73
   6   2  -3   25.88    4.17
   6   2  -2  131.95    9.86
   6   2  -2  134.36   16.74
   6   2  -2  110.63   14.22
   6   2  -1   15.66    6.48
   6   2  -1    6.13    3.04
   6   2  -1    8.30    4.65
   6   2   0  682.45   38.49
   6   2   0  776.81   39.74
   6   2   1  106.47   13.65
   6   2   1  102.78   13.99
   6   2   2  472.18   30.62
   6   2   2  420.75   28.60
  -6  -2  -3  521.18   30.17
   6   2   3  580.61   35.45
  -6  -2  -4  286.19   21.79
   6   2   4  328.83   26.63
  -6  -2  -5  950.72   45.85
   6   2   5 1086.93   53.91
  -6  -2  -6   -4.69    4.29
  -6  -2  -7  801.28   43.99
  -6  -2  -8  402.53   31.73
  -6  -2  -9  874.39   51.52
  -6  -2 -10 1089.50   61.38
  -6  -2 -11  194.23   25.60
  -6  -2 -12  501.58   44.12
  -6  -2 -13   41.82   12.79
  -6  -2 -14  294.26   36.34
   6   3 -10  394.63   43.16
   6   3  -9    7.42    5.29
   6   3  -8  538.88   45.32
   6   3  -7   55.75   13.79
   6   3  -6  190.92   23.66
   6   3  -5  155.51   20.65
   6   3  -4  709.70   43.81
   6   3  -4  804.55   28.42
   6   3  -3  572.52   36.65
   6   3  -3  689.01   27.69
   6   3  -3  619.79   35.70
   6   3  -2    8.40    4.18
   6   3  -2   15.35    4.05
   6   3  -2   13.98    3.99
   6   3  -2   11.93    4.17
   6   3  -1 1927.51   63.85
   6   3  -1 1869.01   72.72
   6   3  -1 1962.87   70.30
   6   3   0   57.28    9.50
   6   3   0   48.84    9.50
   6   3   0   47.71    8.01
   6   3   1  190.50   16.98
   6   3   1  176.98   17.45
   6   3   1  178.96   17.32
   6   3   2   41.89    8.65
   6   3   2   45.14    8.88
  -6  -3  -3  292.03   20.62
   6   3   3  289.45   23.37
   6   3   4   27.38    7.25
  -6  -3  -4   20.39    6.11
  -6  -3  -5   97.84   12.82
   6   3   5  110.84   15.73
  -6  -3  -6 4130.96  127.86
   6   3   6 4387.75  143.57
  -6  -3  -7  235.84   22.06
  -6  -3  -8  396.81   30.90
  -6  -3  -9   52.74   12.14
  -6  -3 -10   15.10    6.87
  -6  -3 -11  637.87   47.10
  -6  -3 -12   37.50   12.34
  -6  -3 -13 2276.02  107.90
  -6  -3 -14  215.60   31.63
   6   4 -10   12.67    8.34
   6   4  -9    8.36    8.88
   6   4  -8   -2.51    6.11
   6   4  -7   36.01   11.78
   6   4  -6   -1.35    5.80
   6   4  -5   18.51    8.34
   6   4  -4  120.08   10.90
   6   4  -4   87.19   14.20
   6   4  -3   36.22    6.71
   6   4  -3   21.43    6.15
   6   4  -3   35.06    9.22
   6   4  -2   22.38    7.41
   6   4  -2   23.61    5.46
   6   4  -2   21.65    5.54
   6   4  -2   34.28    7.30
   6   4  -1   32.86    6.99
   6   4  -1   43.90    8.57
   6   4  -1   22.84    6.35
   6   4  -1   35.79    7.15
   6   4   0  771.43   37.50
   6   4   0  694.56   36.95
   6   4   0  717.69   35.44
   6   4   1    5.20    3.44
   6   4   1    8.44    4.91
   6   4   1    8.08    4.20
   6   4   2   -0.38    2.28
   6   4   2    4.25    3.40
   6   4   2    4.35    3.07
  -6  -4  -3  107.94   11.54
   6   4   3  103.77   13.50
   6   4   4    2.30    2.84
  -6  -4  -4    4.79    3.18
  -6  -4  -5  910.44   41.50
   6   4   5 1006.14   52.05
  -6  -4  -6    5.51    3.24
   6   4   6    9.87    6.73
  -6  -4  -7 1299.88   57.30
   6   4   7 1384.04   71.42
  -6  -4  -8   53.67   10.57
  -6  -4  -9   -6.33    6.25
  -6  -4 -10   31.57   10.33
  -6  -4 -11    1.43    6.08
  -6  -4 -12 1436.17   78.73
  -6  -4 -13   60.93   16.58
  -6  -4 -14  686.15   56.73
   6   5 -11  227.61   34.11
   6   5 -10  485.05   46.30
   6   5 -10  469.51   47.20
   6   5  -9    5.52    6.42
   6   5  -8  414.49   40.61
   6   5  -7   80.62   16.36
   6   5  -6   60.68   13.14
   6   5  -5   75.51   14.04
   6   5  -4  226.70   22.51
   6   5  -4  210.26   17.14
   6   5  -4  164.15   16.31
   6   5  -3  172.86   18.14
   6   5  -3  152.58   15.09
   6   5  -3  149.44   14.72
   6   5  -2   16.14    5.29
   6   5  -2   28.59    7.01
   6   5  -2   20.65    5.87
   6   5  -2   28.34    6.04
   6   5  -1 1404.39   57.69
   6   5  -1 1434.04   58.28
   6   5  -1 1384.70   56.39
   6   5  -1 1416.78   52.91
   6   5   0  126.60   15.50
   6   5   0  122.39   14.88
   6   5   0  122.14   13.94
   6   5   0  140.18   13.43
   6   5   1   42.64    7.48
   6   5   1   23.04    7.58
   6   5   1   43.82    8.21
   6   5   1   44.97    9.04
   6   5   2  255.16   23.58
   6   5   2  271.84   20.61
   6   5   2  303.95   21.57
  -6  -5  -3  217.96   15.68
   6   5   3  199.57   18.70
  -6  -5  -4  205.73   15.59
   6   5   4  180.70   19.16
  -6  -5  -5   51.01    8.42
   6   5   5   59.25   12.36
  -6  -5  -6  209.69   17.98
   6   5   6  200.53   24.31
  -6  -5  -7   -3.36    3.72
   6   5   7   -0.43    4.07
  -6  -5  -8  321.16   26.58
  -6  -5  -9  592.34   39.47
  -6  -5 -10  174.98   22.32
  -6  -5 -11  395.12   36.08
  -6  -5 -12   37.55   11.68
  -6  -5 -13   42.62   14.60
  -6  -5 -14   68.37   18.07
   6   6 -10  100.11   20.43
   6   6  -9   15.25    9.17
   6   6  -8   25.95   10.78
   6   6  -7  324.36   33.08
  -6  -6   7  278.78   26.95
   6   6  -7  334.04   31.33
   6   6  -6   -4.26    5.13
   6   6  -5   87.53   15.34
   6   6  -4  631.62   38.87
   6   6  -4  628.82   35.71
   6   6  -3   48.43    9.96
   6   6  -3   52.25   10.24
   6   6  -3   49.95    7.49
   6   6  -2  171.59   16.81
   6   6  -2  161.11   18.40
   6   6  -2  155.95   17.17
   6   6  -2  178.06   14.07
   6   6  -1   25.99    5.40
   6   6  -1   27.81    5.83
   6   6  -1   27.85    7.71
   6   6   0  475.49   32.95
   6   6   0  510.70   28.78
   6   6   0  514.13   24.87
   6   6   1   -3.37    3.75
   6   6   1    0.22    2.81
   6   6   1    3.25    3.93
   6   6   2  537.25   28.95
   6   6   2  528.44   27.59
   6   6   3  745.08   36.31
   6   6   3  830.27   39.60
   6   6   4   61.79   10.66
  -6  -6  -4   58.04    7.71
  -6  -6  -5  383.17   22.50
   6   6   5  405.57   31.31
  -6  -6  -6   43.19    7.83
  -6  -6  -7  127.10   14.69
  -6  -6  -8  159.98   18.02
  -6  -6  -9  690.78   42.40
  -6  -6 -10  943.19   54.65
  -6  -6 -11    8.37    6.60
  -6  -6 -12   61.30   14.91
  -6  -6 -13    7.56    5.24
  -6  -6 -14   33.00   12.76
  -6  -7   7   52.55   12.60
   6   7  -6    5.57    5.41
   6   7  -5   12.39    5.84
   6   7  -4   15.66    6.52
   6   7  -4    8.95    4.89
   6   7  -3   31.35    7.81
   6   7  -3   24.87    7.48
   6   7  -2   44.10   10.29
   6   7  -2   48.58    8.68
   6   7  -1   43.73   10.67
   6   7  -1   57.11    8.95
   6   7   0   16.25    5.13
   6   7   0    7.37    4.55
   6   7   1  126.26   18.09
   6   7   1  157.30   14.21
   6   7   2   23.32    8.67
   6   7   2   31.01    6.13
   6   7   3    5.49    3.58
   6   7   3    0.12    4.73
   6   7   4   31.27    9.94
  -6  -7  -4   53.35    6.32
  -6  -7  -5   19.32    4.41
   6   7   5   20.28    8.61
  -6  -7  -6    4.89    3.06
   6   7   6   -7.56    6.04
  -6  -7  -7   45.41    8.28
  -6  -7  -8    4.06    4.54
  -6  -7  -9   21.75    8.09
  -6  -7 -10   24.70    9.45
  -6  -7 -11   10.22    8.02
  -6  -7 -12   -7.00    7.69
  -6  -7 -13   40.76   13.54
  -6  -7 -14  119.34   24.17
  -6  -8   7  879.09   58.18
  -6  -8   6   51.86   13.51
  -6  -8   5   18.88    7.40
   6   8  -4  393.09   33.47
   6   8  -3   11.33    6.60
   6   8  -2  407.71   33.65
   6   8  -1   77.38   14.27
   6   8   0  556.36   26.56
   6   8   0  522.05   39.31
   6   8   1   52.34    7.08
   6   8   1   47.17   12.25
   6   8   2  241.48   27.03
   6   8   2  274.05   17.34
   6   8   3  759.48   51.63
   6   8   3  952.16   38.21
   6   8   4    3.63    6.84
   6   8   5  419.93   37.97
   6   8   6    9.78    6.69
   6   8   7   78.31   16.97
  -6  -8  -7  107.25   12.40
  -6  -8  -8   64.97   10.70
   6   8   8   51.36   13.54
   6   8   9  160.16   25.55
  -6  -8  -9  219.02   21.85
   6   8  10  123.32   23.27
  -6  -9   7   21.99   10.16
  -6  -9   6  286.28   34.19
  -6  -9   5   43.46   13.48
   6   9  -4   12.01    6.97
   6   9  -3   44.10   11.77
   6   9  -2   24.11   10.02
   6   9  -1  177.16   23.86
   6   9   0    1.89    5.09
   6   9   1   41.64   11.73
   6   9   2   44.72   13.32
   6   9   3   12.12    8.21
   6   9   4   -4.55    8.26
   6   9   5   21.67    9.90
   6   9   6  120.89   21.22
   6   9   7   26.27   12.58
   6   9   8    7.03    7.90
  -6 -10   6   97.70   21.16
  -6 -10   5  436.76   45.67
   6  10  -4  984.47   65.25
   6  10  -3   -7.03    6.56
   6  10  -2    8.16    7.09
   6  10  -1   16.25    6.31
   6  10   0    4.07    5.30
   6  10   1   56.56   14.10
   6  10   2  204.86   28.21
   6  10   3  325.44   36.09
   6  10   4    9.58    7.95
   6  10   5  183.72   27.68
   6  10   6   61.24   16.27
   7  -6  -1   13.60   10.22
   7  -6   0   50.21   15.23
   7  -6   1  176.34   27.20
   7  -6   2   37.59   12.95
   7  -6   3   52.43   14.67
   7  -6   3   34.97   11.81
   7  -6   4  199.92   28.55
   7  -6   5   12.54    5.72
   7  -6   6   48.01   15.19
   7  -6   7   15.25    9.57
   7  -6   8  235.17   31.76
   7  -5  -2   45.85   14.62
   7  -5  -1    2.29    5.00
   7  -5   0   17.99    8.56
   7  -5   1   23.67   11.42
   7  -5   2   40.20   11.43
   7  -5   2   39.36   12.46
   7  -5   3    7.20    5.50
   7  -5   4    2.33    4.95
   7  -5   5   10.20    7.54
   7  -5   6   -1.45    4.78
   7  -5   7    5.79    6.85
   7  -5   8   11.91    8.26
   7  -5   9   -3.67    6.41
   7  -4  -4   77.82   18.75
   7  -4  -3  696.03   54.83
   7  -4  -2   17.75    7.69
   7  -4  -1   26.37   11.39
   7  -4   0   37.53   12.60
   7  -4   1  583.95   39.66
   7  -4   1  541.02   44.95
   7  -4   2    8.20    7.49
   7  -4   3   50.97   13.12
   7  -4   4  409.40   38.08
   7  -4   5    8.61    6.53
   7  -4   6  211.95   27.43
   7  -4   7   33.97   11.12
  -7   4  -7   55.88   15.80
  -7   4  -8  278.12   34.29
   7  -3  -5  146.08   25.33
   7  -3  -4  145.88   24.26
   7  -3  -3   18.58    8.49
   7  -3  -2   79.68   17.81
   7  -3  -1    3.62    5.46
   7  -3   0   18.57    5.59
   7  -3   0   21.15    8.76
   7  -3   1   16.64    6.79
   7  -3   2    9.84    7.51
   7  -3   3   20.70    8.23
   7  -3   4   -8.00    6.23
   7  -3   5   11.27    7.75
   7  -3   6   -0.41    5.33
  -7   3  -6   -2.13    5.46
  -7   3  -7  192.98   26.21
  -7   3  -8   68.44   15.54
  -7   3  -9    3.52    4.52
  -7   3 -10  130.61   24.08
   7  -2  -6 1467.54   86.54
   7  -2  -5  315.58   36.47
   7  -2  -4   23.85   10.08
   7  -2  -3  166.28   23.69
   7  -2  -2   -5.51    5.01
   7  -2  -1  272.17   18.06
   7  -2  -1  400.80   35.44
   7  -2   0  188.91   22.46
   7  -2   0  175.01   22.92
   7  -2   1  644.35   44.80
   7  -2   2   18.94    8.34
   7  -2   3   69.30   13.83
   7  -2   4  474.82   37.53
   7  -2   5    5.97    6.83
  -7   2  -5    0.40    4.92
  -7   2  -6   80.39   15.24
  -7   2  -7   51.35   12.93
  -7   2  -8   54.13   13.78
  -7   2  -9   85.02   17.33
  -7   2 -10   97.56   20.70
  -7   2 -11  214.18   30.77
   7  -1  -7 1217.73   77.74
   7  -1  -6  421.01   42.58
   7  -1  -5  394.83   39.13
   7  -1  -4   78.58   16.70
   7  -1  -3   31.22   10.92
   7  -1  -2  102.32   18.12
   7  -1  -1   58.89   12.57
   7  -1   0 1380.75   68.18
   7  -1   1  530.84   39.09
   7  -1   2   35.07    9.72
   7  -1   3  155.73   19.92
   7  -1   4   26.51    8.88
  -7   1  -4   27.76    9.50
  -7   1  -5   34.34    9.67
  -7   1  -6   42.37   11.28
  -7   1  -7  525.65   39.82
  -7   1  -8   61.13   14.61
  -7   1  -9   30.18   10.45
  -7   1 -10  472.00   42.02
  -7   1 -11    5.53    6.17
  -7   1 -12   14.63    6.65
   7   0  -7    4.27    8.94
   7   0  -6  137.52   23.26
   7   0  -5  251.29   30.01
   7   0  -4  439.40   38.00
   7   0  -3 1933.71   86.57
   7   0  -2    3.52    5.36
   7   0  -1  494.38   37.62
   7   0   0   -6.01    5.74
   7   0   1   44.12   10.64
   7   0   2  376.99   31.33
   7   0   3   95.26   15.44
  -7   0  -4  639.64   40.67
   7   0   4  655.17   42.45
  -7   0  -5    8.84    6.55
  -7   0  -6    0.32    4.70
  -7   0  -7    7.20    5.56
  -7   0  -8    6.16    5.05
  -7   0  -9    5.92    4.74
  -7   0 -10    3.92    5.81
  -7   0 -11   -5.04    6.75
  -7   0 -12    4.48    7.26
   7   1  -8    7.59    7.90
   7   1  -7   84.49   19.73
   7   1  -6   -1.73    5.09
   7   1  -5  341.50   34.17
   7   1  -4 3060.28  117.36
   7   1  -3  132.19   19.67
   7   1  -2 2441.97   63.80
   7   1  -2 2579.53   98.68
   7   1  -1   16.16    7.78
   7   1  -1   13.61    3.26
   7   1   0    7.41    6.63
   7   1   1   50.97   10.28
   7   1   2  472.90   33.94
   7   1   3 3147.26  110.35
  -7  -1  -4   18.17    6.93
  -7  -1  -5  592.21   37.94
  -7  -1  -6    7.04    3.46
  -7  -1  -7  342.61   29.66
  -7  -1  -8    0.98    4.02
  -7  -1  -9   94.97   16.47
  -7  -1 -10 1039.70   61.80
  -7  -1 -11   16.15    8.82
  -7  -1 -12   12.27    9.19
  -7  -1 -13   65.00   18.02
   7   2  -8  687.13   55.59
   7   2  -7  147.06   24.27
   7   2  -6  727.55   52.58
   7   2  -5  649.78   46.96
   7   2  -4  139.95   20.14
   7   2  -3 1053.18   35.34
   7   2  -3  964.52   54.61
   7   2  -2   12.15    6.01
   7   2  -2    8.65    2.89
   7   2  -1 1243.92   61.18
   7   2  -1 1330.32   46.64
   7   2   0  200.69   21.98
   7   2   0  228.45   17.62
   7   2   1  303.19   26.10
   7   2   2 1108.29   53.91
   7   2   3    8.59    4.90
  -7  -2  -4 1312.13   57.17
  -7  -2  -5   36.09    8.69
  -7  -2  -6  213.67   21.42
  -7  -2  -7   85.28   14.36
  -7  -2  -8   27.73    9.93
  -7  -2  -9  400.21   34.07
  -7  -2 -10    9.64    6.12
  -7  -2 -11  327.76   33.91
  -7  -2 -12   -5.24    7.29
  -7  -2 -13   28.51   12.20
   7   3  -9    1.84    6.06
   7   3  -8   42.56   12.80
   7   3  -7 1691.83   88.10
   7   3  -6 1456.40   76.83
   7   3  -5  241.66   27.41
   7   3  -4    4.92    4.76
   7   3  -3   17.92    8.30
   7   3  -3   32.30    5.54
   7   3  -2  875.44   36.44
   7   3  -2  811.32   33.68
   7   3  -1  708.08   42.79
   7   3  -1  755.24   34.07
   7   3   0 3930.22  116.50
   7   3   0 3718.60  124.81
   7   3   0 3942.79  124.29
   7   3   1 2779.18   93.37
   7   3   1 2797.95   98.70
   7   3   1 2905.95   99.73
   7   3   2  273.08   24.03
   7   3   2  319.48   26.36
   7   3   3   38.15    8.59
   7   3   3   38.31    9.20
   7   3   4    5.48    4.62
  -7  -3  -4   -4.07    3.59
  -7  -3  -5 1157.84   52.11
  -7  -3  -6  653.67   38.21
  -7  -3  -7 1671.88   69.91
  -7  -3  -8  804.96   46.33
  -7  -3  -9   -4.17    5.34
  -7  -3 -10   31.09   10.12
  -7  -3 -11    9.52    8.31
  -7  -3 -12  295.32   33.69
  -7  -3 -13  179.75   27.75
   7   4  -9   -4.20    7.01
   7   4  -8  300.11   35.42
   7   4  -7  354.46   36.30
   7   4  -6  479.38   40.59
   7   4  -5  347.06   32.86
   7   4  -4   79.69    8.61
   7   4  -4   78.04   14.64
   7   4  -3  147.31   18.75
   7   4  -3  150.49   13.23
   7   4  -2   54.75   11.22
   7   4  -2   62.83    9.36
   7   4  -2   48.37    8.11
   7   4  -2   64.50   11.18
   7   4  -1 1566.51   61.15
   7   4  -1 1747.04   61.83
   7   4  -1 1536.96   67.44
   7   4  -1 1594.18   65.03
   7   4   0 1402.35   56.87
   7   4   0 1345.79   59.84
   7   4   0 1356.89   58.33
   7   4   1  613.74   35.95
   7   4   1  591.09   36.29
   7   4   1  661.19   37.70
   7   4   2  647.22   38.09
   7   4   2  645.26   37.72
   7   4   2  688.92   39.63
   7   4   3    5.16    5.24
   7   4   3    5.64    3.38
  -7  -4  -4  277.97   21.37
   7   4   4  295.58   26.87
  -7  -4  -5  334.53   24.33
   7   4   5  367.62   31.47
  -7  -4  -6 1794.91   69.62
  -7  -4  -7 1774.92   71.46
  -7  -4  -8  266.98   24.66
  -7  -4  -9  127.68   18.02
  -7  -4 -10   24.05    8.14
  -7  -4 -11   33.64   11.03
  -7  -4 -12  116.25   21.07
  -7  -4 -13  636.02   52.93
   7   5  -9  203.99   30.53
   7   5  -8   -9.04    9.79
   7   5  -7   51.08   14.24
   7   5  -6   14.54    7.63
   7   5  -5   97.56   17.05
   7   5  -4 1696.05   76.21
   7   5  -4 1731.08   61.24
   7   5  -3   35.82    7.84
   7   5  -3   31.33    9.43
   7   5  -3   30.80    7.67
   7   5  -2  766.52   38.57
   7   5  -2  723.09   42.00
   7   5  -2  766.22   39.64
   7   5  -2  728.69   38.77
   7   5  -1   81.67   11.69
   7   5  -1   94.26   12.79
   7   5  -1   79.45   12.93
   7   5  -1  100.67   13.35
   7   5   0   75.63   12.29
   7   5   0   95.44   13.22
   7   5   0   91.77   12.67
   7   5   0   83.83   13.07
   7   5   1  472.64   32.14
   7   5   1  463.29   30.41
   7   5   2  423.23   29.03
   7   5   2  454.65   30.38
   7   5   3 3038.05  102.35
   7   5   3 3168.82  106.58
  -7  -5  -4  136.26   13.88
   7   5   4  137.74   17.60
  -7  -5  -5 1024.59   45.09
   7   5   5 1041.04   55.74
  -7  -5  -6  282.58   22.40
   7   5   6  315.87   30.13
  -7  -5  -7  152.35   17.00
  -7  -5  -8  572.42   36.69
  -7  -5  -9   97.42   15.64
  -7  -5 -10 1228.60   64.66
  -7  -5 -11  161.48   22.80
  -7  -5 -12  205.97   27.56
  -7  -5 -13  110.92   21.70
   7   6  -8   -7.06    8.02
   7   6  -7  166.76   24.89
   7   6  -6    0.54    5.61
   7   6  -5  221.12   25.53
   7   6  -4    6.04    3.77
   7   6  -4    5.73    4.93
   7   6  -3 1780.01   74.37
   7   6  -3 1739.18   68.43
   7   6  -2   37.62    8.94
   7   6  -2   29.37    8.17
   7   6  -1    0.35    3.00
   7   6  -1   -0.29    3.70
   7   6   0   53.69    8.78
   7   6   0   52.83   10.64
   7   6   0   63.51   10.80
   7   6   1    5.80    3.72
   7   6   1    4.54    2.57
   7   6   1    8.21    5.54
   7   6   2 2104.59   75.33
   7   6   2 2152.43   75.02
   7   6   3   14.22    5.78
   7   6   3    7.26    4.20
  -7  -6  -4 2896.21   88.47
   7   6   4 2818.05  100.48
  -7  -6  -5  195.15   16.54
   7   6   5  203.49   23.32
  -7  -6  -6   11.04    4.83
   7   6   6    0.63    4.33
  -7  -6  -7   56.64   10.10
  -7  -6  -8   47.86    9.94
  -7  -6  -9 2535.32   95.99
  -7  -6 -10   29.25    9.37
  -7  -6 -11  960.68   58.60
  -7  -6 -12   68.86   16.13
  -7  -6 -13   60.40   15.29
   7   7  -5   12.96    6.68
   7   7  -4    6.48    5.90
   7   7  -4    2.74    3.09
   7   7  -3    0.04    2.96
   7   7  -3    8.11    6.12
   7   7  -2  204.61   20.46
   7   7  -2  201.99   21.79
   7   7  -1   97.94   13.11
   7   7  -1   94.00   14.76
   7   7   0  150.24   19.42
   7   7   0  151.62   16.05
   7   7   1  347.18   30.54
   7   7   1  433.93   27.47
   7   7   2   -0.74    3.17
   7   7   2   -2.19    4.20
   7   7   3  425.38   35.53
   7   7   3  476.16   29.12
   7   7   4   24.75    9.90
   7   7   4   22.72    6.52
   7   7   5  427.41   38.04
  -7  -7  -5  601.28   28.39
  -7  -7  -6  251.25   18.89
  -7  -7  -7   98.25   12.76
  -7  -7  -8  811.34   42.54
  -7  -7  -9   24.18    7.43
  -7  -7 -10  880.29   51.69
  -7  -7 -11   92.19   17.34
  -7  -7 -12  206.69   27.24
  -7  -7 -13  133.61   22.95
   7   8  -4   14.73    6.79
   7   8  -3  242.35   25.48
   7   8  -2   -1.06    4.75
   7   8  -1  555.70   40.77
   7   8   0  986.36   56.06
   7   8   1   33.66    6.96
   7   8   1   32.46    9.79
   7   8   2   13.02    6.43
   7   8   2   10.30    4.45
   7   8   3    3.43    4.33
   7   8   3    1.94    2.41
   7   8   4   27.33    9.89
   7   8   4    9.60    4.78
   7   8   5  213.66   27.14
   7   8   6  757.00   54.00
   7   8   7 1132.73   69.04
   7   8   8   -2.57    5.09
   7   8   9   13.49    8.53
   7   9  -4   12.06    6.83
   7   9  -3   -3.35    4.69
   7   9  -2    7.35    6.63
   7   9  -1  104.04   18.72
   7   9   0   71.03   15.68
   7   9   1   59.99   15.10
   7   9   2    9.70    7.55
   7   9   3   21.52    9.99
   7   9   4   31.13   11.74
   7   9   5  118.96   20.96
   7   9   6  434.36   41.78
   7   9   7   98.88   20.35
   7  10  -3   81.57   17.67
   7  10  -2    5.44    5.81
   7  10  -1  103.02   19.21
   7  10   0  155.71   24.52
   7  10   1   32.73   11.87
   7  10   2  237.21   30.16
   7  10   3   42.06   13.86
   7  10   4   96.02   20.65
   8  -4   0    3.17    5.80
   8  -4   1   69.59   17.81
   8  -4   2   -4.34    4.60
   8  -4   3  387.00   39.82
   8  -4   4   36.73   12.60
   8  -4   5 1005.01   66.45
   8  -4   6  144.62   24.50
   8  -4   7    3.24    5.68
   8  -3  -2   46.28   13.89
   8  -3  -1   -4.85    5.72
   8  -3   0    5.92    8.83
   8  -3   1    6.83    6.63
   8  -3   2   -5.20    5.50
   8  -3   3    8.17    6.73
   8  -3   4  559.31   46.16
   8  -3   5  127.68   22.09
   8  -3   6  133.77   22.68
   8  -3   7   29.83   11.87
  -8   3  -7   20.08    8.39
   8  -3   8    0.49    6.61
   8  -2  -3    4.66    5.44
   8  -2  -2  292.39   34.36
   8  -2  -1   -2.16    6.22
   8  -2   0   20.52    9.14
   8  -2   1  542.17   44.62
   8  -2   2   26.99   10.94
   8  -2   3   12.66    8.35
   8  -2   4    5.42    6.45
   8  -2   5   22.43    8.79
   8  -2   6  103.10   19.62
  -8   2  -6  114.68   20.41
   8  -2   7  176.74   25.69
  -8   2  -7  254.57   30.24
  -8   2  -8  584.53   48.02
  -8   2  -9   -0.10    6.59
   8  -1  -4   -9.83   10.20
   8  -1  -3  530.15   45.97
   8  -1  -2  125.38   21.48
   8  -1  -1   66.26   15.90
   8  -1   0  152.97   22.40
   8  -1   1   26.86    8.82
   8  -1   2   51.37   13.33
   8  -1   3   -2.61    5.98
   8  -1   4  540.70   42.20
   8  -1   5   60.92   14.62
   8  -1   6   22.59    7.99
  -8   1  -6   29.63   11.34
  -8   1  -7  624.93   46.38
  -8   1  -8   74.76   16.49
  -8   1  -9  225.55   28.69
  -8   1 -10    8.75    7.69
   8   0  -5   11.03    7.28
   8   0  -4   14.49    8.11
   8   0  -3   21.55    9.92
   8   0  -2   65.13   15.53
   8   0  -1    1.88    4.96
   8   0   0   94.30   17.43
   8   0   1   65.36   14.33
   8   0   2   -3.22    5.42
   8   0   3   20.00    9.23
   8   0   4   -1.43    5.28
   8   0   5   12.77    7.40
  -8   0  -5    6.53    6.82
  -8   0  -6    2.09    6.13
  -8   0  -7    9.61    6.18
  -8   0  -8    8.56    5.81
  -8   0  -9    0.18    5.24
  -8   0 -10   65.50   15.86
  -8   0 -11   21.61   10.40
   8   1  -6    4.12    6.56
   8   1  -5  101.00   19.86
   8   1  -4    6.44    5.59
   8   1  -3  618.97   46.09
   8   1  -2  231.40   27.05
   8   1  -1    9.16    7.16
   8   1   0  889.30   53.55
   8   1   1  105.48   17.25
   8   1   2  452.11   35.61
   8   1   3   57.42   12.43
   8   1   4  467.72   36.54
   8   1   5   59.68   13.26
  -8  -1  -5   63.57   13.14
  -8  -1  -6  104.17   16.44
  -8  -1  -7  693.82   45.84
  -8  -1  -8   53.49   13.23
  -8  -1  -9    3.55    6.34
  -8  -1 -10   30.40   10.85
  -8  -1 -11  512.43   45.15
   8   2  -6  107.61   21.42
   8   2  -5   -0.28    5.21
   8   2  -4   95.99   17.84
   8   2  -3   55.58   13.60
   8   2  -2   60.64   14.02
   8   2  -1    5.75    4.77
   8   2   0    0.10    4.52
   8   2   1   15.56    6.66
   8   2   2    3.00    5.09
   8   2   3   29.52    9.04
   8   2   4    4.54    4.65
  -8  -2  -5   26.30    7.99
  -8  -2  -6   80.67   13.76
  -8  -2  -7    4.64    4.45
  -8  -2  -8  201.67   23.83
  -8  -2  -9   -1.96    4.10
  -8  -2 -10   83.93   16.95
  -8  -2 -11   33.97   12.70
  -8  -2 -12   11.45    5.75
   8   3  -7 1101.47   72.37
   8   3  -6  114.22   21.84
   8   3  -5  907.94   59.98
   8   3  -4  -10.46    8.23
   8   3  -3   90.89   16.36
   8   3  -2   60.41   13.19
   8   3  -2   45.55    7.16
   8   3  -1   92.18   15.91
   8   3   0  799.34   47.91
   8   3   0  797.56   38.58
   8   3   1   11.66    5.38
   8   3   1    2.37    2.31
   8   3   2   30.00    9.10
   8   3   3   10.89    5.94
   8   3   4  573.86   38.88
  -8  -3  -5  133.69   16.80
  -8  -3  -6   17.12    6.93
  -8  -3  -7  272.98   25.80
  -8  -3  -8    8.37    6.86
  -8  -3  -9   55.99   13.74
  -8  -3 -10   28.94    9.91
  -8  -3 -11  181.75   25.60
  -8  -3 -12   47.71   14.69
   8   4  -7  124.15   23.13
   8   4  -6 1131.90   70.11
   8   4  -5   11.36    9.08
   8   4  -4  196.85   24.67
   8   4  -3   21.07    8.63
   8   4  -2    3.88    3.95
   8   4  -2   13.69    4.63
   8   4  -1  370.26   25.95
   8   4  -1  383.04   32.02
   8   4   0   59.72   10.13
   8   4   0   76.43   13.61
   8   4   1 1053.03   50.51
   8   4   1 1087.53   55.10
   8   4   2    2.42    3.88
   8   4   3   97.88   15.05
   8   4   4  184.27   20.96
  -8  -4  -5   33.54    7.98
  -8  -4  -6  173.17   19.02
  -8  -4  -7   66.94   12.28
  -8  -4  -8  186.78   21.72
  -8  -4  -9   17.66    7.38
  -8  -4 -10  398.26   35.28
  -8  -4 -11  119.29   20.16
  -8  -4 -12   10.31    9.15
  -8  -4 -13  186.63   28.21
   8   5  -8  103.57   21.70
   8   5  -7   84.69   19.24
   8   5  -6   38.01   12.59
   8   5  -5  419.65   38.94
   8   5  -4   90.21   16.37
   8   5  -3 1092.25   59.81
   8   5  -2  645.62   35.49
   8   5  -2  607.18   40.90
   8   5  -1   40.90   10.02
   8   5  -1   31.90    7.95
   8   5   0   27.98    7.70
   8   5   0   25.03    8.19
   8   5   1    5.16    4.10
   8   5   1    3.91    4.38
   8   5   2  258.47   23.98
   8   5   2  267.43   24.93
   8   5   3   75.18   13.34
   8   5   3   72.49   12.71
   8   5   4  323.46   27.49
   8   5   4  348.86   30.82
  -8  -5  -5  131.30   15.48
  -8  -5  -6   16.40    6.44
  -8  -5  -7   12.26    5.13
  -8  -5  -8    5.58    4.52
  -8  -5  -9   21.07    7.91
  -8  -5 -10    7.14    5.63
  -8  -5 -11   11.53    7.91
  -8  -5 -12    7.64    7.77
  -8  -5 -13    4.28    5.70
   8   6  -7   87.57   18.50
   8   6  -6   31.10   11.55
   8   6  -5   10.43    6.81
   8   6  -4 1455.10   73.41
   8   6  -3 1071.96   58.59
   8   6  -2  662.68   42.66
   8   6  -2  691.48   39.09
   8   6  -1  152.24   18.19
   8   6  -1  163.52   19.86
   8   6   0    2.41    4.53
   8   6   0    1.97    4.21
   8   6   1   -6.32    6.32
   8   6   1    1.50    4.92
   8   6   2   35.78    8.85
   8   6   2   35.93   10.33
   8   6   3 1328.55   60.05
   8   6   4  817.72   44.89
  -8  -6  -5  168.33   16.67
  -8  -6  -6   46.60    8.97
  -8  -6  -7    3.96    4.85
  -8  -6  -8  101.54   15.10
  -8  -6  -9   16.28    8.02
  -8  -6 -10  518.55   39.50
  -8  -6 -11  195.02   25.13
  -8  -6 -12    3.56    5.15
  -8  -6 -13  171.66   26.48
   8   7  -4  137.25   20.24
   8   7  -3  316.18   29.54
   8   7  -2  444.59   33.61
   8   7  -2  472.17   34.21
   8   7  -1  245.09   22.99
   8   7  -1  241.16   24.40
   8   7   0  651.46   43.02
   8   7   0  679.36   39.79
   8   7   1   19.09    7.70
   8   7   1   23.49    7.52
   8   7   2  426.15   35.78
   8   7   2  506.31   32.71
   8   7   3  280.63   29.09
   8   7   3  308.54   25.52
   8   7   4  266.10   28.94
   8   7   4  330.24   26.27
   8   7   5  229.59   22.60
  -8  -7  -6   51.64    8.94
  -8  -7  -7   78.25   11.62
  -8  -7  -8   18.34    6.73
  -8  -7  -9  157.64   19.26
  -8  -7 -10  112.88   17.54
  -8  -7 -11   85.92   15.88
   8   8  -1 1225.33   64.22
   8   8   0   18.73    8.90
   8   8   1 1516.37   74.75
   8   8   2  122.90   20.07
   8   8   3    8.60    5.21
   8   8   3    3.69    7.72
   8   8   4    9.75    6.89
   8   8   4   17.08    6.31
   8   8   5   97.12   13.79
   8   8   5   75.86   16.02
   8   8   6  823.00   56.93
   8   8   7   -6.15    7.78
   8   8   8  381.71   39.86
   8   9  -2  254.74   28.57
   8   9  -1   22.94   10.40
   8   9   0 1103.79   64.63
   8   9   1   13.03    7.46
   8   9   2  327.66   34.24
   8   9   3   12.41    8.79
   8   9   4   -2.41    6.25
   8   9   5  404.90   39.72
   8   9   6    5.13    5.00
   8  10  -2   31.44   11.19
   8  10  -1   69.40   15.65
   8  10   0   16.47    9.66
   8  10   1  175.24   25.60
   8  10   2   93.26   19.06
   9  -2   3  188.09   27.58
   9  -2   4   90.54   18.91
   9  -1   0   11.33    9.60
   9  -1   1 2261.15  105.01
   9  -1   2  312.33   34.08
   9  -1   3  763.49   54.81
   9  -1   4   20.14    8.17
   9  -1   5    2.88    5.25
   9  -1   6  502.50   43.78
   9  -1   7   -1.03    7.22
  -9   1  -7    5.75    6.64
   9   0  -2  237.39   30.87
   9   0  -1   49.89   13.88
   9   0   0  279.19   32.16
   9   0   1   17.06    8.64
   9   0   2  212.22   26.88
   9   0   3  247.37   29.18
   9   0   4  224.79   28.53
   9   0   5  649.86   48.72
   9   0   6    6.09    4.92
  -9   0  -7  738.23   51.97
   9   0   7  672.88   52.28
  -9   0  -8  166.91   23.99
   9   1  -3  402.98   39.84
   9   1  -2  140.71   23.16
   9   1  -1  508.37   43.08
   9   1   0   11.78    7.11
   9   1   1   96.94   18.00
   9   1   2   -6.55    7.46
   9   1   3  423.61   37.35
   9   1   4 1308.23   69.93
   9   1   5  309.22   31.56
  -9  -1  -6  857.58   53.98
   9   1   6  880.64   56.84
  -9  -1  -7   12.45    8.20
  -9  -1  -8   20.05    9.09
  -9  -1  -9  110.94   18.80
   9   2  -4    7.61    6.50
   9   2  -3    4.51    5.04
   9   2  -2  142.93   23.09
   9   2  -1    6.45    5.17
   9   2   0   13.05    7.78
   9   2   1    3.00    5.75
   9   2   2    5.27    5.92
   9   2   3  233.57   26.61
   9   2   4  110.83   18.12
   9   2   5  892.02   55.42
  -9  -2  -6    7.77    6.50
   9   2   6   -7.16    7.23
  -9  -2  -7  114.89   18.25
  -9  -2  -8   36.96   11.92
  -9  -2  -9  123.61   20.46
  -9  -2 -10  654.57   50.77
   9   3  -4   10.69    7.37
   9   3  -3  216.79   27.70
   9   3  -2   48.97   13.90
   9   3  -1   67.02   14.97
   9   3   0   28.31   11.37
   9   3   1  510.02   39.57
   9   3   2  106.50   17.51
   9   3   3   -6.21    7.17
   9   3   4   94.60   16.23
   9   3   5    5.32    5.64
  -9  -3  -6  163.96   20.93
  -9  -3  -7   16.07    7.70
  -9  -3  -8  686.94   46.69
  -9  -3  -9  227.23   27.14
  -9  -3 -10    3.40    4.48
  -9  -3 -11  119.31   21.42
   9   4  -5   96.28   19.69
   9   4  -4   15.45    8.68
   9   4  -3   49.45   13.51
   9   4  -2  414.25   37.34
   9   4  -1   11.91    7.69
   9   4   0  115.11   18.60
   9   4   1  111.57   17.86
   9   4   2  115.68   17.72
   9   4   3   35.47    9.86
   9   4   4   41.43   10.86
   9   4   5  156.56   21.04
  -9  -4  -6   12.43    6.70
  -9  -4  -7  700.51   44.26
  -9  -4  -8  276.24   28.05
  -9  -4  -9  206.75   24.94
  -9  -4 -10    7.85    6.05
  -9  -4 -11   33.59   11.79
   9   5  -6   32.60   11.95
   9   5  -5   22.48   10.00
   9   5  -4   15.23    8.52
   9   5  -3   52.86   13.55
   9   5  -2    5.02    5.32
   9   5  -1    5.80    5.58
   9   5   0   -7.04    6.61
   9   5   0    3.63    5.28
   9   5   1  114.69   17.62
   9   5   2   43.15   10.89
   9   5   3    5.82    6.55
   9   5   4   23.95    8.23
   9   5   5    4.49    4.74
  -9  -5  -6   -5.10    4.54
  -9  -5  -7   21.13    7.79
  -9  -5  -8    6.08    5.09
  -9  -5  -9   11.28    7.24
  -9  -5 -10   36.80   11.30
  -9  -5 -11  109.92   19.62
  -9  -5 -12   14.97    8.86
   9   6  -5   60.87   15.07
   9   6  -4   47.48   14.01
   9   6  -3    8.42    4.90
   9   6  -2  381.72   34.51
   9   6  -1    5.38    5.62
   9   6   0  331.50   28.83
   9   6   0  371.46   31.90
   9   6   1  214.13   23.90
   9   6   1  241.12   25.37
   9   6   2   66.32   13.05
   9   6   2   60.93   13.22
   9   6   3   52.17   11.53
   9   6   4   43.37   10.78
   9   6   5  205.93   23.56
  -9  -6  -6    4.95    4.02
  -9  -6  -7  386.84   29.62
  -9  -6  -8  111.39   16.23
  -9  -6  -9   -0.94    5.42
  -9  -6 -10  259.92   28.18
  -9  -6 -11   50.59   13.32
  -9  -6 -12  173.13   25.51
   9   7  -2   12.26    5.60
   9   7  -1   11.23    6.21
   9   7   0   52.18   12.37
   9   7   0   11.16    6.30
   9   7   1   12.85    6.68
   9   7   1    6.73    5.15
   9   7   2   -6.41    6.25
   9   7   2   -5.37    5.28
   9   7   3    8.18    5.53
   9   7   3    2.48    4.63
   9   7   4   55.54   13.29
   9   7   4   49.84   11.14
   9   7   5   20.04    7.79
   9   7   6   13.72    6.07
   9   8   0  364.40   33.24
   9   8   1  133.45   20.68
   9   8   2    5.21    4.26
   9   8   3   88.14   17.08
   9   8   4   14.22    7.76
   9   8   5  114.35   20.25
   9   8   6    3.34    4.18
   9   8   6   -2.18    5.26
   9   9   0   89.77   17.65
   9   9   2   44.42   12.77
   9   9   3   12.39    8.33
   9   9   4   96.69   19.18
  10   2   1  214.78   28.73
  10   2   2  189.57   26.07
  10   2   3   26.47   10.71
  10   2   4 1186.81   69.31
  10   2   5  130.00   21.75
  10   2   6  695.06   51.22
 -10  -2  -7   79.94   16.42
 -10  -2  -8   15.15    8.44
  10   3  -1   37.27   12.06
  10   3   0  554.98   45.37
  10   3   1 1026.26   63.30
  10   3   2  295.96   31.85
  10   3   3  960.17   59.62
  10   3   4   15.57    8.47
  10   3   5  184.95   25.11
  10   3   6  126.33   20.81
 -10  -3  -7  435.86   38.43
  10   3   7  498.73   43.01
 -10  -3  -8  704.27   49.71
 -10  -3  -9   47.92   13.26
  10   4  -2   23.22    9.48
  10   4  -1  103.91   19.24
  10   4   0  329.46   33.79
  10   4   1  580.94   45.28
  10   4   2 1668.95   81.23
  10   4   3   22.03    8.94
  10   4   4  175.41   24.00
  10   4   5   16.14    8.46
  10   4   6  228.37   27.68
 -10  -4  -7  710.18   48.13
  10   4   7  709.64   51.50
 -10  -4  -8  364.21   34.08
 -10  -4  -9 1105.45   64.62
 -10  -4 -10   -9.59    6.74
  10   5  -2  275.42   31.35
  10   5  -1  142.06   22.16
  10   5   0   89.11   17.18
  10   5   1  247.36   28.49
  10   5   2   22.35    8.66
  10   5   3  468.01   38.61
  10   5   4    3.89    5.02
  10   5   5  442.04   37.86
  10   5   6  348.65   33.99
  10   5   7  159.23   23.33
 -10  -5  -7  141.05   19.98
 -10  -5  -8  545.30   40.58
 -10  -5  -9   12.47    5.91
 -10  -5 -10  375.66   35.85
  10   6  -3  393.72   38.58
  10   6  -2  106.69   19.42
  10   6  -1  378.54   35.60
  10   6   0   14.75    7.57
  10   6   1    5.88    6.43
  10   6   2   12.07    6.77
  10   6   2    0.04    4.59
  10   6   3    0.29    3.86
  10   6   4 1398.26   71.07
  10   6   5  351.84   33.13
  10   6   6  387.36   35.08
  10   6   7  109.41   18.94
  10   7   0   38.38   11.52
  10   7   1    3.80    4.52
  10   7   2    6.58    5.14
  10   7   3   83.90   16.15
  10   7   3  160.03   21.10
  10   7   4   81.26   15.23
  10   7   4   72.50   15.60
  10   7   5  328.96   31.36
  10   7   6  112.60   18.28
  10   7   7   39.10   11.10
  10   8   2  233.11   27.91
  10   8   3    2.15    4.16
  10   8   4   -3.74    6.35
   0   0   0    0.00    0.00


TITL BM117 in P-1
REM P-1 (#2 in standard setting)
CELL 0.71073   8.319513   8.992095  12.335987  86.1458  76.5200  71.8724
ZERR   12.00   0.000600   0.000548   0.000905   0.0055   0.0062   0.0059
LATT  1
SFAC C N Br Sb
UNIT 12.00 12.00 12.00 12.00
TREF
HKLF 4
END
_computing_structure_solution     'SHELXT 2014/5 (Sheldrick, 2014)'
;
_shelx_hkl_checksum              15684
loop_
_space_group_symop_operation_xyz
'x, y, z'
'-x, -y, -z'
loop_
_atom_site_label
_atom_site_type_symbol
_atom_site_fract_x
_atom_site_fract_y
_atom_site_fract_z
_atom_site_U_iso_or_equiv
_atom_site_adp_type
_atom_site_occupancy
_atom_site_site_symmetry_order
_atom_site_calc_flag
_atom_site_refinement_flags_posn
_atom_site_refinement_flags_adp
_atom_site_refinement_flags_occupancy
_atom_site_disorder_assembly
_atom_site_disorder_group
Sb1 Sb 0.66724(4) 0.24113(4) 0.21059(3) 0.00970(11) Uani 1 1 d . . . . .
N1 N 0.2780(6) 0.8054(5) 0.2638(4) 0.0178(11) Uani 1 1 d . . . . .
C1 C 0.4250(8) 0.8424(7) 0.1863(6) 0.0260(15) Uani 1 1 d . . . . .
H1A H 0.4283 0.9455 0.2048 0.039 Uiso 1 1 calc R U . . .
H1B H 0.4103 0.8431 0.1097 0.039 Uiso 1 1 calc R U . . .
H1C H 0.5338 0.7630 0.1929 0.039 Uiso 1 1 calc R U . . .
Br1 Br 0.71817(8) 0.43852(6) 0.06003(5) 0.01954(16) Uani 1 1 d . . . . .
Br2 Br 0.35705(7) 0.29730(6) 0.18863(5) 0.01960(15) Uani 1 1 d . . . . .
C2 C 0.2524(8) 0.8288(6) 0.3732(6) 0.0253(15) Uani 1 1 d . . . . .
H2 H 0.3270 0.8702 0.4010 0.030 Uiso 1 1 calc R U . . .
Br3 Br 0.76710(7) 0.01953(6) 0.06968(5) 0.01829(15) Uani 1 1 d . . . . .
C3 C 0.1161(8) 0.7921(6) 0.4453(6) 0.0219(8) Uani 1 1 d . . . . .
H3 H 0.0965 0.8098 0.5231 0.026 Uiso 1 1 calc R U . . .
Br5 Br 0.98014(7) 0.18031(6) 0.23049(5) 0.01804(15) Uani 1 1 d . . . . .
C5 C -0.1385(9) 0.6883(8) 0.4857(7) 0.0357(13) Uani 1 1 d . . . . .
H5A H -0.2495 0.7606 0.4755 0.053 Uiso 1 1 calc R U . . .
H5B H -0.1284 0.6958 0.5625 0.053 Uiso 1 1 calc R U . . .
H5C H -0.1331 0.5810 0.4704 0.053 Uiso 1 1 calc R U . . .
Br4 Br 0.61516(7) 0.04933(6) 0.36943(5) 0.01659(15) Uani 1 1 d . . . . .
C4 C 0.0087(8) 0.7304(6) 0.4062(6) 0.0254(16) Uani 1 1 d . . . . .
C7 C -0.0728(9) 0.6400(7) 0.2426(7) 0.0357(13) Uani 1 1 d . . . . .
H7A H -0.0565 0.6632 0.1627 0.053 Uiso 1 1 calc R U . . .
H7B H -0.1949 0.6872 0.2795 0.053 Uiso 1 1 calc R U . . .
H7C H -0.0402 0.5264 0.2533 0.053 Uiso 1 1 calc R U . . .
Br6 Br 0.56485(8) 0.45445(6) 0.35909(5) 0.01833(15) Uani 1 1 d . . . . .
C6 C 0.0386(8) 0.7060(6) 0.2918(5) 0.0219(8) Uani 1 1 d . . . . .
C8 C 0.1751(8) 0.7458(6) 0.2236(5) 0.0219(8) Uani 1 1 d . . . . .
H8 H 0.1970 0.7303 0.1454 0.026 Uiso 1 1 calc R U . . .
loop_
_atom_site_aniso_label
_atom_site_aniso_U_11
_atom_site_aniso_U_22
_atom_site_aniso_U_33
_atom_site_aniso_U_23
_atom_site_aniso_U_13
_atom_site_aniso_U_12
Sb1 0.0083(2) 0.01251(19) 0.0073(2) 0.00024(14) -0.00001(15) -0.00311(14)
N1 0.021(3) 0.012(2) 0.019(3) 0.000(2) -0.001(2) -0.0046(19)
C1 0.025(4) 0.029(3) 0.026(4) 0.006(3) -0.006(3) -0.012(3)
Br1 0.0272(4) 0.0196(3) 0.0116(3) 0.0044(2) -0.0010(3) -0.0100(2)
Br2 0.0106(3) 0.0251(3) 0.0227(4) 0.0037(2) -0.0052(3) -0.0045(2)
C2 0.025(4) 0.022(3) 0.027(4) -0.004(3) -0.014(3) 0.002(3)
Br3 0.0194(3) 0.0200(3) 0.0139(3) -0.0060(2) 0.0012(3) -0.0061(2)
C3 0.025(2) 0.0178(17) 0.018(2) -0.0019(14) -0.0032(17) 0.0001(14)
Br5 0.0105(3) 0.0236(3) 0.0199(4) -0.0010(2) -0.0036(2) -0.0046(2)
C5 0.025(3) 0.034(3) 0.039(3) 0.009(2) 0.001(2) -0.003(2)
Br4 0.0193(3) 0.0177(3) 0.0121(3) 0.0052(2) -0.0021(2) -0.0069(2)
C4 0.019(3) 0.016(3) 0.026(4) 0.011(3) 0.006(3) 0.005(2)
C7 0.025(3) 0.034(3) 0.039(3) 0.009(2) 0.001(2) -0.003(2)
Br6 0.0222(3) 0.0170(3) 0.0125(3) -0.0048(2) 0.0007(3) -0.0038(2)
C6 0.025(2) 0.0178(17) 0.018(2) -0.0019(14) -0.0032(17) 0.0001(14)
C8 0.025(2) 0.0178(17) 0.018(2) -0.0019(14) -0.0032(17) 0.0001(14)
loop_
_atom_type_symbol
_atom_type_description
_atom_type_scat_dispersion_real
_atom_type_scat_dispersion_imag
_atom_type_scat_source
C C 0.0033 0.0016 'International Tables Vol C Tables 4.2.6.8 and 6.1.1.4'
N N 0.0061 0.0033 'International Tables Vol C Tables 4.2.6.8 and 6.1.1.4'
Br Br -0.2901 2.4595 'International Tables Vol C Tables 4.2.6.8 and 6.1.1.4'
Sb Sb -0.5866 1.5461 'International Tables Vol C Tables 4.2.6.8 and 6.1.1.4'
H H 0.0000 0.0000 'International Tables Vol C Tables 4.2.6.8 and 6.1.1.4'
loop_
_geom_angle_atom_site_label_1
_geom_angle_atom_site_label_2
_geom_angle_atom_site_label_3
_geom_angle
_geom_angle_site_symmetry_1
_geom_angle_site_symmetry_3
Br1 Sb1 Br3 92.23(2) . .
Br1 Sb1 Br2 90.51(2) . .
Br3 Sb1 Br2 89.81(2) . .
Br1 Sb1 Br6 90.42(2) . .
Br3 Sb1 Br6 177.35(2) . .
Br2 Sb1 Br6 90.21(2) . .
Br1 Sb1 Br5 89.68(2) . .
Br3 Sb1 Br5 89.17(2) . .
Br2 Sb1 Br5 178.97(2) . .
Br6 Sb1 Br5 90.80(2) . .
Br1 Sb1 Br4 177.57(2) . .
Br3 Sb1 Br4 90.11(2) . .
Br2 Sb1 Br4 90.18(2) . .
Br6 Sb1 Br4 87.24(2) . .
Br5 Sb1 Br4 89.68(2) . .
C2 N1 C8 121.0(5) . .
C2 N1 C1 119.6(5) . .
C8 N1 C1 119.4(5) . .
N1 C1 H1A 109.5 . .
N1 C1 H1B 109.5 . .
H1A C1 H1B 109.5 . .
N1 C1 H1C 109.5 . .
H1A C1 H1C 109.5 . .
H1B C1 H1C 109.5 . .
N1 C2 C3 119.3(6) . .
N1 C2 H2 120.4 . .
C3 C2 H2 120.4 . .
C4 C3 C2 120.9(6) . .
C4 C3 H3 119.6 . .
C2 C3 H3 119.6 . .
C4 C5 H5A 109.5 . .
C4 C5 H5B 109.5 . .
H5A C5 H5B 109.5 . .
C4 C5 H5C 109.5 . .
H5A C5 H5C 109.5 . .
H5B C5 H5C 109.5 . .
C3 C4 C6 118.8(5) . .
C3 C4 C5 120.7(7) . .
C6 C4 C5 120.5(7) . .
C6 C7 H7A 109.5 . .
C6 C7 H7B 109.5 . .
H7A C7 H7B 109.5 . .
C6 C7 H7C 109.5 . .
H7A C7 H7C 109.5 . .
H7B C7 H7C 109.5 . .
C8 C6 C4 117.9(6) . .
C8 C6 C7 119.9(6) . .
C4 C6 C7 122.1(6) . .
N1 C8 C6 122.1(6) . .
N1 C8 H8 119.0 . .
C6 C8 H8 119.0 . .
loop_
_geom_bond_atom_site_label_1
_geom_bond_atom_site_label_2
_geom_bond_distance
_geom_bond_site_symmetry_2
Sb1 Br1 2.5372(6) .
Sb1 Br3 2.5386(7) .
Sb1 Br2 2.5464(7) .
Sb1 Br6 2.5473(7) .
Sb1 Br5 2.5553(7) .
Sb1 Br4 2.5724(6) .
N1 C2 1.336(8) .
N1 C8 1.336(8) .
N1 C1 1.478(7) .
C1 H1A 0.9800 .
C1 H1B 0.9800 .
C1 H1C 0.9800 .
C2 C3 1.382(9) .
C2 H2 0.9500 .
C3 C4 1.373(10) .
C3 H3 0.9500 .
C5 C4 1.511(8) .
C5 H5A 0.9800 .
C5 H5B 0.9800 .
C5 H5C 0.9800 .
C4 C6 1.395(9) .
C7 C6 1.495(10) .
C7 H7A 0.9800 .
C7 H7B 0.9800 .
C7 H7C 0.9800 .
C6 C8 1.376(8) .
C8 H8 0.9500 .
