#------------------------------------------------------------------------------
#$Date: 2021-12-20 12:23:06 +0200 (Mon, 20 Dec 2021) $
#$Revision: 271532 $
#$URL: file:///home/coder/svn-repositories/cod/cif/1/56/58/1565805.cif $
#------------------------------------------------------------------------------
#
# This file is available in the Crystallography Open Database (COD),
# http://www.crystallography.net/
#
# All data on this site have been placed in the public domain by the
# contributors.
#
data_1565805
loop_
_publ_author_name
'Li, Guo-Qiang'
'Chen, Chong'
'Ji, Jiao'
'Jia, Ai-Quan'
'Zhang, Qian-Feng'
_publ_section_title
;
 Ruthenium(II) complexes with \a- or \b-dithionaphthoato ligands
;
_journal_name_full               'Inorganica Chimica Acta'
_journal_page_first              119173
_journal_paper_doi               10.1016/j.ica.2019.119173
_journal_volume                  498
_journal_year                    2019
_chemical_formula_sum            'C H O P Ru S'
_chemical_formula_weight         193.12
_space_group_crystal_system      triclinic
_space_group_IT_number           2
_space_group_name_Hall           '-P 1'
_space_group_name_H-M_alt        'P -1'
_atom_sites_solution_hydrogens   .
_audit_creation_method           SHELXL-2014/7
_cell_angle_alpha                72.987(4)
_cell_angle_beta                 82.142(4)
_cell_angle_gamma                69.549(4)
_cell_formula_units_Z            17
_cell_length_a                   11.403(3)
_cell_length_b                   12.455(4)
_cell_length_c                   15.845(4)
_cell_measurement_temperature    296(2)
_cell_volume                     2014.8(10)
_computing_structure_refinement  'SHELXL-2014/7 (Sheldrick, 2014)'
_diffrn_ambient_temperature      296(2)
_diffrn_measured_fraction_theta_full 0.986
_diffrn_measured_fraction_theta_max 0.968
_diffrn_radiation_type           MoK\a
_diffrn_radiation_wavelength     0.71073
_diffrn_reflns_av_R_equivalents  0.0482
_diffrn_reflns_av_unetI/netI     0.1294
_diffrn_reflns_Laue_measured_fraction_full 0.986
_diffrn_reflns_Laue_measured_fraction_max 0.968
_diffrn_reflns_limit_h_max       14
_diffrn_reflns_limit_h_min       -13
_diffrn_reflns_limit_k_max       16
_diffrn_reflns_limit_k_min       -13
_diffrn_reflns_limit_l_max       20
_diffrn_reflns_limit_l_min       -19
_diffrn_reflns_number            12843
_diffrn_reflns_point_group_measured_fraction_full 0.986
_diffrn_reflns_point_group_measured_fraction_max 0.968
_diffrn_reflns_theta_full        25.242
_diffrn_reflns_theta_max         27.532
_diffrn_reflns_theta_min         2.233
_exptl_absorpt_coefficient_mu    3.904
_exptl_crystal_density_diffrn    2.706
_exptl_crystal_F_000             1530
_refine_diff_density_max         7.516
_refine_diff_density_min         -4.720
_refine_diff_density_rms         0.669
_refine_ls_extinction_coef       0.068(11)
_refine_ls_extinction_expression Fc^*^=kFc[1+0.001xFc^2^\l^3^/sin(2\q)]^-1/4^
_refine_ls_extinction_method     'SHELXL-2014/7 (Sheldrick 2014'
_refine_ls_goodness_of_fit_ref   4.065
_refine_ls_hydrogen_treatment    undef
_refine_ls_matrix_type           full
_refine_ls_number_parameters     218
_refine_ls_number_reflns         8997
_refine_ls_number_restraints     0
_refine_ls_restrained_S_all      4.065
_refine_ls_R_factor_all          0.4057
_refine_ls_R_factor_gt           0.3443
_refine_ls_shift/su_max          2.523
_refine_ls_shift/su_mean         0.378
_refine_ls_structure_factor_coef Fsqd
_refine_ls_weighting_details
'w=1/[\s^2^(Fo^2^)+(0.1000P)^2^+0.4427P] where P=(Fo^2^+2Fc^2^)/3'
_refine_ls_weighting_scheme      calc
_refine_ls_wR_factor_gt          0.6972
_refine_ls_wR_factor_ref         0.7273
_reflns_Friedel_coverage         0.000
_reflns_Friedel_fraction_full    .
_reflns_Friedel_fraction_max     .
_reflns_number_gt                4749
_reflns_number_total             8997
_reflns_threshold_expression     'I > 2\s(I)'
_cod_data_source_file            4.cif
_cod_data_source_block           4
_cod_original_cell_volume        2014.9(10)
_cod_database_code               1565805
_shelx_shelxl_version_number     2014/7
_shelx_space_group_comment
;
The symmetry employed for this shelxl refinement is uniquely defined
by the following loop, which should always be used as a source of
symmetry information in preference to the above space-group names.
They are only intended as comments.
;
_shelx_res_file
;

    p1.res created by SHELXL-2014/7

TITL p1 in P-1
CELL 0.71073  11.40340  12.45530  15.84470  72.9873  82.1419  69.5490
ZERR   17.00   0.00330   0.00350   0.00440   0.0039   0.0040   0.0039
LATT 1
SFAC C  H  O  P  S  Ru
UNIT 17  17  17  17  17  17
L.S. 4
ACTA
BOND
FMAP 2
PLAN 50
TEMP 23.000
WGHT    0.100000    0.442700
EXTI    0.067647
FVAR       0.11869
MOLE 1
RU1   6    0.444746    0.274406    0.268661    11.00000    0.04160    0.03456 =
         0.03797   -0.01196    0.00155   -0.01568
RU2   6    0.407783    0.461313    0.289787    11.00000    0.09043    0.04860 =
         0.08834   -0.02772    0.03612   -0.03475
P3    4    0.330615    0.662056    0.292642    11.00000    0.03310    0.06668 =
         0.07535   -0.01055   -0.01430   -0.01192
S1    5    0.625707    0.399955    0.347559    11.00000    0.08883    0.04809 =
         0.06873   -0.01677   -0.01088   -0.01839
P5    4    0.598641    0.313449    0.148905    11.00000    0.06648    0.05359 =
         0.07463   -0.01981    0.00658   -0.02346
S2    5    0.559759    0.508262    0.168765    11.00000    0.05504    0.06825 =
         0.05135   -0.01010    0.00229   -0.01852
P7    4    0.656812    0.217793    0.325052    11.00000    0.04871    0.07669 =
         0.08053   -0.01495   -0.00925   -0.01822
C1    1    0.873319    0.521179    0.185642    11.00000    0.02668    0.03315 =
         0.05359   -0.03132    0.01216   -0.01084
C3    1    0.884903    0.322936    0.178758    11.00000    0.00606    0.04751 =
         0.07040   -0.02044   -0.00176   -0.01155
C2    1    0.820910    0.438416    0.197535    11.00000    0.02307    0.00898 =
         0.05133   -0.01225   -0.02759    0.00977
C5    1    1.056448    0.399551    0.119178    11.00000    0.04081    0.05771 =
         0.03293   -0.01399   -0.01026   -0.03198
C4    1    0.999653    0.311854    0.139359    11.00000    0.00695    0.02127 =
         0.10498   -0.03360   -0.01282    0.00988
C6    1    1.029901    0.612751    0.116930    11.00000    0.11148    0.12921 =
         0.03528   -0.02820    0.03804   -0.08889
C9    1    0.834111    0.589623    0.208391    11.00000    0.19233    0.26658 =
         0.09141   -0.01227    0.05931   -0.20855
C8    1    0.817723    0.697491    0.163833    11.00000    0.17748    0.93476 =
         0.16386   -0.26566    0.12795   -0.32145
C7    1    0.977714    0.687338    0.194408    11.00000    0.49095    0.65288 =
         1.11107   -0.40074    0.70851   -0.39894
C10   1    0.674674    0.443110    0.250214    11.00000    0.04391    0.04783 =
         0.06160   -0.02114   -0.02373    0.03666
S4    5    0.403686    0.359745    0.101191    11.00000    0.12420    0.35139 =
         0.38416   -0.22749    0.03035   -0.06190
S3    5    0.300118    0.577617    0.168719    11.00000    0.11251    0.15281 =
         0.35281    0.01107    0.00635   -0.07122
C11   1    0.311128    0.565437    0.087152    11.00000    0.10041    0.13014 =
         0.00579   -0.02495   -0.00338   -0.04806
C12   1    0.247694    0.651679    0.026857    11.00000    0.12698    0.18412 =
         0.01706    0.01103   -0.00050   -0.12549
C13   1    0.219445    0.690078    0.382685    11.00000    0.03841    0.03684 =
         0.13221   -0.04456    0.06021   -0.01446
C14   1    0.106085    0.680073    0.372057    11.00000    0.09331    0.05868 =
         0.05599   -0.01629    0.03010   -0.04645
C15   1    0.226581    0.751296    0.439068    11.00000    0.06497    0.04182 =
         0.03099   -0.01299    0.01891   -0.02627
HKLF 4

REM  p1 in P-1
REM R1 =  0.3443 for    4749 Fo > 4sig(Fo)  and  0.4057 for all    8997 data
REM    218 parameters refined using      0 restraints

END

WGHT      0.2000      0.0000

REM Highest difference peak  7.516,  deepest hole -4.720,  1-sigma level  0.669
Q1    1   0.2705  0.3902  0.4616  11.00000  0.05    4.30
Q2    1   0.6974  0.9684  0.1733  11.00000  0.05    4.13
Q3    1   0.9992  0.5127  0.1327  11.00000  0.05    4.08
Q4    1   0.2957  0.2164  0.4231  11.00000  0.05    3.94
Q5    1   0.4818  0.5398  0.2942  11.00000  0.05    3.66
Q6    1   0.5878  0.6821  0.2572  11.00000  0.05    3.65
Q7    1   0.6618  0.6228  0.3397  11.00000  0.05    3.64
Q8    1   0.5119  0.8969  0.2270  11.00000  0.05    3.54
Q9    1   0.3581  0.2327  0.3668  11.00000  0.05    3.54
Q10   1   0.6643  0.1332  0.1987  11.00000  0.05    3.46
Q11   1   0.5088  0.6402  0.2380  11.00000  0.05    3.41
Q12   1   0.3632  0.1937  0.1429  11.00000  0.05    3.41
Q13   1   0.7114  0.2595  0.2140  11.00000  0.05    3.40
Q14   1   0.6332 -0.0197  0.2496  11.00000  0.05    3.38
Q15   1   0.5230  0.6654  0.3964  11.00000  0.05    3.38
Q16   1   0.5925  0.1701  0.2733  11.00000  0.05    3.36
Q17   1   0.6175  0.8121  0.3544  11.00000  0.05    3.32
Q18   1   0.7734  0.0515  0.2085  11.00000  0.05    3.27
Q19   1   0.3912  0.2788  0.1605  11.00000  0.05    3.26
Q20   1   0.4766  0.8235  0.2626  11.00000  0.05    3.24
Q21   1   0.2534  1.0580  0.3148  11.00000  0.05    3.23
Q22   1   0.6577  0.1232  0.3555  11.00000  0.05    3.13
Q23   1   0.3457  0.2087  0.3368  11.00000  0.05    3.11
Q24   1   0.7765  0.0461  0.3635  11.00000  0.05    3.10
Q25   1   0.3272  0.4224  0.3979  11.00000  0.05    3.09
Q26   1   0.0012  0.7592  0.4903  11.00000  0.05    3.08
Q27   1   0.1482  0.5989  0.4720  11.00000  0.05    3.06
Q28   1   0.4273  0.0993  0.1321  11.00000  0.05    3.02
Q29   1   0.3637  0.0168  0.3140  11.00000  0.05    2.98
Q30   1   0.1825  0.7491  0.0259  11.00000  0.05    2.96
Q31   1   0.6826 -0.0590  0.3385  11.00000  0.05    2.96
Q32   1   0.6009  0.7067  0.4185  11.00000  0.05    2.94
Q33   1   0.5501  0.4740  0.3685  11.00000  0.05    2.93
Q34   1   0.5715  0.8614  0.2905  11.00000  0.05    2.89
Q35   1   0.4083  0.0033  0.1205  11.00000  0.05    2.89
Q36   1   0.1920  0.2715  0.3268  11.00000  0.05    2.87
Q37   1   0.4533  0.7226  0.3194  11.00000  0.05    2.87
Q38   1   0.2193  0.6959  0.1787  11.00000  0.05    2.81
Q39   1   0.8354  0.0015  0.2986  11.00000  0.05    2.81
Q40   1   0.3499  0.1843  0.0677  11.00000  0.05    2.78
Q41   1   0.1649  0.7794  0.0954  11.00000  0.05    2.77
Q42   1   0.3525  0.4804  0.2617  11.00000  0.05    2.76
Q43   1   0.7891  0.4455  0.2132  11.00000  0.05    2.75
Q44   1   0.6230  1.0051 -0.0417  11.00000  0.05    2.67
Q45   1   0.6376  0.5191  0.3973  11.00000  0.05    2.66
Q46   1   0.0277  0.5188  0.4034  11.00000  0.05    2.63
Q47   1   0.5968  0.8151  0.0250  11.00000  0.05    2.63
Q48   1  -0.0051  0.7051  0.4260  11.00000  0.05    2.62
Q49   1   0.8374  0.2331  0.1969  11.00000  0.05    2.58
Q50   1   0.1544  0.9355  0.0309  11.00000  0.05    2.56
;
_shelx_res_checksum              71660
_shelx_hkl_file
;
  -2   0   0   16.09    0.87
  -2   0   0   17.03    0.91
   2   0   0   18.25    1.02
  -3   0   0   25.92    1.33
   3   0   0   26.84    1.51
  -4   0   0  177.35    4.93
   4   0   0  177.14    5.32
  -5   0   0  147.68    4.61
   5   0   0  151.44    5.10
   6   0   0    2.62    0.91
   7   0   0   38.00    2.76
   8   0   0    8.12    1.79
   9   0   0   29.00    3.24
  10   0   0    1.92    1.42
  11   0   0    0.04    1.26
  12   0   0    1.34    1.55
  13   0   0    6.69    2.33
  13  -1   0    3.62    2.04
  12  -1   0   -1.53    1.34
  11  -1   0    5.15    1.96
  10  -1   0    3.68    1.67
   9  -1   0   30.11    3.40
   8  -1   0   16.22    2.31
   7  -1   0   16.12    2.13
  -7   1   0   16.89    1.99
   6  -1   0    7.62    1.45
  -6   1   0    9.47    1.41
  -6   1   0    7.13    1.34
   5  -1   0   24.96    1.90
  -5   1   0   26.30    1.68
  -5   1   0   22.94    1.72
   4  -1   0  104.75    3.81
  -4   1   0  102.99    3.40
  -4   1   0  101.92    3.55
   3  -1   0  121.38    3.78
  -3   1   0  121.23    3.46
  -3   1   0  115.34    3.59
   2  -1   0  676.56   14.64
  -2   1   0  707.71   14.37
  -2   1   0  668.68   14.52
   1  -1   0    4.63    0.46
  -1   1   0    5.92    0.49
   2   1   0    3.43    0.53
   3   1   0  357.83    8.50
   4   1   0   44.05    2.19
   5   1   0  103.96    3.98
   6   1   0   33.96    2.34
   7   1   0   34.84    2.57
   8   1   0   -0.09    0.85
   9   1   0    1.35    1.09
  10   1   0    0.47    1.11
  11   1   0    3.61    1.68
  12   1   0    2.72    1.63
  13   1   0   12.21    2.91
  14   1   0    1.52    1.91
  13  -2   0    0.32    1.70
  12  -2   0   -0.54    1.60
  11  -2   0    1.57    1.56
  10  -2   0    1.18    1.34
   9  -2   0   11.72    2.29
   8  -2   0    8.91    1.80
  -8   2   0    6.47    1.47
   7  -2   0   -0.38    0.74
  -7   2   0    1.27    0.95
  -7   2   0   -0.10    0.65
   6  -2   0   24.04    2.57
  -6   2   0   26.90    2.36
  -6   2   0   25.23    2.52
   5  -2   0   12.36    1.64
  -5   2   0    9.65    1.41
  -5   2   0   12.14    1.49
   4  -2   0    4.91    1.00
  -4   2   0    4.58    0.81
  -4   2   0    6.36    1.12
   3  -2   0   23.27    1.47
  -3   2   0   21.27    1.22
  -3   2   0   22.61    1.45
   2  -2   0   -0.04    0.22
  -2   2   0    0.95    0.48
  -2   2   0    0.06    0.19
   1  -2   0  154.69    3.57
  -1   2   0  174.34    4.14
  -1   2   0  129.92    3.60
   0   2   0   46.16    1.68
   1   2   0   19.54    1.01
   1   2   0   21.29    0.96
   2   2   0   23.06    1.12
   2   2   0   24.98    1.19
   3   2   0   28.63    1.50
   4   2   0   77.25    3.00
   5   2   0   29.39    1.95
   6   2   0    0.18    0.51
   7   2   0    1.81    0.86
   8   2   0   16.53    2.32
   9   2   0   27.08    2.99
  10   2   0    7.66    1.91
  11   2   0   13.12    2.48
  12   2   0    0.83    1.39
  13   2   0   -0.87    1.50
  14   2   0   -1.43    1.56
  12  -3   0   -1.14    1.70
  11  -3   0    2.65    1.86
  10  -3   0   -0.12    1.27
   9  -3   0   -0.66    1.18
  -9   3   0    0.87    1.40
   8  -3   0    4.03    1.36
  -8   3   0    3.82    1.61
  -8   3   0    2.80    1.24
   7  -3   0    8.34    1.73
  -7   3   0    9.45    1.92
  -7   3   0    8.49    1.52
   6  -3   0    6.62    1.42
  -6   3   0    5.60    1.23
  -6   3   0    6.53    1.47
   5  -3   0   12.26    1.73
  -5   3   0   13.13    1.59
  -5   3   0   13.80    1.87
   4  -3   0   37.97    2.20
  -4   3   0   36.12    2.21
   3  -3   0   27.86    1.69
  -3   3   0   31.65    1.88
  -2   3   0   13.02    1.36
  -2   3   0   12.16    0.87
   1  -3   0  107.84    2.79
   1  -3   0  106.22    2.98
  -1   3   0  109.13    2.96
  -1   3   0  103.71    3.44
   0   3   0  465.49    9.77
   0   3   0  454.59   10.53
   1   3   0   76.81    2.12
   1   3   0   72.35    2.55
   2   3   0   92.43    2.69
   2   3   0   93.05    2.99
   3   3   0  105.73    3.26
   3   3   0  106.18    3.41
   4   3   0   27.49    1.67
   4   3   0   27.06    1.59
   5   3   0    0.74    0.52
   6   3   0    5.99    1.20
   7   3   0   21.34    2.32
   8   3   0    8.26    1.72
   9   3   0    5.07    1.35
  10   3   0   -0.73    0.92
  11   3   0   -0.52    1.09
  12   3   0    1.34    1.33
  13   3   0    0.44    1.40
  14   3   0    2.07    1.83
  12  -4   0   -1.32    1.82
  11  -4   0   -0.92    1.67
  10  -4   0    3.59    1.83
   9  -4   0   10.37    2.35
  -9   4   0   10.77    2.00
  -9   4   0   12.21    2.52
   8  -4   0    8.27    1.98
  -8   4   0    8.29    1.98
  -8   4   0   12.07    1.94
   7  -4   0   77.62    4.38
  -7   4   0   85.53    4.50
  -7   4   0   75.58    3.71
   6  -4   0   25.12    2.71
  -6   4   0   28.84    3.01
   5  -4   0   44.63    2.76
  -5   4   0   41.23    2.69
   4  -4   0    0.08    0.52
  -4   4   0    1.18    0.59
  -4   4   0    0.33    0.67
  -3   4   0   18.81    1.32
  -3   4   0   21.90    2.09
   2  -4   0   10.70    1.16
  -2   4   0    7.59    1.25
  -2   4   0   10.44    1.10
   1  -4   0   50.63    1.74
   1  -4   0   51.60    1.92
  -1   4   0   49.82    1.91
  -1   4   0   50.22    2.43
   0   4   0  243.97    5.79
   0   4   0  255.35    6.75
   1   4   0   29.93    1.69
   1   4   0   28.28    1.22
   2   4   0  120.11    3.33
   2   4   0  118.26    3.92
   3   4   0    8.62    1.13
   3   4   0    9.86    1.04
   4   4   0   27.37    1.76
   4   4   0   32.92    1.76
   5   4   0    6.14    1.11
   5   4   0    5.37    1.02
   6   4   0    3.71    1.07
   6   4   0    2.43    0.80
   7   4   0   30.82    2.37
   8   4   0    2.79    1.15
   9   4   0    5.52    1.60
  10   4   0    1.23    1.19
  11   4   0    5.77    1.79
  12   4   0    6.48    2.13
  13   4   0    2.99    1.76
  14   4   0   -0.52    1.68
  11  -5   0    0.52    1.92
  10  -5   0    4.57    2.09
   9  -5   0   19.38    3.11
  -9   5   0   17.92    3.11
   8  -5   0    3.07    1.51
  -8   5   0    4.21    1.75
   7  -5   0   30.50    3.22
  -7   5   0   34.25    3.39
   6  -5   0    2.30    1.19
  -6   5   0    0.85    0.91
  -6   5   0    2.10    1.27
   5  -5   0   -0.60    0.57
  -5   5   0   -0.07    0.77
  -5   5   0   -0.90    0.49
  -4   5   0   28.85    2.38
  -4   5   0   30.32    1.91
   3  -5   0  162.49    5.11
  -3   5   0  164.18    4.88
  -3   5   0  161.77    5.79
   2  -5   0  273.35    7.14
  -2   5   0  275.91    6.99
  -2   5   0  281.60    8.10
   1  -5   0   51.72    1.91
   1  -5   0   58.49    2.19
  -1   5   0   57.38    2.87
   0   5   0   47.43    1.82
   0   5   0   49.81    2.54
   1   5   0    8.93    0.86
   1   5   0    8.51    1.20
   2   5   0   -0.01    0.45
   2   5   0    0.31    0.39
   3   5   0   52.18    2.15
   3   5   0   49.88    2.54
   4   5   0    1.09    0.60
   4   5   0    1.70    0.66
   5   5   0  110.24    4.17
   5   5   0  100.10    3.81
   6   5   0   85.78    3.72
   6   5   0   81.04    3.60
   7   5   0   26.37    2.60
   7   5   0   26.65    2.61
   8   5   0   33.29    2.45
   8   5   0   29.43    2.92
   9   5   0   34.32    2.67
   9   5   0   34.49    3.49
  10   5   0   23.34    2.77
  10   5   0   31.54    3.52
  11   5   0   18.65    2.96
  12   5   0   16.22    2.80
  13   5   0    3.51    1.85
  14   5   0   -0.89    1.33
  -9   6   0   -0.89    1.55
   8  -6   0    4.25    1.58
  -8   6   0    3.65    1.88
   7  -6   0    0.39    1.22
  -7   6   0    0.85    1.33
   6  -6   0    2.34    1.19
  -6   6   0    0.69    1.12
   5  -6   0    1.33    0.95
  -5   6   0    2.75    1.36
  -5   6   0    2.61    1.03
   4  -6   0   19.36    2.12
  -4   6   0   17.00    1.82
  -4   6   0   15.15    2.19
   3  -6   0   42.34    2.35
  -3   6   0   41.45    2.88
  -3   6   0   41.00    2.21
   2  -6   0   31.44    1.82
  -2   6   0   28.06    2.35
  -2   6   0   32.32    1.79
   1  -6   0    1.49    0.47
   1  -6   0    1.17    0.45
  -1   6   0    0.59    0.65
   0   6   0    0.59    0.41
   0   6   0   -0.58    0.54
   1   6   0    6.00    0.81
   1   6   0    3.50    0.97
   2   6   0    9.69    1.45
   2   6   0    8.31    0.97
   3   6   0  123.63    3.84
   3   6   0  123.82    4.65
   4   6   0  187.42    6.16
   4   6   0  186.75    5.46
   5   6   0   25.31    2.40
   5   6   0   20.20    1.68
   6   6   0    4.72    1.24
   6   6   0    2.64    0.99
   7   6   0    1.27    0.89
   7   6   0    1.14    0.93
   8   6   0   33.63    2.61
   8   6   0   36.31    2.71
   9   6   0   -0.62    0.79
   9   6   0    0.16    0.91
  10   6   0   27.08    3.06
  10   6   0   17.46    2.48
  11   6   0   17.63    2.75
  12   6   0   16.48    2.93
  13   6   0    5.42    1.96
  14   6   0    0.69    1.49
  -9   7   0    2.28    2.17
  -8   7   0    4.20    1.96
  -7   7   0    8.63    2.27
  -6   7   0    5.60    1.79
  -5   7   0    0.83    1.19
   4  -7   0   15.60    2.01
  -4   7   0   14.25    2.07
  -4   7   0   14.87    2.41
   3  -7   0    1.76    0.86
  -3   7   0   -0.44    0.91
  -3   7   0    2.19    0.94
   2  -7   0    0.28    0.52
  -2   7   0    0.27    0.84
  -2   7   0   -0.04    0.56
   1  -7   0   -0.32    0.37
   1  -7   0    0.05    0.37
  -1   7   0    0.88    0.75
  -1   7   0    0.32    0.52
   0   7   0    9.28    1.69
   0   7   0   12.05    1.29
   1   7   0   33.41    1.67
   1   7   0   36.86    2.57
   2   7   0   52.91    2.20
   2   7   0   56.18    3.09
   3   7   0   26.95    1.64
   3   7   0   32.32    2.35
   4   7   0   -0.43    0.55
   4   7   0    0.33    0.65
   5   7   0   69.76    3.64
   5   7   0   70.29    3.18
   6   7   0   34.51    2.59
   6   7   0   34.50    2.39
   7   7   0   52.72    3.12
   7   7   0   51.73    3.25
   8   7   0   78.10    4.13
   8   7   0   77.41    4.12
   9   7   0    6.13    1.59
   9   7   0    4.30    1.43
  10   7   0    0.36    1.08
  10   7   0   -0.23    1.13
  11   7   0    0.77    1.23
  12   7   0    0.17    1.34
  13   7   0    0.75    1.61
  14   7   0   -1.52    1.70
  -9   8   0   -0.41    1.92
  -8   8   0    2.65    2.01
  -7   8   0    8.45    2.35
  -6   8   0    3.61    1.65
  -5   8   0    1.22    1.24
  -4   8   0   15.51    2.65
  -3   8   0   32.50    3.44
  -2   8   0   36.53    2.19
  -2   8   0   37.80    3.07
  -1   8   0    7.02    1.59
  -1   8   0    5.80    1.12
   0   8   0    2.11    0.98
   1   8   0    0.73    0.87
   2   8   0    2.03    0.70
   2   8   0    1.42    0.85
   3   8   0    1.69    0.77
   3   8   0    0.33    0.79
   4   8   0    6.33    1.43
   4   8   0    4.01    0.98
   5   8   0    8.47    1.41
   5   8   0    7.42    1.63
   6   8   0   52.99    3.00
   6   8   0   48.98    3.29
   7   8   0   44.93    3.00
   7   8   0   45.30    3.22
   8   8   0    4.53    1.49
   8   8   0    6.15    1.56
   9   8   0   -0.47    1.04
   9   8   0    0.92    1.15
  10   8   0   19.13    2.79
  10   8   0   18.02    2.69
  11   8   0   30.87    3.81
  11   8   0   40.68    5.56
  12   8   0   12.02    2.65
  13   8   0    0.87    1.68
  14   8   0    0.56    1.88
  -8   9   0    1.40    2.01
  -7   9   0    3.53    2.11
  -6   9   0    5.79    2.07
  -5   9   0    0.69    1.35
  -4   9   0   25.72    3.54
  -3   9   0   30.95    3.57
  -2   9   0   26.07    3.28
  -1   9   0   15.39    2.46
   0   9   0    5.10    1.51
   1   9   0    0.75    0.99
   2   9   0    1.98    1.05
   3   9   0   19.55    2.54
   4   9   0    6.93    1.57
   5   9   0    7.93    1.77
   5   9   0   12.46    2.13
   6   9   0    6.71    1.72
   6   9   0    2.84    1.18
   7   9   0    0.70    0.99
   7   9   0    0.54    1.02
   8   9   0    0.34    0.91
   8   9   0   -0.05    1.03
   9   9   0    6.67    1.86
   9   9   0    7.24    1.98
  10   9   0   28.02    3.28
  10   9   0   19.59    2.93
  11   9   0   37.98    4.89
  11   9   0   20.71    3.15
  12   9   0   16.28    2.91
  13   9   0    2.14    1.85
  14   9   0    1.62    1.91
  -7  10   0    1.47    2.29
  -6  10   0   -0.32    1.48
  -5  10   0    2.08    1.62
  -4  10   0    4.70    1.89
  -3  10   0   16.84    3.00
  -2  10   0   21.66    3.22
  -1  10   0   20.47    2.94
   0  10   0    0.35    1.11
   1  10   0   43.42    3.49
   2  10   0   10.81    2.10
   3  10   0   66.26    4.15
   4  10   0   33.97    3.53
   5  10   0    4.52    1.45
   6  10   0   -0.33    1.06
   7  10   0    0.89    1.22
   8  10   0   17.00    2.80
   9  10   0    9.60    2.35
   9  10   0    7.06    2.89
  10  10   0   11.09    2.31
  10  10   0    7.67    2.11
  11  10   0    4.47    1.90
  11  10   0    3.47    2.14
  12  10   0    3.04    2.12
  13  10   0    2.95    2.10
  -6  11   0    1.74    2.01
  -5  11   0    1.60    1.81
  -4  11   0    1.44    1.68
  -3  11   0   -0.19    1.32
  -2  11   0    3.01    1.79
  -1  11   0    2.88    1.65
   0  11   0    4.18    1.63
   1  11   0   61.83    4.37
   2  11   0   23.33    3.19
   3  11   0   27.69    3.42
   4  11   0    0.27    1.04
   5  11   0    8.18    2.10
   6  11   0    6.69    1.89
   7  11   0   10.55    2.29
   8  11   0   15.63    2.68
   9  11   0    2.23    1.66
  10  11   0    2.24    1.72
  11  11   0   -0.78    1.98
  -5  12   0   -0.26    1.95
  -4  12   0    5.27    2.29
  -3  12   0    4.91    2.39
  -2  12   0    3.12    1.79
  -1  12   0    1.44    1.54
   0  12   0    2.31    1.55
   1  12   0   -0.49    1.30
   2  12   0    0.92    1.57
   3  12   0    7.90    2.15
   4  12   0   13.49    2.68
   5  12   0   15.30    2.82
   6  12   0   10.03    2.35
   7  12   0    3.77    1.74
   8  12   0    1.16    1.64
   9  12   0   -1.44    1.43
  10  12   0    1.00    1.68
  11  12   0    2.19    2.85
  -3  13   0   -1.04    1.97
  -2  13   0   -0.43    1.87
  -1  13   0    0.00    1.69
   0  13   0   -0.52    1.59
   1  13   0    3.55    1.73
   2  13   0    4.59    1.96
   3  13   0    8.77    2.80
   4  13   0   17.87    3.23
   5  13   0   20.61    3.45
   6  13   0    1.99    1.59
   7  13   0   -0.30    1.53
   8  13   0   12.56    3.02
   9  13   0   19.86    3.47
  10  13   0    8.21    2.62
  -1  14   0   -0.20    1.97
   0  14   0   -0.52    1.79
   1  14   0    2.05    2.05
   2  14   0    2.12    1.90
   3  14   0    2.88    1.86
   4  14   0   -2.58    1.68
   5  14   0    1.39    2.11
   6  14   0   -1.12    1.69
   7  14   0    3.04    2.04
   8  14   0   10.00    2.98
   9  14   0    6.75    2.60
  10  14   0    6.52    2.76
   2  15   0    0.64    2.08
   3  15   0   -0.07    2.00
   4  15   0   -0.67    1.99
   5  15   0   -2.85    2.04
   6  15   0    0.12    2.11
   7  15   0   -1.50    1.94
   8  15   0    0.84    2.26
   7  15  -1   -2.01    2.11
   6  15  -1    0.01    2.11
   5  15  -1    0.60    2.22
   4  15  -1    0.50    2.33
   3  15  -1    2.94    2.16
   9  14  -1    1.22    2.39
   8  14  -1    1.09    1.98
   7  14  -1   -0.67    1.71
   6  14  -1   -1.29    1.75
   5  14  -1    1.01    1.70
   4  14  -1    0.75    2.00
   3  14  -1   -0.46    1.90
   2  14  -1    1.83    1.92
   1  14  -1    1.17    1.92
   0  14  -1   -1.62    1.87
  -1  14  -1    1.65    2.07
  11  13  -1    0.97    2.28
  10  13  -1    0.50    1.88
   9  13  -1    3.39    2.19
   8  13  -1   12.35    2.95
   7  13  -1   12.93    2.84
   6  13  -1   10.48    2.71
   5  13  -1    1.95    1.84
   4  13  -1    3.31    1.81
   3  13  -1   -0.60    1.58
   2  13  -1   -0.46    1.37
   1  13  -1   -1.03    1.34
   0  13  -1   -0.63    1.47
  -1  13  -1   -0.78    1.53
  -2  13  -1    0.78    1.80
  -3  13  -1    0.39    2.04
  11  12  -1    0.03    1.92
  10  12  -1    4.01    2.32
   9  12  -1   23.73    3.66
   8  12  -1   43.11    4.69
   7  12  -1   33.44    4.17
   6  12  -1    2.21    1.80
   5  12  -1    1.06    1.39
   4  12  -1   27.86    3.61
   3  12  -1   22.29    3.23
   2  12  -1    8.91    2.44
   1  12  -1    4.66    1.84
   0  12  -1    6.19    1.93
  -1  12  -1    3.37    1.99
  -2  12  -1    0.53    1.41
  -3  12  -1   -0.59    1.49
  -4  12  -1    2.92    2.00
  11  11  -1    3.48    2.22
  10  11  -1    2.23    1.86
   9  11  -1    5.68    2.25
   8  11  -1    1.72    1.64
   7  11  -1    2.50    1.55
   6  11  -1    0.89    1.28
   5  11  -1    8.06    2.12
   4  11  -1   63.15    4.40
   3  11  -1   88.68    5.26
   2  11  -1   41.87    4.27
   1  11  -1    0.26    1.27
   0  11  -1    1.61    1.38
  -1  11  -1   10.27    2.26
  -2  11  -1   12.66    2.65
  -3  11  -1    3.06    1.86
  -4  11  -1    5.63    2.39
  -5  11  -1    5.87    2.41
  -6  11  -1    1.97    2.07
  11  10  -1    1.46    1.78
  10  10  -1    0.96    1.71
   9  10  -1    2.49    1.49
   8  10  -1    3.16    1.66
   7  10  -1    2.35    1.43
   6  10  -1   10.00    2.13
   5  10  -1    6.44    1.81
   4  10  -1    4.39    1.57
   3  10  -1    2.89    1.34
   2  10  -1    5.30    1.62
   1  10  -1   17.33    2.73
   0  10  -1   11.16    2.32
  -1  10  -1   20.93    3.02
  -2  10  -1    9.07    2.12
  -3  10  -1    3.57    1.61
  -4  10  -1    0.02    1.44
  -5  10  -1    0.40    1.54
  -6  10  -1    1.95    2.10
  -7  10  -1    3.03    2.38
  13   9  -1    1.14    1.77
  12   9  -1    3.14    1.85
  11   9  -1    3.65    1.63
  11   9  -1    0.36    1.55
  10   9  -1    0.42    1.30
  10   9  -1   -0.48    1.24
   9   9  -1   22.68    2.97
   9   9  -1   20.66    2.96
   8   9  -1   18.41    2.80
   8   9  -1   11.72    2.07
   7   9  -1    4.60    1.64
   6   9  -1    2.63    1.32
   5   9  -1   46.42    3.41
   4   9  -1   18.77    2.64
   3   9  -1   -0.50    0.82
   2   9  -1    3.41    1.25
   1   9  -1    1.59    1.13
   0   9  -1   -0.29    0.98
  -1   9  -1    8.84    1.57
  -1   9  -1   11.29    2.15
  -2   9  -1   -0.24    1.05
  -3   9  -1   -0.33    1.10
  -4   9  -1    2.13    1.69
  -5   9  -1    6.60    2.22
  -6   9  -1    7.87    2.43
  -7   9  -1    4.77    2.07
  -8   9  -1    0.89    2.03
  14   8  -1    0.53    1.79
  13   8  -1    0.05    1.63
  12   8  -1   -0.47    1.27
  11   8  -1    4.59    1.63
  11   8  -1    6.98    2.12
  10   8  -1    2.85    1.52
  10   8  -1    5.09    1.62
   9   8  -1   11.14    2.22
   9   8  -1    6.68    1.74
   8   8  -1   10.20    1.92
   8   8  -1    9.96    2.03
   7   8  -1    0.76    1.04
   7   8  -1    2.48    1.15
   6   8  -1    1.98    1.13
   6   8  -1    2.93    1.03
   5   8  -1    0.16    0.68
   5   8  -1   -0.13    0.78
   4   8  -1   32.59    1.99
   4   8  -1   34.40    2.73
   3   8  -1   28.63    2.94
   2   8  -1   31.41    2.58
   1   8  -1   24.26    2.77
   0   8  -1    0.14    0.82
  -1   8  -1    0.29    0.64
  -1   8  -1    0.19    0.86
  -2   8  -1   -0.21    0.89
  -2   8  -1   -0.01    0.65
  -3   8  -1    4.42    1.57
  -3   8  -1    5.46    1.35
  -4   8  -1   15.72    2.60
  -5   8  -1   15.18    2.73
  -6   8  -1    3.25    1.78
  -7   8  -1    1.06    1.54
  -8   8  -1    0.75    1.79
  14   7  -1    0.39    1.80
  13   7  -1   11.21    2.56
  12   7  -1    5.17    1.77
  11   7  -1    9.29    2.25
  11   7  -1   10.09    2.00
  10   7  -1   30.94    3.36
  10   7  -1   33.42    3.70
   9   7  -1   15.83    2.32
   9   7  -1   18.12    2.58
   8   7  -1    0.30    0.92
   8   7  -1    0.11    1.01
   7   7  -1    0.47    0.88
   7   7  -1   -0.33    0.72
   6   7  -1   25.01    2.38
   6   7  -1   25.32    2.80
   5   7  -1   59.85    3.47
   5   7  -1   62.25    2.92
   4   7  -1   97.92    3.47
   4   7  -1   94.25    4.40
   3   7  -1  119.87    4.91
   3   7  -1  111.95    3.57
   2   7  -1   98.98    3.04
   2   7  -1  104.49    4.50
   1   7  -1    8.46    0.88
   1   7  -1    8.70    1.51
   0   7  -1    1.56    0.91
  -1   7  -1    3.11    1.14
  -2   7  -1   21.81    2.17
  -2   7  -1   15.69    2.17
  -3   7  -1   27.52    2.93
  -3   7  -1   32.95    2.18
  -4   7  -1   24.92    2.44
  -4   7  -1   19.40    2.71
  -5   7  -1   14.95    2.45
  -6   7  -1    1.22    1.27
  -7   7  -1   -0.05    1.34
  -8   7  -1    2.06    1.56
  14   6  -1    0.10    1.53
  13   6  -1    2.16    1.72
  12   6  -1    1.65    1.55
  11   6  -1    1.68    1.44
  11   6  -1    0.53    1.19
  10   6  -1   -0.53    1.00
  10   6  -1    2.45    1.46
   9   6  -1    7.28    1.73
   9   6  -1   10.36    1.93
   8   6  -1    9.50    1.76
   8   6  -1   13.02    2.09
   7   6  -1   19.52    2.13
   7   6  -1   21.17    2.47
   6   6  -1   33.41    2.47
   6   6  -1   31.40    2.19
   5   6  -1   49.70    2.52
   5   6  -1   48.17    2.91
   4   6  -1  105.58    4.38
   4   6  -1  101.09    3.54
   3   6  -1   61.16    3.16
   3   6  -1   52.50    2.17
   2   6  -1    0.98    0.72
   2   6  -1    2.89    0.57
   1   6  -1   32.59    1.36
   1   6  -1   27.77    2.10
   0   6  -1   23.02    2.33
  -1   6  -1   61.51    3.29
   1  -6   1   63.25    2.28
  -2   6  -1   42.28    2.29
  -2   6  -1   41.72    2.77
   2  -6   1   44.22    2.08
  -3   6  -1   68.76    3.03
  -3   6  -1   69.57    3.81
   3  -6   1   68.04    2.95
  -4   6  -1   23.08    2.71
  -4   6  -1   24.85    2.40
   4  -6   1   25.85    2.43
  -5   6  -1   31.46    3.31
  -5   6  -1   22.90    2.57
   5  -6   1   27.42    2.62
  -6   6  -1   -0.76    0.74
  -6   6  -1    0.89    1.25
   6  -6   1    1.15    1.06
  -7   6  -1   19.68    3.03
  -8   6  -1   21.25    3.08
  -9   6  -1   10.60    3.18
  14   5  -1    2.94    1.95
  13   5  -1   -1.26    1.30
  12   5  -1   -0.50    1.11
  11   5  -1    3.81    1.67
  11   5  -1    2.14    1.40
  10   5  -1   11.30    2.25
  10   5  -1    8.79    1.95
   9   5  -1    0.92    1.00
   9   5  -1   -0.20    0.83
   8   5  -1    3.58    1.28
   8   5  -1    1.50    0.90
   7   5  -1    3.42    1.08
   7   5  -1    2.17    0.95
   6   5  -1   43.42    2.59
   6   5  -1   42.80    2.65
   5   5  -1   10.59    1.33
   5   5  -1   10.81    1.55
   4   5  -1   36.25    2.29
   4   5  -1   38.83    1.95
   3   5  -1   66.13    3.10
   3   5  -1   69.97    2.48
   2   5  -1   46.54    2.51
   2   5  -1   47.81    1.76
   1   5  -1  125.82    4.46
   1   5  -1  124.95    3.19
   0   5  -1  105.73    4.04
  -1   5  -1   50.49    2.75
   1  -5   1   49.54    1.86
  -2   5  -1   -0.31    0.58
  -2   5  -1    0.03    0.37
   2  -5   1   -0.29    0.41
  -3   5  -1    6.52    1.33
   3  -5   1    6.09    1.05
  -4   5  -1   21.37    2.46
   4  -5   1   20.67    2.02
  -5   5  -1   36.83    2.80
   5  -5   1   35.66    2.51
  -6   5  -1    4.85    1.29
  -6   5  -1    3.72    1.38
   6  -5   1    1.29    1.03
  -7   5  -1    1.95    1.18
  -7   5  -1    1.02    1.25
   7  -5   1    4.19    1.35
  -8   5  -1   22.14    2.74
  -8   5  -1   29.31    3.48
   8  -5   1   30.01    3.39
  -9   5  -1    4.71    2.10
   9  -5   1    6.85    2.11
  10  -5   1   -0.67    1.78
  14   4  -1    1.26    1.64
  13   4  -1   -0.85    1.33
  12   4  -1    0.13    1.27
  11   4  -1   11.65    2.45
  10   4  -1   31.11    3.52
   9   4  -1    7.00    1.65
   8   4  -1    3.12    1.14
   7   4  -1   30.84    2.39
   6   4  -1    7.19    1.29
   6   4  -1    8.00    1.31
   5   4  -1    1.67    0.64
   5   4  -1    1.91    0.69
   4   4  -1   11.39    1.25
   4   4  -1    8.84    1.27
   3   4  -1    3.72    0.67
   3   4  -1    4.03    0.88
   2   4  -1   57.50    2.60
   2   4  -1   59.65    1.95
   1   4  -1  129.89    4.26
   1   4  -1  132.57    3.20
   0   4  -1   46.89    1.47
   0   4  -1   45.58    2.25
  -1   4  -1   17.02    1.69
   1  -4   1   16.52    0.94
  -2   4  -1   82.95    3.36
   2  -4   1   78.95    2.75
  -3   4  -1  217.96    6.48
  -3   4  -1  188.56    5.70
   3  -4   1  216.26    5.87
  -4   4  -1  126.73    4.22
  -4   4  -1  122.32    4.65
   4  -4   1  115.94    4.34
  -5   4  -1   29.55    2.02
  -5   4  -1   28.73    2.28
   5  -4   1   29.88    2.22
  -6   4  -1   -0.66    0.84
  -6   4  -1   -0.33    0.58
   6  -4   1   -0.69    0.73
  -7   4  -1   13.89    2.02
  -7   4  -1   15.64    2.43
   7  -4   1   19.22    2.45
  -8   4  -1    0.64    0.94
  -8   4  -1   -0.12    1.18
   8  -4   1    1.36    1.24
  -9   4  -1    0.40    1.38
  -9   4  -1    1.31    1.25
   9  -4   1    1.95    1.41
 -10   4  -1    0.86    2.08
  10  -4   1    0.04    1.40
  11  -4   1    0.84    1.81
  12  -4   1    5.24    2.28
  14   3  -1    0.61    1.71
  13   3  -1    1.09    1.79
  12   3  -1   10.36    2.50
  11   3  -1   36.22    3.95
  10   3  -1   26.42    3.25
   9   3  -1   40.08    3.23
   8   3  -1    0.81    0.86
   7   3  -1   18.43    2.24
   6   3  -1  182.80    6.08
   5   3  -1   80.37    3.36
   4   3  -1   74.62    3.01
   4   3  -1   72.38    2.86
   3   3  -1  110.51    3.68
   3   3  -1  108.57    3.33
   2   3  -1    2.13    0.45
   2   3  -1    1.44    0.51
   1   3  -1  252.73    6.49
   0   3  -1  128.77    3.90
  -1   3  -1   48.26    2.17
   1  -3   1   49.29    1.62
  -2   3  -1   69.46    2.73
  -2   3  -1   69.30    2.45
   2  -3   1   68.21    2.38
  -3   3  -1   90.13    3.12
  -3   3  -1   91.85    3.47
   3  -3   1   85.42    3.15
  -4   3  -1   64.64    2.77
  -4   3  -1   70.06    3.12
   4  -3   1   68.72    3.00
  -5   3  -1   38.20    2.34
  -5   3  -1   31.14    2.02
   5  -3   1   33.63    2.32
  -6   3  -1    4.89    1.17
  -6   3  -1    3.51    1.15
   6  -3   1    2.99    1.14
  -7   3  -1   36.89    2.56
  -7   3  -1   37.52    2.87
   7  -3   1   35.37    2.84
  -8   3  -1   59.89    3.78
  -8   3  -1   58.77    3.45
   8  -3   1   62.40    3.94
  -9   3  -1   14.80    2.57
  -9   3  -1   11.97    2.26
   9  -3   1   11.72    2.38
 -10   3  -1    1.10    1.27
  10  -3   1    2.02    1.75
  11  -3   1    0.07    1.49
  12  -3   1    2.83    1.80
  14   2  -1    3.05    2.18
  13   2  -1    0.42    1.55
  12   2  -1   10.12    2.40
  11   2  -1    2.40    1.55
  10   2  -1    3.01    1.44
   9   2  -1   20.43    2.75
   8   2  -1   24.91    2.80
   7   2  -1  105.36    4.63
   6   2  -1  177.10    5.99
   5   2  -1  283.31    7.87
   4   2  -1   99.47    3.53
   3   2  -1   59.60    2.29
   2   2  -1  116.45    3.14
   2   2  -1  114.98    3.44
   1   2  -1   11.53    0.84
   0   2  -1   37.56    1.55
  -1   2  -1   94.67    2.71
  -1   2  -1   94.03    2.91
   1  -2   1   95.74    2.48
  -2   2  -1  168.05    4.66
  -2   2  -1  178.15    4.51
   2  -2   1  172.00    4.50
  -3   2  -1   54.89    2.28
  -3   2  -1   53.51    2.15
   3  -2   1   53.44    2.27
  -4   2  -1   13.45    1.42
  -4   2  -1   12.50    1.41
   4  -2   1   11.73    1.42
  -5   2  -1    2.44    0.75
  -5   2  -1    1.05    0.67
   5  -2   1    2.80    0.89
  -6   2  -1    3.16    1.03
  -6   2  -1    4.61    1.17
   6  -2   1    5.54    1.25
  -7   2  -1   20.82    2.41
  -7   2  -1   20.04    2.27
   7  -2   1   21.90    2.62
  -8   2  -1   59.38    3.40
  -8   2  -1   56.32    3.55
   8  -2   1   61.97    3.89
  -9   2  -1   27.26    3.12
   9  -2   1   37.49    3.79
  10  -2   1    2.78    1.64
  11  -2   1   -0.93    1.49
  12  -2   1    8.24    2.35
  13  -2   1    2.01    2.02
  14   1  -1   -1.51    1.60
  13   1  -1    1.22    1.46
  12   1  -1   -0.58    1.28
  11   1  -1    3.66    1.57
  10   1  -1   13.01    2.46
   9   1  -1    9.27    1.97
   8   1  -1    6.20    1.58
   7   1  -1   19.29    2.32
   6   1  -1   81.29    3.75
   5   1  -1   13.04    1.61
   4   1  -1   97.02    3.55
   3   1  -1   12.95    1.24
   2   1  -1  299.39    6.94
   1   1  -1  265.50    6.05
   0   1  -1  217.35    4.93
  -1   1  -1  168.17    4.04
  -1   1  -1  171.00    4.06
  -2   1  -1   11.49    0.96
  -2   1  -1    9.70    0.77
   2  -1   1    9.25    0.74
  -3   1  -1   83.80    2.75
  -3   1  -1   83.96    2.71
   3  -1   1   82.40    2.91
  -4   1  -1   14.65    1.19
  -4   1  -1   17.85    1.56
   4  -1   1   17.15    1.37
  -5   1  -1   33.45    1.94
  -5   1  -1   30.00    1.87
   5  -1   1   25.62    1.91
  -6   1  -1   -0.22    0.62
  -6   1  -1    1.79    0.80
   6  -1   1    1.40    0.83
  -7   1  -1   12.80    1.86
  -7   1  -1   11.42    1.71
   7  -1   1   12.98    1.96
  -8   1  -1   24.29    2.54
   8  -1   1   21.27    2.66
   9  -1   1   21.25    2.98
  10  -1   1    0.36    1.20
  11  -1   1   -0.35    1.32
  12  -1   1    3.58    1.90
  13  -1   1    0.84    1.62
  13   0  -1    0.67    1.61
  12   0  -1    4.19    2.02
  11   0  -1    3.55    1.85
  10   0  -1    9.04    2.14
   9   0  -1    3.57    1.58
   8   0  -1    1.39    0.95
   7   0  -1   11.70    1.89
   6   0  -1   22.98    2.46
   5   0  -1  193.22    6.16
   4   0  -1   75.46    3.11
   3   0  -1   60.24    2.40
   2   0  -1   45.48    1.75
   1   0  -1  101.93    2.58
  -1   0  -1    3.54    0.39
  -2   0  -1  163.56    3.91
  -2   0  -1  170.63    4.15
   2   0   1  171.94    4.28
  -3   0  -1   67.13    2.18
  -3   0  -1   64.87    2.28
   3   0   1   63.61    2.43
  -4   0  -1   29.01    1.55
  -4   0  -1   32.62    1.71
   4   0   1   31.92    1.84
  -5   0  -1   98.55    3.55
   5   0   1   97.69    3.83
  -6   0  -1    2.04    0.76
   6   0   1    3.53    1.07
  -7   0  -1    0.44    0.66
   7   0   1    0.86    0.81
   8   0   1    1.17    1.00
   9   0   1    1.43    1.21
  10   0   1    0.06    1.17
  11   0   1    4.13    1.79
  12   0   1   -0.19    1.49
  13   0   1    1.57    1.77
  13  -1  -1    0.84    1.73
  12  -1  -1    3.97    1.85
  11  -1  -1    7.12    2.23
  10  -1  -1    2.13    1.52
   9  -1  -1   -0.33    0.98
   8  -1  -1   33.47    3.45
   7  -1  -1   63.36    3.72
   6  -1  -1   99.86    4.42
   5  -1  -1   64.84    3.21
  -5   1   1   68.64    3.11
   4  -1  -1   25.04    1.72
  -4   1   1   24.43    1.67
  -4   1   1   25.46    1.45
   3  -1  -1    3.46    0.73
  -3   1   1    2.23    0.68
  -3   1   1    4.06    0.63
   2  -1  -1   22.67    1.23
  -2   1   1   21.83    1.25
   1  -1  -1    2.18    0.39
   1  -1  -1    2.71    0.37
  -1   1   1    2.28    0.41
   1   1   1  191.42    4.35
  -2  -1  -1  125.22    3.23
   2   1   1  123.39    3.33
  -3  -1  -1   49.88    1.93
   3   1   1   52.04    2.10
  -4  -1  -1    9.55    1.12
   4   1   1   10.92    1.31
  -5  -1  -1    0.69    0.52
   5   1   1    0.50    0.54
   6   1   1    3.71    1.08
   7   1   1   28.20    2.33
   8   1   1   42.38    3.07
   9   1   1   28.83    3.19
  10   1   1    9.97    2.05
  11   1   1    6.37    2.04
  12   1   1   -0.38    1.32
  13   1   1   -0.90    1.44
  14   1   1   -0.24    1.72
  13  -2  -1    3.71    2.31
  12  -2  -1    8.39    2.46
  11  -2  -1    4.91    2.00
  10  -2  -1    0.26    1.40
   9  -2  -1    7.40    1.96
   8  -2  -1   38.18    3.72
   7  -2  -1   17.25    2.40
  -7   2   1   17.73    2.27
   6  -2  -1   13.13    1.94
  -6   2   1   11.79    1.81
  -6   2   1   15.14    1.71
   5  -2  -1    0.76    0.61
  -5   2   1   -0.57    0.56
  -5   2   1   -0.20    0.48
   4  -2  -1    6.58    1.15
  -4   2   1   10.36    1.42
   3  -2  -1    3.18    0.72
  -3   2   1    2.97    0.60
  -3   2   1    3.65    0.80
   2  -2  -1  117.73    3.52
  -2   2   1  117.49    3.06
  -2   2   1  116.58    3.59
  -1   2   1   55.85    2.05
   0   2   1    9.39    0.70
   1   2   1    0.27    0.25
   1   2   1    0.81    0.31
   2   2   1  490.67   10.69
   3   2   1   50.88    1.82
   3   2   1   52.56    2.12
   4   2   1  137.38    4.33
   5   2   1   97.88    3.76
   6   2   1   61.38    3.13
   7   2   1  134.14    5.29
   8   2   1   68.26    3.84
   9   2   1    3.47    1.27
  10   2   1    0.23    1.01
  11   2   1    1.75    1.36
  12   2   1    1.56    1.45
  13   2   1    5.76    2.22
  14   2   1    4.84    2.29
  12  -3  -1    0.49    1.76
  11  -3  -1    2.61    1.83
  10  -3  -1    1.30    1.50
   9  -3  -1    8.26    1.92
   8  -3  -1   19.19    2.93
  -8   3   1   20.96    2.93
   7  -3  -1   45.25    3.26
  -7   3   1   44.10    2.62
  -7   3   1   41.42    3.06
   6  -3  -1    5.66    1.39
  -6   3   1    2.58    1.14
  -6   3   1    1.57    0.65
   5  -3  -1    0.51    0.67
  -5   3   1    0.18    0.41
  -5   3   1   -0.65    0.54
   4  -3  -1    4.78    1.01
  -4   3   1    2.95    0.72
  -4   3   1    4.20    1.04
   3  -3  -1   11.07    1.34
  -3   3   1   12.64    1.49
  -3   3   1   12.07    1.09
   2  -3  -1   36.88    1.75
   2  -3  -1   37.02    1.56
  -2   3   1   34.39    1.38
  -2   3   1   34.89    1.90
  -1   3   1   82.86    2.23
  -1   3   1   82.40    2.93
  -1   3   1   82.06    2.65
   0   3   1  201.77    5.25
   0   3   1  198.33    4.83
   1   3   1  235.17    5.52
   1   3   1  234.15    5.80
   2   3   1   13.67    0.97
   2   3   1   15.27    1.01
   3   3   1   -0.09    0.19
   3   3   1    0.92    0.50
   4   3   1   10.68    1.15
   5   3   1  241.89    6.91
   6   3   1   81.49    3.64
   7   3   1   16.01    2.08
   8   3   1    2.42    1.07
   9   3   1    3.28    1.38
  10   3   1    8.26    1.94
  11   3   1    8.41    2.21
  12   3   1   10.14    2.39
  13   3   1    1.99    1.62
  14   3   1    1.73    1.85
  12  -4  -1    1.31    2.04
  11  -4  -1   -1.17    1.40
  10  -4  -1    0.20    1.29
   9  -4  -1    4.67    1.69
  -9   4   1    7.28    2.11
   8  -4  -1   -1.21    1.09
  -8   4   1    0.24    1.16
   7  -4  -1    6.38    1.65
  -7   4   1    0.19    0.76
  -7   4   1    4.21    1.63
   6  -4  -1    1.38    0.98
  -6   4   1    1.51    1.02
  -6   4   1    1.85    0.83
   5  -4  -1   12.69    1.79
  -5   4   1   10.68    1.41
  -5   4   1   11.49    1.84
   4  -4  -1  126.04    4.65
  -4   4   1  125.26    4.77
  -4   4   1  124.35    3.99
   3  -4  -1   70.55    2.97
  -3   4   1   64.35    3.12
  -3   4   1   65.58    2.42
  -2   4   1  145.08    4.88
  -2   4   1  151.31    3.98
  -1   4   1    0.57    0.34
  -1   4   1    2.22    0.71
  -1   4   1    1.60    0.56
   0   4   1    4.01    0.69
   0   4   1    6.14    0.95
   1   4   1  101.25    2.94
   1   4   1   98.87    3.35
   2   4   1    4.45    0.76
   2   4   1    2.98    0.62
   3   4   1   70.36    2.64
   3   4   1   71.99    2.73
   4   4   1   55.77    2.48
   4   4   1   56.42    2.43
   6   4   1   49.81    2.47
   7   4   1   30.46    2.03
   7   4   1   31.07    2.37
   8   4   1    2.59    1.11
   9   4   1   -0.08    0.83
  10   4   1   19.11    2.80
  11   4   1   16.38    2.69
  12   4   1    3.58    1.68
  13   4   1   -1.37    1.32
  14   4   1    0.09    1.55
  11  -5  -1   -1.76    1.83
  10  -5  -1    0.27    1.65
 -10   5   1    2.07    2.01
   9  -5  -1    9.63    2.39
  -9   5   1    6.50    2.10
   8  -5  -1   10.13    2.31
  -8   5   1    9.92    2.40
   7  -5  -1   11.45    2.15
  -7   5   1    9.26    1.99
   6  -5  -1   -0.61    0.91
  -6   5   1   -0.31    0.95
  -6   5   1   -0.32    0.71
   5  -5  -1    8.19    1.56
  -5   5   1    8.76    1.40
  -5   5   1    5.99    1.40
   4  -5  -1   50.56    2.83
  -4   5   1   52.96    3.17
  -4   5   1   50.56    2.37
  -3   5   1    4.82    1.16
  -3   5   1    5.51    0.92
   2  -5  -1   15.90    1.28
   2  -5  -1   15.14    1.51
  -2   5   1   15.53    1.79
  -2   5   1   14.00    1.04
  -1   5   1    9.41    1.40
  -1   5   1    9.05    0.97
  -1   5   1    7.70    1.09
   0   5   1  167.72    4.54
   0   5   1  163.17    5.27
   1   5   1  228.72    6.48
   1   5   1  222.93    5.67
   2   5   1   71.81    2.56
   2   5   1   74.28    3.02
   3   5   1   29.45    1.63
   3   5   1   25.58    1.73
   4   5   1   45.11    2.33
   4   5   1   44.77    2.24
   5   5   1   21.64    1.73
   5   5   1   21.62    1.65
   6   5   1    0.04    0.60
   6   5   1   -0.36    0.45
   7   5   1   -0.16    0.41
   7   5   1    0.91    0.81
   8   5   1    7.69    1.60
   8   5   1    7.08    1.38
   9   5   1   23.63    2.50
   9   5   1   22.24    2.78
  10   5   1    3.15    1.38
  10   5   1    3.29    1.41
  11   5   1   10.11    2.25
  12   5   1   -0.08    1.26
  13   5   1    3.46    1.85
  14   5   1    1.56    1.63
  10  -6  -1    7.83    2.57
 -10   6   1    4.07    2.28
   9  -6  -1   12.14    2.53
  -9   6   1    8.16    2.43
   8  -6  -1   18.23    2.95
  -8   6   1   15.62    2.92
   7  -6  -1   22.06    2.84
  -7   6   1   24.86    3.34
   6  -6  -1    0.81    1.05
  -6   6   1    0.71    1.23
   5  -6  -1    7.03    1.53
  -5   6   1    4.10    1.39
  -5   6   1    5.09    1.55
  -4   6   1    5.82    1.09
  -4   6   1    8.04    1.69
   3  -6  -1    2.52    0.91
  -3   6   1    4.42    0.90
  -3   6   1    3.84    1.29
   2  -6  -1   33.10    1.93
   2  -6  -1   30.60    1.63
  -2   6   1   35.75    2.51
  -2   6   1   32.00    1.66
  -1   6   1  120.49    3.63
  -1   6   1  118.98    4.64
   0   6   1   83.94    2.95
   0   6   1   86.03    3.75
   1   6   1   55.33    2.23
   1   6   1   55.48    2.85
   2   6   1   79.56    2.85
   2   6   1   78.48    3.39
   3   6   1    6.46    1.15
   3   6   1    8.81    1.16
   4   6   1   53.35    2.80
   4   6   1   54.07    2.52
   5   6   1  199.71    6.09
   5   6   1  194.02    6.25
   6   6   1  133.16    4.94
   6   6   1  132.78    4.90
   7   6   1   68.31    3.45
   7   6   1   70.37    3.68
   8   6   1    2.62    1.14
   8   6   1    2.33    0.97
   9   6   1    9.12    1.91
   9   6   1    0.53    0.97
  10   6   1    1.16    1.01
  10   6   1    1.89    1.23
  11   6   1    0.49    1.22
  12   6   1    4.36    1.70
  13   6   1    2.00    1.54
  14   6   1    2.17    1.80
 -10   7   1    0.29    2.04
  -9   7   1    1.36    1.87
  -8   7   1    5.15    1.99
   7  -7  -1    2.49    2.24
  -7   7   1    2.24    1.53
   6  -7  -1    1.72    1.25
  -6   7   1    2.86    1.46
   5  -7  -1    0.96    0.85
  -5   7   1    4.43    1.65
   4  -7  -1   23.69    2.48
  -4   7   1   21.95    2.96
   3  -7  -1   25.13    2.38
  -3   7   1   26.26    2.27
  -3   7   1   26.28    3.02
   2  -7  -1   20.23    1.61
  -2   7   1   24.28    1.56
  -2   7   1   28.89    3.00
   1  -7  -1   -0.03    0.46
   1  -7  -1   -0.12    0.37
  -1   7   1   -0.19    0.58
  -1   7   1   -0.21    0.43
   0   7   1    0.77    0.73
   0   7   1    1.26    0.64
   1   7   1    1.96    0.70
   1   7   1    1.59    0.89
   2   7   1   12.29    1.72
   2   7   1   14.11    1.42
   3   7   1    0.76    0.72
   3   7   1    1.29    0.65
   4   7   1   33.47    2.04
   4   7   1   31.80    2.25
   5   7   1  232.18    7.32
   5   7   1  219.20    6.63
   6   7   1  115.00    4.74
   6   7   1  104.78    4.41
   7   7   1   53.19    3.14
   7   7   1   60.38    3.37
   8   7   1    1.76    1.05
   8   7   1    2.57    1.12
   9   7   1    5.53    1.64
   9   7   1   10.32    1.87
  10   7   1   18.50    2.67
  11   7   1    8.80    2.18
  12   7   1    9.54    2.31
  13   7   1    6.65    2.25
  14   7   1    5.61    2.22
  -9   8   1    2.50    2.41
  -8   8   1    1.79    1.91
  -7   8   1   -0.11    1.61
  -6   8   1    1.06    1.36
  -5   8   1   -0.12    1.19
  -4   8   1   16.70    2.66
  -3   8   1   16.73    2.61
   2  -8  -1    4.61    1.08
  -2   8   1    6.34    1.68
   1  -8  -1    5.49    0.92
   1  -8  -1    5.66    1.07
  -1   8   1    3.81    0.90
  -1   8   1    2.41    1.20
   0   8   1    5.61    1.39
   0   8   1    3.38    0.94
   1   8   1    4.44    0.94
   1   8   1    4.16    1.30
   2   8   1    8.88    1.26
   2   8   1    6.92    1.47
   3   8   1   19.03    1.82
   3   8   1   18.50    2.21
   4   8   1   21.83    2.43
   4   8   1   20.35    1.94
   5   8   1   16.51    2.14
   5   8   1   18.37    1.98
   6   8   1    8.88    1.53
   6   8   1    9.97    1.80
   7   8   1    5.08    1.36
   7   8   1    4.63    1.41
   8   8   1   -0.25    0.80
   8   8   1    0.47    1.10
   9   8   1   17.95    2.46
   9   8   1   11.90    2.13
  10   8   1   21.49    3.02
  10   8   1   18.55    2.62
  11   8   1    9.43    2.25
  12   8   1    3.88    1.88
  13   8   1    1.12    1.73
  14   8   1    0.29    1.69
  -8   9   1    0.71    1.95
  -7   9   1   -0.96    1.58
  -6   9   1    7.89    2.34
  -5   9   1    5.97    2.04
  -4   9   1    9.44    2.31
  -3   9   1    8.17    2.05
  -2   9   1   -1.12    0.85
  -1   9   1    0.88    1.05
   0   9   1    1.78    1.09
   1   9   1    2.62    1.33
   2   9   1   -0.55    0.82
   3   9   1    9.51    1.79
   3   9   1    9.84    1.41
   4   9   1    1.51    0.89
   4   9   1    1.63    0.92
   5   9   1    9.32    1.56
   5   9   1    6.38    1.56
   6   9   1    1.02    0.94
   6   9   1    0.33    0.92
   7   9   1    7.28    1.64
   7   9   1    5.79    1.45
   8   9   1   10.89    2.07
   8   9   1    8.64    1.89
   9   9   1   10.87    2.15
   9   9   1   15.62    2.55
  10   9   1    5.19    1.85
  10   9   1    6.66    1.87
  11   9   1   -0.27    1.38
  12   9   1    1.08    1.72
  13   9   1    0.22    1.86
  14   9   1    0.64    2.01
  -7  10   1    1.56    2.05
  -6  10   1    2.93    1.95
  -5  10   1    3.77    1.95
  -4  10   1   -0.59    1.21
  -3  10   1    7.80    2.31
  -2  10   1   24.62    3.19
  -1  10   1   25.65    3.16
   0  10   1   18.83    2.72
   1  10   1   25.91    3.10
   2  10   1    1.00    1.17
   3  10   1    6.37    1.66
   4  10   1    1.56    1.07
   5  10   1   24.69    3.01
   6  10   1   48.06    3.51
   7  10   1    8.16    1.98
   7  10   1    7.56    1.60
   8  10   1    7.35    2.02
   8  10   1   13.09    2.09
   9  10   1    7.12    1.86
   9  10   1    8.77    2.10
  10  10   1    0.34    1.29
  10  10   1    2.10    1.43
  11  10   1    2.75    1.66
  12  10   1    5.19    2.09
  13  10   1    1.55    1.89
  -6  11   1   -0.64    1.91
  -5  11   1    3.25    2.00
  -4  11   1    6.41    2.29
  -3  11   1   14.43    2.99
  -2  11   1   30.84    3.81
  -1  11   1   23.80    3.44
   0  11   1    4.73    1.68
   1  11   1    0.39    1.27
   2  11   1   20.32    2.91
   3  11   1   72.57    4.55
   4  11   1   66.32    4.42
   5  11   1   36.53    3.87
   6  11   1    5.04    1.74
   7  11   1    8.85    2.00
   8  11   1    3.82    1.73
   9  11   1    0.99    1.38
  10  11   1    1.73    1.69
  12  11   1   16.42    4.21
  13  11   1    2.62    1.95
  -5  12   1    5.43    2.58
  -4  12   1    2.22    2.00
  -3  12   1   -0.67    1.63
  -2  12   1   -0.62    1.45
  -1  12   1    0.08    1.27
   0  12   1    0.17    1.41
   1  12   1    0.67    1.32
   2  12   1    5.84    1.84
   3  12   1   31.48    3.81
   4  12   1   32.76    3.75
   5  12   1    2.25    1.71
   6  12   1    0.88    1.37
   7  12   1    8.59    2.22
   8  12   1   26.76    3.62
   9  12   1   20.15    3.40
  10  12   1    5.69    2.06
  -3  13   1   -0.32    1.86
  -2  13   1    1.92    2.04
  -1  13   1    0.87    1.63
   0  13   1   -0.32    1.58
   1  13   1   -1.29    1.36
   2  13   1   -0.62    1.29
   3  13   1    0.51    1.31
   4  13   1    0.64    1.62
   5  13   1    2.58    1.74
   6  13   1    1.19    1.64
   7  13   1    9.51    2.46
   8  13   1    5.58    2.13
   9  13   1   10.63    2.82
  10  13   1    3.49    1.97
  -1  14   1    7.66    2.68
   0  14   1    0.65    1.99
   1  14   1   -0.90    1.79
   2  14   1    1.96    1.85
   3  14   1    0.60    1.61
   4  14   1   -0.21    1.74
   5  14   1   -1.77    1.58
   6  14   1    1.18    1.68
   7  14   1   -1.32    1.83
   8  14   1    0.53    1.75
   9  14   1   -0.98    1.89
  10  14   1   -0.62    2.05
   1  15   1    1.17    2.23
   2  15   1   -0.34    1.94
   3  15   1    4.13    2.28
   4  15   1    8.11    2.69
   5  15   1    0.55    2.12
   6  15   1   -2.78    1.71
   7  15   1    0.88    2.13
   8  15   1   -1.88    2.13
   9  14  -2   11.46    3.06
   8  14  -2    1.63    2.39
   7  14  -2    2.03    2.12
   6  14  -2    2.30    1.98
   5  14  -2    2.24    2.22
   4  14  -2   -0.73    1.83
   3  14  -2   -1.47    1.83
   2  14  -2    2.04    1.98
   1  14  -2    7.09    2.58
   0  14  -2    5.56    2.30
  10  13  -2    6.37    2.68
   9  13  -2   15.56    3.34
   8  13  -2   17.27    3.41
   7  13  -2    1.24    1.99
   6  13  -2    1.36    1.76
   5  13  -2    3.99    1.95
   4  13  -2    8.09    2.68
   3  13  -2    3.91    2.03
   2  13  -2    1.30    2.00
   1  13  -2    0.32    1.49
   0  13  -2    3.82    2.04
  -1  13  -2    2.89    2.19
  -2  13  -2   -0.57    1.71
  11  12  -2   -0.64    2.18
  10  12  -2   -1.62    1.68
   9  12  -2   -0.63    1.77
   8  12  -2    1.37    1.65
   7  12  -2   -0.02    1.69
   6  12  -2   11.45    2.74
   5  12  -2   36.28    4.30
   4  12  -2   14.87    2.77
   3  12  -2    0.60    1.44
   2  12  -2    0.42    1.36
   1  12  -2    1.07    1.56
   0  12  -2    0.82    1.40
  -1  12  -2    3.71    1.81
  -2  12  -2    0.76    1.80
  -3  12  -2    1.48    1.89
  -4  12  -2   -0.60    2.02
  12  11  -2   -0.23    2.27
  11  11  -2    0.64    1.80
  10  11  -2   10.01    2.84
   9  11  -2    7.39    2.38
   8  11  -2   10.92    2.62
   7  11  -2   14.97    2.84
   6  11  -2    1.29    1.48
   5  11  -2    1.96    1.33
   4  11  -2   -0.55    1.05
   3  11  -2    9.24    2.08
   2  11  -2   17.86    2.93
   1  11  -2   16.80    2.99
   0  11  -2   17.60    2.99
  -1  11  -2    4.60    1.76
  -2  11  -2    3.14    1.72
  -3  11  -2   -1.48    1.41
  -4  11  -2   -0.10    1.63
  -5  11  -2   -1.93    1.80
  12  10  -2    1.67    2.13
  11  10  -2    3.80    2.01
  10  10  -2    6.38    2.26
   9  10  -2   12.82    2.83
   8  10  -2   10.19    2.40
   7  10  -2    5.41    1.75
   6  10  -2    2.40    1.62
   5  10  -2    2.04    1.38
   4  10  -2   11.37    2.25
   3  10  -2   19.89    2.82
   2  10  -2   10.81    2.16
   1  10  -2   20.97    2.91
   0  10  -2    7.12    1.90
  -1  10  -2   -0.11    1.24
  -2  10  -2   -0.45    1.19
  -3  10  -2   -1.28    1.05
  -4  10  -2    5.58    2.03
  -5  10  -2    8.60    2.25
  -6  10  -2   12.31    2.98
  -7  10  -2    3.69    2.27
  13   9  -2   -0.35    1.62
  12   9  -2    4.73    2.00
  12   9  -2    3.94    2.19
  11   9  -2    2.16    1.65
  11   9  -2    3.27    1.91
  10   9  -2   10.25    2.39
  10   9  -2   12.89    3.25
   9   9  -2    6.62    1.89
   8   9  -2    7.86    2.04
   7   9  -2    8.86    2.10
   6   9  -2   -0.36    1.02
   5   9  -2    9.05    1.96
   4   9  -2    1.26    1.02
   3   9  -2    6.15    1.55
   2   9  -2   12.49    2.07
   1   9  -2   11.53    2.19
   0   9  -2   12.05    2.23
  -1   9  -2   -0.20    0.67
  -1   9  -2    2.38    1.34
  -2   9  -2   14.94    2.51
  -2   9  -2   13.57    2.16
  -3   9  -2    7.96    2.16
  -4   9  -2   25.30    3.48
  -5   9  -2    3.75    1.66
  -6   9  -2    0.55    1.57
  -7   9  -2   -0.82    1.66
  13   8  -2   -0.18    1.58
  12   8  -2    6.43    2.57
  12   8  -2   14.62    2.96
  11   8  -2    9.17    2.23
  11   8  -2   14.82    2.80
  10   8  -2    7.37    1.93
  10   8  -2   13.02    2.69
   9   8  -2    2.53    1.62
   9   8  -2    0.82    1.14
   8   8  -2   -0.29    0.85
   8   8  -2    0.20    0.98
   7   8  -2   12.35    2.17
   7   8  -2   10.88    1.82
   6   8  -2   13.51    1.81
   6   8  -2    9.09    1.88
   5   8  -2    5.40    1.59
   4   8  -2   12.43    2.10
   3   8  -2   24.37    2.76
   2   8  -2   17.51    2.35
   1   8  -2    9.08    1.70
   0   8  -2    5.45    1.49
  -1   8  -2    0.48    0.99
  -3   8  -2   30.15    3.45
  -3   8  -2   22.08    2.65
  -4   8  -2   12.07    2.42
  -5   8  -2    4.27    1.73
  -6   8  -2    1.13    1.47
  -7   8  -2    1.47    1.62
  -8   8  -2    0.48    2.22
  14   7  -2    0.24    1.49
  13   7  -2    0.45    1.57
  12   7  -2    0.66    1.51
  12   7  -2    0.01    1.45
  11   7  -2    0.04    1.20
  11   7  -2   -0.37    1.26
  10   7  -2    1.57    1.47
  10   7  -2    2.43    1.31
   9   7  -2    5.30    1.63
   9   7  -2    6.57    1.66
   8   7  -2   79.62    4.56
   8   7  -2   83.71    4.10
   7   7  -2  113.94    5.34
   7   7  -2  116.47    4.73
   6   7  -2   57.01    3.55
   6   7  -2   52.24    2.87
   5   7  -2   27.82    1.95
   5   7  -2   29.74    3.03
   4   7  -2    8.87    1.16
   4   7  -2    7.76    1.56
   3   7  -2   42.48    1.87
   3   7  -2   40.75    2.89
   2   7  -2   22.18    2.40
   1   7  -2   24.04    2.57
   0   7  -2   11.95    1.89
  -1   7  -2    0.34    0.95
  -2   7  -2    3.01    1.16
  -2   7  -2    2.33    0.83
  -3   7  -2   30.30    3.17
  -4   7  -2    8.29    2.03
  -5   7  -2    1.95    1.35
  -5   7  -2   -0.62    0.76
  -6   7  -2    7.19    2.05
  -7   7  -2   11.39    2.51
  -8   7  -2    3.68    2.04
  14   6  -2    0.17    1.73
  13   6  -2    2.28    1.81
  12   6  -2   10.10    2.31
  12   6  -2   14.82    2.79
  11   6  -2   13.28    2.64
  11   6  -2   12.38    2.39
  10   6  -2   34.84    3.83
  10   6  -2   22.19    2.94
   9   6  -2   10.01    2.04
   9   6  -2    7.08    1.66
   8   6  -2   58.19    3.52
   8   6  -2   53.74    3.56
   7   6  -2   15.61    2.22
   7   6  -2   14.34    1.95
   6   6  -2    1.14    0.71
   6   6  -2    1.83    0.95
   5   6  -2   27.88    2.78
   5   6  -2   19.97    1.59
   4   6  -2   28.05    1.69
   4   6  -2   32.96    2.38
   3   6  -2  178.52    6.11
   3   6  -2  161.68    4.47
   2   6  -2  113.76    3.07
   2   6  -2  117.30    4.70
   1   6  -2   79.49    2.09
   1   6  -2   75.04    3.63
   0   6  -2    4.37    1.07
   0  -6   2    4.48    0.50
  -1   6  -2   -1.09    0.49
   1  -6   2    0.02    0.31
  -2   6  -2   12.85    1.64
  -2   6  -2   12.15    1.84
   2  -6   2   13.40    1.35
  -3   6  -2   31.30    2.11
  -3   6  -2   35.32    2.73
  -4   6  -2    1.71    1.15
  -4   6  -2    3.00    1.12
  -5   6  -2    9.56    1.84
  -5   6  -2    9.29    1.72
  -6   6  -2   21.04    2.52
  -6   6  -2   22.55    2.91
  -7   6  -2    6.12    1.82
  -7   6  -2    4.43    1.52
  -8   6  -2    5.07    1.86
  14   5  -2    0.40    1.61
  13   5  -2    1.57    1.58
  12   5  -2   12.17    2.73
  12   5  -2    6.51    2.09
  11   5  -2   14.34    2.68
  11   5  -2   15.35    2.61
  10   5  -2   25.61    3.23
  10   5  -2   25.75    3.11
   9   5  -2    3.40    1.33
   9   5  -2    2.00    1.18
   8   5  -2    4.87    1.39
   8   5  -2    2.58    1.17
   7   5  -2    1.01    0.77
   7   5  -2    0.19    0.68
   6   5  -2   17.49    2.09
   6   5  -2   18.56    1.95
   5   5  -2   34.19    2.42
   5   5  -2   40.35    2.20
   4   5  -2   11.22    1.65
   4   5  -2   10.95    1.22
   3   5  -2  199.93    6.29
   3   5  -2  196.73    5.11
   2   5  -2   43.44    1.54
   2   5  -2   42.48    2.49
   1   5  -2   65.85    3.10
   0   5  -2    1.18    0.64
  -1   5  -2  106.26    4.19
   1  -5   2  102.91    2.86
  -2   5  -2  126.94    4.30
  -2   5  -2  123.53    4.75
   2  -5   2  118.23    3.64
  -3   5  -2  238.88    6.81
  -3   5  -2  230.20    7.40
   3  -5   2  238.23    6.46
  -4   5  -2   61.40    3.03
  -4   5  -2   61.81    3.45
   4  -5   2   60.31    2.88
  -5   5  -2    1.81    1.09
  -5   5  -2    2.63    1.02
   5  -5   2    5.01    1.24
  -6   5  -2    1.27    1.06
  -6   5  -2    1.43    0.97
   6  -5   2    0.72    1.03
  -7   5  -2    3.10    1.40
  -7   5  -2    2.09    1.40
   7  -5   2   -0.39    0.83
  -8   5  -2    6.18    1.86
  -8   5  -2    5.11    1.62
   8  -5   2    4.06    2.01
  -9   5  -2    0.66    1.78
  14   4  -2    1.27    1.88
  13   4  -2    1.51    1.68
  12   4  -2    3.65    1.74
  11   4  -2   17.32    2.79
  10   4  -2   28.02    3.35
   9   4  -2   -0.34    0.94
   8   4  -2   27.53    2.86
   7   4  -2    7.74    1.49
   6   4  -2   21.59    2.15
   6   4  -2   21.77    2.27
   5   4  -2   38.16    2.40
   5   4  -2   41.95    2.29
   4   4  -2    4.60    1.03
   4   4  -2    3.84    0.80
   3   4  -2    0.00    0.44
   3   4  -2    0.71    0.40
   2   4  -2    2.14    0.66
   2   4  -2    4.59    0.56
   1   4  -2    0.55    0.46
   0   4  -2    5.00    0.95
  -1   4  -2   55.43    2.70
   1  -4   2   61.70    1.87
  -2   4  -2    1.46    0.61
  -2   4  -2    1.19    0.62
   2  -4   2    1.82    0.53
  -3   4  -2   85.09    3.33
  -3   4  -2   88.94    3.74
   3  -4   2   91.89    3.23
  -4   4  -2   11.64    1.63
  -4   4  -2   12.46    1.59
   4  -4   2   14.98    1.67
  -5   4  -2   -0.71    0.64
  -5   4  -2    0.30    0.55
   5  -4   2    0.12    0.68
  -6   4  -2   33.19    2.40
  -6   4  -2   34.41    2.63
   6  -4   2   25.51    2.59
  -7   4  -2   17.36    2.35
  -7   4  -2   24.26    2.67
   7  -4   2   21.51    2.56
  -8   4  -2   11.86    2.29
  -8   4  -2    9.18    1.99
   8  -4   2    9.71    2.07
  -9   4  -2    0.26    1.13
   9  -4   2   -1.47    1.18
 -10   4  -2    9.91    2.38
  10  -4   2   14.00    2.75
  11  -4   2    0.98    1.72
  14   3  -2    0.58    1.83
  13   3  -2    1.23    1.54
  12   3  -2    1.97    1.52
  11   3  -2    1.37    1.39
  10   3  -2    0.91    1.17
   9   3  -2   -1.05    0.85
   8   3  -2   29.15    3.09
   7   3  -2   37.52    2.66
   6   3  -2    2.40    0.85
   5   3  -2    7.58    1.21
   4   3  -2   44.75    2.16
   4   3  -2   42.89    2.33
   3   3  -2    0.06    0.38
   3   3  -2    0.15    0.34
   2   3  -2    7.23    1.06
   2   3  -2    8.41    0.81
   1   3  -2   10.03    1.19
   0   3  -2   29.19    1.64
  -1   3  -2    6.91    0.96
   1  -3   2    7.10    0.54
  -2   3  -2   10.21    1.22
  -2   3  -2    9.50    1.18
   2  -3   2   10.67    0.84
  -3   3  -2    9.76    1.25
  -3   3  -2    9.50    1.24
   3  -3   2   11.25    1.20
  -4   3  -2    1.61    0.70
  -4   3  -2    1.38    0.75
   4  -3   2    2.50    0.77
  -5   3  -2    0.58    0.72
  -5   3  -2    0.23    0.60
   5  -3   2    0.80    0.70
  -6   3  -2    2.61    1.11
  -6   3  -2    2.19    0.88
   6  -3   2    1.95    1.02
  -7   3  -2   12.09    2.00
  -7   3  -2   11.02    1.91
   7  -3   2   15.22    2.27
  -8   3  -2   15.60    2.33
  -8   3  -2   16.88    2.44
   8  -3   2   17.40    2.54
  -9   3  -2   -0.29    1.11
   9  -3   2    1.16    1.42
 -10   3  -2   -1.08    1.16
  10  -3   2   -0.94    1.39
  11  -3   2    3.80    1.85
  12  -3   2    3.03    2.01
  14   2  -2    1.96    1.91
  13   2  -2    1.02    1.56
  12   2  -2    2.76    1.72
  11   2  -2    9.06    2.15
  10   2  -2   18.70    2.80
   9   2  -2   20.10    2.72
   8   2  -2   53.80    3.52
   7   2  -2   25.12    2.64
   6   2  -2    6.82    1.34
   5   2  -2   39.13    2.31
   4   2  -2   94.45    3.48
   3   2  -2   46.02    2.01
   2   2  -2  138.84    4.11
   2   2  -2  135.35    3.62
   1   2  -2  145.17    4.14
   0   2  -2   62.20    2.25
  -1   2  -2   41.81    1.77
  -2   2  -2   -0.06    0.32
  -2   2  -2    0.24    0.36
   2  -2   2    0.16    0.33
  -3   2  -2   55.11    2.32
  -3   2  -2   57.48    2.36
   3  -2   2   55.24    2.26
  -4   2  -2    9.09    1.20
  -4   2  -2    7.18    1.09
   4  -2   2   11.32    1.35
  -5   2  -2    2.98    0.82
  -5   2  -2    4.26    0.95
   5  -2   2    3.83    0.99
  -6   2  -2   -0.07    0.66
  -6   2  -2    1.24    0.72
   6  -2   2   -0.24    0.64
  -7   2  -2    0.81    0.80
  -7   2  -2    0.19    0.88
   7  -2   2   -0.34    0.76
  -8   2  -2    1.33    1.11
  -8   2  -2    1.23    0.93
   8  -2   2   -0.91    0.86
  -9   2  -2    7.32    1.73
   9  -2   2    3.99    1.63
 -10   2  -2   10.92    2.17
  10  -2   2   12.49    2.46
  11  -2   2    3.36    1.79
  12  -2   2    2.14    1.96
  13  -2   2    1.79    2.23
  13   1  -2    3.68    2.01
  12   1  -2   17.28    3.07
  11   1  -2   13.30    2.62
  10   1  -2   37.76    3.92
   9   1  -2    1.65    1.22
   8   1  -2    2.61    1.17
   7   1  -2    8.78    1.69
   6   1  -2   81.59    3.87
   5   1  -2  217.71    6.69
   4   1  -2  457.51   11.17
   3   1  -2   82.16    2.90
   2   1  -2  174.11    4.47
   1   1  -2   -0.23    0.19
   0   1  -2  143.23    3.65
  -1   1  -2  100.67    2.76
  -1   1  -2  100.24    2.86
   1  -1   2  105.05    2.70
  -2   1  -2   44.15    1.63
  -2   1  -2   46.03    1.78
  -3   1  -2  121.66    3.44
  -3   1  -2  119.22    3.66
   3  -1   2  119.58    3.68
  -4   1  -2  143.60    4.43
  -4   1  -2  146.19    4.20
   4  -1   2  143.24    4.55
  -5   1  -2   32.64    1.96
  -5   1  -2   30.60    1.83
   5  -1   2   31.63    2.06
  -6   1  -2    2.67    0.86
  -6   1  -2    2.81    0.97
   6  -1   2    2.89    1.01
  -7   1  -2    4.33    1.15
  -7   1  -2    6.41    1.36
   7  -1   2    7.74    1.65
  -8   1  -2   13.97    1.99
   8  -1   2   15.87    2.36
  -9   1  -2   10.13    1.99
   9  -1   2   10.81    2.14
 -10   1  -2   28.74    3.25
  10  -1   2   29.68    3.48
  11  -1   2    8.43    2.21
  12  -1   2   -1.35    1.45
  13  -1   2    0.20    1.78
  13   0  -2    2.92    1.94
  12   0  -2    2.00    1.68
  11   0  -2    0.02    1.23
  10   0  -2    1.69    1.34
   9   0  -2    7.37    1.78
   8   0  -2   33.00    3.38
   7   0  -2   16.38    2.27
   6   0  -2   64.49    3.48
   5   0  -2   39.18    2.41
   4   0  -2  124.39    4.29
   3   0  -2   38.28    1.89
   2   0  -2  167.82    4.47
   1   0  -2  212.97    4.98
   1   0  -2  208.95    4.76
  -1   0  -2  637.87   13.34
  -2   0  -2   22.05    1.11
   2   0   2   23.02    1.14
  -3   0  -2   85.98    2.42
  -3   0  -2   85.65    2.79
   3   0   2   78.97    2.81
  -4   0  -2    6.67    0.84
  -4   0  -2    4.58    0.81
   4   0   2    5.68    0.96
  -5   0  -2    2.43    0.70
  -5   0  -2    1.53    0.67
   5   0   2    2.17    0.82
  -6   0  -2    1.59    0.71
   6   0   2    2.06    0.87
  -7   0  -2   26.17    2.59
   7   0   2   20.46    2.38
  -8   0  -2   33.24    2.47
   8   0   2   33.67    2.76
  -9   0  -2   45.54    3.11
   9   0   2   53.10    3.66
  10   0   2   26.79    3.17
  11   0   2    1.84    1.41
  12   0   2    0.62    1.50
  13   0   2    4.76    2.34
  13  -1  -2    2.52    1.91
  12  -1  -2   -0.06    1.64
  11  -1  -2    5.57    2.02
  10  -1  -2   11.01    2.38
   9  -1  -2    0.92    1.15
   8  -1  -2   10.19    2.08
   7  -1  -2    0.32    0.76
   6  -1  -2   10.64    1.71
   5  -1  -2   48.16    2.73
   4  -1  -2    0.67    0.53
  -4   1   2    1.51    0.66
   3  -1  -2    0.47    0.43
  -3   1   2    1.44    0.61
   2  -1  -2   80.06    2.46
   2  -1  -2   78.99    2.69
  -2   1   2   80.16    2.77
  -1   1   2   44.81    1.65
  -1   1   2   44.83    1.69
   0   1   2   52.68    1.67
   0   1   2   56.15    1.64
  -1  -1  -2  244.12    5.31
   1   1   2  239.64    5.52
  -2  -1  -2   12.35    0.80
   2   1   2   13.80    0.91
  -3  -1  -2    0.12    0.30
   3   1   2    0.37    0.44
  -4  -1  -2   99.06    3.38
   4   1   2  104.27    3.59
  -5  -1  -2   66.95    2.82
   5   1   2   67.90    3.03
  -6  -1  -2   12.19    1.59
   6   1   2   12.47    1.68
  -7  -1  -2   28.52    2.12
   7   1   2   33.65    2.53
  -8  -1  -2    5.03    1.32
   8   1   2    6.41    1.58
   9   1   2    3.03    1.28
  10   1   2    5.20    1.69
  11   1   2    0.72    1.42
  12   1   2    1.06    1.47
  13   1   2    9.29    2.56
  14   1   2    2.97    2.03
  13  -2  -2   -0.52    1.94
  12  -2  -2   -1.69    1.40
  11  -2  -2   -0.15    1.52
  10  -2  -2    7.31    2.07
   9  -2  -2    4.28    1.80
   8  -2  -2    2.73    1.40
   7  -2  -2    2.53    1.20
   6  -2  -2    6.35    1.43
  -6   2   2    4.05    1.26
   5  -2  -2   44.79    2.74
  -5   2   2   44.41    2.68
   4  -2  -2    0.69    0.54
  -4   2   2    0.68    0.64
   3  -2  -2   65.06    2.81
  -3   2   2   72.50    2.95
   2  -2  -2   70.66    2.61
  -2   2   2   68.07    2.65
  -1   2   2   70.68    2.37
  -1   2   2   68.76    2.38
   0   2   2    7.40    0.75
   0   2   2    6.71    0.75
  -1  -2  -2  175.16    4.01
   1   2   2  167.41    4.25
  -2  -2  -2   35.07    1.36
   2   2   2   35.34    1.54
  -3  -2  -2  180.04    4.69
   3   2   2  176.17    4.19
   3   2   2  176.47    4.88
  -4  -2  -2   52.43    2.24
   4   2   2   53.98    2.41
  -5  -2  -2   56.91    2.56
   5   2   2   59.75    2.81
  -6  -2  -2    6.13    1.19
   6   2   2    6.97    1.30
   7   2   2   -0.24    0.58
   8   2   2    5.98    1.52
   9   2   2   24.52    2.88
  10   2   2   11.87    2.18
  11   2   2    2.49    1.51
  12   2   2   -0.41    1.13
  13   2   2    1.26    1.64
  14   2   2    1.20    1.81
  12  -3  -2    2.49    2.03
  11  -3  -2    2.34    1.93
  10  -3  -2    6.61    1.91
   9  -3  -2    4.85    1.79
   8  -3  -2    2.21    1.17
   7  -3  -2    3.44    1.39
  -7   3   2    7.72    1.75
   6  -3  -2   15.64    2.14
  -6   3   2   18.59    2.31
   5  -3  -2   69.60    3.62
  -5   3   2   75.58    2.95
  -5   3   2   77.19    3.73
   4  -3  -2  141.95    4.96
  -4   3   2  136.86    4.95
  -4   3   2  136.84    4.10
   3  -3  -2   24.43    1.65
  -3   3   2   23.13    1.72
  -3   3   2   25.34    1.29
   2  -3  -2   15.67    1.29
   2  -3  -2   15.38    1.21
  -2   3   2   14.32    0.82
  -2   3   2   14.67    1.50
  -1   3   2   69.39    2.65
  -1   3   2   72.03    2.55
   0   3   2  110.03    3.23
   0   3   2  109.04    3.34
   1   3   2  318.86    7.27
   1   3   2  301.47    7.23
   3   3   2    1.75    0.58
   3   3   2    2.99    0.54
   4   3   2   67.17    2.29
   4   3   2   61.88    2.68
   5   3   2   25.49    1.43
   5   3   2   25.33    1.79
   6   3   2    4.96    1.14
   7   3   2    1.12    0.83
   8   3   2   48.05    3.20
   9   3   2   38.93    3.10
  10   3   2   17.15    2.57
  11   3   2    0.85    1.19
  12   3   2    0.85    1.41
  13   3   2    0.35    1.34
  14   3   2    1.49    1.77
  12  -4  -2    0.89    1.89
  11  -4  -2   -0.87    1.59
  10  -4  -2    1.68    1.66
   9  -4  -2    9.80    2.26
   8  -4  -2    4.12    1.58
  -8   4   2    4.47    1.73
   7  -4  -2   69.39    4.21
  -7   4   2   76.58    4.41
   6  -4  -2   43.12    3.05
  -6   4   2   38.58    3.01
  -6   4   2   44.95    2.44
   5  -4  -2   60.16    3.40
  -5   4   2   60.65    3.43
  -5   4   2   59.38    2.66
   4  -4  -2   52.62    2.90
  -4   4   2   58.30    2.33
  -4   4   2   51.84    2.99
   3  -4  -2   30.85    1.94
  -3   4   2   32.26    2.17
  -3   4   2   29.88    1.47
   2  -4  -2    0.90    0.53
   2  -4  -2    1.14    0.45
  -2   4   2    0.77    0.60
  -2   4   2    1.09    0.38
  -1   4   2   87.10    3.35
  -1   4   2   88.75    3.08
  -1   4   2   88.98    2.32
   0   4   2  332.11    7.85
   0   4   2  322.68    8.15
   1   4   2  325.31    8.05
   1   4   2  329.99    7.79
   2   4   2  220.96    5.70
   2   4   2  214.59    5.64
   3   4   2    4.63    0.83
   4   4   2    5.52    0.99
   4   4   2    5.65    0.82
   5   4   2   30.74    1.71
   5   4   2   30.60    2.03
   6   4   2   25.73    1.65
   6   4   2   27.85    2.08
   7   4   2   41.72    2.27
   7   4   2   39.21    2.66
   8   4   2   17.65    1.92
   8   4   2   14.26    2.03
   9   4   2   26.72    3.07
  10   4   2   11.02    2.11
  11   4   2    1.49    1.33
  12   4   2    3.98    1.76
  13   4   2    6.39    2.00
  14   4   2    5.62    1.93
  11  -5  -2    0.07    1.62
  10  -5  -2    7.68    2.34
   9  -5  -2   20.62    3.26
  -9   5   2   26.90    3.74
   8  -5  -2    5.36    1.89
  -8   5   2    5.68    1.86
   7  -5  -2   17.62    2.71
  -7   5   2   14.82    2.48
   6  -5  -2    1.45    1.08
  -6   5   2    4.36    1.52
  -6   5   2    6.30    1.74
   5  -5  -2    0.73    0.82
  -5   5   2    0.23    0.56
  -5   5   2    1.61    1.06
   4  -5  -2    0.55    0.66
  -4   5   2   -0.24    0.65
  -4   5   2    0.07    0.50
   3  -5  -2   14.46    1.73
  -3   5   2   13.32    1.26
  -3   5   2   13.49    1.88
   2  -5  -2   87.34    3.11
   2  -5  -2   92.23    3.50
  -2   5   2   91.25    2.71
  -2   5   2   88.79    3.86
  -1   5   2   65.59    3.06
  -1   5   2   67.32    2.05
  -1   5   2   64.00    2.67
   0   5   2  469.43   11.67
   0   5   2  492.79   11.16
   1   5   2  153.79    4.89
   1   5   2  155.48    4.45
   2   5   2    1.87    0.64
   2   5   2    2.28    0.66
   3   5   2    7.16    1.00
   3   5   2    7.72    1.08
   4   5   2   52.48    2.44
   4   5   2   56.60    2.61
   5   5   2    5.20    0.93
   5   5   2   11.11    1.48
   6   5   2  132.59    4.47
   6   5   2  124.53    4.81
   7   5   2  101.71    4.43
   7   5   2   95.99    3.85
   8   5   2   15.20    1.83
   8   5   2   19.93    2.43
   9   5   2   25.99    2.11
   9   5   2   29.70    3.04
  10   5   2    2.75    1.28
  11   5   2    2.72    1.36
  12   5   2    1.90    1.32
  13   5   2    8.10    2.43
  14   5   2    6.34    2.31
  10  -6  -2    2.29    1.75
 -10   6   2    0.53    1.93
   9  -6  -2   -0.25    1.52
  -9   6   2   -0.66    1.64
   8  -6  -2    0.02    1.41
  -8   6   2   -0.70    1.38
   7  -6  -2    0.99    1.26
  -7   6   2    3.25    1.72
   6  -6  -2    1.21    1.00
  -6   6   2   -0.95    0.89
   5  -6  -2   16.87    2.25
  -5   6   2   18.11    2.52
   4  -6  -2   15.17    2.00
  -4   6   2   14.34    1.70
  -4   6   2   18.02    2.48
   3  -6  -2   29.62    2.07
  -3   6   2   33.84    2.63
  -3   6   2   30.78    1.66
  -1   6   2   -0.23    0.29
  -1   6   2    0.46    0.63
  -1   6   2    0.31    0.55
   0   6   2    0.81    0.53
   0   6   2   -0.02    0.53
   1   6   2   25.19    1.55
   1   6   2   21.84    1.79
   2   6   2   53.81    2.70
   2   6   2   51.93    2.35
   3   6   2   29.89    1.95
   3   6   2   31.10    1.84
   4   6   2  205.06    6.15
   4   6   2  202.01    6.00
   5   6   2   51.92    2.68
   5   6   2   47.52    2.62
   6   6   2    0.01    0.45
   6   6   2    4.75    1.17
   7   6   2    0.54    0.68
   7   6   2    0.39    0.86
   8   6   2    1.43    1.07
   8   6   2    1.89    0.95
   9   6   2    4.00    1.19
   9   6   2    8.52    1.97
  10   6   2    2.30    1.25
  11   6   2    9.50    2.32
  12   6   2    4.83    1.82
  13   6   2    6.10    2.09
  14   6   2    1.14    1.55
 -10   7   2    1.11    2.25
  -9   7   2   -0.22    1.69
   8  -7  -2    1.67    1.42
  -8   7   2    2.88    1.88
   7  -7  -2   16.21    2.83
  -7   7   2   10.08    2.48
   6  -7  -2    9.68    1.94
  -6   7   2   12.44    2.55
   5  -7  -2    0.95    1.03
  -5   7   2    2.58    1.30
   4  -7  -2   -0.66    0.61
  -4   7   2    0.13    1.03
   3  -7  -2    0.02    0.60
  -3   7   2    1.18    0.95
   2  -7  -2    3.20    0.92
   2  -7  -2    1.61    0.63
  -2   7   2    1.76    0.97
  -2   7   2    1.97    0.69
  -1   7   2   20.54    2.04
  -1   7   2   21.65    2.56
  -1   7   2   22.98    1.37
   0   7   2   97.11    4.27
   0   7   2   95.42    3.53
   1   7   2   58.98    3.16
   1   7   2   53.02    2.49
   2   7   2   37.30    2.43
   2   7   2   37.78    2.06
   3   7   2   19.38    2.05
   3   7   2   19.11    1.81
   4   7   2    6.87    1.29
   4   7   2    5.36    1.10
   5   7   2   38.98    2.49
   5   7   2   39.74    2.44
   6   7   2   19.61    2.25
   6   7   2   24.45    2.43
   7   7   2   27.97    2.76
   7   7   2   18.95    2.17
   8   7   2   22.57    2.58
   8   7   2   16.98    2.21
   9   7   2    5.09    1.66
   9   7   2    4.08    1.24
  10   7   2   -0.62    0.96
  11   7   2    8.74    2.16
  12   7   2    0.80    1.35
  13   7   2    0.17    1.49
  14   7   2   -1.80    1.59
  -9   8   2   -0.49    1.84
  -8   8   2   11.48    2.94
  -7   8   2   11.70    2.68
  -6   8   2   10.80    2.48
   5  -8  -2    0.02    0.96
  -5   8   2    4.50    1.71
   4  -8  -2    0.20    0.81
  -4   8   2   -0.33    1.08
   3  -8  -2    4.71    1.19
  -3   8   2    4.60    1.44
   2  -8  -2   19.38    1.77
   2  -8  -2   19.27    2.07
  -2   8   2   24.16    3.01
  -1   8   2   21.10    2.74
   0   8   2   21.02    2.02
   0   8   2   17.47    2.27
   1   8   2   20.71    1.65
   1   8   2   24.67    2.66
   2   8   2   13.32    1.97
   2   8   2    9.49    1.38
   3   8   2    0.18    0.67
   3   8   2   -0.65    0.55
   4   8   2    0.45    0.67
   4   8   2   -0.20    0.66
   5   8   2    1.93    0.91
   5   8   2    0.87    0.82
   6   8   2   72.08    3.71
   6   8   2   65.80    3.48
   7   8   2   62.65    3.57
   7   8   2   62.20    3.57
   8   8   2   15.75    2.28
   8   8   2   19.13    2.42
   9   8   2    0.58    0.88
   9   8   2    1.63    1.34
  10   8   2    2.65    1.59
  11   8   2   12.99    2.61
  12   8   2   10.73    2.57
  13   8   2    6.94    2.31
  14   8   2    2.58    1.91
  -8   9   2    2.37    2.26
  -7   9   2   12.44    2.75
  -6   9   2   17.47    3.17
  -5   9   2    6.93    2.01
  -4   9   2    3.41    1.69
  -3   9   2   47.47    3.75
  -2   9   2   67.18    4.33
  -1   9   2   44.48    3.45
   0   9   2   23.22    2.21
   0   9   2   25.06    2.82
   1   9   2    3.29    1.06
   1   9   2    2.47    1.17
   2   9   2   -0.37    0.85
   2   9   2    0.90    0.74
   3   9   2    0.14    0.75
   3   9   2    0.52    0.73
   4   9   2    4.13    1.28
   4   9   2    4.81    1.21
   5   9   2    1.57    1.04
   5   9   2    0.37    0.87
   6   9   2    2.45    1.10
   6   9   2    1.48    0.97
   7   9   2    6.94    1.65
   7   9   2   13.00    2.18
   8   9   2    4.34    1.42
   8   9   2    4.61    1.44
   9   9   2    1.09    1.13
   9   9   2    0.31    1.09
  10   9   2    5.69    1.89
  11   9   2   32.96    3.85
  12   9   2   21.13    3.44
  13   9   2    4.75    2.25
  14   9   2   -2.19    1.77
  -7  10   2    0.73    1.90
  -6  10   2   -0.38    1.48
  -5  10   2    2.71    1.75
  -4  10   2    9.32    2.38
  -3  10   2   23.34    3.35
  -2  10   2   30.13    3.77
  -1  10   2    8.41    2.05
   0  10   2   -1.85    0.74
   1  10   2   38.41    3.86
   2  10   2    6.63    1.65
   3  10   2   15.17    2.34
   4  10   2    8.57    1.90
   4  10   2    7.16    1.60
   5  10   2    6.35    1.42
   5  10   2    4.14    1.45
   6  10   2    3.92    1.45
   6  10   2    6.71    1.54
   7  10   2   10.94    1.95
   7  10   2    9.11    2.01
   8  10   2    2.45    1.33
   8  10   2    1.79    1.38
   9  10   2    0.96    1.21
   9  10   2   -1.16    1.08
  10  10   2    0.08    1.42
  11  10   2   15.87    2.69
  12  10   2    7.31    2.32
  13  10   2    1.91    1.91
  -6  11   2    3.32    2.09
  -5  11   2   -0.44    1.65
  -4  11   2    0.64    1.53
  -3  11   2    0.20    1.25
  -2  11   2    2.80    1.64
  -1  11   2    1.38    1.32
   0  11   2    2.69    1.52
   1  11   2   22.20    3.07
   2  11   2   44.73    3.60
   3  11   2   27.83    3.42
   4  11   2   12.38    2.28
   5  11   2    1.34    1.30
   6  11   2    8.37    2.06
   7  11   2    5.43    1.88
   8  11   2    5.29    1.72
   9  11   2    1.87    1.40
   9  11   2    0.05    1.18
  10  11   2    0.83    1.32
  11  11   2    0.78    1.52
  12  11   2    0.11    1.87
  13  11   2   -1.44    1.85
  -5  12   2    0.14    1.79
  -4  12   2    4.83    2.25
  -3  12   2    3.24    1.90
  -2  12   2    7.31    2.37
  -1  12   2    4.07    1.86
   0  12   2    1.83    1.65
   1  12   2    0.68    1.28
   2  12   2   -0.68    1.03
   3  12   2    0.16    1.16
   4  12   2    3.22    1.64
   5  12   2   14.41    2.64
   6  12   2    7.72    2.01
   7  12   2   10.34    2.32
   8  12   2   21.60    3.33
   9  12   2    2.92    1.72
  -3  13   2   -0.22    1.92
  -2  13   2    4.51    2.37
  -1  13   2    0.04    1.57
   0  13   2   -1.52    1.38
   1  13   2   -2.01    1.30
   2  13   2    2.69    1.74
   3  13   2    2.51    1.60
   4  13   2    7.66    2.33
   5  13   2   15.03    3.01
   6  13   2   19.67    3.23
   7  13   2    2.66    1.78
   8  13   2   -0.55    1.52
   9  13   2    4.74    2.10
  -2  14   2    2.13    2.29
  -1  14   2   -0.48    1.66
   0  14   2   -0.85    1.49
   1  14   2    0.27    1.79
   2  14   2    3.49    1.86
   3  14   2    8.48    2.60
   4  14   2    1.27    1.83
   5  14   2    0.50    1.89
   6  14   2    3.42    2.14
   7  14   2    1.41    1.86
   8  14   2    3.26    2.30
   9  14   2    5.43    2.15
   1  15   2   -0.91    2.06
   2  15   2   -1.33    1.96
   3  15   2   -0.44    1.89
   4  15   2   -1.04    1.84
   5  15   2   -1.60    1.68
   6  15   2   -2.85    1.90
   7  15   2   -0.30    2.09
   8  15   2    5.44    2.67
   9  15   2    4.03    2.79
   8  14  -3    0.53    2.21
   7  14  -3    0.61    2.10
   6  14  -3    1.28    2.23
   5  14  -3    2.54    2.34
   4  14  -3    1.02    1.71
   3  14  -3   -2.70    2.02
   2  14  -3    0.56    1.89
   1  14  -3    0.90    2.12
  10  13  -3   -0.75    1.94
   9  13  -3   -0.40    1.90
   8  13  -3   11.23    3.13
   7  13  -3    9.08    2.76
   6  13  -3    5.21    2.32
   5  13  -3   11.12    2.92
   4  13  -3    6.89    2.32
   3  13  -3   -0.04    1.56
   2  13  -3   -1.28    1.54
   1  13  -3   -0.44    1.53
   0  13  -3    3.12    2.02
  -1  13  -3    6.47    2.44
  -2  13  -3   -0.66    2.05
  11  12  -3    1.60    2.43
  10  12  -3    5.17    2.38
   9  12  -3   12.96    3.07
   8  12  -3   28.53    4.18
   7  12  -3   35.11    4.39
   6  12  -3   18.56    3.29
   5  12  -3   -0.66    1.46
   4  12  -3    5.26    2.18
   3  12  -3    2.70    1.66
   2  12  -3   11.79    2.51
   1  12  -3   11.36    2.75
   0  12  -3    8.06    2.32
  -1  12  -3    7.45    2.45
  -2  12  -3    1.26    1.84
  -3  12  -3    2.54    2.13
  -4  12  -3    0.48    2.11
  12  11  -3    0.40    2.30
  11  11  -3    1.89    2.26
  10  11  -3   -0.78    1.70
   9  11  -3   -0.73    1.42
   8  11  -3    2.59    1.70
   7  11  -3    5.55    2.17
   6  11  -3   -0.64    1.23
   5  11  -3    1.15    1.36
   4  11  -3   15.87    2.80
   3  11  -3   30.60    3.63
   2  11  -3    9.53    2.32
   1  11  -3   -0.13    1.27
   0  11  -3    3.17    1.62
  -1  11  -3    0.30    1.45
  -2  11  -3    0.54    1.43
  -3  11  -3    2.73    1.83
  -4  11  -3    1.31    1.91
  -5  11  -3    6.93    2.40
  12  10  -3   -0.21    2.06
  11  10  -3    0.34    1.68
  10  10  -3    1.66    1.69
   9  10  -3    1.47    1.65
   8  10  -3    0.70    1.56
   7  10  -3    2.05    1.63
   6  10  -3    2.25    1.56
   5  10  -3    1.45    1.19
   4  10  -3    6.71    1.88
   3  10  -3   27.21    3.38
   2  10  -3    8.54    1.99
   1  10  -3    6.83    1.92
   0  10  -3    9.17    2.14
  -1  10  -3    8.70    2.09
  -1  10  -3   13.51    2.41
  -2  10  -3   10.59    2.43
  -3  10  -3    0.26    1.40
  -4  10  -3    0.25    1.54
  -5  10  -3   -1.13    1.56
  -6  10  -3    1.22    1.90
  12   9  -3    6.30    2.38
  11   9  -3    1.47    2.00
  10   9  -3    0.69    1.51
   9   9  -3    1.49    1.49
   8   9  -3   12.66    2.63
   7   9  -3    9.56    2.34
   6   9  -3    2.19    1.31
   5   9  -3    2.47    1.36
   4   9  -3    4.98    1.50
   3   9  -3   -1.00    0.68
   2   9  -3    6.24    1.69
   1   9  -3    0.87    1.06
   0   9  -3   28.01    3.25
  -1   9  -3    5.48    1.42
  -1   9  -3    3.09    1.55
  -2   9  -3    3.46    1.46
  -2   9  -3    2.05    1.19
  -3   9  -3   -0.20    1.12
  -4   9  -3    3.45    1.66
  -5   9  -3    5.87    2.14
  -6   9  -3    6.71    2.33
  -7   9  -3    2.30    1.88
  13   8  -3    1.96    1.80
  12   8  -3    1.87    1.43
  12   8  -3    2.19    1.97
  11   8  -3    0.52    1.66
  11   8  -3   -0.30    1.21
  10   8  -3    1.81    1.29
  10   8  -3    1.28    1.44
   9   8  -3   27.97    3.11
   9   8  -3   31.42    3.87
   8   8  -3   70.42    4.53
   8   8  -3   73.31    5.07
   7   8  -3   88.93    4.98
   6   8  -3   26.85    3.18
   5   8  -3    1.43    1.00
   4   8  -3   31.59    3.44
   3   8  -3   25.73    2.95
   2   8  -3   29.45    3.12
   1   8  -3    6.11    1.58
   0   8  -3   10.94    2.03
  -1   8  -3   22.70    2.84
  -2   8  -3    1.08    1.14
  -2   8  -3    0.62    0.79
  -3   8  -3    0.10    1.03
  -3   8  -3    0.07    0.83
  -4   8  -3    0.51    0.88
  -4   8  -3    0.29    1.09
  -5   8  -3    4.20    1.80
  -6   8  -3   15.22    2.88
  -7   8  -3    1.39    1.61
  13   7  -3    1.75    1.82
  12   7  -3    2.16    1.64
  12   7  -3    2.89    1.93
  11   7  -3   10.60    2.48
  11   7  -3    5.63    1.90
  10   7  -3    9.25    2.18
  10   7  -3    8.18    1.99
   9   7  -3   32.78    3.65
   9   7  -3   31.46    3.30
   8   7  -3   43.53    4.26
   8   7  -3   43.00    3.03
   7   7  -3   34.67    3.53
   7   7  -3   36.30    2.49
   6   7  -3   -0.68    0.63
   6   7  -3   -0.02    0.71
   5   7  -3   25.93    2.85
   5   7  -3   24.70    1.80
   4   7  -3  127.91    5.58
   3   7  -3  180.81    6.81
   2   7  -3   82.40    4.19
   1   7  -3   18.98    2.39
   0   7  -3    0.68    0.79
  -1   7  -3    1.41    1.00
  -2   7  -3    0.32    0.82
  -2   7  -3    0.08    0.69
  -3   7  -3    3.34    1.12
  -3   7  -3    3.34    1.24
  -4   7  -3   21.19    2.59
  -4   7  -3   17.89    2.56
  -5   7  -3    3.77    1.69
  -5   7  -3    6.13    1.61
  -6   7  -3   10.43    2.28
  -6   7  -3   15.49    2.36
  -7   7  -3    7.85    2.08
  14   6  -3    0.46    1.90
  13   6  -3    3.20    1.93
  12   6  -3    7.38    2.20
  12   6  -3    2.73    1.67
  11   6  -3    4.07    1.70
  11   6  -3    6.30    1.95
  10   6  -3    2.21    1.29
  10   6  -3    1.65    1.51
   9   6  -3    5.55    1.59
   9   6  -3    4.18    1.44
   8   6  -3    5.24    1.47
   8   6  -3    3.79    1.32
   7   6  -3    1.58    0.94
   7   6  -3    1.96    1.17
   6   6  -3   21.47    2.59
   6   6  -3   18.94    2.01
   5   6  -3   18.39    1.51
   5   6  -3   19.10    2.36
   4   6  -3   24.40    1.55
   4   6  -3   27.46    2.70
   3   6  -3   46.49    2.97
   3   6  -3   46.44    1.87
   2   6  -3   28.63    2.80
   2   6  -3   30.77    1.41
   1   6  -3    3.30    1.04
   0   6  -3   83.14    3.93
  -1   6  -3   34.61    2.52
  -2   6  -3   28.43    2.34
  -2   6  -3   26.76    2.04
  -3   6  -3    9.72    1.63
  -3   6  -3    9.97    1.72
  -4   6  -3   30.30    2.98
  -4   6  -3   29.81    3.06
  -5   6  -3    8.20    1.65
  -5   6  -3    8.66    1.91
  -6   6  -3    0.06    0.97
  -6   6  -3    0.59    1.14
  -7   6  -3    1.61    1.36
  -7   6  -3    1.59    1.25
  -8   6  -3    0.07    1.40
  14   5  -3   -0.44    1.71
  13   5  -3    0.54    1.57
  12   5  -3   -0.56    1.37
  12   5  -3   -0.84    1.69
  11   5  -3    0.34    1.16
  11   5  -3    0.16    1.33
  10   5  -3    0.56    1.03
  10   5  -3    0.58    1.36
   9   5  -3   -0.08    1.05
   9   5  -3    0.58    0.89
   8   5  -3   27.04    2.81
   8   5  -3   28.38    3.17
   7   5  -3    6.93    1.38
   7   5  -3    6.08    1.40
   6   5  -3    2.09    0.81
   6   5  -3    3.14    1.13
   5   5  -3    0.55    0.73
   5   5  -3    1.79    0.69
   4   5  -3   18.13    2.12
   4   5  -3   17.51    1.31
   3   5  -3   95.08    2.91
   3   5  -3   96.13    4.11
   2   5  -3   30.25    1.15
   2   5  -3   27.09    2.08
   1   5  -3   63.26    3.20
   0   5  -3   81.02    3.62
  -1   5  -3   11.07    1.54
  -2   5  -3    0.02    0.64
  -2   5  -3   -0.27    0.52
   2  -5   3    0.38    0.42
  -3   5  -3   -0.12    0.69
  -3   5  -3    1.75    0.86
   3  -5   3    1.35    0.60
  -4   5  -3    2.94    0.93
  -4   5  -3    2.27    1.07
   4  -5   3    2.95    0.91
  -5   5  -3    5.59    1.41
  -5   5  -3    5.06    1.50
   5  -5   3    4.29    1.19
  -6   5  -3    8.04    1.65
  -6   5  -3    5.79    1.63
  -7   5  -3    8.79    1.88
  -7   5  -3    8.81    1.85
  -8   5  -3   17.26    2.59
  -9   5  -3    0.25    1.23
  14   4  -3    0.89    1.95
  13   4  -3   -0.52    1.45
  12   4  -3    0.04    1.15
  11   4  -3    4.75    1.78
  10   4  -3    7.20    1.91
   9   4  -3   35.90    3.66
   8   4  -3   10.57    1.89
   7   4  -3    0.20    0.73
   6   4  -3    1.85    0.81
   6   4  -3    3.60    1.10
   5   4  -3   30.13    2.27
   5   4  -3   31.31    1.99
   4   4  -3   45.98    2.19
   4   4  -3   44.62    2.63
   3   4  -3   96.67    3.02
   3   4  -3   93.34    3.89
   2   4  -3   62.61    2.96
   2   4  -3   64.06    1.93
   1   4  -3    5.17    0.98
   0   4  -3    9.36    1.27
  -1   4  -3    1.93    0.69
  -2   4  -3   89.68    3.71
  -2   4  -3   95.74    3.58
   2  -4   3   89.38    2.75
  -3   4  -3   63.44    2.87
  -3   4  -3   52.92    2.83
   3  -4   3   59.85    2.42
  -4   4  -3   55.29    3.00
  -4   4  -3   57.24    2.90
   4  -4   3   46.85    2.44
  -5   4  -3   67.61    3.36
  -5   4  -3   65.82    3.42
   5  -4   3   68.35    3.25
  -6   4  -3    6.65    1.57
  -6   4  -3    4.97    1.33
   6  -4   3    5.87    1.40
  -7   4  -3    0.19    0.89
  -7   4  -3    0.47    1.13
   7  -4   3   -0.02    0.85
  -8   4  -3    2.72    1.36
  -8   4  -3    2.67    2.27
   8  -4   3    4.36    1.55
  -9   4  -3    1.38    1.35
   9  -4   3    2.91    1.42
 -10   4  -3    0.50    1.35
 -11   4  -3    1.66    1.83
  14   3  -3   -0.39    1.64
  13   3  -3    0.70    1.48
  12   3  -3    3.90    1.98
  11   3  -3   43.16    4.49
  10   3  -3   59.03    4.29
   9   3  -3   27.15    3.10
   8   3  -3   17.55    2.36
   7   3  -3    9.92    1.77
   6   3  -3   19.25    2.13
   5   3  -3   11.42    1.51
   4   3  -3    5.94    0.98
   3   3  -3   89.67    2.99
   3   3  -3   89.62    3.57
   2   3  -3   34.90    1.39
   2   3  -3   32.95    1.95
   1   3  -3    4.31    0.82
   0   3  -3   26.61    1.66
  -1   3  -3   39.20    2.02
  -2   3  -3   17.91    1.40
  -2   3  -3   19.21    1.42
   2  -3   3   21.25    1.11
  -3   3  -3   85.69    3.38
  -3   3  -3   86.81    3.37
   3  -3   3   94.56    3.10
  -4   3  -3  128.10    4.51
  -4   3  -3  128.78    4.53
   4  -3   3  127.98    4.29
  -5   3  -3   47.06    2.68
  -5   3  -3   51.99    2.75
   5  -3   3   43.78    2.53
  -6   3  -3    3.77    1.10
  -6   3  -3    4.41    1.21
   6  -3   3    3.58    1.12
  -7   3  -3   20.73    2.41
  -7   3  -3   23.95    2.75
   7  -3   3   20.57    2.46
  -8   3  -3   29.93    3.51
  -8   3  -3   25.13    2.99
   8  -3   3   24.10    2.88
  -9   3  -3    3.67    1.51
   9  -3   3    5.07    1.69
 -10   3  -3    3.53    1.50
  10  -3   3    2.16    1.56
 -11   3  -3    2.85    1.81
  11  -3   3    3.13    1.88
  12  -3   3   -0.02    1.92
  14   2  -3    2.08    1.87
  13   2  -3    0.17    1.54
  12   2  -3    2.63    1.69
  11   2  -3    6.18    2.03
  10   2  -3   18.50    2.85
   9   2  -3    9.90    2.08
   8   2  -3    7.57    1.67
   7   2  -3   59.82    3.54
   6   2  -3   78.25    3.77
   5   2  -3   92.46    3.83
   4   2  -3   93.16    3.52
   3   2  -3   36.21    1.77
   2   2  -3    1.76    0.47
   2   2  -3    1.95    0.62
   1   2  -3    5.42    0.85
   1   2  -3    5.75    0.47
   0   2  -3   38.28    1.77
  -1   2  -3   11.68    0.96
   1  -2   3   11.39    0.74
  -2   2  -3   53.54    2.19
  -2   2  -3   53.45    2.30
   2  -2   3   55.57    1.91
  -3   2  -3   94.36    3.39
  -3   2  -3   94.39    3.23
   3  -2   3   97.89    3.16
  -4   2  -3  112.57    4.06
  -4   2  -3  121.09    3.97
  -5   2  -3   25.29    1.80
  -5   2  -3   26.00    1.88
   5  -2   3   23.74    1.85
  -6   2  -3    0.36    0.68
  -6   2  -3   -0.27    0.64
   6  -2   3   -0.25    0.63
  -7   2  -3   17.47    2.11
  -7   2  -3   13.45    2.00
   7  -2   3   17.62    2.28
  -8   2  -3   47.84    3.25
  -8   2  -3   48.38    3.35
   8  -2   3   51.78    3.49
  -9   2  -3   29.55    3.21
   9  -2   3   32.47    3.35
 -10   2  -3    1.11    1.21
  10  -2   3   -0.96    1.07
 -11   2  -3    0.61    1.33
  11  -2   3    0.68    1.46
  12  -2   3   -0.35    1.69
  13   1  -3    0.32    1.34
  12   1  -3   -1.19    1.30
  11   1  -3    2.86    1.76
  10   1  -3    0.92    1.35
   9   1  -3    6.01    1.67
   8   1  -3   11.06    2.06
   7   1  -3   10.03    1.81
   6   1  -3   59.85    3.37
   5   1  -3   32.52    2.19
   4   1  -3    0.71    0.50
   3   1  -3   46.35    2.11
   2   1  -3  105.52    3.17
   1   1  -3  173.90    4.06
   1   1  -3  174.21    4.24
   0   1  -3   30.56    1.39
  -1   1  -3  153.81    3.97
   1  -1   3  150.73    3.64
  -2   1  -3   22.81    1.30
  -2   1  -3   22.30    1.14
   2  -1   3   20.62    1.10
  -3   1  -3    0.65    0.41
  -3   1  -3    1.25    0.53
   3  -1   3    0.08    0.23
  -4   1  -3    0.19    0.44
  -4   1  -3   -0.09    0.42
   4  -1   3    0.25    0.45
  -5   1  -3    0.44    0.55
  -5   1  -3    1.02    0.64
   5  -1   3    1.55    0.70
  -6   1  -3    1.99    0.80
  -6   1  -3    2.15    0.82
   6  -1   3    1.77    0.84
  -7   1  -3    0.87    0.81
  -7   1  -3    2.73    0.99
   7  -1   3    3.36    1.11
  -8   1  -3   16.75    2.13
  -8   1  -3   14.39    2.32
   8  -1   3   17.02    2.40
  -9   1  -3   38.71    3.72
   9  -1   3   33.52    3.52
 -10   1  -3   10.27    2.21
  10  -1   3   11.76    2.51
 -11   1  -3    1.82    1.39
  11  -1   3    0.27    1.46
  12  -1   3    0.23    1.55
  13  -1   3   -0.28    1.67
  13   0  -3    0.36    1.63
  12   0  -3    7.20    2.25
  11   0  -3   15.65    2.90
  10   0  -3   19.85    2.90
   9   0  -3    4.16    1.63
   8   0  -3   16.72    2.56
   7   0  -3   44.76    3.21
   6   0  -3    9.02    1.67
   5   0  -3   28.20    2.08
   4   0  -3    8.17    1.27
   3   0  -3   42.39    2.08
   2   0  -3  140.91    3.99
   2   0  -3  135.46    3.67
  -1   0   3   89.67    2.65
   0   0   3    0.06    0.13
  -1   0  -3 1000.00   20.17
  -1   0  -3  978.37   20.50
  -2   0  -3  290.37    6.85
   2   0   3  286.21    6.74
  -3   0  -3  112.62    2.92
  -3   0  -3  111.44    3.52
   3   0   3  115.24    3.48
  -4   0  -3  257.42    6.08
  -4   0  -3  254.20    6.77
   4   0   3  253.58    6.85
  -5   0  -3   85.49    2.93
  -5   0  -3   87.94    3.42
   5   0   3   86.82    3.53
  -6   0  -3   15.49    1.56
  -6   0  -3   14.80    1.84
   6   0   3   14.92    1.86
  -7   0  -3   15.87    1.97
   7   0   3   16.04    2.14
  -8   0  -3    4.73    1.39
   8   0   3    5.06    1.50
  -9   0  -3    1.52    1.03
   9   0   3    3.58    1.47
 -10   0  -3   12.22    2.37
  10   0   3   13.24    2.38
  11   0   3    0.18    1.24
  12   0   3    3.36    1.73
  13   0   3   -0.07    1.82
  13  -1  -3   -2.02    1.58
  12  -1  -3    3.33    2.01
  11  -1  -3    4.46    1.90
  10  -1  -3   10.01    2.32
   9  -1  -3    2.55    1.41
   8  -1  -3   -0.17    0.85
   7  -1  -3   32.05    3.25
   6  -1  -3   22.27    2.47
   5  -1  -3   14.44    1.86
   4  -1  -3   76.76    3.34
   3  -1  -3  143.87    4.56
   2  -1  -3  161.54    4.29
   2  -1  -3  157.28    4.57
  -1   1   3  345.40    8.02
   0   1   3  187.14    4.61
  -1  -1  -3   85.72    2.38
   1   1   3   89.11    2.59
  -2  -1  -3  208.47    5.08
   2   1   3  205.69    5.22
  -3  -1  -3  346.72    8.27
   3   1   3  356.45    8.45
  -4  -1  -3  207.98    5.66
   4   1   3  202.03    5.74
  -5  -1  -3    2.07    0.69
   5   1   3    3.08    0.87
  -6  -1  -3    1.03    0.66
   6   1   3    1.59    0.79
  -7  -1  -3   55.48    2.98
   7   1   3   52.83    3.17
  -8  -1  -3   36.61    2.61
   8   1   3   33.31    2.72
  -9  -1  -3   27.18    2.89
   9   1   3   30.39    3.27
  10   1   3    9.27    2.08
  11   1   3    5.14    1.72
  12   1   3    4.61    1.83
  13   1   3    0.62    1.72
  14   1   3    0.71    1.78
  12  -2  -3    2.29    1.89
  11  -2  -3   13.21    2.69
  10  -2  -3   11.09    2.61
   9  -2  -3    3.89    1.59
   8  -2  -3    4.21    1.59
   7  -2  -3   12.67    2.11
   6  -2  -3   56.26    3.41
   5  -2  -3  158.06    5.71
  -5   2   3  155.39    5.60
   4  -2  -3   25.61    1.92
  -4   2   3   26.64    1.99
   3  -2  -3   53.81    2.55
  -3   2   3   56.31    2.66
   2  -2  -3   20.34    1.42
   2  -2  -3   25.08    1.34
  -2   2   3   22.15    1.52
  -1   2   3  113.82    3.54
  -1   2   3  117.05    3.57
   0   2   3  120.79    3.53
   0   2   3  130.57    3.47
  -1  -2  -3   26.14    0.96
   1   2   3   25.90    1.30
   1   2   3   26.54    1.07
  -2  -2  -3  156.59    3.95
   2   2   3  154.53    4.27
  -3  -2  -3   20.55    1.21
   3   2   3   20.08    1.35
  -4  -2  -3    7.42    1.06
   4   2   3    6.97    1.13
  -5  -2  -3    5.36    1.04
   5   2   3    6.58    1.17
  -6  -2  -3    8.23    1.37
   6   2   3    8.45    1.43
  -7  -2  -3   41.50    2.57
   7   2   3   43.86    2.85
  -8  -2  -3   93.43    4.18
   8   2   3   89.16    4.48
   9   2   3   66.64    4.07
  10   2   3    7.16    1.82
  11   2   3    1.60    1.41
  12   2   3    0.27    1.26
  13   2   3    3.43    1.88
  14   2   3    3.16    1.90
  12  -3  -3    1.42    1.85
  11  -3  -3    5.05    1.92
  10  -3  -3   -1.48    1.26
   9  -3  -3    7.41    2.08
   8  -3  -3    8.01    1.97
   7  -3  -3   36.03    3.55
  -7   3   3   39.13    3.78
   6  -3  -3   48.66    3.24
  -6   3   3   48.55    3.25
   5  -3  -3   44.10    2.85
  -5   3   3   47.88    2.97
   4  -3  -3    3.56    0.96
  -4   3   3    1.67    0.87
   3  -3  -3    7.73    1.03
   3  -3  -3    7.62    1.19
  -3   3   3   10.05    1.46
   2  -3  -3   20.75    1.50
   2  -3  -3   23.24    1.36
  -2   3   3   21.90    1.59
  -1   3   3   75.55    2.79
  -1   3   3   70.88    2.73
   0   3   3  178.40    4.79
   1   3   3  486.67   10.70
   1   3   3  483.92   10.96
  -2  -3  -3  231.17    5.43
   2   3   3  229.31    5.97
   2   3   3  231.39    5.44
  -3  -3  -3   27.27    1.40
   3   3   3   25.57    1.56
   3   3   3   27.24    1.16
  -4  -3  -3   17.01    1.26
   4   3   3   14.62    0.88
   4   3   3   15.93    1.57
  -5  -3  -3   22.58    1.57
   5   3   3   22.70    1.22
   5   3   3   21.70    1.73
   6   3   3   27.29    2.05
   7   3   3    0.37    0.77
   8   3   3   14.58    2.12
   9   3   3    2.94    1.32
  10   3   3    0.48    1.12
  11   3   3    2.22    1.41
  12   3   3    5.65    2.11
  13   3   3    1.98    1.46
  14   3   3    0.23    1.39
  12  -4  -3    0.91    2.24
  11  -4  -3    4.18    1.95
  10  -4  -3    6.05    2.20
   9  -4  -3   12.75    2.70
   8  -4  -3   17.35    2.75
  -8   4   3   19.97    2.99
   7  -4  -3    0.33    0.82
  -7   4   3    0.33    1.07
   6  -4  -3    1.40    1.00
  -6   4   3    0.33    0.95
   5  -4  -3   37.35    2.67
  -5   4   3   34.15    2.69
   4  -4  -3   37.43    2.50
  -4   4   3   43.88    2.75
   3  -4  -3  173.45    5.14
   3  -4  -3  175.01    5.67
  -3   4   3  177.39    4.49
  -3   4   3  172.69    5.79
   2  -4  -3   92.25    3.18
   2  -4  -3   88.01    3.48
  -2   4   3   90.80    2.46
  -2   4   3   93.47    3.66
  -1   4   3   28.22    1.70
  -1   4   3   33.07    1.93
   0   4   3   21.24    1.46
   0   4   3   18.20    1.31
   1   4   3    1.06    0.44
   1   4   3    0.39    0.49
   2   4   3    1.57    0.59
   2   4   3    0.05    0.30
   3   4   3    0.61    0.51
   3   4   3    1.58    0.46
   4   4   3   28.36    1.46
   4   4   3   32.12    1.91
   5   4   3    0.70    0.42
   5   4   3    2.09    0.83
   6   4   3   12.60    1.29
   6   4   3   13.16    1.76
   7   4   3    1.75    0.63
   7   4   3    2.11    1.01
   8   4   3   -0.45    0.57
   8   4   3   -0.74    0.66
   9   4   3    1.81    1.11
  10   4   3    1.16    1.04
  11   4   3    3.93    1.56
  12   4   3    2.28    1.39
  13   4   3   -0.41    1.20
  14   4   3    0.25    1.54
  11  -5  -3    2.38    1.91
  10  -5  -3    0.11    1.67
   9  -5  -3    3.61    1.86
  -9   5   3    4.71    2.20
   8  -5  -3    1.89    1.41
  -8   5   3    1.63    1.45
   7  -5  -3   12.58    2.28
  -7   5   3   18.60    2.77
   6  -5  -3    1.54    1.18
  -6   5   3    3.71    1.40
   5  -5  -3   58.37    3.50
  -5   5   3   67.09    3.83
   4  -5  -3   56.45    3.14
  -4   5   3   51.15    3.21
  -4   5   3   51.37    2.22
   3  -5  -3   59.97    2.66
   3  -5  -3   59.74    3.00
  -3   5   3   60.67    2.15
  -3   5   3   58.51    3.20
   2  -5  -3   25.52    1.81
   2  -5  -3   22.51    1.50
  -2   5   3   24.34    1.11
  -2   5   3   23.04    1.95
  -1   5   3   13.48    0.68
  -1   5   3   16.29    1.80
  -1   5   3   16.92    1.68
   0   5   3  229.37    6.60
   0   5   3  228.11    6.29
   1   5   3  350.46    8.63
   1   5   3  346.71    8.81
   2   5   3  187.95    5.39
   2   5   3  184.24    5.32
   3   5   3   26.55    1.67
   3   5   3   17.62    1.27
   4   5   3    0.87    0.63
   4   5   3    0.21    0.42
   5   5   3   19.66    1.97
   5   5   3   15.89    1.31
   6   5   3    2.85    0.74
   6   5   3    2.64    1.00
   7   5   3    0.07    0.52
   7   5   3    0.08    0.74
   8   5   3    4.38    1.34
   8   5   3    3.67    1.02
   9   5   3   19.01    2.62
  10   5   3    7.08    1.95
  11   5   3   17.95    2.72
  12   5   3   -0.58    1.07
  13   5   3    1.52    1.60
  14   5   3    5.82    2.12
  10  -6  -3   -0.99    1.55
   9  -6  -3    0.81    1.55
  -9   6   3    1.52    1.85
   8  -6  -3    8.45    2.19
  -8   6   3   13.77    2.87
   7  -6  -3   24.16    3.19
  -7   6   3   16.58    2.92
   6  -6  -3    1.71    1.14
  -6   6   3    1.86    1.36
   5  -6  -3    4.01    1.31
  -5   6   3    5.05    1.72
   4  -6  -3    1.10    0.82
  -4   6   3    0.00    0.79
   3  -6  -3    0.09    0.51
   3  -6  -3    0.17    0.47
  -3   6   3    0.38    0.81
   2  -6  -3    8.00    1.11
   2  -6  -3    7.67    1.34
  -2   6   3    7.63    1.46
  -2   6   3    8.10    0.84
  -1   6   3   30.75    1.23
  -1   6   3   29.50    2.22
  -1   6   3   31.30    1.98
   0   6   3  169.57    5.25
   0   6   3  177.23    5.79
   1   6   3  261.53    7.45
   1   6   3  260.53    7.04
   2   6   3  107.38    3.78
   2   6   3  108.16    4.04
   3   6   3   15.33    1.58
   3   6   3   13.54    1.53
   4   6   3   24.10    1.80
   4   6   3   22.46    1.64
   5   6   3   29.58    1.89
   5   6   3   36.35    2.27
   6   6   3   88.92    4.07
   6   6   3   92.50    3.65
   7   6   3   17.11    1.80
   7   6   3   13.88    1.96
   8   6   3   17.82    1.93
   8   6   3   13.27    2.08
   9   6   3   51.95    3.69
  10   6   3    0.34    1.13
  11   6   3    7.37    1.95
  12   6   3   -1.13    1.10
  13   6   3    2.37    1.78
  14   6   3    3.13    2.22
  10  -7  -3   -0.49    1.89
 -10   7   3    2.04    2.52
   9  -7  -3    2.98    2.05
  -9   7   3    2.00    2.09
   8  -7  -3    5.98    2.16
  -8   7   3    6.18    2.32
   7  -7  -3   12.47    2.47
  -7   7   3   14.56    2.88
   6  -7  -3    1.78    1.25
  -6   7   3    1.21    1.19
   5  -7  -3    0.72    1.03
  -5   7   3    3.71    1.66
   4  -7  -3    8.77    1.73
  -4   7   3    7.62    1.82
   3  -7  -3    0.86    0.61
   3  -7  -3    1.52    0.71
  -3   7   3   -0.30    0.81
   2  -7  -3    0.30    0.47
   2  -7  -3    0.11    0.50
  -2   7   3   -0.52    0.74
  -1   7   3    0.32    0.54
  -1   7   3    1.27    0.81
  -1   7   3   -0.03    0.68
   0   7   3   -0.44    0.66
   0   7   3    0.47    0.58
   1   7   3   14.98    1.92
   1   7   3   18.24    1.80
   2   7   3   63.58    3.19
   2   7   3   65.11    2.92
   3   7   3    5.83    1.16
   3   7   3    5.68    1.09
   4   7   3   24.00    1.89
   4   7   3   26.55    1.97
   5   7   3  112.42    4.32
   5   7   3  113.29    4.41
   6   7   3  126.82    4.94
   7   7   3   54.21    2.96
   7   7   3   49.82    3.18
   8   7   3   11.76    1.73
   8   7   3    6.44    1.63
   9   7   3    0.45    1.11
  10   7   3    7.47    2.02
  11   7   3    1.64    1.34
  12   7   3    3.76    1.67
  13   7   3    8.67    2.36
  14   7   3    6.92    2.39
  -9   8   3   -1.33    1.91
  -8   8   3    0.46    1.85
   7  -8  -3    3.61    1.62
  -7   8   3    3.66    1.99
   6  -8  -3    2.60    1.45
  -6   8   3    1.25    1.40
   5  -8  -3   -0.64    0.92
  -5   8   3    0.40    1.21
   4  -8  -3   10.76    1.98
  -4   8   3    7.05    1.87
  -3   8   3   17.40    2.65
   2  -8  -3    2.05    0.80
   2  -8  -3    1.19    0.76
  -2   8   3    2.20    1.21
  -1   8   3    6.71    1.57
  -1   8   3    5.86    1.29
   0   8   3    2.44    1.14
   0   8   3    1.68    0.88
   1   8   3   14.50    2.07
   1   8   3   14.94    1.79
   2   8   3    0.06    0.71
   2   8   3    0.29    0.66
   3   8   3    2.18    0.89
   3   8   3    1.83    0.88
   4   8   3    1.64    0.86
   4   8   3    0.51    0.62
   5   8   3   20.27    2.17
   5   8   3   26.30    2.53
   6   8   3   29.73    2.40
   6   8   3   27.68    2.23
   7   8   3   15.79    2.13
   8   8   3   -0.16    1.04
   8   8   3   -0.69    0.71
   9   8   3    8.61    2.13
  10   8   3   14.74    2.62
  11   8   3   10.60    2.47
  12   8   3    6.13    2.09
  13   8   3   -1.00    1.72
  14   8   3    0.40    1.77
  -8   9   3    1.07    1.98
  -7   9   3    0.61    1.71
  -6   9   3   -0.78    1.41
  -5   9   3    2.96    1.64
  -4   9   3   16.84    2.95
   3  -9  -3   36.66    2.68
  -3   9   3   32.66    3.81
   2  -9  -3    9.83    1.38
   2  -9  -3   10.45    1.67
  -2   9   3    6.05    1.78
  -1   9   3   -0.73    0.86
   0   9   3    8.68    1.56
   0   9   3   14.00    2.31
   1   9   3   31.15    2.20
   1   9   3   32.63    3.17
   2   9   3   34.00    2.76
   2   9   3   31.45    2.18
   3   9   3   -0.68    0.64
   3   9   3   -0.52    0.72
   4   9   3    0.55    0.84
   4   9   3    0.30    0.88
   5   9   3    1.21    0.92
   5   9   3   -0.19    0.82
   6   9   3    0.09    0.83
   6   9   3   -0.41    0.87
   7   9   3    7.02    1.63
   7   9   3    9.23    1.73
   8   9   3    2.18    1.02
   8   9   3    8.33    1.85
   9   9   3    3.09    1.63
   9   9   3    6.43    2.37
  10   9   3   10.13    2.30
  11   9   3    1.40    1.61
  12   9   3    0.69    1.52
  13   9   3    1.17    1.67
  14   9   3    2.00    1.97
  -7  10   3    5.66    2.34
  -6  10   3    4.05    2.29
  -5  10   3    4.66    2.02
  -4  10   3    0.74    1.36
  -3  10   3   -1.47    1.09
  -2  10   3    6.65    2.07
  -1  10   3   31.71    3.55
   0  10   3   35.96    3.63
   1  10   3   29.09    4.24
   1  10   3   24.90    2.97
   2  10   3   60.25    3.18
   2  10   3   51.96    3.63
   3  10   3    1.26    1.16
   3  10   3    1.12    1.02
   4  10   3    0.75    0.92
   4  10   3    1.57    1.02
   5  10   3   25.90    2.56
   5  10   3   24.78    2.81
   6  10   3   51.04    3.39
   6  10   3   43.76    3.04
   7  10   3   33.19    3.28
   7  10   3   37.18    3.03
   8  10   3    4.04    1.41
   8  10   3    8.52    1.90
   9  10   3    9.18    2.04
   9  10   3   10.71    2.15
  10  10   3    0.29    1.20
  11  10   3   -2.98    1.16
  12  10   3   -0.17    1.52
  13  10   3    2.18    1.79
  14  10   3    3.90    2.28
  -6  11   3   -1.02    1.83
  -5  11   3   -0.85    1.37
  -4  11   3    3.62    1.91
  -3  11   3   13.03    2.87
  -2  11   3   12.64    2.59
  -1  11   3   20.08    3.24
   0  11   3   18.99    2.99
   1  11   3    0.57    1.08
   2  11   3    2.09    1.38
   3  11   3   16.93    2.75
   4  11   3   36.94    3.72
   5  11   3   77.98    4.51
   6  11   3   41.35    3.30
   6  11   3   42.81    3.08
   7  11   3   25.15    3.06
   7  11   3   24.94    2.85
   8  11   3    2.34    1.37
   8  11   3    4.07    1.63
   9  11   3    4.15    1.60
   9  11   3    4.59    1.65
  10  11   3   -0.36    1.39
  11  11   3    1.58    1.55
  12  11   3    5.86    2.09
  13  11   3    6.76    2.51
  -5  12   3    0.89    1.99
  -4  12   3   -0.38    1.61
  -3  12   3    1.39    1.61
  -2  12   3    3.99    2.03
  -1  12   3    6.46    2.17
   0  12   3   -0.32    1.17
   1  12   3    0.45    1.22
   2  12   3    4.20    1.90
   3  12   3   38.20    4.10
   4  12   3   26.26    3.39
   5  12   3    6.69    1.89
   6  12   3   -0.08    1.09
   7  12   3    0.01    1.15
   8  12   3    7.70    2.12
   9  12   3    3.02    1.82
  11  12   3    2.78    2.25
  12  12   3    5.16    2.26
  13  12   3    4.84    2.09
  -4  13   3    2.49    2.05
  -3  13   3    1.14    1.91
  -2  13   3    0.95    1.59
  -1  13   3    1.02    1.69
   0  13   3   -0.81    1.47
   1  13   3    0.70    1.51
   2  13   3   -0.42    1.25
   3  13   3    0.43    1.39
   4  13   3   -0.59    1.34
   5  13   3   -1.37    1.54
   6  13   3    0.49    1.51
   7  13   3   13.05    2.68
   8  13   3    9.37    2.40
   9  13   3    9.06    2.36
  -2  14   3    4.47    2.56
  -1  14   3    8.94    3.11
   0  14   3    1.83    2.20
   1  14   3    0.11    1.67
   2  14   3    0.08    1.67
   3  14   3   -0.13    1.53
   4  14   3   -0.20    1.48
   5  14   3    0.25    1.51
   6  14   3   -0.14    1.89
   7  14   3   10.60    2.85
   8  14   3    6.06    2.19
   9  14   3   -0.04    2.15
   0  15   3    2.33    2.46
   1  15   3   -1.91    1.95
   2  15   3   -1.32    1.94
   3  15   3    4.81    2.21
   4  15   3    5.02    2.39
   5  15   3    8.06    2.62
   6  15   3   -0.43    1.95
   7  15   3   -0.40    2.21
   8  15   3    1.01    2.29
   5  16   3   13.09    3.29
   6  14  -4    3.92    2.30
   5  14  -4    6.36    2.61
   4  14  -4   -0.14    2.11
   3  14  -4    3.23    2.35
   2  14  -4   -1.06    2.16
   9  13  -4    4.45    2.74
   8  13  -4   10.61    3.32
   7  13  -4    0.64    1.91
   6  13  -4    0.63    1.99
   5  13  -4   -1.63    1.45
   4  13  -4    3.01    1.76
   3  13  -4   -0.63    1.55
   2  13  -4   -0.32    1.69
   1  13  -4   -0.76    1.74
   0  13  -4    0.53    1.78
  -1  13  -4    1.44    2.01
  10  12  -4    3.26    2.51
   9  12  -4    2.75    2.13
   8  12  -4    1.25    2.02
   7  12  -4    0.58    1.74
   6  12  -4    4.39    2.15
   5  12  -4   11.10    2.64
   4  12  -4   17.06    3.03
   3  12  -4   11.34    2.62
   2  12  -4    1.60    1.66
   1  12  -4   -2.00    1.37
   0  12  -4   -0.75    1.27
  -1  12  -4    0.48    1.53
  -2  12  -4   -0.49    1.67
  -3  12  -4    0.38    1.77
  11  11  -4   -1.00    2.02
  10  11  -4   -2.00    1.75
   9  11  -4    3.39    2.10
   8  11  -4   -0.44    1.55
   7  11  -4    0.17    1.54
   6  11  -4    3.09    1.85
   5  11  -4   14.92    2.89
   4  11  -4    5.90    2.00
   3  11  -4    0.19    1.32
   2  11  -4    3.30    1.81
   1  11  -4   12.83    2.57
   0  11  -4   37.95    4.23
  -1  11  -4    4.38    1.90
  -2  11  -4    4.85    2.02
  -3  11  -4   -1.31    1.57
  -4  11  -4   -1.11    1.66
  -5  11  -4   -1.28    1.91
  12  10  -4    0.93    2.36
  11  10  -4   -0.20    1.84
  10  10  -4    1.23    1.72
   9  10  -4    4.32    1.96
   8  10  -4    2.62    1.75
   7  10  -4    3.50    1.70
   6  10  -4    1.02    1.30
   5  10  -4    2.42    1.50
   4  10  -4    3.34    1.55
   3  10  -4    0.54    1.14
   2  10  -4   13.55    2.50
   1  10  -4    3.58    1.64
   0  10  -4   37.20    4.03
  -1  10  -4   22.15    2.94
  -1  10  -4   18.89    3.06
  -2  10  -4    2.52    1.43
  -3  10  -4    1.10    1.65
  -4  10  -4    3.19    1.83
  -5  10  -4   10.23    2.81
  -6  10  -4    7.75    2.64
  12   9  -4    1.97    2.01
  11   9  -4    0.04    1.70
  10   9  -4    4.16    1.89
   9   9  -4   29.61    4.05
   8   9  -4   17.36    2.94
   7   9  -4   15.36    2.75
   6   9  -4   10.78    2.45
   5   9  -4    0.20    1.04
   4   9  -4   14.07    2.55
   3   9  -4    6.17    1.69
   2   9  -4    6.66    1.79
   1   9  -4    1.55    1.06
   0   9  -4    4.29    1.60
  -1   9  -4    0.17    0.93
  -1   9  -4   -2.26    0.88
  -2   9  -4    0.84    1.29
  -2   9  -4    1.15    1.11
  -3   9  -4    4.35    1.66
  -3   9  -4    6.20    1.85
  -4   9  -4   10.59    2.49
  -5   9  -4   12.06    2.78
  -6   9  -4    1.32    1.94
  13   8  -4    1.26    1.64
  13   8  -4    5.20    2.64
  12   8  -4    6.06    2.51
  12   8  -4    8.81    2.36
  11   8  -4    6.81    2.52
  10   8  -4    5.88    2.11
   9   8  -4    3.49    1.67
   8   8  -4   -0.23    1.17
   7   8  -4    1.32    1.15
   6   8  -4   19.07    2.80
   5   8  -4   10.41    2.12
   4   8  -4    6.58    1.74
   3   8  -4    4.98    1.52
   2   8  -4    2.48    1.19
   1   8  -4    4.17    1.41
   0   8  -4    1.17    1.03
  -1   8  -4    5.46    1.63
  -2   8  -4    9.62    1.83
  -2   8  -4    9.25    2.04
  -3   8  -4    3.05    1.42
  -3   8  -4    3.47    1.31
  -4   8  -4    7.37    2.05
  -4   8  -4    6.62    1.61
  -5   8  -4    2.30    1.59
  -5   8  -4    2.34    1.31
  -6   8  -4   -1.19    1.50
  13   7  -4    5.06    2.41
  13   7  -4    2.13    1.95
  12   7  -4    4.24    2.13
  12   7  -4    4.17    1.79
  11   7  -4    0.74    1.35
  11   7  -4   -1.21    1.23
  10   7  -4    9.42    2.07
  10   7  -4    7.71    2.22
   9   7  -4    9.14    1.83
   9   7  -4   11.76    2.48
   8   7  -4   25.65    3.30
   8   7  -4   24.49    2.65
   7   7  -4   77.07    4.60
   7   7  -4   76.63    3.73
   6   7  -4   37.48    3.11
   5   7  -4   28.60    3.16
   4   7  -4   10.54    2.00
   3   7  -4    0.00    0.79
   2   7  -4    4.95    1.41
   1   7  -4   24.65    2.72
   0   7  -4   16.05    2.18
  -1   7  -4   12.66    2.03
  -2   7  -4   52.56    3.55
  -2   7  -4   54.13    3.18
  -3   7  -4    5.56    1.61
  -3   7  -4    4.89    1.44
  -4   7  -4    1.55    1.38
  -4   7  -4    0.69    1.03
  -5   7  -4    0.77    1.20
  -5   7  -4    1.59    1.13
  -6   7  -4    0.73    1.44
  -6   7  -4    0.81    1.21
  -7   7  -4    4.26    2.50
  13   6  -4    0.79    1.62
  13   6  -4    1.13    1.99
  12   6  -4    6.51    2.21
  12   6  -4    2.14    1.62
  11   6  -4    5.33    1.75
  11   6  -4    9.04    2.34
  10   6  -4    3.83    1.44
  10   6  -4    8.12    2.04
   9   6  -4   21.90    3.13
   9   6  -4   12.28    2.16
   8   6  -4    3.40    1.41
   8   6  -4    2.89    1.22
   7   6  -4   72.78    3.67
   7   6  -4   69.34    4.16
   6   6  -4   11.90    2.06
   6   6  -4    8.18    1.34
   5   6  -4    1.70    0.70
   5   6  -4    1.53    0.93
   4   6  -4   20.31    2.48
   4   6  -4   21.37    1.40
   3   6  -4  118.96    5.11
   2   6  -4  155.01    5.98
   1   6  -4   59.10    3.38
   0   6  -4   45.09    2.91
  -1   6  -4    6.34    1.43
  -2   6  -4    1.87    1.05
  -2   6  -4    1.41    0.90
  -3   6  -4    1.99    1.00
  -3   6  -4    0.73    0.92
  -4   6  -4   -1.04    0.64
  -4   6  -4    0.08    1.00
  -5   6  -4   29.48    3.06
  -5   6  -4   23.64    2.74
  -6   6  -4   11.42    2.01
  -6   6  -4   17.87    2.78
  -7   6  -4   12.45    2.46
  -7   6  -4   14.62    2.93
  -8   6  -4    8.05    2.08
  13   5  -4    0.52    1.91
  13   5  -4    0.41    1.53
  12   5  -4   -0.94    1.45
  12   5  -4    2.30    1.65
  11   5  -4    2.78    1.59
  11   5  -4    1.63    1.45
  10   5  -4   -0.38    1.20
  10   5  -4   -0.81    1.04
   9   5  -4    4.91    1.60
   9   5  -4    4.43    1.73
   8   5  -4   10.00    2.02
   8   5  -4    9.15    1.78
   7   5  -4   19.96    2.30
   7   5  -4   25.80    3.01
   6   5  -4    0.41    0.62
   6   5  -4    0.36    0.65
   5   5  -4    1.03    0.62
   5   5  -4    0.81    0.73
   4   5  -4   26.97    1.61
   4   5  -4   27.22    2.72
   3   5  -4   46.45    1.85
   3   5  -4   45.19    2.84
   2   5  -4  148.99    3.54
   2   5  -4  151.48    5.53
   1   5  -4   42.22    2.66
   0   5  -4   30.98    2.24
  -1   5  -4   44.08    2.69
  -2   5  -4   42.88    2.52
  -2   5  -4   40.95    2.64
  -3   5  -4   65.61    3.53
  -3   5  -4   70.90    3.41
  -4   5  -4   18.49    2.27
  -4   5  -4   19.62    2.33
  -5   5  -4   19.96    2.37
  -5   5  -4   20.51    2.41
  -6   5  -4   20.39    2.48
  -6   5  -4   25.82    2.94
  -7   5  -4    5.85    1.77
  -7   5  -4    4.11    1.56
  -8   5  -4    0.99    1.13
  -9   5  -4    2.41    1.66
 -10   5  -4    6.00    2.21
  14   4  -4   -1.23    1.48
  13   4  -4    1.65    1.58
  12   4  -4    3.60    1.88
  11   4  -4    7.93    2.14
  10   4  -4    2.67    1.42
   9   4  -4    4.78    1.59
   8   4  -4   17.58    2.38
   7   4  -4    6.95    1.48
   6   4  -4    4.25    1.23
   6   4  -4    4.26    1.12
   5   4  -4   -0.10    0.46
   5   4  -4   -0.30    0.60
   4   4  -4   -0.06    0.39
   4   4  -4    0.39    0.52
   3   4  -4    4.01    1.05
   3   4  -4    3.41    0.66
   2   4  -4   61.67    3.09
   2   4  -4   62.71    1.95
   1   4  -4   28.72    2.00
   0   4  -4   37.40    2.29
  -1   4  -4   15.97    1.75
  -2   4  -4   72.21    3.27
  -2   4  -4   70.58    3.14
   2  -4   4   69.18    2.21
  -3   4  -4   62.05    3.09
  -3   4  -4   56.50    2.89
   3  -4   4   55.01    2.28
  -4   4  -4   35.12    2.41
  -4   4  -4   30.76    2.24
   4  -4   4   30.61    1.90
  -5   4  -4   -0.97    0.68
  -5   4  -4    0.07    0.71
   5  -4   4   -0.32    0.63
  -6   4  -4    0.90    0.79
  -6   4  -4   -0.19    0.88
   6  -4   4   -0.53    0.79
  -7   4  -4    1.04    1.03
  -7   4  -4    1.91    1.14
   7  -4   4    3.14    1.19
  -8   4  -4   15.03    2.45
  -9   4  -4    1.61    1.27
 -10   4  -4    1.28    1.51
 -11   4  -4    0.38    1.64
  13   3  -4    2.64    1.92
  12   3  -4    0.85    1.52
  11   3  -4    3.26    1.69
  10   3  -4    0.10    1.10
   9   3  -4   -1.22    0.89
   8   3  -4   14.01    2.32
   7   3  -4   63.80    3.60
   6   3  -4   36.68    2.50
   5   3  -4    6.88    1.28
   4   3  -4    1.34    0.57
   3   3  -4    9.96    1.43
   3   3  -4   11.53    1.21
   2   3  -4    1.65    0.70
   2   3  -4    1.83    0.45
   1   3  -4   11.92    1.40
   0   3  -4    0.52    0.44
  -1   3  -4   16.85    1.61
  -2   3  -4   77.67    3.19
  -2   3  -4   81.60    3.21
   2  -3   4   78.38    2.42
  -3   3  -4   24.79    1.78
  -3   3  -4   32.68    2.03
   3  -3   4   30.30    1.58
  -4   3  -4   29.50    2.60
  -4   3  -4   21.16    1.75
   4  -3   4   19.77    1.53
  -5   3  -4    1.31    0.85
  -5   3  -4    1.98    0.91
   5  -3   4    0.76    0.68
  -6   3  -4   19.90    2.39
  -6   3  -4   22.04    2.27
   6  -3   4   21.09    2.25
  -7   3  -4   19.35    2.33
  -7   3  -4   19.84    2.56
   7  -3   4   17.04    2.24
  -8   3  -4    3.25    1.38
   8  -3   4    1.69    1.15
  -9   3  -4    0.95    1.33
   9  -3   4    0.99    1.32
 -10   3  -4    2.59    1.53
  10  -3   4    3.13    1.69
 -11   3  -4    1.12    1.59
  11  -3   4    2.98    2.32
 -12   3  -4    0.96    1.79
  13   2  -4    1.39    1.53
  12   2  -4    2.46    1.85
  11   2  -4    0.16    1.27
  10   2  -4   12.13    2.43
   9   2  -4   22.47    3.01
   8   2  -4   31.43    3.30
   7   2  -4  105.51    4.92
   6   2  -4   49.32    2.99
   5   2  -4    3.84    1.02
   4   2  -4   38.33    2.13
   3   2  -4  145.24    4.41
   2   2  -4  382.79    8.80
   2   2  -4  385.28    9.70
   1   2  -4  174.78    4.07
   1   2  -4  177.38    4.27
   1   2  -4  180.88    5.25
   0   2  -4  150.63    4.51
  -1   2  -4   31.19    1.66
   1  -2   4   28.96    1.12
  -2   2  -4    0.58    0.50
  -2   2  -4    0.28    0.37
   2  -2   4    0.12    0.32
  -3   2  -4    0.86    0.50
  -3   2  -4    0.93    0.57
   3  -2   4    1.33    0.50
  -4   2  -4    5.79    1.15
  -4   2  -4    3.99    0.83
   4  -2   4    4.93    0.95
  -5   2  -4   22.21    2.24
  -5   2  -4   19.05    1.60
  -6   2  -4    7.89    1.31
  -6   2  -4    5.32    1.23
   6  -2   4    8.53    1.45
  -7   2  -4   13.26    1.86
  -7   2  -4   15.50    2.23
   7  -2   4   15.65    2.12
  -8   2  -4    0.67    1.22
   8  -2   4    0.38    0.95
  -9   2  -4    0.38    1.07
   9  -2   4    0.71    1.24
 -10   2  -4    2.96    1.56
  10  -2   4    1.48    1.48
 -11   2  -4    3.30    1.82
  11  -2   4    2.63    1.66
 -12   2  -4    6.59    2.11
  12  -2   4    2.98    2.09
  13   1  -4    0.27    1.72
  12   1  -4   11.54    2.68
  11   1  -4   11.23    2.59
  10   1  -4   14.31    2.59
   9   1  -4   28.70    3.43
   8   1  -4    1.06    1.08
   7   1  -4    1.66    1.04
   6   1  -4   20.03    2.30
   5   1  -4   10.27    1.53
   4   1  -4  319.63    8.58
   3   1  -4  164.43    4.92
   2   1  -4  256.49    6.39
  -1  -1   4   68.86    2.23
   0   1  -4   18.74    1.19
   0  -1   4   18.83    0.94
  -1   1  -4   76.02    2.50
   1  -1   4   75.96    2.24
  -2   1  -4   32.66    1.74
  -2   1  -4   32.47    1.46
   2  -1   4   31.34    1.44
  -3   1  -4  237.04    5.82
  -3   1  -4  223.58    6.29
   3  -1   4  238.21    6.08
  -4   1  -4   99.32    3.17
  -4   1  -4   94.53    3.62
  -5   1  -4   77.39    3.44
  -5   1  -4   85.83    3.01
   5  -1   4   78.71    3.41
  -6   1  -4   55.47    2.56
  -6   1  -4   48.40    2.82
   6  -1   4   53.72    2.96
  -7   1  -4   -0.24    0.74
  -7   1  -4    0.24    0.71
   7  -1   4   -0.36    0.74
  -8   1  -4    0.93    0.95
   8  -1   4    0.20    1.05
  -9   1  -4    6.41    1.91
   9  -1   4    3.58    1.51
 -10   1  -4    7.54    1.96
  10  -1   4   13.91    2.50
 -11   1  -4    3.50    1.73
  11  -1   4    5.51    2.10
  12  -1   4    3.00    1.99
  13  -1   4    0.53    1.69
  13   0  -4    1.50    1.89
  12   0  -4   -0.01    1.43
  11   0  -4    3.18    1.65
  10   0  -4    1.57    1.54
   9   0  -4    0.06    1.17
   8   0  -4   12.44    2.32
   7   0  -4   10.65    1.94
   6   0  -4   39.25    2.74
   5   0  -4    3.64    1.02
   4   0  -4   97.54    3.85
   3   0  -4   23.22    1.56
   2   0  -4   -0.01    0.26
   2   0  -4    0.31    0.30
  -1   0   4   23.79    1.28
   0   0   4    0.05    0.16
  -1   0  -4  364.36    8.10
  -2   0  -4   13.48    1.02
  -2   0  -4   14.36    0.76
  -3   0  -4  363.40    8.79
  -3   0  -4  354.54    7.82
   3   0   4  362.14    8.65
  -4   0  -4  112.67    3.84
  -4   0  -4  109.87    3.04
   4   0   4  110.44    3.79
  -5   0  -4   13.21    1.59
  -5   0  -4   12.87    1.17
   5   0   4   12.97    1.59
  -6   0  -4    1.09    0.72
  -6   0  -4    1.91    0.72
   6   0   4    2.34    0.97
  -7   0  -4    7.77    1.62
   7   0   4    5.64    1.39
  -8   0  -4   19.57    2.48
   8   0   4   20.83    2.56
  -9   0  -4   20.23    2.75
   9   0   4   18.50    2.59
 -10   0  -4   28.67    3.45
  10   0   4   21.54    3.01
 -11   0  -4   11.01    2.36
  11   0   4    6.23    2.01
  12   0   4    0.17    1.47
  13   0   4    0.32    1.59
  13  -1  -4   -0.43    1.54
  12  -1  -4   -0.10    1.69
  11  -1  -4    1.18    1.48
  10  -1  -4    2.23    1.56
   9  -1  -4    0.80    1.32
   8  -1  -4    0.07    0.98
   7  -1  -4    0.68    0.89
   6  -1  -4    4.19    1.25
   5  -1  -4    7.41    1.38
   4  -1  -4    7.53    1.29
   3  -1  -4   17.15    1.39
   3  -1  -4   16.81    1.21
   2  -1  -4    6.49    0.96
   2  -1  -4    6.17    0.82
  -1   1   4   13.73    1.09
   0   1   4   45.69    1.83
  -1  -1  -4  232.12    5.53
   1   1   4  227.14    5.67
  -2  -1  -4   26.30    1.33
   2   1   4   28.23    1.44
  -3  -1  -4   19.28    1.25
   3   1   4   19.53    1.34
  -4  -1  -4    5.40    0.91
   4   1   4    6.32    1.09
  -5  -1  -4   62.15    2.80
   5   1   4   61.27    2.88
  -6  -1  -4   24.65    1.88
   6   1   4   26.93    2.04
  -7  -1  -4    7.06    1.38
   7   1   4    2.63    1.09
  -8  -1  -4   17.49    2.31
   8   1   4   19.67    2.45
  -9  -1  -4    8.78    1.81
   9   1   4    7.23    1.84
 -10  -1  -4    1.01    1.20
  10   1   4    1.64    1.35
  11   1   4   -0.77    1.23
  12   1   4    0.00    1.45
  13   1   4    4.56    2.07
  14   1   4    3.17    2.05
  12  -2  -4    1.24    1.74
  11  -2  -4    1.24    1.67
  10  -2  -4   10.27    2.52
   9  -2  -4   26.61    3.58
   8  -2  -4   19.84    2.82
   7  -2  -4   28.36    3.22
   6  -2  -4    1.12    0.83
   5  -2  -4    7.77    1.48
   4  -2  -4   31.19    2.17
  -4   2   4   35.96    2.36
   3  -2  -4    0.34    0.38
   3  -2  -4    0.43    0.46
  -3   2   4   -0.03    0.52
  -2   2   4    0.16    0.48
  -2   2   4    0.26    0.51
  -1   2   4   27.67    1.59
  -1   2   4   25.54    1.55
   0   2   4   47.55    1.92
   0   2   4   48.82    2.03
  -1  -2  -4    2.50    0.44
   1   2   4    2.97    0.68
   1   2   4    2.60    0.51
  -2  -2  -4   21.78    1.11
   2   2   4   21.23    1.36
  -3  -2  -4   44.58    1.93
   3   2   4   52.36    2.24
  -4  -2  -4  201.67    5.57
   4   2   4  196.51    5.79
  -5  -2  -4  126.12    4.34
   5   2   4  131.25    4.61
  -6  -2  -4   19.18    2.07
   6   2   4   19.65    2.14
  -7  -2  -4    1.34    0.81
   7   2   4    4.42    1.28
  -8  -2  -4   20.03    2.43
   8   2   4   17.97    2.29
  -9  -2  -4   28.42    2.89
   9   2   4   27.13    2.95
  10   2   4   11.11    2.10
  11   2   4    1.93    1.44
  12   2   4    1.81    1.39
  13   2   4    1.27    1.51
  14   2   4   -1.36    1.44
  12  -3  -4    1.12    1.83
  11  -3  -4    6.75    2.54
  10  -3  -4   24.20    3.68
   9  -3  -4   26.23    3.64
   8  -3  -4    9.66    2.18
   7  -3  -4    5.65    1.55
   6  -3  -4   42.39    3.09
  -6   3   4   36.49    2.93
   5  -3  -4   72.93    3.80
  -5   3   4   67.71    3.70
   4  -3  -4   91.27    3.96
  -4   3   4   84.23    3.91
   3  -3  -4   13.58    1.41
   3  -3  -4    9.71    1.39
  -3   3   4   12.60    1.65
  -2   3   4    6.85    1.16
  -2   3   4    4.71    0.99
  -1   3   4    2.40    0.69
  -1   3   4    2.61    0.67
   0   3   4   15.55    1.23
   0   3   4   16.51    1.18
  -1  -3  -4   28.48    1.03
   1   3   4   28.68    1.60
  -2  -3  -4   14.98    0.90
   2   3   4   13.62    0.85
   2   3   4   17.38    1.29
  -3  -3  -4  196.55    5.07
   3   3   4  188.20    4.39
   3   3   4  186.84    5.42
  -4  -3  -4  120.86    3.85
   4   3   4  119.06    2.97
   4   3   4  121.24    4.19
  -5  -3  -4  124.95    4.17
   5   3   4  119.99    3.16
   5   3   4  119.17    4.41
  -6  -3  -4   22.31    2.17
   6   3   4   21.54    2.27
   6   3   4   18.02    1.10
  -7  -3  -4   10.19    1.70
   7   3   4   12.59    1.92
  -8  -3  -4   34.96    2.52
   8   3   4   33.90    2.72
   9   3   4   43.59    3.24
  10   3   4   25.64    3.03
  11   3   4    0.00    1.09
  12   3   4   -0.53    1.04
  13   3   4    3.46    1.82
  14   3   4   -1.52    1.50
  11  -4  -4   -1.59    1.55
  10  -4  -4    0.63    1.57
   9  -4  -4   -0.19    1.33
   8  -4  -4    0.85    1.33
   7  -4  -4    6.75    1.82
  -7   4   4    5.49    1.75
   6  -4  -4   45.18    3.29
  -6   4   4   43.54    3.28
   5  -4  -4   57.14    3.46
  -5   4   4   57.64    3.52
   4  -4  -4  197.44    6.59
  -4   4   4  196.76    6.77
   3  -4  -4  148.76    5.30
   3  -4  -4  159.24    4.92
  -3   4   4  154.66    5.47
  -2   4   4    0.73    0.66
  -2   4   4    2.44    0.86
  -1   4   4    0.41    0.47
  -1   4   4    0.49    0.49
   0   4   4  150.04    4.64
   0   4   4  151.10    4.62
   1   4   4  394.22    9.25
   1   4   4  382.70    9.46
   2   4   4  145.75    4.07
   2   4   4  145.30    4.48
   3   4   4   36.41    2.02
   3   4   4   36.59    1.58
  -4  -4  -4    0.85    0.49
   4   4   4    1.85    0.46
   4   4   4    1.81    0.69
   5   4   4    5.37    1.20
   5   4   4    5.49    0.75
   6   4   4   -0.06    0.36
   6   4   4    0.03    0.60
   7   4   4    1.97    0.97
   7   4   4    2.27    0.58
   8   4   4   20.22    2.58
   9   4   4   30.47    3.29
  10   4   4   45.09    3.55
  11   4   4    5.78    1.94
  12   4   4    1.72    1.46
  13   4   4    2.62    1.62
  14   4   4    1.33    1.72
  11  -5  -4    0.53    1.96
  10  -5  -4    5.67    2.34
   9  -5  -4    7.38    2.27
   8  -5  -4    4.70    1.70
  -8   5   4    1.33    1.48
   7  -5  -4   -0.83    0.92
  -7   5   4    0.62    1.32
   6  -5  -4   25.21    2.97
  -6   5   4   20.44    2.79
   5  -5  -4    1.33    1.02
  -5   5   4    1.43    1.18
   4  -5  -4    1.52    0.84
  -4   5   4    1.74    0.98
   3  -5  -4    9.75    1.58
   3  -5  -4    6.39    1.10
  -3   5   4    5.80    1.44
  -2   5   4   22.84    2.17
  -2   5   4   21.89    2.22
  -1   5   4   39.88    2.26
  -1   5   4   42.00    2.48
   0   5   4   89.45    3.43
   0   5   4   91.97    3.60
   1   5   4  209.97    5.98
   1   5   4  206.94    5.94
   2   5   4   22.46    1.58
   2   5   4   14.33    1.20
   3   5   4    1.46    0.68
   3   5   4    1.93    0.63
   4   5   4  119.42    4.32
   4   5   4  126.98    3.79
   5   5   4   17.34    1.23
   5   5   4   16.21    1.80
   6   5   4   18.00    1.33
   6   5   4   19.34    2.26
   7   5   4   11.06    1.31
   7   5   4   12.42    2.00
   8   5   4   18.29    2.44
   9   5   4   22.18    2.80
  10   5   4   48.82    3.77
  11   5   4    0.35    1.08
  12   5   4   -1.42    0.96
  13   5   4    6.67    2.21
  14   5   4    5.76    2.22
  10  -6  -4    5.55    2.41
   9  -6  -4    3.55    2.26
  -9   6   4    0.56    1.74
   8  -6  -4   -0.96    1.13
  -8   6   4   -0.11    1.41
   7  -6  -4    7.78    2.10
  -7   6   4    3.68    1.77
   6  -6  -4    4.82    1.55
  -6   6   4    4.27    1.62
   5  -6  -4   14.75    2.24
  -5   6   4   18.89    2.61
   4  -6  -4   18.43    2.30
  -4   6   4   15.50    2.42
   3  -6  -4    5.99    1.39
   3  -6  -4    5.01    1.04
  -3   6   4    7.43    1.56
  -2   6   4    0.08    0.60
  -2   6   4    0.22    0.74
  -1   6   4    3.92    1.02
  -1   6   4    7.29    1.32
   0   6   4    0.98    0.75
   0   6   4    0.83    0.72
   1   6   4    1.44    0.76
   1   6   4    2.10    0.80
   2   6   4   26.26    1.79
   2   6   4   23.02    1.68
   3   6   4   46.77    2.38
   3   6   4   48.96    2.50
   4   6   4  119.29    4.41
   4   6   4  119.28    4.03
   5   6   4   87.92    3.29
   5   6   4   84.92    3.77
   6   6   4   58.65    2.61
   6   6   4   49.44    3.02
   7   6   4    5.56    1.08
   7   6   4    5.89    1.49
   8   6   4   -1.52    0.74
   9   6   4    9.88    2.02
  10   6   4    0.67    1.14
  11   6   4   12.07    2.36
  12   6   4    0.31    1.33
  13   6   4    2.94    1.68
  14   6   4    4.72    2.10
  10  -7  -4   -1.61    2.00
   9  -7  -4    1.21    1.96
  -9   7   4   -0.56    1.89
   8  -7  -4    0.12    1.39
  -8   7   4   -0.31    1.52
   7  -7  -4    7.97    2.31
  -7   7   4    2.32    1.75
   6  -7  -4   13.97    2.45
  -6   7   4   16.92    2.94
   5  -7  -4   13.51    2.35
  -5   7   4   14.93    2.55
   4  -7  -4   11.47    1.94
  -4   7   4    9.93    2.00
   3  -7  -4    0.02    0.60
   3  -7  -4    0.41    0.63
  -3   7   4   -0.02    0.86
   2  -7  -4    1.63    0.79
   2  -7  -4    0.00    0.48
  -2   7   4    0.47    0.93
  -1   7   4    6.65    1.45
  -1   7   4    7.52    1.38
   0   7   4   42.78    2.48
   0   7   4   43.43    2.79
   1   7   4   26.79    1.93
   1   7   4   25.07    2.05
   2   7   4   20.26    2.11
   2   7   4   21.77    1.76
   3   7   4   76.66    3.45
   3   7   4   79.81    3.46
   4   7   4   13.54    1.77
   4   7   4   12.21    1.58
   5   7   4    0.74    0.63
   5   7   4    0.55    0.77
   6   7   4    4.34    1.02
   6   7   4    5.08    1.32
   7   7   4   16.22    2.29
   7   7   4   13.91    1.74
   8   7   4   38.78    3.06
   8   7   4   40.58    4.13
   9   7   4   60.33    4.08
  10   7   4   14.69    2.50
  11   7   4    7.13    2.07
  12   7   4    0.87    1.46
  13   7   4    0.30    1.39
  14   7   4   -0.93    1.67
  -9   8   4   -0.73    2.04
   8  -8  -4   -0.83    1.49
  -8   8   4    0.75    1.76
   7  -8  -4    3.47    1.81
  -7   8   4    2.84    1.81
   6  -8  -4   19.36    3.05
  -6   8   4   17.32    2.94
   5  -8  -4   13.87    2.44
  -5   8   4   11.44    2.36
   4  -8  -4    2.18    1.09
  -4   8   4    0.99    1.24
   3  -8  -4    5.71    1.19
   3  -8  -4    5.08    1.38
  -3   8   4    6.33    1.86
   2  -8  -4    4.34    1.01
   2  -8  -4    1.60    0.86
  -2   8   4    2.99    1.33
  -1   8   4    4.70    1.29
  -1   8   4    5.28    1.48
   0   8   4   32.21    3.12
   0   8   4   27.96    2.70
   1   8   4  104.90    4.65
   1   8   4  106.87    4.24
   2   8   4   48.48    2.73
   2   8   4   50.42    3.01
   3   8   4   19.47    2.07
   3   8   4   17.61    2.13
   4   8   4   -0.05    0.69
   4   8   4    1.18    0.81
   5   8   4    5.69    1.31
   5   8   4    6.33    1.30
   6   8   4   19.79    2.37
   7   8   4   25.55    2.13
   7   8   4   33.07    3.21
   8   8   4   38.25    2.65
   8   8   4   40.12    3.12
   9   8   4   18.03    2.64
  10   8   4    3.70    1.71
  11   8   4    1.05    1.44
  12   8   4    1.55    1.59
  13   8   4    3.63    2.19
  14   8   4    3.72    2.27
  -8   9   4    2.14    2.34
  -7   9   4    8.72    2.74
  -6   9   4   12.27    2.72
   5  -9  -4    9.89    2.06
  -5   9   4   11.64    2.50
   4  -9  -4    0.42    1.08
  -4   9   4    1.85    1.46
   3  -9  -4   32.04    3.03
   3  -9  -4   21.82    2.19
  -3   9   4   15.81    2.74
   2  -9  -4   19.59    2.40
   2  -9  -4   10.59    1.60
  -2   9   4   25.02    2.98
  -1   9   4   32.07    3.06
  -1   9   4   29.11    3.42
   0   9   4   29.46    2.78
   0   9   4   29.43    3.29
   1   9   4   26.66    2.92
   1   9   4   26.40    2.59
   2   9   4    4.55    1.32
   2   9   4    2.74    1.05
   3   9   4    3.90    1.29
   3   9   4    4.08    1.13
   4   9   4    1.13    0.87
   4   9   4    1.06    0.91
   5   9   4   -0.51    0.78
   5   9   4   -0.37    0.76
   6   9   4   12.35    1.88
   6   9   4   14.53    2.10
   7   9   4   35.00    2.84
   8   9   4   10.27    1.80
   8   9   4    8.40    1.94
   9   9   4    1.28    1.23
  10   9   4   -1.35    1.18
  11   9   4    5.66    1.98
  12   9   4    5.72    2.19
  13   9   4    4.98    2.32
  14   9   4   -1.51    1.68
  -7  10   4   -1.40    1.66
  -6  10   4    0.78    1.67
  -5  10   4    2.05    1.72
  -4  10   4    0.94    1.43
  -3  10   4   19.04    3.03
  -2  10   4   13.32    2.45
  -1  10   4   19.79    2.98
   0  10   4    0.46    1.10
   0  10   4    0.15    0.92
   1  10   4    5.93    1.76
   1  10   4    5.92    1.46
   2  10   4    8.23    1.84
   2  10   4    9.60    1.78
   3  10   4   -0.48    0.84
   3  10   4    0.63    0.86
   4  10   4   24.80    2.86
   4  10   4   21.46    2.39
   5  10   4    3.54    1.29
   5  10   4    0.38    0.99
   6  10   4   17.70    2.35
   6  10   4   16.32    2.30
   7  10   4   48.99    3.42
   7  10   4   41.62    3.07
   8  10   4   13.61    2.30
   9  10   4   -0.20    1.29
  10  10   4    1.41    1.53
  11  10   4    5.06    1.76
  12  10   4    5.66    2.28
  13  10   4    4.44    2.18
  14  10   4    2.13    1.98
  -6  11   4    1.22    1.81
  -5  11   4    2.41    1.92
  -4  11   4    0.20    1.50
  -3  11   4   -1.18    1.41
  -2  11   4    3.61    1.72
  -1  11   4   -0.23    1.28
   0  11   4   15.49    2.59
   1  11   4   49.06    3.85
   2  11   4   75.29    4.47
   3  11   4   22.92    3.00
   3  11   4   21.69    2.70
   4  11   4   38.31    2.88
   4  11   4   37.46    3.15
   5  11   4    4.24    1.45
   5  11   4    2.68    1.44
   6  11   4    6.86    1.72
   6  11   4    5.84    1.75
   7  11   4    1.68    1.23
   7  11   4    0.87    1.12
   8  11   4    5.11    1.71
   8  11   4    1.56    1.19
   9  11   4    2.85    1.54
  10  11   4    4.39    1.85
  11  11   4    4.25    1.85
  12  11   4    1.19    1.59
  13  11   4    2.76    1.88
  -5  12   4    1.72    2.42
  -4  12   4    1.43    1.75
  -3  12   4    3.10    1.98
  -2  12   4    0.39    1.54
  -1  12   4    1.85    1.78
   0  12   4    0.38    1.44
   1  12   4   12.92    2.66
   2  12   4   15.37    2.87
   3  12   4    8.23    2.02
   4  12   4    1.44    1.42
   5  12   4    8.80    2.13
   6  12   4   37.77    3.86
   7  12   4   29.23    3.33
   8  12   4   21.10    2.87
   8  12   4   26.39    3.16
   9  12   4    6.21    2.02
  10  12   4   -2.14    1.41
  11  12   4    2.98    1.74
  12  12   4    4.90    2.22
  13  12   4    5.62    2.50
  -4  13   4    0.56    2.10
  -3  13   4    2.32    2.32
  -2  13   4    2.27    2.17
  -1  13   4    2.19    1.89
   0  13   4    2.62    1.93
   1  13   4    0.21    1.45
   2  13   4   -1.72    1.37
   3  13   4   -2.48    1.21
   4  13   4    1.98    1.62
   5  13   4    6.63    2.05
   6  13   4   22.31    3.34
   7  13   4   23.02    3.24
   8  13   4    4.89    1.94
  -2  14   4    3.87    2.52
  -1  14   4    3.13    2.06
   0  14   4    0.15    1.82
   1  14   4    0.56    1.86
   2  14   4    2.44    2.28
   3  14   4   -0.57    1.53
   4  14   4    1.59    1.66
   5  14   4    1.76    1.76
   6  14   4    1.94    1.87
   7  14   4   -1.06    1.62
   8  14   4    0.67    1.81
   0  15   4   -1.33    2.28
   1  15   4    6.44    2.83
   2  15   4    4.92    2.36
   3  15   4    4.78    2.36
   4  15   4    0.55    1.78
   5  15   4    1.19    1.73
   6  15   4    0.82    2.02
   7  15   4   -0.44    1.84
   8  15   4   -0.67    2.23
   4  16   4   -1.95    2.27
   5  16   4    4.08    2.46
   6  16   4    4.28    2.49
   8  13  -5   -0.61    1.97
   7  13  -5    4.23    2.59
   6  13  -5    7.93    2.67
   5  13  -5   13.15    3.22
   4  13  -5    5.95    2.45
   3  13  -5   -1.21    1.94
   2  13  -5   -1.58    1.63
   1  13  -5   -1.54    1.87
   0  13  -5    2.40    1.98
  10  12  -5   -1.76    2.08
   9  12  -5   -0.21    2.03
   8  12  -5   12.46    3.20
   7  12  -5   22.21    3.85
   6  12  -5   10.49    2.86
   5  12  -5    2.92    1.84
   4  12  -5    3.15    1.91
   3  12  -5    0.38    1.36
   2  12  -5    9.00    2.59
   1  12  -5    9.18    2.42
   0  12  -5    2.00    1.94
  -1  12  -5    6.13    2.22
  -2  12  -5    2.18    1.89
  11  11  -5    0.19    2.13
  10  11  -5   -0.35    2.11
   9  11  -5    5.50    2.35
   8  11  -5   -1.06    1.64
   7  11  -5    1.71    1.71
   6  11  -5    1.04    1.57
   5  11  -5    3.62    1.85
   4  11  -5    2.27    1.53
   3  11  -5    3.87    1.80
   2  11  -5    9.69    2.22
   1  11  -5    6.05    1.97
   0  11  -5    2.01    1.86
  -1  11  -5    3.83    1.99
  -2  11  -5    0.05    1.37
  -3  11  -5    1.26    1.69
  -4  11  -5    0.00    1.80
  11  10  -5    2.38    2.27
  10  10  -5    1.32    1.98
   9  10  -5    2.00    1.68
   8  10  -5   -1.34    1.47
   7  10  -5   -0.63    1.46
   6  10  -5   -0.61    1.33
   5  10  -5    2.45    1.63
   4  10  -5    7.70    2.15
   3  10  -5    3.54    1.58
   2  10  -5    0.88    1.28
   1  10  -5   -0.33    1.11
   0  10  -5    5.77    1.84
  -1  10  -5    5.85    1.79
  -1  10  -5    5.85    2.00
  -2  10  -5    3.28    1.76
  -2  10  -5    4.81    1.78
  -3  10  -5    0.63    1.52
  -4  10  -5    1.41    1.68
  -5  10  -5    2.60    2.03
  12   9  -5    9.41    2.94
  11   9  -5   13.94    3.20
  10   9  -5    1.01    1.71
   9   9  -5    1.20    1.63
   8   9  -5   20.15    3.36
   7   9  -5    5.62    1.87
   6   9  -5    2.41    1.48
   5   9  -5   10.63    2.34
   4   9  -5    8.92    2.23
   3   9  -5    3.13    1.41
   2   9  -5    0.40    1.00
   1   9  -5    4.81    1.62
   0   9  -5    5.85    1.86
  -1   9  -5    9.87    2.29
  -2   9  -5   14.88    2.64
  -2   9  -5   13.11    2.30
  -3   9  -5    8.15    2.01
  -3   9  -5    2.75    1.63
  -4   9  -5    1.95    1.44
  -4   9  -5   -0.01    1.53
  -5   9  -5    0.16    1.54
  13   8  -5   10.81    3.25
  12   8  -5    7.54    2.92
  11   8  -5    2.50    2.00
  10   8  -5    2.96    1.87
   9   8  -5   21.90    3.46
   8   8  -5   81.59    5.16
   7   8  -5   44.36    4.46
   6   8  -5   12.38    2.42
   5   8  -5   -0.24    0.97
   4   8  -5    0.61    1.07
   3   8  -5    1.14    1.14
   2   8  -5    1.82    1.19
   1   8  -5    2.30    1.22
   0   8  -5   18.76    2.56
  -1   8  -5   49.07    3.61
  -2   8  -5   16.01    2.43
  -2   8  -5   15.27    2.49
  -3   8  -5    5.26    1.51
  -3   8  -5    6.12    1.68
  -4   8  -5    1.37    1.07
  -4   8  -5   -0.13    1.15
  -5   8  -5    2.57    1.79
  -5   8  -5    4.99    1.68
  -6   8  -5    6.37    2.63
  13   7  -5   -1.22    1.60
  13   7  -5   -1.28    2.02
  12   7  -5    0.99    1.56
  12   7  -5    2.88    2.14
  11   7  -5    1.95    1.72
  11   7  -5    0.62    1.32
  10   7  -5    7.39    1.89
  10   7  -5   10.15    2.56
   9   7  -5    2.04    1.33
   9   7  -5    2.83    1.68
   8   7  -5   14.38    2.66
   7   7  -5   51.35    3.89
   6   7  -5   19.28    2.84
   5   7  -5    4.57    1.46
   4   7  -5   33.98    3.45
   3   7  -5   63.19    3.96
   2   7  -5   49.88    3.49
   1   7  -5   20.19    2.59
   0   7  -5    8.44    1.74
  -1   7  -5   18.26    2.43
  -2   7  -5   27.51    3.03
  -2   7  -5   22.06    2.77
  -3   7  -5    0.62    0.99
  -3   7  -5    1.37    0.96
  -4   7  -5    0.91    0.99
  -4   7  -5   -0.41    1.14
  -5   7  -5    8.16    1.94
  -5   7  -5    4.02    1.59
  -6   7  -5   16.28    2.73
  -6   7  -5   18.92    3.05
  -7   7  -5   10.89    2.47
  13   6  -5    5.87    2.58
  13   6  -5    2.19    1.83
  12   6  -5    7.72    2.51
  12   6  -5    2.34    1.62
  11   6  -5    2.64    1.78
  11   6  -5   -0.23    1.31
  10   6  -5    0.51    1.22
  10   6  -5    0.61    1.06
   9   6  -5    0.54    0.93
   9   6  -5    0.46    1.13
   8   6  -5    0.40    0.79
   8   6  -5   -0.49    0.86
   7   6  -5    0.46    0.92
   7   6  -5    2.00    0.98
   6   6  -5    1.24    0.75
   6   6  -5   -0.10    0.82
   5   6  -5   16.74    2.47
   5   6  -5   18.17    2.38
   4   6  -5   75.82    4.16
   3   6  -5   23.69    2.75
   2   6  -5   21.24    2.51
   1   6  -5   -0.01    0.70
   0   6  -5   18.47    2.37
  -1   6  -5   44.66    2.97
  -2   6  -5    6.56    1.56
  -2   6  -5    5.66    1.34
  -3   6  -5   20.75    2.55
  -3   6  -5   19.45    2.46
  -4   6  -5    5.41    1.60
  -4   6  -5    8.33    1.65
  -5   6  -5    0.79    1.06
  -5   6  -5    0.98    1.07
  -6   6  -5    4.97    1.61
  -6   6  -5    2.78    1.51
  -7   6  -5    3.76    1.58
  -8   6  -5    2.58    1.52
  -9   6  -5   -0.96    1.29
  13   5  -5    0.49    1.61
  13   5  -5    5.89    2.65
  12   5  -5    9.42    2.82
  12   5  -5    3.86    1.77
  11   5  -5   -1.42    1.07
  11   5  -5   -0.03    1.56
  10   5  -5    3.17    1.59
  10   5  -5    1.08    1.42
   9   5  -5    6.37    1.85
   9   5  -5    2.64    1.36
   8   5  -5   38.76    3.03
   8   5  -5   42.39    4.25
   7   5  -5   18.38    2.64
   7   5  -5   19.34    2.32
   6   5  -5   -0.21    0.60
   6   5  -5    0.15    0.68
   5   5  -5    0.64    0.69
   5   5  -5    0.19    0.47
   4   5  -5    0.92    0.53
   4   5  -5    1.16    0.81
   3   5  -5    5.65    1.30
   3   5  -5    7.04    0.85
   2   5  -5    0.74    0.72
   1   5  -5   34.69    2.51
   0   5  -5   12.62    1.76
  -1   5  -5  106.17    4.49
  -2   5  -5   31.44    2.82
  -2   5  -5   31.97    2.43
  -3   5  -5    0.02    0.74
  -3   5  -5    0.09    0.74
  -4   5  -5    2.66    1.13
  -4   5  -5    2.98    1.06
  -5   5  -5    1.62    1.03
  -5   5  -5   -0.19    0.81
  -6   5  -5   32.60    2.74
  -6   5  -5   24.83    2.92
  -7   5  -5    5.91    1.70
  -8   5  -5    5.63    1.89
  -9   5  -5    2.64    1.70
 -10   5  -5   -0.16    1.62
  13   4  -5    3.90    2.17
  12   4  -5    2.41    1.72
  11   4  -5    0.16    1.30
  10   4  -5    4.87    1.76
   9   4  -5    9.75    2.11
   8   4  -5   44.78    3.27
   7   4  -5   38.30    2.81
   6   4  -5   30.60    3.13
   6   4  -5   25.17    2.09
   5   4  -5    2.83    1.03
   5   4  -5    1.86    0.73
   4   4  -5   13.95    1.49
   4   4  -5   13.64    1.94
   3   4  -5   28.99    1.55
   3   4  -5   28.68    2.22
   2   4  -5    0.60    0.32
   2   4  -5    0.61    0.59
   1   4  -5   22.75    1.84
   0   4  -5   69.10    3.32
  -1   4  -5   80.96    3.59
  -2   4  -5    3.21    0.92
  -2   4  -5    2.35    0.78
   2  -4   5    4.19    0.60
  -3   4  -5   14.65    1.86
  -3   4  -5   16.63    1.91
   3  -4   5   14.91    1.38
  -4   4  -5   41.03    2.57
  -4   4  -5   40.93    2.65
  -5   4  -5   60.62    3.41
  -5   4  -5   57.98    3.29
  -6   4  -5   20.07    2.33
  -6   4  -5   21.78    2.64
  -7   4  -5   19.03    2.60
  -8   4  -5    2.47    1.34
  -9   4  -5    0.02    1.24
 -10   4  -5    4.44    1.92
 -11   4  -5    4.20    1.97
  13   3  -5    2.52    1.89
  12   3  -5    0.34    1.51
  11   3  -5    9.78    2.34
  10   3  -5   36.80    3.99
   9   3  -5   18.39    2.70
   8   3  -5   49.45    3.53
   7   3  -5   40.60    3.01
   6   3  -5    4.63    1.21
   5   3  -5    1.67    0.80
   4   3  -5    0.02    0.38
   3   3  -5   28.31    2.09
   3   3  -5   28.70    1.61
   2   3  -5  131.44    3.70
   2   3  -5  129.52    4.75
   1   3  -5   94.34    2.53
   1   3  -5   90.82    3.73
   0   3  -5    1.98    0.67
  -1   3  -5   -0.20    0.39
   1  -3   5   -0.05    0.23
  -2   3  -5    2.29    0.78
  -2   3  -5    1.57    0.63
   2  -3   5    2.40    0.52
  -3   3  -5   35.80    2.26
  -3   3  -5   34.47    2.16
   3  -3   5   36.23    1.75
  -4   3  -5   21.01    1.97
  -4   3  -5   19.32    2.18
   4  -3   5   20.36    1.54
  -5   3  -5   10.71    1.57
  -5   3  -5    9.38    1.63
   5  -3   5   12.19    1.58
  -6   3  -5    1.89    1.06
  -6   3  -5    3.26    1.12
   6  -3   5    3.59    1.22
  -7   3  -5    1.89    1.10
   7  -3   5    1.72    1.12
  -8   3  -5   -0.47    0.91
   8  -3   5   -0.51    1.04
  -9   3  -5   -0.24    1.16
   9  -3   5   -0.27    1.31
 -10   3  -5    6.79    2.21
 -11   3  -5    3.57    1.84
 -12   3  -5    1.25    1.84
  13   2  -5    1.27    1.87
  12   2  -5    1.50    1.59
  11   2  -5    5.55    2.04
  10   2  -5    4.61    1.76
   9   2  -5   11.01    2.26
   8   2  -5    5.64    1.68
   7   2  -5    0.32    0.82
   6   2  -5   30.25    2.40
   5   2  -5   37.21    2.38
   4   2  -5   77.50    3.30
   3   2  -5   48.84    2.27
   2   2  -5   21.58    1.67
   2   2  -5   24.40    1.34
   1   2  -5    5.19    0.90
  -2   2  -5   10.07    1.35
  -2   2  -5    6.80    0.97
   2  -2   5    7.88    0.90
  -3   2  -5   21.91    2.04
  -3   2  -5   18.76    1.41
   3  -2   5   20.86    1.33
  -4   2  -5   45.33    2.53
  -4   2  -5   41.28    2.14
   4  -2   5   37.92    2.10
  -5   2  -5   56.20    2.68
  -5   2  -5   56.11    3.06
   5  -2   5   55.26    2.72
  -6   2  -5    5.27    1.38
  -6   2  -5    1.72    0.83
   6  -2   5    0.28    0.58
  -7   2  -5   10.01    1.87
   7  -2   5    4.75    1.40
  -8   2  -5    9.57    1.99
   8  -2   5    9.54    1.94
  -9   2  -5    0.38    1.25
   9  -2   5    2.43    1.37
 -10   2  -5    3.01    1.60
  10  -2   5    4.90    1.75
 -11   2  -5   -0.84    1.18
  11  -2   5    2.97    1.69
 -12   2  -5    0.92    1.73
  12  -2   5    1.80    1.76
  13   1  -5    0.61    1.91
  12   1  -5    2.23    1.93
  11   1  -5    2.71    1.72
  10   1  -5    1.32    1.52
   9   1  -5    1.38    1.36
   8   1  -5   41.11    3.38
   7   1  -5   45.87    3.25
   6   1  -5   47.03    3.00
   5   1  -5   47.68    2.83
   4   1  -5   -0.13    0.33
   3   1  -5   56.42    2.55
   2   1  -5  112.36    3.28
   2   1  -5  108.51    3.53
  -1  -1   5   63.83    2.27
   0   1  -5   13.95    1.14
   0  -1   5   13.62    0.91
  -1   1  -5  102.28    3.26
   1  -1   5   99.43    2.92
  -2   1  -5    6.61    1.05
  -2   1  -5    8.18    0.95
   2  -1   5    9.40    1.02
  -3   1  -5   24.20    1.65
  -3   1  -5   25.11    1.37
   3  -1   5   25.10    1.51
  -4   1  -5   14.11    1.11
  -4   1  -5   15.75    1.76
   4  -1   5   10.54    1.31
  -5   1  -5   28.37    2.08
  -5   1  -5   28.50    1.64
   5  -1   5   31.49    2.04
  -6   1  -5    0.90    0.84
  -6   1  -5    1.98    0.78
   6  -1   5    0.89    0.69
  -7   1  -5    3.24    1.13
   7  -1   5    5.25    1.37
  -8   1  -5   32.13    3.37
   8  -1   5   30.07    3.15
  -9   1  -5   25.65    3.09
   9  -1   5   26.37    3.13
 -10   1  -5    2.62    1.44
  10  -1   5    2.08    1.53
 -11   1  -5    0.18    1.17
  11  -1   5    2.67    1.64
 -12   1  -5   -0.53    1.33
  12  -1   5    1.52    1.65
  13  -1   5    0.82    1.69
  13   0  -5   -1.02    1.65
  12   0  -5    2.84    1.96
  11   0  -5    8.00    2.45
  10   0  -5   16.75    3.03
   9   0  -5    3.09    1.41
   8   0  -5    0.81    1.17
   7   0  -5   -0.22    0.66
   6   0  -5    1.28    0.86
   5   0  -5    0.90    0.65
   4   0  -5    6.49    1.20
   3   0  -5    7.69    1.02
   3   0  -5    9.52    1.36
   2   0  -5  486.90   11.13
   2   0  -5  498.51   11.62
  -1   0   5  281.41    6.98
   0   0   5   -0.02    0.16
  -1   0  -5    1.61    0.46
   1   0   5    0.60    0.39
  -2   0  -5    1.61    0.55
  -2   0  -5    0.89    0.33
   2   0   5    0.07    0.26
  -3   0  -5   99.38    2.67
  -3   0  -5   94.02    3.41
   3   0   5   90.20    3.21
  -4   0  -5   68.82    2.97
  -4   0  -5   66.50    2.15
   4   0   5   69.88    2.90
  -5   0  -5   28.91    1.44
  -5   0  -5   32.00    2.07
   5   0   5   25.60    1.95
  -6   0  -5   37.01    2.42
  -6   0  -5   35.09    1.81
   6   0   5   34.96    2.37
  -7   0  -5   26.84    2.67
   7   0   5   27.77    2.29
  -8   0  -5   18.04    2.42
   8   0   5   14.06    2.15
  -9   0  -5    1.82    1.19
   9   0   5    3.60    1.44
 -10   0  -5    1.34    1.33
  10   0   5    2.89    1.44
 -11   0  -5    3.48    1.68
  11   0   5    3.30    1.61
 -12   0  -5   10.70    2.47
  12   0   5    8.67    2.29
  13   0   5    2.91    2.00
  13  -1  -5   -0.35    1.68
  12  -1  -5    1.30    1.59
  11  -1  -5    3.89    1.82
  10  -1  -5   24.00    3.65
   9  -1  -5   17.88    2.93
   8  -1  -5   12.16    2.35
   7  -1  -5   -0.81    0.74
   6  -1  -5    9.01    1.79
   5  -1  -5   26.86    2.64
   4  -1  -5   53.54    2.88
   3  -1  -5   21.33    1.45
   3  -1  -5   23.83    1.72
  -2   1   5   96.12    3.49
  -1   1   5   68.18    2.64
   0   1   5   83.60    2.85
  -1  -1  -5   26.66    1.36
   1   1   5   27.36    1.49
  -2  -1  -5   20.98    1.27
  -2  -1  -5   20.57    0.89
   2   1   5   21.44    1.36
  -3  -1  -5  336.02    8.39
   3   1   5  344.15    8.45
  -4  -1  -5  256.03    6.98
   4   1   5  260.66    7.11
  -5  -1  -5  170.83    5.44
   5   1   5  167.01    5.49
  -6  -1  -5    1.15    0.70
   6   1   5    0.31    0.79
  -7  -1  -5   31.34    2.35
   7   1   5   30.13    2.46
  -8  -1  -5   28.51    2.95
   8   1   5   34.27    2.76
  -9  -1  -5   14.75    2.30
   9   1   5   17.28    2.38
 -10  -1  -5   10.09    2.06
  10   1   5   11.44    2.21
 -11  -1  -5    7.53    1.96
  11   1   5    9.32    2.17
  12   1   5   11.33    2.51
  13   1   5    3.61    2.02
  12  -2  -5    2.91    1.89
  11  -2  -5   12.00    2.78
  10  -2  -5   23.99    3.57
   9  -2  -5   16.27    2.89
   8  -2  -5    1.57    1.16
   7  -2  -5   24.23    3.05
   6  -2  -5   27.16    2.89
   5  -2  -5   41.29    2.82
   4  -2  -5   42.33    2.58
   3  -2  -5    3.64    0.83
   3  -2  -5    2.30    0.78
  -2   2   5    0.85    0.55
  -1   2   5   11.26    1.34
   0   2   5   64.43    2.55
  -1  -2  -5    0.14    0.28
   1   2   5   -0.15    0.39
  -2  -2  -5    0.55    0.35
   2   2   5    0.20    0.45
  -3  -2  -5   49.25    2.09
   3   2   5   47.73    2.26
  -4  -2  -5   62.88    2.64
   4   2   5   62.61    2.83
  -5  -2  -5   49.79    2.50
   5   2   5   50.66    2.70
  -6  -2  -5    1.70    0.78
   6   2   5    2.78    1.00
  -7  -2  -5   44.82    2.77
   7   2   5   47.31    3.06
  -8  -2  -5   74.20    3.81
   8   2   5   72.95    4.04
  -9  -2  -5   45.63    3.20
   9   2   5   54.63    3.67
 -10  -2  -5    4.71    1.55
  10   2   5   11.68    2.24
  11   2   5   -0.14    1.26
  12   2   5    0.76    1.53
  13   2   5    1.16    1.61
  14   2   5   -0.62    1.87
  12  -3  -5   -0.05    1.74
  11  -3  -5    0.51    1.94
  10  -3  -5   -0.10    1.38
   9  -3  -5   -0.01    1.32
   8  -3  -5    1.82    1.28
   7  -3  -5   14.84    2.51
   6  -3  -5   59.11    3.71
   5  -3  -5    7.54    1.58
  -5   3   5    9.75    1.81
   4  -3  -5   -0.11    0.54
  -4   3   5   -0.20    0.71
   3  -3  -5   22.85    1.86
   3  -3  -5   24.75    2.06
  -3   3   5   28.23    2.60
  -2   3   5   83.64    3.48
  -2   3   5   80.03    3.38
  -1   3   5  140.23    4.64
  -1   3   5  147.18    4.67
   0  -3  -5    6.17    0.47
   0   3   5    9.05    1.17
   0   3   5    7.93    1.14
  -1  -3  -5   27.04    1.12
   1   3   5   28.69    1.71
   1   3   5   27.89    1.43
  -2  -3  -5   89.86    2.75
   2   3   5   92.21    2.66
   2   3   5   95.39    3.36
  -3  -3  -5   38.11    1.76
   3   3   5   37.51    1.29
   3   3   5   37.92    2.05
  -4  -3  -5    3.25    0.80
   4   3   5    1.76    0.73
  -5  -3  -5   -0.32    0.42
   5   3   5   -0.38    0.52
  -6  -3  -5    0.07    0.52
   6   3   5    0.42    0.68
   6   3   5   -0.13    0.28
  -7  -3  -5    4.33    1.18
   7   3   5    5.89    1.37
  -8  -3  -5   14.95    2.12
   8   3   5    9.39    1.79
  -9  -3  -5    9.95    1.78
   9   3   5   15.85    2.44
  10   3   5   -0.45    1.00
  11   3   5   -0.38    1.21
  12   3   5    2.54    1.65
  13   3   5    1.97    1.70
  14   3   5    2.54    2.04
  11  -4  -5    7.82    2.68
  10  -4  -5    4.86    2.04
   9  -4  -5   11.97    2.60
   8  -4  -5   11.89    2.41
   7  -4  -5   -1.46    0.86
   6  -4  -5    0.05    0.81
  -6   4   5   -0.50    0.93
   5  -4  -5   19.90    2.57
  -5   4   5   21.18    2.59
   4  -4  -5   24.59    2.55
   4  -4  -5   21.85    2.02
  -4   4   5   25.49    2.72
   3  -4  -5  108.74    4.02
   3  -4  -5  106.22    4.43
  -3   4   5  111.06    4.60
  -2   4   5   97.93    3.91
  -2   4   5   94.83    3.96
  -1   4   5   48.17    2.48
  -1   4   5   46.28    2.47
   0   4   5   49.04    2.29
   0   4   5   48.75    2.42
  -1  -4  -5   62.37    1.77
   1   4   5   62.28    2.71
   1   4   5   58.34    2.40
  -2  -4  -5   17.77    1.01
   2   4   5   18.58    1.47
   2   4   5   19.10    1.17
  -3  -4  -5    6.99    0.90
   3   4   5    7.15    1.18
   3   4   5    5.94    0.74
  -4  -4  -5   17.06    1.30
   4   4   5   17.50    0.95
   4   4   5   21.45    1.68
  -5  -4  -5   29.87    1.84
   5   4   5   26.09    2.03
   5   4   5   28.02    1.18
  -6  -4  -5    2.41    0.87
   6   4   5    2.18    0.48
   6   4   5    1.68    0.98
  -7  -4  -5    3.45    1.03
   7   4   5    5.44    1.39
  -8  -4  -5   -0.28    0.65
   8   4   5    0.17    0.96
   9   4   5   -0.40    0.97
  10   4   5    0.66    1.10
  11   4   5    4.27    1.79
  12   4   5    2.76    1.54
  13   4   5    1.61    1.75
  14   4   5    0.58    1.69
  11  -5  -5   12.95    3.18
  10  -5  -5    2.09    1.89
   9  -5  -5    3.53    1.84
   8  -5  -5    0.83    1.36
   7  -5  -5    9.11    2.20
  -7   5   5    9.29    2.17
   6  -5  -5    7.82    1.79
  -6   5   5    6.02    1.82
   5  -5  -5   20.78    2.72
  -5   5   5   27.37    3.14
   4  -5  -5  117.25    4.90
   4  -5  -5  105.97    4.23
  -4   5   5  108.01    4.97
   3  -5  -5   56.66    3.17
   3  -5  -5   56.11    2.80
  -3   5   5   56.39    3.27
  -2   5   5    2.42    0.93
  -2   5   5    3.75    1.14
  -1   5   5    4.95    1.13
  -1   5   5    5.82    1.20
   0   5   5   63.58    2.96
   0   5   5   65.34    2.97
   1   5   5   19.34    1.93
   1   5   5   17.10    1.64
   3   5   5   71.47    2.63
   3   5   5   76.84    3.21
   4   5   5   72.27    3.31
   4   5   5   75.50    2.62
   5   5   5   97.19    3.00
   5   5   5   88.55    3.91
   6   5   5    4.39    0.73
   6   5   5    6.66    1.42
   7   5   5    2.83    1.18
   8   5   5    8.16    1.82
   9   5   5   21.15    2.75
  10   5   5    6.44    1.86
  11   5   5    9.49    2.15
  12   5   5   10.30    2.28
  13   5   5    2.10    1.50
  14   5   5    0.81    1.61
  10  -6  -5    3.16    1.96
   9  -6  -5    1.13    1.49
   8  -6  -5    3.08    1.73
  -8   6   5    1.81    1.67
   7  -6  -5    3.99    1.68
  -7   6   5    3.65    1.69
   6  -6  -5   13.30    2.30
  -6   6   5   12.84    2.45
   5  -6  -5    6.08    1.54
  -5   6   5    0.50    1.10
   4  -6  -5    2.94    1.12
   4  -6  -5    4.35    1.09
  -4   6   5    2.49    1.17
   3  -6  -5   -0.31    0.51
   3  -6  -5    0.69    0.80
  -3   6   5   -0.76    0.74
  -2   6   5    0.04    0.79
  -2   6   5    0.38    0.82
  -1   6   5   -0.02    0.61
  -1   6   5    0.70    0.84
   0   6   5   49.99    2.73
   0   6   5   58.06    2.93
   1   6   5   74.95    3.30
   1   6   5   69.58    3.20
   2   6   5  188.77    6.04
   2   6   5  201.74    5.91
   3   6   5  127.38    4.61
   4   6   5   16.54    1.57
   4   6   5   10.66    1.52
   5   6   5    1.51    0.86
   5   6   5    1.55    0.60
   6   6   5   30.72    2.37
   6   6   5   26.56    1.65
   7   6   5    2.18    1.07
   7   6   5    4.81    1.43
   8   6   5   19.85    2.63
   9   6   5   58.30    3.95
  10   6   5   33.58    3.65
  11   6   5    6.54    1.97
  12   6   5    8.99    2.35
  13   6   5   -1.11    1.46
  14   6   5    1.96    2.04
  10  -7  -5    2.27    2.03
   9  -7  -5    1.30    1.71
  -9   7   5    1.75    2.04
   8  -7  -5    0.12    1.58
  -8   7   5    2.74    1.94
   7  -7  -5    6.89    2.08
  -7   7   5    4.74    2.06
   6  -7  -5   -0.01    0.98
  -6   7   5    2.44    1.51
   5  -7  -5    0.21    0.86
  -5   7   5    1.01    1.24
   4  -7  -5   -0.23    0.73
  -4   7   5    0.40    1.11
   3  -7  -5    6.29    1.24
   3  -7  -5    4.12    1.15
  -3   7   5    1.85    1.15
  -2   7   5    1.34    0.98
  -2   7   5    1.63    1.06
  -1   7   5   -0.20    0.78
  -1   7   5    1.01    0.72
   0   7   5   31.58    2.24
   0   7   5   28.46    2.31
   1   7   5   81.42    3.74
   1   7   5   82.18    3.64
   2   7   5   82.22    3.65
   2   7   5   91.42    3.80
   3   7   5    9.23    1.36
   3   7   5    7.74    1.39
   4   7   5    6.42    1.21
   4   7   5   13.34    1.76
   5   7   5   66.52    2.97
   5   7   5   69.65    3.52
   6   7   5   75.20    3.17
   6   7   5   79.90    3.91
   7   7   5   19.05    2.40
   7   7   5   19.83    1.63
   8   7   5    6.36    1.77
   9   7   5    0.00    1.01
  10   7   5    0.77    1.32
  11   7   5    0.57    1.31
  12   7   5    0.39    1.35
  13   7   5   -0.43    1.45
  14   7   5    2.56    2.20
   9  -8  -5    6.62    2.60
  -9   8   5    4.47    2.68
   8  -8  -5    9.41    2.56
  -8   8   5    8.30    2.55
   7  -8  -5    7.11    2.18
  -7   8   5    7.01    2.35
   6  -8  -5   -1.00    1.17
  -6   8   5    0.48    1.38
   5  -8  -5    0.54    1.05
  -5   8   5    0.54    1.19
   4  -8  -5   21.02    2.70
  -4   8   5   15.40    2.59
   3  -8  -5   25.00    2.74
   3  -8  -5   24.48    2.38
  -3   8   5   28.36    3.30
  -2   8   5    2.50    1.31
  -1   8   5    1.88    0.98
  -1   8   5    0.36    0.99
   0   8   5    0.90    0.92
   0   8   5    1.70    0.97
   1   8   5    0.85    0.95
   1   8   5    1.15    0.88
   2   8   5    0.12    0.76
   2   8   5    0.06    0.74
   3   8   5   -0.10    0.61
   3   8   5    1.11    0.80
   4   8   5    3.89    1.14
   4   8   5    6.00    1.23
   5   8   5    5.71    1.21
   5   8   5    9.57    1.64
   6   8   5   10.23    1.51
   6   8   5   14.28    2.06
   7   8   5    4.80    1.13
   7   8   5    6.43    1.59
   8   8   5    0.15    0.97
   9   8   5    6.77    1.88
  10   8   5    4.40    1.70
  11   8   5    4.83    1.76
  12   8   5    1.57    1.66
  13   8   5   -0.61    1.42
  14   8   5   -0.16    1.59
  -8   9   5    1.64    2.14
   7  -9  -5    1.22    1.70
  -7   9   5    0.35    1.77
   6  -9  -5    1.64    1.48
  -6   9   5   -0.95    1.41
   5  -9  -5   13.11    2.53
  -5   9   5   13.47    2.71
   4  -9  -5   34.31    3.45
  -4   9   5   31.72    3.78
   3  -9  -5   67.55    3.46
   3  -9  -5   62.90    3.79
  -3   9   5   57.00    4.13
   2  -9  -5   29.17    2.61
   2  -9  -5   34.60    3.31
  -2   9   5   26.89    3.24
  -1   9   5    3.77    1.40
  -1   9   5    1.70    1.07
   0   9   5   12.30    1.97
   0   9   5   14.78    2.40
   1   9   5   28.72    2.39
   1   9   5   33.36    2.75
   2   9   5   78.21    3.82
   2   9   5   84.93    4.27
   3   9   5    3.14    1.13
   3   9   5    1.01    0.89
   4   9   5    1.82    1.07
   4   9   5    1.65    0.87
   5   9   5   -0.03    0.79
   5   9   5    0.66    0.84
   6   9   5   11.92    2.06
   7   9   5    2.82    1.38
   7   9   5    0.22    0.73
   8   9   5   -0.81    1.06
   9   9   5    8.77    2.03
  10   9   5   18.34    2.81
  11   9   5    2.72    1.80
  12   9   5    1.60    1.56
  13   9   5    2.98    1.82
  14   9   5    3.50    2.14
  -7  10   5    2.74    2.12
  -6  10   5    3.17    2.02
  -5  10   5    3.29    1.98
   4 -10  -5    3.26    2.07
  -4  10   5    5.08    1.86
   3 -10  -5   13.27    2.36
   3 -10  -5   12.82    1.95
  -3  10   5    4.97    1.85
   2 -10  -5   -0.07    0.83
   2 -10  -5   -1.23    0.77
  -2  10   5    1.18    1.35
  -1  10   5   21.00    2.72
  -1  10   5   30.23    3.48
   0  10   5   51.37    3.27
   0  10   5   56.41    3.95
   1  10   5   58.40    3.86
   1  10   5   56.86    3.37
   2  10   5   94.09    4.80
   2  10   5   83.72    4.20
   3  10   5    2.84    1.35
   3  10   5    6.16    1.51
   4  10   5    3.49    1.29
   4  10   5    2.78    1.23
   5  10   5    9.46    1.82
   5  10   5    9.14    1.86
   6  10   5    7.28    1.76
   6  10   5    8.36    1.73
   7  10   5    6.09    1.64
   7  10   5    0.80    0.93
   8  10   5    3.43    1.70
   9  10   5   14.04    2.31
  10  10   5   14.35    2.59
  11  10   5    9.82    2.27
  12  10   5   -0.56    1.50
  13  10   5   -1.18    1.61
  14  10   5    3.88    2.50
  -6  11   5   -0.09    1.85
  -5  11   5   -2.32    1.47
  -4  11   5    3.57    1.97
  -3  11   5    1.85    1.54
  -2  11   5   -1.44    1.11
  -1  11   5   11.13    2.41
   0  11   5   27.04    3.58
   0  11   5   29.84    4.20
   1  11   5   22.34    3.12
   1  11   5   27.32    2.85
   2  11   5   12.27    2.10
   2  11   5    9.66    2.09
   3  11   5    2.03    1.35
   3  11   5    1.77    1.18
   4  11   5   10.03    1.97
   4  11   5    6.62    1.64
   5  11   5   34.02    3.31
   5  11   5   26.00    2.98
   6  11   5   68.53    4.12
   6  11   5   52.39    3.63
   7  11   5   22.83    2.76
   7  11   5   22.72    2.73
   8  11   5   11.05    2.16
   9  11   5    8.42    2.22
  10  11   5    0.50    1.31
  11  11   5   -1.79    1.42
  12  11   5    2.26    1.82
  13  11   5    8.95    2.72
  -5  12   5   -1.20    1.84
  -4  12   5    1.69    1.90
  -3  12   5    2.85    1.95
  -2  12   5    1.57    1.62
  -1  12   5    5.84    1.90
   0  12   5    0.95    1.50
   1  12   5    1.52    1.48
   2  12   5    5.01    1.96
   3  12   5    6.46    1.98
   4  12   5    6.44    1.82
   5  12   5    2.03    1.43
   5  12   5    1.85    1.38
   6  12   5    4.04    1.59
   6  12   5    3.51    1.61
   7  12   5   -0.31    1.19
   7  12   5    1.09    1.31
   8  12   5    0.97    1.42
   9  12   5    6.85    2.02
  10  12   5    3.27    1.71
  11  12   5    6.72    2.29
  12  12   5    6.66    2.38
  13  12   5    3.89    2.37
  -4  13   5    2.15    2.18
  -3  13   5    2.01    2.24
  -2  13   5   -0.67    1.68
  -1  13   5    3.75    1.85
   0  13   5    1.72    1.97
   1  13   5    0.64    1.74
   2  13   5   -0.03    1.42
   3  13   5    1.35    1.54
   4  13   5    1.28    1.65
   5  13   5   -0.01    1.46
   6  13   5    0.79    1.49
   7  13   5    5.06    2.04
  10  13   5    6.07    2.93
  11  13   5    5.31    2.21
  12  13   5   -3.20    1.56
  -2  14   5   -0.39    2.12
  -1  14   5   10.62    3.09
   0  14   5    3.69    2.42
   1  14   5    2.76    1.99
   2  14   5    0.61    1.70
   3  14   5    0.21    1.81
   4  14   5   -0.02    1.40
   5  14   5    0.34    1.56
   6  14   5   -0.13    1.69
   7  14   5    6.55    2.22
   0  15   5   12.01    3.23
   1  15   5    2.70    2.22
   2  15   5   -0.71    1.72
   3  15   5   -1.72    1.95
   4  15   5    1.85    2.20
   5  15   5    1.41    2.06
   6  15   5    5.44    2.28
   7  15   5    0.83    1.78
   4  16   5    3.07    3.03
   5  16   5    3.75    2.76
   6  16   5    1.92    2.36
   7  16   5    2.60    2.45
   7  13  -6    2.84    2.55
   6  13  -6    3.58    2.32
   5  13  -6   -0.50    2.07
   4  13  -6    2.58    2.23
   3  13  -6    0.23    1.80
   2  13  -6    1.88    1.98
   1  13  -6   -2.89    1.84
   9  12  -6    4.29    2.78
   8  12  -6    3.20    2.57
   7  12  -6    0.82    1.91
   6  12  -6    8.62    2.68
   5  12  -6    5.24    2.17
   4  12  -6    7.68    2.54
   3  12  -6    5.81    2.24
   2  12  -6    0.18    1.82
   1  12  -6    6.03    2.29
   0  12  -6   -0.92    1.68
  -1  12  -6   -1.02    1.64
  -2  12  -6   -1.20    1.57
  10  11  -6    1.21    2.46
   9  11  -6    0.04    1.82
   8  11  -6    2.08    2.00
   7  11  -6    4.20    2.18
   6  11  -6    7.30    2.60
   5  11  -6   15.04    3.00
   4  11  -6   14.36    2.78
   3  11  -6    9.63    2.55
   2  11  -6    0.07    1.32
   1  11  -6    6.05    2.22
   0  11  -6   17.05    3.14
  -1  11  -6    3.61    1.97
  -1  11  -6    6.96    2.55
  -2  11  -6    2.57    1.82
  -3  11  -6    0.64    1.89
  -4  11  -6   -0.50    1.71
  11  10  -6   -0.98    1.84
  10  10  -6    0.05    1.97
   9  10  -6    2.03    1.89
   8  10  -6   -0.25    1.56
   7  10  -6    1.69    1.57
   6  10  -6    1.84    1.71
   5  10  -6    4.10    1.82
   4  10  -6    9.80    2.47
   3  10  -6    3.20    1.66
   2  10  -6    0.52    1.29
   1  10  -6    0.84    1.22
   0  10  -6   27.09    3.59
  -1  10  -6   45.34    4.54
  -1  10  -6   25.07    3.60
  -2  10  -6    2.15    1.49
  -2  10  -6    1.78    1.61
  -3  10  -6    0.60    1.62
  -3  10  -6   -1.28    1.64
  -4  10  -6    1.52    1.94
  12   9  -6    2.65    2.32
  11   9  -6    0.93    1.82
  10   9  -6    7.42    2.57
   9   9  -6   18.69    3.48
   8   9  -6   13.46    2.93
   7   9  -6    1.53    1.55
   6   9  -6    0.93    1.47
   5   9  -6    3.95    1.72
   4   9  -6    1.34    1.39
   3   9  -6    0.08    1.05
   2   9  -6    1.40    1.24
   1   9  -6    1.04    1.21
   0   9  -6    1.24    1.32
  -1   9  -6    2.61    1.50
  -1   9  -6    8.10    2.11
  -2   9  -6    0.86    1.22
  -2   9  -6    0.98    1.29
  -3   9  -6    0.45    1.18
  -3   9  -6    0.26    1.06
  -4   9  -6    2.60    1.38
  -4   9  -6    2.22    1.61
  -5   9  -6    7.72    2.51
  12   8  -6    2.94    2.40
  11   8  -6    1.62    2.07
  10   8  -6    7.12    2.38
   9   8  -6    5.76    2.08
   8   8  -6    4.24    1.85
   7   8  -6    1.41    1.42
   6   8  -6    3.33    1.59
   5   8  -6   23.29    3.26
   4   8  -6   20.40    3.02
   3   8  -6    8.20    1.97
   2   8  -6   -0.12    0.99
   1   8  -6    0.18    0.87
   0   8  -6    4.06    1.53
  -1   8  -6    3.44    1.52
  -2   8  -6    0.80    1.31
  -2   8  -6   -0.36    0.93
  -3   8  -6    3.44    1.56
  -3   8  -6    2.00    1.38
  -4   8  -6    5.00    1.73
  -4   8  -6    2.58    1.63
  -5   8  -6    0.34    1.39
  -5   8  -6    3.43    1.73
  -6   8  -6   -0.15    1.33
  12   7  -6    4.86    2.35
  11   7  -6    4.64    2.11
  10   7  -6    0.56    1.44
   9   7  -6    5.75    2.18
   8   7  -6   -0.24    1.15
   7   7  -6   19.84    2.96
   6   7  -6   42.86    3.52
   5   7  -6   34.01    3.71
   4   7  -6   24.28    2.95
   3   7  -6   43.26    3.46
   2   7  -6    1.56    1.08
   1   7  -6   12.99    2.18
   0   7  -6   32.19    3.22
  -1   7  -6   40.28    3.14
  -2   7  -6   13.13    2.20
  -2   7  -6   14.70    2.40
  -3   7  -6    0.94    0.97
  -3   7  -6    0.21    1.06
  -4   7  -6    0.16    0.89
  -4   7  -6    0.90    1.17
  -5   7  -6    0.48    1.02
  -5   7  -6    0.23    1.33
  -6   7  -6   -0.34    1.14
  -7   7  -6    1.16    1.42
  -8   7  -6    1.07    1.62
  13   6  -6    3.12    2.26
  13   6  -6    1.94    1.91
  12   6  -6    0.55    1.57
  12   6  -6    3.52    2.06
  11   6  -6    0.48    1.57
  11   6  -6    1.82    1.32
  10   6  -6    0.07    1.11
  10   6  -6    0.19    1.46
   9   6  -6    9.81    2.35
   9   6  -6   12.57    2.26
   8   6  -6    0.42    1.23
   8   6  -6    1.79    1.16
   7   6  -6   21.52    2.95
   7   6  -6   16.93    3.08
   6   6  -6   32.18    3.54
   5   6  -6   31.81    3.37
   4   6  -6    0.75    0.82
   3   6  -6   33.35    3.33
   2   6  -6   55.07    3.53
   1   6  -6   19.82    2.49
   0   6  -6   44.64    3.10
  -1   6  -6   31.85    2.66
  -2   6  -6    3.89    1.20
  -2   6  -6    3.21    1.32
  -3   6  -6    4.24    1.36
  -3   6  -6    4.54    1.44
  -4   6  -6    3.98    1.41
  -4   6  -6    2.44    1.23
  -5   6  -6    9.77    2.15
  -5   6  -6    8.64    1.87
  -6   6  -6   15.09    2.40
  -7   6  -6   13.91    2.42
  -8   6  -6    7.37    2.02
  -9   6  -6    6.35    2.23
  13   5  -6    2.03    2.20
  13   5  -6    2.76    1.77
  12   5  -6    1.24    1.69
  12   5  -6   -0.09    1.42
  11   5  -6    1.15    1.36
  11   5  -6   -1.13    1.30
  10   5  -6    1.07    1.33
  10   5  -6    0.90    1.29
   9   5  -6    0.15    1.15
   9   5  -6    1.04    1.37
   8   5  -6    0.77    1.01
   8   5  -6    1.97    1.39
   7   5  -6    4.33    1.28
   7   5  -6    3.47    1.38
   6   5  -6   12.35    2.16
   6   5  -6   10.40    1.67
   5   5  -6    0.31    0.55
   5   5  -6    0.04    0.56
   4   5  -6    3.87    0.85
   4   5  -6    3.55    1.16
   3   5  -6   35.78    2.73
   2   5  -6   62.95    3.55
   1   5  -6   12.49    1.89
   0   5  -6    4.45    1.20
  -1   5  -6    3.37    1.04
  -2   5  -6    8.84    1.69
  -2   5  -6   10.09    1.66
  -3   5  -6   11.84    1.90
  -3   5  -6   21.32    2.65
  -4   5  -6   33.08    3.27
  -4   5  -6   32.33    2.60
  -5   5  -6    4.29    1.37
  -5   5  -6    6.99    1.57
  -6   5  -6   15.17    2.36
  -7   5  -6   11.43    2.31
  -8   5  -6    2.31    1.40
  -9   5  -6    1.42    1.62
 -10   5  -6    0.36    1.70
  13   4  -6    2.50    2.11
  12   4  -6    5.84    2.16
  11   4  -6    8.64    2.37
  10   4  -6    2.71    1.51
   9   4  -6    0.76    1.22
   8   4  -6   -0.19    0.85
   7   4  -6    0.74    0.77
   6   4  -6    0.76    0.85
   6   4  -6    2.47    1.01
   5   4  -6    2.54    1.07
   5   4  -6    2.16    0.95
   4   4  -6    4.81    1.26
   4   4  -6    5.98    1.06
   3   4  -6   20.73    1.38
   3   4  -6   21.47    2.37
   2   4  -6   61.01    2.14
   2   4  -6   64.48    3.44
   1   4  -6    9.52    1.57
   0   4  -6    8.29    1.43
  -1   4  -6    4.47    1.07
  -2   4  -6   31.25    2.24
  -2   4  -6   32.20    2.30
  -3   4  -6   17.66    2.00
  -3   4  -6   17.16    2.25
  -4   4  -6    1.58    0.87
  -4   4  -6    2.27    1.02
  -5   4  -6   -0.26    0.71
  -5   4  -6    0.43    0.84
  -6   4  -6    0.06    0.93
  -7   4  -6    0.98    1.10
  -8   4  -6    4.38    1.68
  -9   4  -6    2.88    1.61
 -10   4  -6    0.54    1.52
 -11   4  -6    1.96    1.90
  13   3  -6    1.66    1.97
  12   3  -6   10.10    2.58
  11   3  -6    7.01    2.19
  10   3  -6    9.55    2.34
   9   3  -6    0.75    1.06
   8   3  -6   13.21    2.27
   7   3  -6   55.24    3.52
   6   3  -6  101.32    4.60
   5   3  -6   53.52    2.94
   4   3  -6    0.07    0.39
   4   3  -6    0.32    0.67
   3   3  -6   22.75    2.39
   3   3  -6   23.31    1.55
   2   3  -6    8.17    1.44
   2   3  -6    6.75    0.91
   1   3  -6    4.53    1.08
   1   3  -6    3.70    0.56
   0   3  -6    1.64    0.77
   0  -3   6    1.11    0.35
  -1   3  -6   55.04    2.79
   1  -3   6   54.75    1.73
  -2   3  -6   23.37    2.35
  -2   3  -6   21.81    1.71
   2  -3   6   24.77    1.24
  -3   3  -6   13.96    1.64
  -3   3  -6   17.83    2.09
   3  -3   6   16.58    1.20
  -4   3  -6    5.16    1.21
  -4   3  -6    4.59    1.10
   4  -3   6    4.17    1.00
  -5   3  -6   10.39    1.82
  -5   3  -6    9.31    1.49
   5  -3   6   11.98    1.55
  -6   3  -6   34.94    3.47
   6  -3   6   31.67    2.43
  -7   3  -6    6.58    1.70
  -8   3  -6    7.12    1.83
  -9   3  -6    0.82    1.20
 -10   3  -6    2.71    1.71
 -11   3  -6    0.86    1.56
  13   2  -6    2.13    1.98
  12   2  -6   -1.23    1.40
  11   2  -6    1.23    1.48
  10   2  -6    1.36    1.48
   9   2  -6   17.36    2.83
   8   2  -6   45.08    3.47
   7   2  -6  111.62    5.30
   6   2  -6   95.73    4.42
   5   2  -6   -0.53    0.41
   4   2  -6   28.06    1.97
   3   2  -6  125.72    4.21
   2   2  -6  144.28    4.24
   2   2  -6  140.56    5.04
   1   2  -6  166.37    5.44
   0   2  -6   21.38    1.63
   0  -2   6   24.73    1.19
  -1   2  -6    0.14    0.40
   1  -2   6    0.14    0.31
  -2   2  -6   12.53    1.36
  -2   2  -6   13.04    1.62
   2  -2   6   13.48    1.00
  -3   2  -6   10.89    1.53
  -3   2  -6   10.33    1.29
   3  -2   6   13.48    1.33
  -4   2  -6    1.70    0.81
  -4   2  -6    0.85    0.60
   4  -2   6    1.25    0.66
  -5   2  -6    0.06    0.73
  -5   2  -6    0.02    0.57
   5  -2   6    0.71    0.69
  -6   2  -6   14.31    2.01
   6  -2   6   19.07    2.16
  -7   2  -6   30.91    3.12
  -8   2  -6   21.55    2.84
   8  -2   6   19.28    2.51
  -9   2  -6    4.59    1.66
   9  -2   6    1.83    1.41
 -10   2  -6    0.40    1.21
  10  -2   6    0.32    1.49
 -11   2  -6    8.83    2.36
 -12   2  -6    5.12    2.30
  13   1  -6    0.12    1.83
  12   1  -6    4.89    2.28
  11   1  -6    8.67    2.32
  10   1  -6    1.30    1.46
   9   1  -6    1.35    1.39
   8   1  -6    7.60    2.02
   7   1  -6    9.36    1.87
   6   1  -6    2.02    1.09
   5   1  -6   -0.42    0.46
   4   1  -6   81.44    3.60
   3   1  -6  337.31    8.79
   2   1  -6  141.26    4.08
   2   1  -6  140.62    4.41
  -1  -1   6  168.18    4.67
   0   1  -6   63.27    2.72
   0  -1   6   65.98    2.32
  -1   1  -6   15.77    1.23
   1  -1   6   16.96    1.09
  -2   1  -6   11.16    1.18
  -2   1  -6   11.00    1.45
   2  -1   6   12.42    1.23
  -3   1  -6   70.11    2.54
  -3   1  -6   63.93    2.99
   3  -1   6   71.07    2.71
  -4   1  -6   58.30    2.93
  -4   1  -6   59.19    2.32
   4  -1   6   56.67    2.64
  -5   1  -6   61.76    2.51
  -5   1  -6   57.11    3.09
  -6   1  -6   83.46    4.02
   6  -1   6   91.72    4.03
  -7   1  -6   37.94    2.82
   7  -1   6   43.19    2.94
  -8   1  -6    1.52    1.14
   8  -1   6    1.40    1.20
  -9   1  -6   -0.58    0.90
   9  -1   6    0.67    1.23
 -10   1  -6    2.27    1.39
  10  -1   6    0.35    1.40
 -11   1  -6   10.53    2.36
  11  -1   6    9.20    2.36
 -12   1  -6    5.78    2.33
  12  -1   6    7.76    2.37
  13   0  -6    0.21    1.78
  12   0  -6    2.11    1.82
  11   0  -6    1.40    1.61
  10   0  -6   -0.74    1.16
   9   0  -6    0.33    1.07
   8   0  -6   11.13    2.31
   7   0  -6   29.04    3.23
   6   0  -6    7.48    1.70
   5   0  -6    5.15    1.25
   4   0  -6    0.54    0.59
   3   0  -6   35.89    2.14
   3   0  -6   37.18    1.90
   2   0  -6   15.57    1.42
  -1   0   6   20.58    1.39
   0   0   6   -0.22    0.18
  -1   0  -6  275.39    6.80
   1   0   6  267.96    6.76
  -2   0  -6  176.76    4.53
  -2   0  -6  177.36    5.22
   2   0   6  163.67    4.79
  -3   0  -6  125.69    3.43
  -3   0  -6  128.22    4.30
  -4   0  -6   52.72    2.68
  -4   0  -6   54.02    1.89
   4   0   6   56.38    2.62
  -5   0  -6   18.62    2.06
  -5   0  -6   15.26    1.03
   5   0   6   15.50    1.81
  -6   0  -6   -0.40    0.55
   6   0   6   -0.27    0.66
  -7   0  -6    0.04    0.75
   7   0   6    0.65    0.94
  -8   0  -6    5.20    1.57
   8   0   6   11.37    1.98
  -9   0  -6    0.09    1.04
   9   0   6    2.26    1.41
 -10   0  -6    4.49    1.58
  10   0   6    2.79    1.59
 -11   0  -6    1.80    1.34
  11   0   6    1.86    1.57
 -12   0  -6    4.70    2.14
  12   0   6    3.99    1.98
 -13   0  -6    4.03    1.84
  13   0   6    1.65    2.10
  12  -1  -6    0.85    1.60
  11  -1  -6    2.37    1.93
  10  -1  -6   -0.09    1.26
   9  -1  -6    2.94    1.61
   8  -1  -6    5.77    1.71
   7  -1  -6    8.18    1.81
   6  -1  -6    8.01    1.59
   5  -1  -6    4.45    1.18
   4  -1  -6   14.07    1.85
   3  -1  -6    8.22    1.14
   3  -1  -6   12.98    1.70
  -2   1   6    0.95    0.59
  -1   1   6   45.54    2.21
   0   1   6   64.65    2.61
  -1  -1  -6   71.60    2.60
   1   1   6   68.85    2.68
  -2  -1  -6    1.99    0.60
  -2  -1  -6    3.86    0.57
   2   1   6    3.25    0.79
  -3  -1  -6    0.23    0.25
  -3  -1  -6   -0.28    0.31
   3   1   6    0.00    0.41
  -4  -1  -6    2.65    0.76
   4   1   6    3.32    0.85
  -5  -1  -6   48.06    2.62
   5   1   6   49.06    2.69
  -6  -1  -6   49.03    2.80
   6   1   6   47.42    2.85
  -7  -1  -6    0.90    0.85
   7   1   6    4.55    1.32
  -8  -1  -6   32.49    3.23
   8   1   6   30.50    3.19
  -9  -1  -6    0.75    1.06
   9   1   6    1.89    1.24
 -10  -1  -6   -0.53    1.02
  10   1   6    0.21    1.13
 -11  -1  -6   -0.35    1.20
  11   1   6   -1.75    1.24
 -12  -1  -6   -0.08    1.30
  12   1   6    3.13    1.93
  13   1   6    0.83    1.90
  12  -2  -6   -1.62    1.48
  11  -2  -6   -0.98    1.69
  10  -2  -6    9.09    2.52
   9  -2  -6    4.14    1.76
   8  -2  -6   17.71    2.81
   7  -2  -6   51.72    3.80
   6  -2  -6   16.78    2.40
   5  -2  -6    0.72    0.71
   4  -2  -6    0.15    0.41
   4  -2  -6    0.08    0.44
   3  -2  -6   84.08    3.71
   3  -2  -6   80.94    3.27
  -2   2   6   53.02    2.66
  -1   2   6   42.63    2.27
   0   2   6   62.21    2.67
  -1  -2  -6   19.95    1.18
   1   2   6   19.53    1.46
  -2  -2  -6   25.81    1.41
   2   2   6   22.43    1.53
  -3  -2  -6   86.89    3.10
   3   2   6   80.90    3.23
  -4  -2  -6   72.58    2.97
   4   2   6   68.11    3.04
  -5  -2  -6   26.48    1.85
   5   2   6   23.00    2.25
  -6  -2  -6   31.54    2.19
   6   2   6   33.34    2.42
  -7  -2  -6   -0.28    0.53
   7   2   6    0.31    0.82
  -8  -2  -6    6.92    1.56
   8   2   6    8.29    1.78
  -9  -2  -6    0.33    0.93
   9   2   6    1.47    1.22
 -10  -2  -6    2.32    1.20
  10   2   6   -0.67    1.18
 -11  -2  -6    1.50    1.26
  11   2   6    0.68    1.42
  12   2   6    3.06    1.81
  13   2   6    1.74    1.98
  14   2   6    0.42    1.80
  12  -3  -6   -1.65    2.00
  11  -3  -6    3.43    2.08
  10  -3  -6    8.52    2.52
   9  -3  -6   28.71    3.78
   8  -3  -6   13.46    2.51
   7  -3  -6    2.69    1.36
   6  -3  -6    2.28    1.15
   5  -3  -6   12.46    1.99
   4  -3  -6   54.61    2.73
   4  -3  -6   45.94    2.92
   3  -3  -6  100.78    3.85
   3  -3  -6  104.82    4.36
  -3   3   6  104.29    4.38
  -2   3   6   95.21    3.86
  -2   3   6   89.66    3.81
  -1   3   6   54.09    2.71
  -1   3   6   56.16    2.69
   0  -3  -6    1.30    0.38
   0   3   6    0.59    0.52
   0   3   6    1.86    0.71
  -1  -3  -6    6.73    0.76
   1   3   6    5.65    1.03
   1   3   6    6.47    0.91
  -2  -3  -6   16.43    1.07
   2   3   6   17.65    1.07
   2   3   6   19.14    1.81
  -3  -3  -6    5.26    0.86
   3   3   6    6.33    1.12
  -4  -3  -6   65.73    2.76
   4   3   6   69.10    3.08
  -5  -3  -6   84.07    3.42
   5   3   6   86.04    3.71
  -6  -3  -6   79.08    3.55
   6   3   6   82.05    3.89
  -7  -3  -6   11.59    1.75
   7   3   6    9.55    1.72
  -8  -3  -6    5.60    1.52
   8   3   6    1.73    1.21
  -9  -3  -6   11.29    1.94
   9   3   6    9.59    2.12
 -10  -3  -6    7.36    1.72
  10   3   6    7.51    1.96
  11   3   6    0.74    1.39
  12   3   6    0.90    1.37
  13   3   6    0.17    1.41
  14   3   6   -0.05    1.68
  11  -4  -6    1.32    2.13
  10  -4  -6    0.00    1.56
   9  -4  -6    2.76    1.56
   8  -4  -6   -0.72    0.97
   7  -4  -6   -0.62    0.89
   6  -4  -6   53.61    3.73
   5  -4  -6   56.09    3.55
  -5   4   6   61.88    3.80
   4  -4  -6  155.39    5.31
   4  -4  -6  149.77    5.83
  -4   4   6  151.05    5.97
   3  -4  -6  141.94    5.49
   3  -4  -6  154.22    5.09
  -3   4   6  148.38    5.60
  -2   4   6   60.53    3.14
  -2   4   6   66.14    3.29
  -1   4   6    4.06    0.97
  -1   4   6    3.39    0.96
   0  -4  -6    0.24    0.21
   0   4   6    0.56    0.59
   0   4   6   -0.41    0.40
  -1  -4  -6   49.09    1.61
   1   4   6   47.35    2.46
  -2  -4  -6   37.89    1.58
   2   4   6   38.65    1.75
   2   4   6   37.91    2.21
  -3  -4  -6   17.25    1.18
   3   4   6   16.91    1.01
   3   4   6   19.39    1.89
  -4  -4  -6  133.70    4.25
   4   4   6  133.36    4.77
   4   4   6  132.20    3.34
  -5  -4  -6   98.95    3.73
   5   4   6   94.57    4.05
  -6  -4  -6   13.42    1.67
   6   4   6   14.84    2.05
  -7  -4  -6   -0.43    0.63
   7   4   6    0.42    0.87
  -8  -4  -6    5.28    1.43
   8   4   6    7.64    1.82
  -9  -4  -6   22.41    2.68
   9   4   6   28.46    3.30
  10   4   6   20.09    2.88
  11   4   6    4.26    1.66
  12   4   6    3.12    1.86
  13   4   6    0.47    1.65
  14   4   6   -0.39    1.63
  11  -5  -6   -1.50    1.73
  10  -5  -6   -1.79    1.48
   9  -5  -6    3.86    1.68
   8  -5  -6    5.36    1.98
   7  -5  -6    0.30    1.02
  -7   5   6   -0.27    1.24
   6  -5  -6   16.38    2.60
  -6   5   6   21.90    3.18
   5  -5  -6    1.04    0.93
  -5   5   6    2.91    1.20
   4  -5  -6   19.44    2.41
   4  -5  -6   23.38    2.25
  -4   5   6   17.99    2.47
   3  -5  -6    7.67    1.29
   3  -5  -6    9.21    1.71
  -3   5   6    9.96    1.82
  -2   5   6   13.21    1.90
  -2   5   6   11.47    1.74
  -1   5   6   85.67    3.72
  -1   5   6   80.55    3.67
   0   5   6   26.98    1.98
   0   5   6   28.66    1.95
   1   5   6  134.67    4.75
   1   5   6  135.06    4.43
  -2  -5  -6   20.29    1.10
   2   5   6   18.41    1.39
   2   5   6   22.31    2.07
  -3  -5  -6   13.71    1.32
   3   5   6   15.34    1.72
   3   5   6   13.48    1.10
  -4  -5  -6   43.61    2.10
   4   5   6   38.51    2.40
   4   5   6   38.54    1.72
  -5  -5  -6   14.19    1.65
   5   5   6   10.48    1.58
   5   5   6   12.63    0.90
  -6  -5  -6    0.41    0.62
   6   5   6    0.72    0.83
  -7  -5  -6    6.66    1.33
   7   5   6    6.04    1.55
   8   5   6    5.46    1.53
   9   5   6   10.87    2.10
  10   5   6   60.95    4.27
  11   5   6    8.83    2.18
  12   5   6   -0.65    1.17
  13   5   6    1.61    1.75
  14   5   6    5.03    2.35
  10  -6  -6    0.92    2.05
   9  -6  -6    3.86    1.71
   8  -6  -6    0.18    1.42
  -8   6   6    1.83    1.65
   7  -6  -6   -0.69    1.10
  -7   6   6    0.40    1.39
   6  -6  -6    4.16    1.72
  -6   6   6    1.76    1.38
   5  -6  -6   -0.37    0.89
  -5   6   6    0.59    1.11
   4  -6  -6    5.69    1.48
   4  -6  -6    8.49    1.42
  -4   6   6    5.97    1.64
   3  -6  -6   10.88    1.85
   3  -6  -6   10.64    1.53
  -3   6   6   14.30    2.22
  -2   6   6   15.19    2.07
  -2   6   6   13.01    1.96
  -1   6   6   41.02    2.63
  -1   6   6   40.96    2.62
   0   6   6   24.35    2.47
   0   6   6   18.99    2.12
   1   6   6    2.71    0.93
   1   6   6    1.67    0.82
   2   6   6    0.12    0.62
   2   6   6   -0.17    0.50
   3   6   6   42.05    2.55
   3   6   6   39.48    2.09
   4   6   6  171.11    5.79
   4   6   6  164.01    4.85
   5   6   6  164.91    5.89
   5   6   6  164.69    4.73
   6   6   6   17.12    2.20
   6   6   6   18.24    1.28
   7   6   6    2.59    1.13
   8   6   6    2.97    1.40
   9   6   6    3.12    1.50
  10   6   6   -0.88    1.04
  11   6   6    2.08    1.53
  12   6   6    2.99    1.64
  13   6   6    4.63    2.09
  14   6   6    0.57    1.79
   9  -7  -6    9.13    2.48
   8  -7  -6    4.21    2.06
  -8   7   6    3.49    2.10
   7  -7  -6    1.47    1.64
  -7   7   6   -0.38    1.37
   6  -7  -6    5.20    1.87
  -6   7   6    4.98    1.98
   5  -7  -6   33.27    3.55
  -5   7   6   30.54    3.52
   4  -7  -6   50.04    3.43
   4  -7  -6   44.38    2.83
  -4   7   6   46.80    3.60
   3  -7  -6    6.28    1.26
   3  -7  -6    6.79    1.60
  -3   7   6    7.95    1.88
  -2   7   6    2.72    1.14
  -2   7   6    3.08    1.13
  -1   7   6    0.46    0.82
  -1   7   6    1.66    1.02
   0   7   6    6.91    1.41
   0   7   6    8.57    1.50
   1   7   6    6.59    1.36
   1   7   6    7.18    1.37
   2   7   6    1.92    0.90
   2   7   6    1.83    0.89
   3   7   6   10.76    1.42
   4   7   6   63.78    3.33
   4   7   6   69.70    3.00
   5   7   6   73.15    3.04
   5   7   6   72.38    3.68
   6   7   6   -0.21    0.73
   6   7   6   -0.31    0.52
   7   7   6   21.87    2.71
   8   7   6   33.30    3.39
   9   7   6   51.94    3.83
  10   7   6   38.48    3.90
  11   7   6    5.87    1.96
  12   7   6    4.23    1.88
  13   7   6   -0.03    1.56
  14   7   6    1.61    1.88
   9  -8  -6    2.47    2.17
  -9   8   6    1.87    2.51
   8  -8  -6   -0.44    1.44
  -8   8   6   -0.10    1.68
   7  -8  -6    1.16    1.63
  -7   8   6   -0.24    1.54
   6  -8  -6   14.16    2.66
  -6   8   6   11.14    2.50
   5  -8  -6   25.74    3.47
  -5   8   6   19.47    3.11
   4  -8  -6   15.84    2.34
   4  -8  -6   20.86    2.32
  -4   8   6   23.35    3.22
   3  -8  -6   19.66    2.24
   3  -8  -6   15.35    2.30
  -3   8   6   21.74    2.91
  -2   8   6    2.73    1.21
  -2   8   6    2.26    1.19
  -1   8   6    1.62    1.11
  -1   8   6    2.04    1.04
   0   8   6    4.90    1.46
   0   8   6    3.43    1.17
   1   8   6   14.56    2.03
   1   8   6   14.47    2.12
   2   8   6   40.50    2.69
   2   8   6   31.78    2.42
   3   8   6   12.99    1.81
   3   8   6   11.15    1.83
   4   8   6    0.01    0.46
   4   8   6    1.51    0.90
   5   8   6    0.10    0.63
   5   8   6    0.08    0.83
   6   8   6    2.85    1.14
   6   8   6    3.42    0.99
   7   8   6    5.68    1.57
   8   8   6   21.09    2.87
   9   8   6   21.00    2.89
  10   8   6    8.11    2.19
  11   8   6    0.27    1.35
  12   8   6   -0.24    1.33
  13   8   6    5.86    2.17
  14   8   6    2.70    1.94
   8  -9  -6   -0.66    1.50
  -8   9   6    1.41    2.14
   7  -9  -6    2.12    1.70
  -7   9   6    2.15    2.03
   6  -9  -6   11.20    2.52
  -6   9   6   10.05    2.67
   5  -9  -6    6.75    1.98
  -5   9   6    8.65    2.52
   4  -9  -6    8.16    1.91
  -4   9   6    4.62    1.84
   3  -9  -6   -0.79    0.78
   3  -9  -6    0.50    0.89
  -3   9   6    0.74    1.16
   2  -9  -6    5.08    1.26
  -2   9   6    5.46    1.65
  -1   9   6    3.76    1.33
  -1   9   6    2.91    1.37
   0   9   6   19.13    2.44
   0   9   6   15.85    2.32
   1   9   6   38.84    2.80
   1   9   6   33.64    2.79
   2   9   6   24.47    2.62
   2   9   6   23.04    2.62
   3   9   6   12.18    1.94
   3   9   6   12.94    1.96
   4   9   6    0.36    0.79
   4   9   6   -0.50    0.84
   5   9   6   -0.10    0.84
   5   9   6   -0.24    0.52
   6   9   6   -0.82    0.78
   6   9   6   -0.03    0.97
   7   9   6    7.50    1.77
   8   9   6    7.53    1.83
   9   9   6    1.11    1.27
  10   9   6    4.81    1.70
  11   9   6    0.65    1.30
  12   9   6   -0.66    1.43
  13   9   6   -1.26    1.58
  14   9   6    3.91    2.28
  -7  10   6   -0.22    1.92
  -6  10   6    0.56    1.75
   5 -10  -6   -1.50    1.17
  -5  10   6    1.43    1.53
   4 -10  -6    5.82    1.78
  -4  10   6    3.79    1.99
   3 -10  -6    5.88    1.60
   3 -10  -6    5.69    1.45
  -3  10   6    4.57    1.80
   2 -10  -6    9.60    1.99
   2 -10  -6    8.40    1.62
  -2  10   6    8.83    2.17
  -1  10   6   14.79    2.26
  -1  10   6   13.25    2.55
   0  10   6   12.42    2.41
   0  10   6   14.58    2.29
   1  10   6    0.75    1.27
   1  10   6    0.54    1.02
   2  10   6    4.04    1.45
   2  10   6    2.69    1.30
   3  10   6   -0.06    1.00
   3  10   6    0.27    0.97
   4  10   6   58.39    3.60
   4  10   6   55.37    3.48
   5  10   6   30.43    3.15
   5  10   6   33.41    3.19
   6  10   6   11.99    2.09
   7  10   6    9.53    1.96
   8  10   6   10.10    2.06
   9  10   6   -0.62    1.07
  10  10   6    1.20    1.31
  11  10   6    3.24    1.84
  12  10   6    2.43    1.75
  13  10   6    3.18    2.01
  14  10   6    0.63    1.58
  -6  11   6    1.05    2.10
  -5  11   6    2.27    2.03
  -4  11   6    4.32    2.20
  -3  11   6    1.34    1.78
   2 -11  -6   11.95    2.44
   2 -11  -6   11.59    2.57
  -2  11   6    7.33    2.17
  -1  11   6    0.34    1.32
  -1  11   6    1.52    1.48
   0  11   6    4.74    1.64
   0  11   6    4.97    1.90
   1  11   6   34.61    3.56
   1  11   6   37.87    4.09
   2  11   6   97.73    4.86
   2  11   6  100.99    5.29
   3  11   6   44.81    3.26
   3  11   6   41.65    3.40
   4  11   6   33.15    3.40
   4  11   6   28.81    3.10
   5  11   6   13.51    2.22
   5  11   6   17.75    2.51
   6  11   6    0.37    1.06
   6  11   6   -1.12    1.01
   7  11   6    3.80    1.58
   7  11   6   -1.46    1.37
   8  11   6    2.39    1.49
   9  11   6   13.08    2.55
  10  11   6    3.41    1.77
  11  11   6    3.98    1.73
  12  11   6    2.44    2.03
  13  11   6    2.54    1.89
  -5  12   6   -0.03    2.03
  -4  12   6   -0.06    2.00
  -3  12   6    0.92    1.69
  -2  12   6   -0.01    1.61
  -1  12   6    1.47    1.65
   0  12   6    2.51    1.81
   1  12   6   31.15    3.86
   2  12   6   61.63    4.61
   2  12   6   47.03    3.91
   3  12   6   17.38    2.85
   3  12   6   22.51    2.97
   4  12   6    1.44    1.43
   4  12   6    0.32    1.16
   5  12   6   13.15    2.24
   5  12   6   11.57    2.21
   6  12   6   27.91    3.22
   6  12   6   35.34    3.52
   7  12   6   44.80    4.67
   7  12   6   49.86    3.81
   8  12   6   15.42    2.63
   9  12   6    5.42    1.89
  10  12   6    0.56    1.50
  11  12   6   -3.15    1.36
  12  12   6   -0.11    1.76
  13  12   6    1.19    1.70
  -4  13   6   -2.30    2.06
  -3  13   6    0.41    1.76
  -2  13   6    3.80    2.18
  -1  13   6    1.23    1.69
   0  13   6    4.83    1.89
   1  13   6    1.69    1.94
   2  13   6   -1.18    1.39
   3  13   6    0.12    1.37
   4  13   6    1.91    1.67
   5  13   6    5.71    2.01
   6  13   6    3.97    1.80
   7  13   6   19.63    3.26
   7  13   6   14.52    2.97
   8  13   6    9.33    2.23
   9  13   6    0.80    1.39
  10  13   6    0.58    1.68
  11  13   6    4.00    2.20
  12  13   6    4.55    2.21
  -2  14   6    7.36    2.86
  -1  14   6    1.66    2.14
   0  14   6    0.39    1.89
   1  14   6   -0.55    1.89
   2  14   6    1.01    1.88
   3  14   6    0.72    1.60
   4  14   6   -1.18    1.63
   5  14   6    0.97    1.55
   6  14   6    4.76    2.00
   7  14   6    3.25    2.40
   0  15   6   -1.35    2.17
   1  15   6    7.98    3.02
   3  15   6    3.49    2.22
   4  15   6    0.53    2.13
   5  15   6   -1.73    1.78
   6  15   6    0.21    1.70
   3  16   6   -0.37    2.25
   4  16   6    1.62    2.30
   5  16   6    0.58    2.21
   6  16   6   -2.55    1.98
   8  12  -7    0.80    2.09
   7  12  -7    6.37    2.73
   6  12  -7   13.72    3.22
   5  12  -7    6.45    2.45
   4  12  -7    0.21    1.83
   3  12  -7    0.86    1.74
   2  12  -7    0.78    1.71
   1  12  -7    1.23    1.77
   0  12  -7    0.65    2.24
  -1  12  -7    2.45    2.15
   9  11  -7    2.26    2.42
   8  11  -7    2.57    2.12
   7  11  -7   -0.96    1.73
   6  11  -7   -0.79    1.72
   5  11  -7    0.49    1.69
   4  11  -7    0.87    1.67
   3  11  -7   -1.15    1.42
   2  11  -7    2.84    1.77
   1  11  -7   10.91    2.73
   0  11  -7    6.48    2.28
  -1  11  -7    0.36    1.41
  -1  11  -7    0.91    1.73
  -2  11  -7    2.90    2.01
  -3  11  -7    0.76    1.76
  10  10  -7    2.91    2.20
   9  10  -7    4.15    2.29
   8  10  -7   -1.00    1.76
   7  10  -7    1.18    1.81
   6  10  -7    0.24    1.57
   5  10  -7    1.31    1.64
   4  10  -7    4.62    1.97
   3  10  -7    0.49    1.54
   2  10  -7   -0.46    1.31
   1  10  -7   -0.26    1.27
   0  10  -7    0.84    1.51
  -1  10  -7   -0.12    1.22
  -1  10  -7   -1.86    1.31
  -2  10  -7    5.06    1.95
  -2  10  -7    5.56    2.14
  -3  10  -7    1.95    1.68
  -3  10  -7    4.57    1.96
  -4  10  -7   -1.61    1.51
  11   9  -7   11.12    3.14
  10   9  -7    3.40    2.33
   9   9  -7    6.36    2.55
   8   9  -7    1.38    1.73
   7   9  -7    3.29    1.70
   6   9  -7    2.52    1.65
   5   9  -7    1.74    1.53
   4   9  -7   10.73    2.49
   3   9  -7   11.17    2.42
   2   9  -7    4.11    1.62
   1   9  -7   -0.17    1.10
   0   9  -7    1.24    1.13
  -1   9  -7    4.49    1.60
  -1   9  -7    4.13    1.82
  -2   9  -7   16.11    2.83
  -2   9  -7   15.26    2.70
  -3   9  -7    4.52    1.70
  -3   9  -7    6.37    2.24
  -4   9  -7    0.99    1.30
  -4   9  -7    1.20    1.60
  -5   9  -7   -0.21    1.43
  12   8  -7   11.89    3.45
  11   8  -7   10.03    3.15
  10   8  -7    1.44    1.85
   9   8  -7    2.40    1.73
   8   8  -7   13.21    2.76
   7   8  -7   27.00    3.66
   6   8  -7   13.30    2.67
   5   8  -7   14.12    2.61
   4   8  -7    3.51    1.56
   3   8  -7    7.25    2.07
   2   8  -7    0.69    1.11
   1   8  -7    1.01    1.05
   0   8  -7   18.46    2.74
  -1   8  -7   16.68    2.65
  -2   8  -7   24.88    3.14
  -2   8  -7   22.22    3.07
  -3   8  -7    7.17    1.92
  -3   8  -7   11.87    2.42
  -4   8  -7    2.21    1.45
  -4   8  -7    2.20    1.41
  -5   8  -7    0.36    1.33
  -6   8  -7    0.29    1.32
  12   7  -7   -0.52    2.00
  11   7  -7    1.14    1.94
  10   7  -7    1.22    1.60
   9   7  -7   15.76    3.00
   8   7  -7    5.94    2.09
   7   7  -7   12.03    2.46
   6   7  -7    9.73    2.03
   5   7  -7    3.50    1.41
   4   7  -7    2.67    1.32
   3   7  -7    3.30    1.43
   2   7  -7   13.01    2.35
   1   7  -7   13.83    2.35
   0   7  -7   25.03    2.99
  -1   7  -7   11.62    2.08
  -2   7  -7   21.02    2.69
  -2   7  -7   26.82    3.20
  -3   7  -7    9.96    2.15
  -3   7  -7   16.70    2.82
  -4   7  -7    2.77    1.35
  -4   7  -7    2.58    1.43
  -5   7  -7   11.24    2.35
  -6   7  -7   10.57    2.46
  -7   7  -7    8.49    2.40
  -8   7  -7    0.20    1.68
  12   6  -7    5.20    2.10
  12   6  -7    1.33    2.04
  11   6  -7    4.21    2.21
  11   6  -7    2.54    1.65
  10   6  -7    2.11    1.71
  10   6  -7   -0.98    1.43
   9   6  -7    2.30    1.58
   8   6  -7   -0.36    1.04
   7   6  -7    1.09    1.11
   6   6  -7    1.33    1.19
   5   6  -7    6.69    1.66
   4   6  -7   43.82    3.42
   3   6  -7   75.09    4.33
   2   6  -7   32.82    3.42
   1   6  -7    1.68    1.13
   0   6  -7   23.63    2.76
  -1   6  -7   25.99    2.86
  -2   6  -7   43.40    3.27
  -2   6  -7   43.53    3.10
  -3   6  -7    9.16    1.93
  -3   6  -7   10.35    2.05
  -4   6  -7    1.68    1.10
  -4   6  -7    1.15    1.08
  -5   6  -7    1.92    1.22
  -6   6  -7    7.17    1.94
  -7   6  -7    1.98    1.54
  -8   6  -7    0.10    1.58
  -9   6  -7    2.29    1.89
  13   5  -7   11.18    3.22
  12   5  -7   17.94    3.80
  12   5  -7    8.83    2.55
  11   5  -7    5.14    2.09
  11   5  -7    2.99    2.07
  10   5  -7    1.08    1.60
  10   5  -7   -0.07    1.23
   9   5  -7    2.23    1.36
   9   5  -7    3.13    1.77
   8   5  -7   10.59    2.37
   8   5  -7    9.13    1.89
   7   5  -7   30.36    3.04
   7   5  -7   35.79    3.97
   6   5  -7    3.64    1.12
   6   5  -7    3.50    1.28
   5   5  -7    6.90    1.67
   4   5  -7   24.58    2.97
   3   5  -7   15.02    2.26
   2   5  -7    4.21    1.31
   1   5  -7   12.87    1.96
   0   5  -7   82.15    4.22
  -1   5  -7  103.17    4.69
  -2   5  -7   88.61    4.27
  -2   5  -7   90.10    4.30
  -3   5  -7    3.21    1.23
  -3   5  -7    3.94    1.20
  -4   5  -7   -0.44    0.77
  -4   5  -7    1.56    1.09
  -5   5  -7    4.47    1.94
  -5   5  -7    3.80    1.48
  -6   5  -7    7.83    1.88
  -7   5  -7    1.88    1.31
  -8   5  -7    2.27    1.71
  -9   5  -7    6.50    2.31
 -10   5  -7    0.71    1.76
  13   4  -7   -0.50    1.72
  12   4  -7    4.02    2.14
  11   4  -7    1.28    1.44
  10   4  -7    0.63    1.13
   9   4  -7   14.31    2.52
   8   4  -7   11.56    2.08
   7   4  -7   54.34    3.49
   6   4  -7   24.89    2.63
   6   4  -7   29.45    3.31
   5   4  -7   10.79    1.62
   5   4  -7    6.66    1.67
   4   4  -7    0.47    0.70
   4   4  -7    0.01    0.51
   3   4  -7    4.84    0.88
   3   4  -7    3.09    1.09
   2   4  -7    2.64    1.00
   1   4  -7    7.83    1.50
   0   4  -7   49.90    2.99
  -1   4  -7   37.98    2.58
  -2   4  -7   70.06    3.48
  -2   4  -7   64.62    3.45
  -3   4  -7    5.95    1.26
  -3   4  -7    6.68    1.51
  -4   4  -7   12.35    1.93
  -4   4  -7    7.65    1.48
  -5   4  -7   47.93    3.44
  -5   4  -7   51.00    3.32
  -6   4  -7   32.90    3.40
  -7   4  -7    7.22    1.84
  -8   4  -7   -0.22    1.10
  -9   4  -7    0.36    1.40
 -10   4  -7   -0.75    1.55
 -11   4  -7   -0.68    1.70
  13   3  -7    0.15    1.90
  12   3  -7    1.45    1.60
  11   3  -7   -0.18    1.34
  10   3  -7    8.95    2.23
   9   3  -7   27.69    3.44
   8   3  -7   14.13    2.46
   7   3  -7   32.12    3.30
   6   3  -7   28.69    2.90
   5   3  -7    6.23    1.26
   4   3  -7   20.62    2.05
   4   3  -7   22.82    2.66
   3   3  -7   14.77    2.00
   3   3  -7   15.22    1.62
   2   3  -7   13.08    1.32
   2   3  -7   15.73    1.98
   1   3  -7   12.68    0.91
   1   3  -7   15.03    1.90
   1   3  -7   13.62    0.83
   0   3  -7   14.55    1.86
   0  -3   7   14.84    0.92
  -1   3  -7    3.45    0.94
   1  -3   7    4.41    0.63
  -2   3  -7   10.98    1.73
  -2   3  -7    8.79    1.37
   2  -3   7    9.49    1.13
  -3   3  -7    2.86    0.95
  -3   3  -7    1.73    0.88
  -4   3  -7   -0.09    0.64
  -4   3  -7   -0.33    0.58
  -5   3  -7    5.06    1.39
  -5   3  -7    3.33    1.24
  -6   3  -7   17.37    2.48
  -7   3  -7    7.75    1.77
  -8   3  -7    0.95    1.24
  -9   3  -7   -0.27    1.33
 -10   3  -7    0.11    1.36
 -11   3  -7    0.47    1.62
  13   2  -7    1.66    1.85
  12   2  -7    0.33    1.70
  11   2  -7    2.15    1.48
  10   2  -7   -0.47    1.34
   9   2  -7    0.75    1.20
   8   2  -7    1.19    1.24
   7   2  -7   -0.42    0.79
   6   2  -7    1.26    0.86
   5   2  -7    0.91    0.72
   4   2  -7   36.60    2.31
   3   2  -7   94.54    3.66
   2   2  -7   21.11    1.44
   2   2  -7   23.83    2.36
   2   2  -7   21.85    1.28
   1   2  -7   14.33    1.79
  -1  -2   7   13.44    1.08
   0   2  -7    2.73    0.83
   0  -2   7    3.05    0.65
  -1   2  -7    1.09    0.58
   1  -2   7    1.48    0.44
  -2   2  -7   15.28    1.86
  -2   2  -7   12.99    1.48
   2  -2   7   12.31    1.01
  -3   2  -7    6.28    1.03
  -3   2  -7    5.74    1.24
   3  -2   7    6.70    1.06
  -4   2  -7    3.04    0.99
  -4   2  -7    1.72    0.71
   4  -2   7    4.33    0.97
  -5   2  -7    8.93    1.73
  -5   2  -7   10.51    1.73
   5  -2   7   10.71    1.53
  -6   2  -7    6.45    1.68
   6  -2   7    8.74    1.65
  -7   2  -7   -0.24    0.97
   7  -2   7   -0.19    0.92
  -8   2  -7    4.53    1.55
   8  -2   7    1.18    1.01
  -9   2  -7    0.56    1.17
 -10   2  -7    0.41    1.53
 -11   2  -7   -1.07    1.44
 -12   2  -7   -0.30    1.69
  12   1  -7    3.26    1.90
  11   1  -7   -1.17    1.41
  10   1  -7    2.97    1.84
   9   1  -7    1.61    1.39
   8   1  -7    3.72    1.47
   7   1  -7   25.47    3.06
   6   1  -7   57.14    3.56
   5   1  -7   69.88    3.65
   4   1  -7    6.01    1.28
   3   1  -7   13.03    1.61
   3   1  -7   14.07    1.36
   2   1  -7   18.22    1.54
   2   1  -7   18.24    1.43
  -1  -1   7   20.01    1.37
   0   1  -7   59.62    2.78
   0  -1   7   61.15    2.39
  -1   1  -7   64.57    2.77
   1  -1   7   63.38    2.41
  -2   1  -7   77.50    3.32
  -2   1  -7   77.23    2.93
   2  -1   7   72.05    2.72
  -3   1  -7    7.21    1.01
  -3   1  -7    8.49    1.35
   3  -1   7    9.16    1.25
  -4   1  -7   23.68    1.49
  -4   1  -7   20.11    2.16
   4  -1   7   23.57    1.72
  -5   1  -7   -0.09    0.62
   5  -1   7    1.01    0.71
  -6   1  -7   -0.03    0.65
   6  -1   7   -0.27    0.51
  -7   1  -7    3.41    1.24
   7  -1   7    3.44    1.34
  -8   1  -7   17.12    2.50
   8  -1   7   16.85    2.37
  -9   1  -7   15.87    2.56
   9  -1   7   17.90    2.64
 -10   1  -7    2.05    1.54
  10  -1   7   -0.47    1.27
 -11   1  -7    2.27    1.77
  11  -1   7    1.83    1.74
 -12   1  -7   -0.36    1.50
  12   0  -7    0.01    1.64
  11   0  -7    2.64    2.01
  10   0  -7    4.51    1.80
   9   0  -7    6.78    2.05
   8   0  -7    5.12    1.69
   7   0  -7   17.19    2.65
   6   0  -7   24.59    2.81
   5   0  -7   46.60    3.02
   4   0  -7    3.39    0.98
   3   0  -7   29.00    1.99
   3   0  -7   28.45    1.74
  -2   0   7  136.09    4.58
  -1   0   7  175.53    5.21
   0   0   7    0.21    0.30
  -1   0  -7   36.64    1.87
   1   0   7   34.41    1.80
  -2   0  -7   59.70    2.78
  -2   0  -7   60.52    2.36
   2   0   7   65.32    2.60
  -3   0  -7   63.99    2.95
  -3   0  -7   65.82    2.30
  -4   0  -7    4.67    0.67
  -4   0  -7    4.49    1.05
  -5   0  -7   31.00    2.24
   5   0   7   29.84    2.14
  -6   0  -7   53.21    3.15
   6   0   7   52.78    3.10
  -7   0  -7   56.06    3.42
   7   0   7   65.79    3.60
  -8   0  -7   15.26    2.46
   8   0   7   16.92    2.49
  -9   0  -7    4.12    1.55
   9   0   7    2.65    1.45
 -10   0  -7    0.34    1.21
  10   0   7    0.88    1.26
 -11   0  -7    2.31    1.46
  11   0   7    2.30    1.62
 -12   0  -7    5.51    2.13
  12   0   7    7.39    2.35
 -13   0  -7    3.05    2.05
  13   0   7    2.74    1.99
  12  -1  -7   -1.21    1.80
  11  -1  -7    1.30    1.83
  10  -1  -7    5.55    2.16
   9  -1  -7   13.88    2.76
   8  -1  -7    8.98    2.07
   7  -1  -7    4.06    1.63
   6  -1  -7    5.98    1.61
   5  -1  -7    2.02    0.93
   4  -1  -7    3.09    0.84
   4  -1  -7    2.53    0.89
   3  -1  -7   11.23    1.42
   3  -1  -7   13.30    1.80
  -2   1   7   66.25    3.03
  -1   1   7  159.18    5.02
   0   1   7   42.97    2.19
   1   1   7    0.28    0.46
  -2  -1  -7    2.60    0.57
  -2  -1  -7    5.05    0.94
   2   1   7    2.97    0.82
  -3  -1  -7  173.00    4.28
  -3  -1  -7  175.28    5.34
   3   1   7  175.42    5.34
  -4  -1  -7   39.63    2.32
  -4  -1  -7   40.67    1.69
   4   1   7   45.24    2.44
  -5  -1  -7   24.06    2.36
   5   1   7   22.68    2.20
  -6  -1  -7    1.41    0.81
   6   1   7    1.74    1.01
  -7  -1  -7    0.21    0.67
   7   1   7    0.51    0.91
  -8  -1  -7   -0.01    0.80
   8   1   7    1.98    1.22
  -9  -1  -7   -0.41    0.95
   9   1   7    0.82    1.23
 -10  -1  -7    4.14    1.71
  10   1   7    6.20    1.88
 -11  -1  -7    4.09    1.81
  11   1   7    7.90    2.06
 -12  -1  -7   11.11    2.52
  12   1   7    7.83    2.19
 -13  -1  -7    8.22    2.28
  13   1   7    9.25    2.43
  12  -2  -7    1.75    2.07
  11  -2  -7    4.85    2.22
  10  -2  -7   18.23    3.40
   9  -2  -7   10.36    2.30
   8  -2  -7    7.38    2.12
   7  -2  -7    0.73    1.14
   6  -2  -7   16.74    2.49
   5  -2  -7    6.16    1.44
   4  -2  -7    0.92    0.56
   4  -2  -7    0.12    0.55
   3  -2  -7    1.83    0.70
   3  -2  -7    1.82    0.78
  -2   2   7   -0.04    0.56
  -1   2   7   74.65    3.24
   0   2   7    9.06    1.36
  -1  -2  -7   10.16    1.21
   1   2   7   10.58    1.39
  -2  -2  -7   13.62    1.37
   2   2   7   14.96    1.65
  -3  -2  -7    1.53    0.62
  -3  -2  -7    1.87    0.36
   3   2   7    1.18    0.64
  -4  -2  -7   56.71    2.67
   4   2   7   51.07    2.67
  -5  -2  -7   47.13    2.60
   5   2   7   45.09    2.63
  -6  -2  -7    1.50    0.78
   6   2   7    0.31    0.75
  -7  -2  -7    1.98    0.98
   7   2   7    3.44    1.33
  -8  -2  -7   21.39    2.58
   8   2   7   27.63    2.99
  -9  -2  -7   29.09    3.25
   9   2   7   30.21    3.31
 -10  -2  -7    6.36    1.75
  10   2   7    8.87    2.18
 -11  -2  -7    0.53    1.16
  11   2   7    1.20    1.44
 -12  -2  -7   -0.61    1.06
  12   2   7    1.46    1.65
  13   2   7   -0.46    1.70
  11  -3  -7   -0.79    1.46
  10  -3  -7    3.16    1.80
   9  -3  -7    0.51    1.32
   8  -3  -7    0.86    1.09
   7  -3  -7   10.12    2.18
   6  -3  -7   75.78    4.47
   5  -3  -7   44.21    3.11
   4  -3  -7   -0.08    0.56
   4  -3  -7   -0.05    0.45
   3  -3  -7   17.92    1.83
   3  -3  -7   14.38    1.96
  -2   3   7   36.86    2.41
  -1   3   7   43.46    2.51
   0   3   7    7.39    1.32
  -1  -3  -7   14.61    1.26
   1   3   7   11.49    1.47
  -2  -3  -7    1.32    0.53
   2   3   7    1.44    0.64
  -3  -3  -7   43.41    2.07
   3   3   7   43.99    2.42
  -4  -3  -7   22.14    1.58
   4   3   7   23.98    1.90
  -5  -3  -7   28.58    1.95
   5   3   7   28.41    2.17
  -6  -3  -7    2.77    0.96
   6   3   7    3.80    1.17
  -7  -3  -7   31.92    3.02
   7   3   7   27.03    2.79
  -8  -3  -7   30.28    3.11
   8   3   7   30.19    3.26
  -9  -3  -7    4.57    1.41
   9   3   7    3.68    1.54
 -10  -3  -7    0.25    1.09
  10   3   7   -0.78    1.25
 -11  -3  -7    0.55    1.12
  11   3   7   -0.42    1.33
  12   3   7    6.01    2.22
  13   3   7   -1.11    1.65
  14   3   7   -2.08    1.88
  11  -4  -7    8.20    2.94
  10  -4  -7    5.56    2.15
   9  -4  -7    8.68    2.48
   8  -4  -7   19.64    3.16
   7  -4  -7    7.83    2.00
   6  -4  -7   -0.73    0.77
   5  -4  -7   19.70    2.58
   4  -4  -7    0.69    0.61
   4  -4  -7    0.49    0.69
  -4   4   7    0.96    1.04
   3  -4  -7   10.97    1.46
   3  -4  -7   12.74    1.91
  -3   4   7    9.54    1.71
  -2   4   7   58.75    3.25
  -2   4   7   61.64    3.24
  -1   4   7  161.88    5.58
  -1   4   7  155.91    5.41
   0  -4  -7   89.25    2.46
   0   4   7   90.50    3.74
   0   4   7   83.76    3.47
  -1  -4  -7   90.58    2.67
   1   4   7   87.84    3.68
  -2  -4  -7   11.32    1.15
   2   4   7   12.22    1.25
   2   4   7   14.62    1.71
  -3  -4  -7   12.16    1.26
   3   4   7   11.27    0.91
   3   4   7   14.28    1.71
  -4  -4  -7   11.55    1.34
   4   4   7   10.36    0.73
   4   4   7   12.78    1.74
  -5  -4  -7   20.59    2.00
   5   4   7   21.65    2.27
  -6  -4  -7   14.28    1.88
   6   4   7   11.67    1.85
  -7  -4  -7   23.88    2.56
   7   4   7   19.95    2.47
  -8  -4  -7    5.69    1.41
   8   4   7    6.02    1.59
  -9  -4  -7    1.85    1.08
   9   4   7    2.72    1.53
 -10  -4  -7    0.61    1.04
  10   4   7   -0.30    1.09
  11   4   7   -0.47    1.32
  12   4   7    5.31    2.08
  13   4   7    3.61    2.12
  14   4   7   -1.08    1.78
  10  -5  -7    4.19    2.24
   9  -5  -7    2.37    1.71
   8  -5  -7    2.65    1.62
   7  -5  -7    1.43    1.28
   6  -5  -7    3.00    1.42
  -6   5   7    5.69    1.79
   5  -5  -7    4.70    1.37
  -5   5   7    2.98    1.54
   4  -5  -7   17.75    2.41
   4  -5  -7   11.64    1.67
  -4   5   7   18.15    2.48
   3  -5  -7   24.63    2.32
   3  -5  -7   24.01    2.71
  -3   5   7   28.13    3.04
  -2   5   7   94.40    4.38
  -2   5   7   97.12    4.35
  -1   5   7   85.95    3.89
  -1   5   7   84.38    3.86
   0   5   7   18.70    2.09
   0   5   7   18.06    2.01
  -1  -5  -7   38.63    1.39
   1   5   7   40.64    2.49
   1   5   7   38.42    2.19
  -2  -5  -7   68.86    2.29
   2   5   7   61.52    3.17
   2   5   7   66.25    2.71
  -3  -5  -7  108.57    3.49
   3   5   7  107.74    3.47
   3   5   7  115.10    4.43
  -4  -5  -7   93.48    3.44
   4   5   7   96.52    4.12
   4   5   7  100.22    3.02
  -5  -5  -7  203.50    6.08
   5   5   7  199.54    4.90
   5   5   7  208.94    6.82
  -6  -5  -7   25.91    2.39
   6   5   7   27.33    2.70
  -7  -5  -7    2.33    0.97
   7   5   7    1.62    1.06
  -8  -5  -7    2.72    1.10
   8   5   7    1.49    1.18
  -9  -5  -7    4.08    1.32
   9   5   7    6.75    1.72
  10   5   7   10.60    2.26
  11   5   7    2.76    1.62
  12   5   7   20.53    3.31
  13   5   7    9.08    2.60
  14   5   7    1.80    2.03
  10  -6  -7    3.17    2.10
   9  -6  -7    0.04    1.62
   8  -6  -7    1.79    1.68
   7  -6  -7   -0.66    1.06
  -7   6   7    0.47    1.39
   6  -6  -7    9.87    2.14
  -6   6   7    6.32    1.86
   5  -6  -7    2.28    1.22
  -5   6   7    6.99    1.92
   4  -6  -7    3.38    1.09
   4  -6  -7    4.09    1.27
  -4   6   7    4.80    1.57
   3  -6  -7    0.69    0.65
   3  -6  -7    0.57    0.71
  -3   6   7    0.87    0.92
  -2   6   7    1.25    0.91
  -2   6   7    1.15    0.98
  -1   6   7    0.23    0.78
  -1   6   7    1.54    0.87
   0   6   7    2.30    0.94
   0   6   7    2.74    1.05
   1   6   7   41.52    2.45
   1   6   7   42.66    2.64
   2   6   7   22.89    2.39
   3   6   7  141.47    5.25
   3   6   7  137.47    4.44
   4   6   7   76.88    2.91
   4   6   7   75.56    3.67
  -5  -6  -7   29.85    1.92
   5   6   7   29.46    2.36
   5   6   7   26.88    1.51
   6   6   7    0.95    0.98
   7   6   7    3.48    1.38
   8   6   7   26.81    3.11
   9   6   7   45.31    3.60
  10   6   7   50.43    3.97
  11   6   7    7.10    2.17
  12   6   7   10.95    2.62
  13   6   7   -1.71    1.25
  14   6   7   -2.79    1.36
   9  -7  -7    0.08    1.82
   8  -7  -7   -0.64    1.27
  -8   7   7    0.89    1.55
   7  -7  -7    3.05    1.65
  -7   7   7    3.52    1.79
   6  -7  -7    0.85    1.17
  -6   7   7    1.67    1.43
   5  -7  -7    3.83    1.49
  -5   7   7    2.28    1.46
   4  -7  -7    7.57    1.44
   4  -7  -7   11.40    2.11
  -4   7   7    7.64    1.92
   3  -7  -7    1.30    1.00
   3  -7  -7    0.15    0.69
  -3   7   7    0.79    1.06
  -2   7   7    2.18    1.24
  -2   7   7    2.35    1.12
  -1   7   7    5.15    1.49
  -1   7   7    5.86    1.45
   0   7   7    6.36    1.48
   0   7   7    8.42    1.54
   1   7   7   36.89    2.59
   1   7   7   34.28    2.44
   2   7   7   21.05    2.36
   2   7   7   19.95    2.07
   3   7   7    8.50    1.59
   3   7   7    7.65    1.34
   4   7   7    0.55    0.62
   4   7   7    0.94    0.94
   5   7   7   11.12    1.84
   5   7   7   12.80    1.44
   6   7   7   65.46    3.75
   7   7   7   33.65    3.24
   8   7   7    2.57    1.33
   9   7   7    5.89    1.80
  10   7   7   -0.70    1.15
  11   7   7    2.09    1.53
  12   7   7    0.75    1.52
  13   7   7    0.90    1.65
  14   7   7    1.11    1.83
   9  -8  -7    5.18    2.12
   8  -8  -7   17.69    3.40
  -8   8   7   18.35    3.67
   7  -8  -7    5.68    2.11
  -7   8   7    5.51    2.26
   6  -8  -7   -0.75    1.26
  -6   8   7    0.57    1.55
   5  -8  -7    0.46    1.05
  -5   8   7    0.07    1.39
   4  -8  -7    3.61    1.34
   4  -8  -7    3.57    1.18
  -4   8   7    3.20    1.60
   3  -8  -7   21.99    2.85
   3  -8  -7   25.08    2.56
  -3   8   7   23.34    3.22
  -2   8   7    6.92    1.85
  -2   8   7    6.08    1.68
  -1   8   7    1.83    1.15
  -1   8   7   -0.39    0.83
   0   8   7    1.18    0.91
   0   8   7    1.72    1.02
   1   8   7   -0.54    0.77
   1   8   7    0.74    1.02
   2   8   7   10.58    1.84
   2   8   7   12.44    1.88
   3   8   7    1.38    1.07
   3   8   7    1.02    0.88
   4   8   7   22.26    2.17
   4   8   7   17.28    2.20
   5   8   7   39.23    2.88
   5   8   7   45.41    2.52
   6   8   7   27.20    3.01
   7   8   7    1.83    1.19
   8   8   7    5.99    1.63
   9   8   7    7.01    1.93
  10   8   7    1.44    1.30
  11   8   7    0.07    1.28
  12   8   7   -0.42    1.36
  13   8   7   -0.37    1.66
  14   8   7   -0.75    1.76
   8  -9  -7    0.93    1.64
  -8   9   7    1.16    2.30
   7  -9  -7    0.42    1.71
  -7   9   7    0.25    1.82
   6  -9  -7    0.49    1.52
  -6   9   7   -0.94    1.40
   5  -9  -7   17.55    2.78
  -5   9   7   12.83    2.87
   4  -9  -7   18.11    2.32
   4  -9  -7   15.76    2.54
  -4   9   7   15.23    3.04
   3  -9  -7   31.21    3.46
   3  -9  -7   30.87    2.99
  -3   9   7   27.55    3.56
  -2   9   7   64.70    4.02
  -2   9   7   63.61    4.19
  -1   9   7    3.33    1.47
  -1   9   7    2.58    1.38
   0   9   7   -0.71    0.91
   0   9   7    2.45    1.38
   1   9   7    3.94    1.43
   1   9   7    1.84    1.15
   2   9   7   17.66    2.27
   2   9   7   21.15    2.68
   3   9   7   27.37    2.85
   3   9   7   30.50    2.94
   4   9   7    7.44    1.60
   4   9   7    6.90    1.57
   5   9   7   23.87    2.64
   5   9   7   21.38    2.22
   6   9   7   13.13    1.94
   6   9   7   19.05    2.56
   7   9   7   20.99    2.77
   8   9   7    0.10    1.07
   9   9   7   12.54    2.30
  10   9   7   19.99    3.17
  11   9   7    9.47    2.36
  12   9   7    1.39    1.58
  13   9   7    1.11    1.62
  14   9   7    0.45    1.70
   7 -10  -7   -2.52    1.53
  -7  10   7    0.79    2.18
   6 -10  -7    0.01    1.54
  -6  10   7    2.13    2.23
   5 -10  -7    4.65    1.78
  -5  10   7    4.87    2.24
   4 -10  -7   20.10    2.94
  -4  10   7   21.61    3.33
   3 -10  -7   11.63    2.25
   3 -10  -7    6.31    1.65
  -3  10   7   11.57    2.64
   2 -10  -7    8.60    1.62
   2 -10  -7    7.95    1.82
  -2  10   7    6.44    1.90
  -1  10   7    8.75    2.12
  -1  10   7    8.93    2.13
   0  10   7   27.68    3.45
   0  10   7   29.84    3.28
   1  10   7   62.86    4.01
   1  10   7   60.09    3.79
   2  10   7   56.63    3.70
   2  10   7   60.17    3.88
   3  10   7   54.71    3.58
   3  10   7   52.77    3.52
   4  10   7    0.16    1.05
   4  10   7   -0.47    0.86
   5  10   7   10.74    2.05
   6  10   7    1.38    1.03
   6  10   7    5.02    1.52
   7  10   7    0.93    1.17
   8  10   7    0.36    1.15
   9  10   7   15.59    2.76
  10  10   7   37.86    4.26
  11  10   7   11.68    2.71
  12  10   7    4.08    2.06
  13  10   7    1.54    1.68
  -6  11   7    1.05    2.25
  -5  11   7   -1.91    1.65
   4 -11  -7    0.14    1.24
  -4  11   7    0.62    1.63
   3 -11  -7    4.63    1.53
   3 -11  -7    2.33    1.50
  -3  11   7    3.80    2.05
   2 -11  -7    0.13    1.00
   2 -11  -7    1.05    1.25
  -2  11   7    0.90    1.37
  -1  11   7   -0.32    1.25
  -1  11   7    0.89    1.39
   0  11   7   22.08    3.25
   0  11   7   20.36    2.90
   1  11   7   36.32    3.91
   1  11   7   37.65    3.72
   2  11   7   31.36    3.38
   2  11   7   31.95    3.54
   3  11   7   36.22    3.59
   3  11   7   25.06    3.08
   4  11   7   12.70    2.28
   4  11   7   11.55    2.24
   5  11   7   14.02    2.25
   5  11   7   19.49    2.65
   7  11   7   13.57    2.37
   8  11   7    1.58    1.28
   9  11   7    5.44    1.90
  10  11   7    6.62    2.11
  11  11   7    1.46    1.60
  12  11   7    1.92    1.81
  13  11   7    1.15    1.92
  -5  12   7   -0.59    2.12
  -4  12   7    0.42    1.89
  -3  12   7    0.85    1.96
  -2  12   7    3.99    2.23
  -1  12   7    1.08    1.48
   0  12   7   -0.94    1.30
   0  12   7   -0.87    1.26
   1  12   7    0.57    1.53
   1  12   7    0.80    1.30
   2  12   7    0.76    1.38
   2  12   7    1.32    1.44
   3  12   7    0.40    1.30
   3  12   7    0.65    1.41
   4  12   7    2.14    1.56
   4  12   7    8.52    2.08
   5  12   7    5.11    1.76
   5  12   7    6.21    1.91
   6  12   7   10.48    2.16
   6  12   7    7.40    1.93
   7  12   7    8.67    2.15
   8  12   7    1.34    1.29
   9  12   7    4.99    2.04
  10  12   7    5.52    2.09
  11  12   7    4.52    2.00
  12  12   7    0.70    1.87
  13  12   7    1.23    2.04
  -3  13   7    3.24    2.30
  -2  13   7    3.78    2.36
  -1  13   7   -1.16    1.51
   0  13   7    0.91    1.75
   1  13   7    2.60    1.63
   2  13   7    2.26    1.82
   3  13   7    2.06    1.82
   4  13   7    1.68    1.63
   4  13   7   -0.86    1.65
   5  13   7   -1.30    1.28
   5  13   7    0.61    1.29
   6  13   7    0.11    1.38
   6  13   7   -0.05    1.39
   7  13   7   -1.45    1.15
   8  13   7    0.73    1.46
   9  13   7    5.48    1.75
  10  13   7   12.43    2.79
  11  13   7    3.08    2.06
  12  13   7   -0.54    1.74
  -2  14   7    1.82    2.27
  -1  14   7   -0.14    1.91
   0  14   7    8.69    2.81
   1  14   7    7.98    2.37
   2  14   7    4.10    2.30
   3  14   7    6.84    2.55
   4  14   7    2.81    1.93
   5  14   7    1.90    1.93
   6  14   7   -1.27    1.64
  10  14   7    5.78    2.09
  11  14   7   -0.64    1.75
   0  15   7    5.12    2.75
   1  15   7    3.27    2.47
   2  15   7    5.39    2.86
   3  15   7    0.81    2.01
   4  15   7    1.04    1.95
   5  15   7   -2.10    1.94
   6  15   7    4.27    2.26
   4  16   7    2.38    2.47
   5  16   7    1.22    2.32
   6  16   7   -0.24    2.59
   6  12  -8    0.26    1.87
   5  12  -8    0.84    2.00
   4  12  -8    5.95    2.42
   3  12  -8    5.86    2.57
   2  12  -8    6.02    2.42
   1  12  -8    5.12    2.30
   8  11  -8    1.56    2.12
   7  11  -8   -1.95    1.87
   6  11  -8    5.33    2.45
   5  11  -8    6.60    2.44
   4  11  -8   12.64    2.98
   3  11  -8    3.10    1.87
   2  11  -8    3.25    2.00
   1  11  -8    0.01    1.50
   0  11  -8   -0.39    1.44
  -1  11  -8    3.00    1.85
  -1  11  -8    3.35    2.21
  -2  11  -8    2.10    2.00
  -2  11  -8    1.94    1.77
  10  10  -8    1.81    2.34
   9  10  -8    1.17    1.97
   8  10  -8    0.61    1.92
   7  10  -8   -0.18    1.48
   6  10  -8    0.90    1.72
   5  10  -8    4.54    2.07
   4  10  -8    2.07    1.60
   3  10  -8    1.43    1.61
   2  10  -8    0.93    1.43
   1  10  -8   -0.91    1.23
   0  10  -8    0.61    1.53
  -1  10  -8   16.16    2.98
  -1  10  -8   13.60    2.83
  -2  10  -8    0.94    1.54
  -2  10  -8   -0.65    1.46
  -3  10  -8    0.97    1.71
  -3  10  -8   -0.11    1.41
  -4  10  -8    0.98    1.69
  10   9  -8    4.70    2.56
   9   9  -8    3.63    2.17
   8   9  -8    5.38    2.30
   7   9  -8    5.62    2.21
   6   9  -8   -0.70    1.40
   5   9  -8    0.59    1.37
   4   9  -8   -0.38    1.23
   3   9  -8    0.30    1.36
   2   9  -8   -0.37    1.09
   1   9  -8   -1.26    1.19
   0   9  -8    3.32    1.60
  -1   9  -8    5.25    1.85
  -1   9  -8    3.57    1.65
  -2   9  -8    1.37    1.47
  -2   9  -8    0.45    1.54
  -3   9  -8   -0.70    1.17
  -3   9  -8    0.17    1.51
  -4   9  -8    3.83    1.85
  -5   9  -8    1.14    1.68
  11   8  -8    5.59    2.64
  10   8  -8   16.94    3.71
   9   8  -8   17.46    3.55
   8   8  -8   12.57    2.84
   7   8  -8    4.18    1.86
   6   8  -8    6.93    2.21
   5   8  -8   18.55    2.97
   4   8  -8   21.52    3.16
   3   8  -8    2.82    1.61
   2   8  -8    4.50    1.74
   1   8  -8    4.43    1.70
   0   8  -8    2.16    1.35
  -1   8  -8    2.53    1.43
  -2   8  -8    4.80    1.74
  -2   8  -8    5.75    1.77
  -3   8  -8    3.58    1.51
  -3   8  -8    1.31    1.38
  -4   8  -8    7.35    2.11
  -5   8  -8    9.57    2.25
  -6   8  -8    2.72    1.82
  -7   8  -8   -1.20    1.49
  11   7  -8    4.26    2.37
  10   7  -8    3.58    2.10
   9   7  -8    5.98    2.32
   8   7  -8    0.57    1.41
   7   7  -8    3.06    1.67
   6   7  -8   41.88    4.38
   5   7  -8   33.40    3.87
   4   7  -8   55.82    4.11
   3   7  -8   34.63    3.82
   2   7  -8    9.85    2.19
   1   7  -8    1.19    1.09
   0   7  -8    6.74    1.77
  -1   7  -8   23.95    2.96
  -2   7  -8    6.15    1.74
  -2   7  -8    4.97    1.68
  -3   7  -8    2.26    1.30
  -3   7  -8    1.49    1.47
  -4   7  -8    1.91    1.43
  -4   7  -8    4.68    1.58
  -5   7  -8    7.60    2.20
  -6   7  -8    2.08    1.82
  -7   7  -8    0.50    1.55
  -8   7  -8    0.86    1.85
  12   6  -8    1.69    2.19
  11   6  -8    3.51    2.15
  10   6  -8   -0.15    1.48
   9   6  -8    0.31    1.26
   8   6  -8    2.48    1.60
   7   6  -8    3.44    1.54
   6   6  -8   15.59    2.69
   5   6  -8    5.48    1.71
   4   6  -8   31.74    3.57
   3   6  -8   11.80    2.22
   2   6  -8    6.41    1.81
   1   6  -8   16.21    2.45
   0   6  -8   37.65    3.13
  -1   6  -8   46.74    3.39
  -2   6  -8   18.94    2.49
  -2   6  -8   16.66    2.52
  -3   6  -8    4.57    1.56
  -3   6  -8    7.38    1.79
  -4   6  -8   -0.25    1.01
  -4   6  -8    1.90    1.23
  -5   6  -8    2.40    1.33
  -6   6  -8    1.86    1.62
  -7   6  -8    4.19    1.95
  -8   6  -8    2.23    1.89
  -9   6  -8    4.16    2.15
  12   5  -8   -1.35    1.82
  12   5  -8    0.50    1.58
  11   5  -8   -0.03    1.39
  11   5  -8    0.04    1.67
  10   5  -8    0.05    1.12
  10   5  -8   -1.25    1.45
   9   5  -8    0.70    1.32
   9   5  -8    0.73    1.38
   8   5  -8    4.09    1.68
   8   5  -8    6.65    2.17
   7   5  -8    0.48    1.08
   6   5  -8    0.55    0.97
   5   5  -8    0.83    0.92
   4   5  -8    0.62    1.03
   3   5  -8    1.07    0.97
   2   5  -8    9.42    1.89
   1   5  -8   11.15    2.05
   0   5  -8   10.51    1.88
  -1   5  -8    5.61    1.37
  -2   5  -8    1.50    0.99
  -2   5  -8    1.79    1.11
  -3   5  -8    2.36    1.09
  -3   5  -8    2.75    1.26
  -4   5  -8   13.31    2.13
  -4   5  -8   11.78    2.05
  -5   5  -8    4.27    1.53
  -6   5  -8    8.57    2.19
  -7   5  -8    4.37    1.78
  -8   5  -8   -0.61    1.57
  -9   5  -8    1.15    1.62
  12   4  -8    0.03    1.61
  11   4  -8    6.86    2.22
  10   4  -8   10.39    2.49
   9   4  -8    7.42    1.90
   8   4  -8    0.24    0.97
   7   4  -8    2.03    1.24
   7   4  -8    4.90    1.53
   6   4  -8    0.49    0.95
   6   4  -8    0.52    0.86
   5   4  -8    1.19    1.10
   5   4  -8    0.33    0.73
   4   4  -8    0.71    0.86
   4   4  -8    2.50    0.91
   3   4  -8    0.92    0.87
   2   4  -8   22.95    2.74
   1   4  -8    2.22    0.95
   0   4  -8    0.24    0.62
  -1   4  -8    0.73    0.67
  -2   4  -8    2.23    0.96
  -2   4  -8    0.21    0.70
  -3   4  -8    1.57    0.95
  -3   4  -8    1.83    1.06
  -4   4  -8    2.41    1.04
  -4   4  -8    1.94    1.12
  -5   4  -8    3.65    1.40
  -6   4  -8    0.11    1.06
  -7   4  -8   -0.83    0.94
  -8   4  -8    0.26    1.27
  -9   4  -8    4.96    1.98
 -10   4  -8    1.27    1.56
  12   3  -8   15.52    3.31
  11   3  -8   22.28    3.48
  10   3  -8    8.33    2.35
   9   3  -8   -1.57    1.10
   8   3  -8    6.50    1.77
   7   3  -8    8.46    1.89
   6   3  -8   20.67    2.53
   5   3  -8   28.33    2.26
   4   3  -8   29.48    3.06
   4   3  -8   28.52    2.11
   3   3  -8    9.23    1.36
   3   3  -8    7.73    1.58
   2   3  -8   14.16    1.42
   2   3  -8   15.29    2.13
   1   3  -8    8.42    1.53
   1   3  -8    9.00    0.89
   1   3  -8    6.81    0.88
   0   3  -8    4.02    1.11
  -1   3  -8   42.46    2.66
  -2   3  -8   28.67    2.76
  -2   3  -8   24.81    2.01
  -3   3  -8   26.80    2.03
  -3   3  -8   21.50    2.43
  -4   3  -8    2.81    1.10
  -4   3  -8    5.02    1.44
  -5   3  -8    5.51    1.44
  -6   3  -8   15.97    2.63
  -7   3  -8    6.70    1.92
  -8   3  -8    1.95    1.41
  -9   3  -8    0.97    1.39
 -10   3  -8    0.48    1.39
 -11   3  -8   -1.11    1.65
  12   2  -8    1.53    1.96
  11   2  -8    3.19    1.90
  10   2  -8   -0.32    1.27
   9   2  -8    8.30    2.17
   8   2  -8   22.37    3.08
   7   2  -8   44.80    3.35
   6   2  -8   55.30    3.48
   5   2  -8   17.01    2.17
   4   2  -8    9.63    1.54
   3   2  -8    8.18    1.36
   2   2  -8   34.29    2.44
   2   2  -8   31.01    1.85
   2   2  -8   29.21    1.61
   1   2  -8   31.77    2.30
  -1  -2   8   36.01    1.88
   0   2  -8   37.76    2.42
   0  -2   8   34.68    1.75
  -1   2  -8   24.66    1.87
   1  -2   8   26.04    1.45
  -2   2  -8   33.58    2.35
  -2   2  -8   32.66    2.15
   2  -2   8   32.26    1.70
  -3   2  -8   40.66    2.27
  -3   2  -8   35.90    2.60
   3  -2   8   37.51    2.00
  -4   2  -8    2.84    0.89
  -4   2  -8    3.52    1.14
   4  -2   8    4.34    0.98
  -5   2  -8    0.63    0.84
   5  -2   8    0.47    0.79
  -6   2  -8    2.12    1.08
  -7   2  -8   39.38    3.70
  -8   2  -8   20.97    2.95
  -9   2  -8    8.62    2.17
 -10   2  -8    2.58    1.66
 -11   2  -8    1.73    2.01
  12   1  -8    0.22    1.64
  11   1  -8   -0.73    1.56
  10   1  -8    0.98    1.44
   9   1  -8   -0.91    1.07
   8   1  -8    2.14    1.29
   7   1  -8   24.33    3.20
   6   1  -8   28.35    3.09
   5   1  -8    7.16    1.59
   4   1  -8    2.01    0.86
   3   1  -8  124.58    4.67
   3   1  -8  135.79    4.32
   2   1  -8  168.01    4.95
   2   1  -8  170.80    5.41
  -1  -1   8   72.02    2.89
   0   1  -8    8.73    1.39
   0  -1   8    9.07    1.20
  -1   1  -8    3.30    0.83
   1  -1   8    5.68    0.95
  -2   1  -8    0.45    0.47
  -2   1  -8    1.15    0.72
   2  -1   8    1.04    0.57
  -3   1  -8   -0.25    0.47
  -3   1  -8   -0.37    0.38
   3  -1   8   -0.44    0.46
  -4   1  -8   16.66    1.98
  -4   1  -8   15.08    1.47
   4  -1   8   18.40    1.87
  -5   1  -8    9.78    1.70
   5  -1   8   10.20    1.57
  -6   1  -8   29.89    3.08
   6  -1   8   31.78    2.51
  -8   1  -8   22.82    2.90
   8  -1   8   18.49    2.61
  -9   1  -8    5.86    1.71
   9  -1   8    1.96    1.67
 -10   1  -8   -0.01    1.35
  10  -1   8   -1.74    1.53
 -11   1  -8    7.49    2.41
 -12   1  -8    3.47    2.16
  12   0  -8    2.48    2.23
  11   0  -8    1.77    1.85
  10   0  -8   -0.37    1.31
   9   0  -8   -0.05    1.21
   8   0  -8    1.02    1.13
   7   0  -8    9.73    2.09
   6   0  -8    0.03    0.70
   5   0  -8    1.75    0.92
   4   0  -8   14.80    2.04
   3   0  -8    8.71    1.45
   3   0  -8    7.75    1.16
  -2   0   8    0.23    0.54
  -1   0   8   19.29    1.89
   0   0   8    0.90    0.49
  -1   0  -8   53.90    2.49
   1   0   8   50.26    2.37
  -2   0  -8  203.90    5.65
  -2   0  -8  203.00    6.29
   2   0   8  203.67    5.86
  -3   0  -8    9.89    1.06
  -3   0  -8    9.39    1.46
   3   0   8   12.35    1.54
  -4   0  -8   25.18    2.40
  -4   0  -8   22.86    1.31
  -5   0  -8   -0.12    0.53
   5   0   8   -0.05    0.52
  -6   0  -8    1.23    0.75
   6   0   8    1.45    1.02
  -7   0  -8    1.88    1.05
   7   0   8    4.21    1.37
  -8   0  -8    4.05    1.54
   8   0   8    2.51    1.39
  -9   0  -8   -0.19    0.96
   9   0   8    0.41    1.35
 -10   0  -8    0.86    1.46
  10   0   8    1.36    1.47
 -11   0  -8    2.77    1.92
  11   0   8    2.94    1.87
 -12   0  -8    4.58    2.10
  12   0   8    6.89    2.55
  12  -1  -8    1.20    2.14
  11  -1  -8    4.89    2.26
  10  -1  -8    4.65    2.11
   9  -1  -8    3.16    1.55
   8  -1  -8    9.08    2.27
   7  -1  -8    8.90    2.07
   6  -1  -8    9.22    1.91
   5  -1  -8   -0.29    0.57
   4  -1  -8    4.55    1.02
   4  -1  -8    3.48    1.12
   3  -1  -8    0.02    0.40
   3  -1  -8    0.88    0.50
  -2   1   8    8.08    1.36
  -1   1   8    2.83    0.86
   0   1   8    0.96    0.60
   1   1   8    0.34    0.51
  -2  -1  -8   40.37    1.87
  -2  -1  -8   43.22    2.32
   2   1   8   40.59    2.24
  -3  -1  -8    1.60    0.43
  -3  -1  -8    2.08    0.75
   3   1   8    1.75    0.76
  -4  -1  -8    6.03    1.25
  -4  -1  -8    4.85    0.92
   4   1   8    6.77    1.29
  -5  -1  -8    8.92    1.56
   5   1   8   11.71    1.77
  -6  -1  -8   18.75    2.33
   6   1   8   17.58    2.13
  -7  -1  -8   31.66    3.21
   7   1   8   34.97    2.78
  -8  -1  -8   28.64    3.25
   8   1   8   28.35    3.20
  -9  -1  -8    4.03    1.44
   9   1   8    5.65    1.84
 -10  -1  -8   -0.35    1.10
  10   1   8   -1.57    1.32
 -11  -1  -8    0.93    1.26
  11   1   8    0.10    1.45
 -12  -1  -8    0.89    1.50
  12   1   8   -2.36    1.42
 -13  -1  -8    0.99    1.89
  13   1   8    0.50    2.03
  11  -2  -8    3.33    2.01
  10  -2  -8    1.02    1.51
   9  -2  -8    0.13    1.22
   8  -2  -8    9.71    2.22
   7  -2  -8   47.59    3.75
   6  -2  -8   59.85    4.01
   5  -2  -8    9.49    1.83
   4  -2  -8    0.21    0.56
   4  -2  -8    0.36    0.51
   3  -2  -8   21.71    2.05
   3  -2  -8   21.86    2.44
  -2   2   8   20.57    2.30
  -1   2   8   11.66    1.63
   0   2   8   19.66    2.07
  -1  -2  -8    6.62    1.08
   1   2   8    5.77    1.10
  -2  -2  -8    3.86    0.83
   2   2   8    3.70    0.96
  -3  -2  -8    3.82    0.56
  -3  -2  -8    6.02    1.09
   3   2   8    6.11    1.21
  -4  -2  -8    1.31    0.64
   4   2   8    1.01    0.67
  -5  -2  -8   11.64    1.61
   5   2   8    8.87    1.49
  -6  -2  -8   44.46    2.77
   6   2   8   36.70    2.69
  -7  -2  -8   42.61    2.91
   7   2   8   39.47    3.05
  -8  -2  -8   16.73    2.40
   8   2   8   27.24    3.04
  -9  -2  -8    9.58    2.07
   9   2   8    7.89    2.04
 -10  -2  -8    0.46    1.12
  10   2   8   -1.65    0.99
 -11  -2  -8    7.64    2.16
  11   2   8    6.60    2.20
 -12  -2  -8    2.86    1.65
  12   2   8    5.24    2.14
 -13  -2  -8    2.17    1.60
  13   2   8    4.15    2.27
  11  -3  -8    1.14    1.94
  10  -3  -8    5.90    2.38
   9  -3  -8    9.26    2.49
   8  -3  -8   16.71    2.93
   7  -3  -8   23.63    3.26
   6  -3  -8    8.91    2.00
   5  -3  -8    0.05    0.78
   4  -3  -8   18.28    2.04
   4  -3  -8   14.83    2.14
   3  -3  -8   48.71    2.69
   3  -3  -8   53.12    3.17
  -2   3   8   64.11    3.34
  -1   3   8  115.14    4.54
   0   3   8  111.73    4.31
  -1  -3  -8   25.56    1.50
   1   3   8   26.33    1.94
  -2  -3  -8    2.16    0.67
   2   3   8    3.43    0.98
  -3  -3  -8    0.47    0.48
   3   3   8    0.95    0.63
  -4  -3  -8   11.38    1.49
   4   3   8   10.62    1.60
  -5  -3  -8   47.22    2.60
   5   3   8   39.22    2.66
  -6  -3  -8   91.50    4.05
   6   3   8   92.59    4.30
  -7  -3  -8   60.42    3.40
   7   3   8   56.47    3.47
  -8  -3  -8   20.38    2.68
   8   3   8   17.00    2.56
  -9  -3  -8    0.66    1.12
   9   3   8   -0.10    1.11
 -10  -3  -8    3.23    1.57
  10   3   8    1.21    1.46
 -11  -3  -8    3.44    1.61
  11   3   8    6.74    2.12
 -12  -3  -8    2.98    1.70
  12   3   8    2.42    1.87
  13   3   8    0.27    1.81
  11  -4  -8   -0.95    1.87
  10  -4  -8    1.93    1.82
   9  -4  -8   -0.77    1.26
   8  -4  -8    1.57    1.43
   7  -4  -8   -0.03    1.00
   6  -4  -8    5.28    1.66
   5  -4  -8   42.86    3.25
   4  -4  -8   59.85    3.61
   4  -4  -8   55.70    3.10
   3  -4  -8   77.52    3.54
  -2   4   8   58.08    3.22
  -2   4   8   48.09    3.05
  -1   4   8    1.81    0.99
  -1   4   8    1.57    0.86
   0  -4  -8    1.51    0.49
   0   4   8    1.98    0.86
   0   4   8    1.26    0.74
  -1  -4  -8    3.18    0.63
   1   4   8    3.97    0.92
   1   4   8    3.71    1.08
  -2  -4  -8   28.42    1.53
   2   4   8   26.19    2.08
   2   4   8   28.19    1.67
  -3  -4  -8   84.56    3.15
   3   4   8   87.32    3.81
  -4  -4  -8   57.48    2.62
   4   4   8   49.20    2.89
  -5  -4  -8   46.38    2.54
   5   4   8   49.23    2.99
  -6  -4  -8   58.23    3.08
   6   4   8   55.91    3.33
  -7  -4  -8    7.88    1.57
   7   4   8    7.59    1.68
  -8  -4  -8    3.44    1.27
   8   4   8    0.46    1.17
  -9  -4  -8    7.50    1.76
   9   4   8    8.07    1.99
 -10  -4  -8    4.01    1.61
  10   4   8    5.77    1.81
 -11  -4  -8    4.55    1.61
  11   4   8    3.93    1.77
  12   4   8    2.82    1.78
  13   4   8   -0.21    1.49
  14   4   8    0.48    1.94
  10  -5  -8   -1.50    1.50
   9  -5  -8    2.32    1.86
   8  -5  -8    1.46    1.37
   7  -5  -8   15.97    2.76
   6  -5  -8   15.15    2.57
   5  -5  -8    6.86    1.70
   4  -5  -8    0.60    0.81
   4  -5  -8   -0.89    0.54
  -4   5   8   -0.14    0.96
   3  -5  -8   15.07    1.85
  -3   5   8   14.13    2.25
  -2   5   8   23.33    2.63
  -2   5   8   27.10    2.86
  -1   5   8   84.02    3.95
  -1   5   8   84.65    4.02
   0  -5  -8   46.67    1.51
   0   5   8   50.19    2.78
   0   5   8   42.90    2.77
  -1  -5  -8  112.11    2.97
   1   5   8  107.42    4.40
   1   5   8   86.64    3.71
  -2  -5  -8    8.63    1.02
   2   5   8    7.86    1.23
   2   5   8    7.63    1.43
  -3  -5  -8    1.50    0.61
   3   5   8    1.55    0.61
   3   5   8    1.36    0.84
  -4  -5  -8    0.85    0.60
   4   5   8    0.39    0.44
   4   5   8    0.23    0.67
  -5  -5  -8    0.54    0.65
   5   5   8    0.57    0.76
  -6  -5  -8    0.27    0.59
   6   5   8    0.15    0.83
  -7  -5  -8   14.10    2.01
   7   5   8   23.77    2.83
  -8  -5  -8   26.29    2.73
   8   5   8   30.90    3.26
  -9  -5  -8   33.93    3.31
   9   5   8   25.03    3.15
 -10  -5  -8   22.12    3.02
  10   5   8   23.19    3.18
  11   5   8    4.15    1.73
  12   5   8    4.88    1.84
  13   5   8   -0.52    1.58
  14   5   8    0.64    1.84
  10  -6  -8    1.77    1.96
   9  -6  -8    6.21    2.24
   8  -6  -8    2.04    1.78
   7  -6  -8   -0.31    1.07
   6  -6  -8    0.11    1.07
  -6   6   8   -0.46    1.18
   5  -6  -8   -0.21    0.86
  -5   6   8   -0.53    1.01
   4  -6  -8   24.94    2.51
   4  -6  -8   26.66    3.12
  -4   6   8   30.71    3.52
   3  -6  -8   15.33    1.96
   3  -6  -8   21.21    2.68
  -3   6   8   19.26    2.57
  -2   6   8   13.69    2.14
  -2   6   8   13.96    2.27
  -1   6   8   73.19    3.87
  -1   6   8   78.20    3.95
   0   6   8   72.34    3.57
   0   6   8   67.12    3.63
   1   6   8    2.10    0.90
   1   6   8    4.89    1.14
  -2  -6  -8    6.48    0.82
   2   6   8    5.97    1.35
   2   6   8    4.03    1.03
  -3  -6  -8   13.60    1.35
   3   6   8   12.71    1.45
   3   6   8   16.24    2.05
  -4  -6  -8   46.25    2.29
   4   6   8   50.40    2.22
   4   6   8   48.34    3.01
  -5  -6  -8   88.32    3.56
   5   6   8   88.66    4.28
  -6  -6  -8   61.15    3.13
   6   6   8   70.28    3.88
  -7  -6  -8   20.60    2.31
   7   6   8   25.59    2.94
  -8  -6  -8   -0.18    0.72
   8   6   8   -1.09    0.82
   9   6   8    0.71    1.24
  10   6   8   -0.02    1.26
  11   6   8    0.16    1.39
  12   6   8    6.32    2.19
  13   6   8    0.49    1.57
  14   6   8    5.30    2.36
   9  -7  -8    7.45    2.61
   8  -7  -8    7.25    2.46
   7  -7  -8    0.17    1.27
  -7   7   8   -0.83    1.35
   6  -7  -8    0.96    1.19
  -6   7   8   -0.33    1.49
   5  -7  -8   15.02    2.55
  -5   7   8   15.40    2.85
   4  -7  -8   13.91    2.08
   4  -7  -8   21.81    2.93
  -4   7   8   16.52    2.76
   3  -7  -8   16.40    2.40
   3  -7  -8   20.87    2.37
  -3   7   8   16.79    2.66
  -2   7   8   -0.84    0.88
  -2   7   8    0.32    1.03
  -1   7   8    5.09    1.43
  -1   7   8    3.99    1.35
   0   7   8   19.99    2.45
   0   7   8   19.49    2.45
   1   7   8   20.68    2.49
   1   7   8   25.47    2.12
   2   7   8    2.72    0.95
   2   7   8    2.07    1.08
   3   7   8    9.52    1.80
   3   7   8   13.10    1.66
   4   7   8   72.60    3.88
   4   7   8   77.66    3.17
   5   7   8   54.93    3.37
   6   7   8   21.96    2.60
   7   7   8    0.29    1.09
   8   7   8   15.02    2.32
   9   7   8   28.47    3.33
  10   7   8   12.10    2.40
  11   7   8   -0.18    1.21
  12   7   8    1.69    1.70
  13   7   8    0.62    1.74
  14   7   8    1.10    1.92
   8  -8  -8    0.90    1.82
   7  -8  -8   -0.35    1.25
  -7   8   8    0.56    1.71
   6  -8  -8    3.97    1.78
  -6   8   8    5.14    2.02
   5  -8  -8   19.30    2.85
  -5   8   8   14.34    2.89
   4  -8  -8    9.19    1.63
   4  -8  -8   12.10    2.26
  -4   8   8   12.71    2.57
   3  -8  -8   40.58    3.88
   3  -8  -8   37.34    3.27
  -3   8   8   35.36    3.96
  -2   8   8   13.15    2.32
  -2   8   8   12.87    2.37
  -1   8   8    0.72    1.12
  -1   8   8    0.92    1.13
   0   8   8   -0.52    0.87
   0   8   8    2.93    1.23
   1   8   8    2.68    1.16
   1   8   8    3.27    1.25
   2   8   8    0.13    0.84
   2   8   8    0.64    0.89
   3   8   8    1.37    1.11
   3   8   8    0.02    0.54
   4   8   8   10.31    1.82
   4   8   8   12.39    1.78
   5   8   8   24.10    1.94
   5   8   8   28.61    3.08
   6   8   8   20.98    2.64
   7   8   8    0.11    0.98
   8   8   8    8.46    2.08
   9   8   8    6.54    1.78
  10   8   8    6.56    2.00
  11   8   8    3.84    1.81
  12   8   8   -1.68    1.27
  13   8   8   -0.07    1.41
  14   8   8   -0.67    1.63
   8  -9  -8   -1.30    1.71
  -8   9   8   -0.15    2.16
   7  -9  -8    2.36    1.80
  -7   9   8   -0.32    1.64
   6  -9  -8    3.85    1.94
  -6   9   8    6.26    2.34
   5  -9  -8    6.75    1.98
  -5   9   8    8.42    2.48
   4  -9  -8    4.62    1.47
   4  -9  -8    6.77    1.57
  -4   9   8    7.59    2.23
   3  -9  -8    1.80    1.13
   3  -9  -8    2.58    1.37
  -3   9   8    1.17    1.41
  -2   9   8    1.52    1.37
  -2   9   8    1.15    1.33
  -1   9   8    7.97    1.82
  -1   9   8    6.39    1.83
   0   9   8   36.39    3.64
   0   9   8   27.45    3.33
   1   9   8   23.20    2.90
   1   9   8   17.95    2.53
   2   9   8    4.07    1.42
   2   9   8    2.46    1.31
   3   9   8   14.88    2.12
   3   9   8   16.01    2.43
   4   9   8    3.21    1.18
   4   9   8    3.88    1.40
   5   9   8   -0.11    0.75
   5   9   8    1.72    1.16
   6   9   8    1.21    1.17
   7   9   8    3.07    1.37
   8   9   8    6.36    1.77
   9   9   8    3.15    1.65
  10   9   8   15.36    2.69
  11   9   8    6.93    2.25
  12   9   8    1.18    1.54
  13   9   8    1.24    1.70
  14   9   8    3.72    2.17
   7 -10  -8    0.06    1.65
  -7  10   8   -0.47    2.11
   6 -10  -8   -2.08    1.49
  -6  10   8   -0.58    1.91
   5 -10  -8   -0.37    1.25
  -5  10   8    0.47    1.67
   4 -10  -8    1.72    1.33
   4 -10  -8    3.41    1.38
  -4  10   8    0.39    1.54
   3 -10  -8    6.98    1.97
   3 -10  -8    3.49    1.37
  -3  10   8    3.09    1.95
  -2  10   8   14.94    2.79
  -1  10   8   26.81    3.41
  -1  10   8   29.57    3.51
   0  10   8   41.82    3.52
   0  10   8   43.65    4.12
   1  10   8   23.81    2.98
   1  10   8   18.93    2.69
   2  10   8   -0.16    0.90
   2  10   8    0.00    1.24
   3  10   8    7.07    1.83
   3  10   8    2.39    1.36
   4  10   8   25.66    2.85
   4  10   8   27.60    3.18
   5  10   8   42.30    3.37
   5  10   8   45.27    3.03
   6  10   8   20.57    2.78
   7  10   8    6.82    1.83
   8  10   8    4.02    1.61
   9  10   8   -0.16    1.15
  10  10   8   -0.75    1.25
  11  10   8    0.84    1.46
  12  10   8    2.17    1.71
  13  10   8   -0.38    1.65
  -6  11   8   -1.97    2.10
   5 -11  -8    5.13    2.17
  -5  11   8    2.94    2.27
   4 -11  -8    7.75    2.20
  -4  11   8    9.23    2.76
   3 -11  -8   18.02    2.90
   3 -11  -8   15.03    2.40
  -3  11   8   16.83    3.34
   2 -11  -8    6.20    1.91
   2 -11  -8    7.89    1.73
  -2  11   8    3.80    1.87
  -1  11   8   -1.14    1.23
  -1  11   8    0.81    1.31
   0  11   8    0.59    1.09
   0  11   8    0.87    1.45
   1  11   8    9.44    2.29
   1  11   8    7.72    1.99
   2  11   8   12.94    2.36
   2  11   8   24.15    3.09
   3  11   8   42.10    4.04
   3  11   8   36.60    3.72
   4  11   8   28.48    3.23
   4  11   8   33.85    3.54
   5  11   8   47.38    3.59
   5  11   8   39.50    3.15
   6  11   8    4.65    1.71
   7  11   8   -0.65    1.01
   8  11   8    2.92    1.58
   9  11   8    4.85    1.76
  10  11   8    6.34    2.13
  11  11   8    7.14    2.49
  12  11   8    8.87    2.52
  13  11   8    1.68    1.89
  -5  12   8    0.05    2.16
  -4  12   8   -0.28    1.93
  -3  12   8    2.60    2.00
   2 -12  -8    0.25    1.17
   2 -12  -8    1.14    1.26
  -2  12   8   -1.44    1.60
  -1  12   8    1.11    1.54
  -1  12   8    0.00    1.60
   0  12   8   -2.24    1.47
   0  12   8    0.34    1.32
   1  12   8    7.76    2.03
   1  12   8    0.69    1.52
   2  12   8   18.19    2.80
   2  12   8   16.49    2.72
   3  12   8   10.75    2.52
   3  12   8   14.37    2.69
   4  12   8    1.41    1.49
   4  12   8    5.80    1.97
   5  12   8    0.15    1.22
   5  12   8   -1.33    0.99
   6  12   8    7.18    2.10
   7  12   8   10.28    2.27
   8  12   8    6.20    1.83
   9  12   8    7.76    2.06
  10  12   8    6.03    2.07
  11  12   8    4.14    2.00
  12  12   8    1.88    1.97
  -3  13   8   -0.97    2.00
  -2  13   8   -0.01    1.70
  -1  13   8    0.96    1.68
   0  13   8    0.20    1.91
   1  13   8   -0.28    1.48
   2  13   8   -1.25    1.18
   2  13   8    1.10    1.49
   3  13   8    1.26    1.51
   3  13   8    0.56    1.74
   4  13   8   -2.21    1.29
   4  13   8   -0.38    1.38
   5  13   8    3.15    1.64
   5  13   8    9.95    2.38
   6  13   8    3.53    1.76
   7  13   8    9.09    2.29
   8  13   8   10.61    2.39
   9  13   8    1.45    1.63
  10  13   8   -1.02    1.47
  11  13   8   -1.74    1.62
  12  13   8    0.75    2.03
  -2  14   8    4.04    2.36
  -1  14   8    2.64    2.23
   0  14   8   -0.66    1.97
   1  14   8    3.53    2.27
   2  14   8   -0.17    1.56
   3  14   8   -2.14    1.66
   4  14   8    1.49    1.97
   5  14   8   -0.57    1.57
   7  14   8    2.53    1.84
   8  14   8    2.86    1.90
   9  14   8    0.81    1.74
  10  14   8   -1.42    1.59
  11  14   8    0.41    1.76
   0  15   8    2.34    2.47
   1  15   8    3.86    2.35
   2  15   8   19.64    3.67
   3  15   8    8.13    2.85
   4  15   8    2.17    1.97
   5  15   8    2.15    2.11
   4  16   8   -0.35    2.60
   5  16   8   -0.11    2.25
   7  11  -9    0.09    2.13
   6  11  -9    0.95    2.17
   5  11  -9    1.64    1.91
   4  11  -9   -0.12    1.65
   3  11  -9    1.62    1.83
   2  11  -9    4.25    2.20
   1  11  -9    3.92    2.04
   0  11  -9    3.58    2.01
   0  11  -9    1.08    1.75
  -1  11  -9   -0.65    1.91
  -1  11  -9   -0.57    1.48
   9  10  -9    3.41    2.47
   8  10  -9    0.08    1.94
   7  10  -9   -0.27    1.58
   6  10  -9   -1.17    1.59
   5  10  -9    0.68    1.55
   4  10  -9    0.75    1.74
   3  10  -9    0.00    1.49
   2  10  -9    1.90    1.64
   1  10  -9    3.78    1.96
   0  10  -9    0.44    1.57
  -1  10  -9   -0.76    1.42
  -1  10  -9   -0.54    1.31
  -2  10  -9    1.33    1.78
  -2  10  -9    2.21    1.70
  -3  10  -9    4.52    1.99
  10   9  -9   10.83    3.27
   9   9  -9    5.23    2.53
   8   9  -9    4.93    2.31
   7   9  -9    0.92    1.65
   6   9  -9    0.33    1.64
   5   9  -9    2.11    1.74
   4   9  -9    5.64    2.09
   3   9  -9    3.82    1.86
   2   9  -9    4.45    1.85
   1   9  -9    4.62    1.87
   0   9  -9    1.71    1.49
  -1   9  -9   -0.08    1.21
  -1   9  -9    1.10    1.55
  -2   9  -9    3.20    1.89
  -2   9  -9    3.00    1.54
  -3   9  -9    5.58    2.18
  -4   9  -9    5.69    2.21
  -5   9  -9    2.42    1.82
  10   8  -9    5.92    2.72
   9   8  -9    2.12    2.24
   8   8  -9    0.10    1.59
   7   8  -9    8.87    2.58
   6   8  -9   19.67    3.32
   5   8  -9   14.83    2.79
   4   8  -9   12.65    2.68
   3   8  -9    3.69    1.83
   2   8  -9    0.23    1.24
   1   8  -9    1.35    1.18
   0   8  -9    2.82    1.59
  -1   8  -9    7.95    1.99
  -2   8  -9    2.39    1.52
  -2   8  -9    2.18    1.45
  -3   8  -9   11.94    2.43
  -3   8  -9   12.23    2.54
  -4   8  -9    2.80    1.51
  -5   8  -9    1.32    1.60
  -6   8  -9    0.11    1.64
  11   7  -9    0.39    2.16
  10   7  -9    0.73    2.00
   9   7  -9    4.70    2.25
   8   7  -9   16.84    3.34
   7   7  -9    4.24    1.89
   6   7  -9   13.34    2.74
   5   7  -9    0.25    1.07
   4   7  -9    1.64    1.33
   3   7  -9    3.17    1.50
   2   7  -9    3.10    1.48
   1   7  -9    8.17    1.99
   0   7  -9    9.48    2.08
  -1   7  -9   12.25    2.31
  -2   7  -9    0.07    1.22
  -2   7  -9    1.97    1.50
  -3   7  -9   -1.35    1.13
  -3   7  -9    0.04    1.06
  -4   7  -9    2.11    1.24
  -5   7  -9   -0.49    1.10
  -6   7  -9    2.30    1.82
  -7   7  -9   -0.07    1.52
  11   6  -9    4.49    2.28
  10   6  -9    4.42    2.24
   9   6  -9    3.92    2.11
   8   6  -9    6.43    2.17
   7   6  -9    1.04    1.21
   6   6  -9   -0.71    0.98
   5   6  -9    4.95    1.70
   4   6  -9   17.75    2.79
   3   6  -9   31.97    3.56
   2   6  -9   22.06    3.03
   1   6  -9    0.61    0.97
   0   6  -9    9.10    1.95
  -1   6  -9    6.59    1.65
  -2   6  -9   16.38    2.63
  -2   6  -9   15.30    2.37
  -3   6  -9   16.28    2.84
  -3   6  -9    9.33    2.05
  -4   6  -9    5.17    1.75
  -5   6  -9    5.07    1.72
  -6   6  -9    2.19    1.41
  -7   6  -9   -0.15    1.40
  -8   6  -9    1.04    1.62
  12   5  -9   10.34    3.36
  11   5  -9    6.53    2.68
  10   5  -9    1.69    1.81
   9   5  -9    1.45    1.69
   8   5  -9    1.71    1.35
   7   5  -9    2.16    1.48
   6   5  -9    5.68    1.78
   5   5  -9    2.98    1.40
   4   5  -9   15.56    2.48
   3   5  -9   19.97    2.86
   2   5  -9    1.55    1.01
   1   5  -9    2.60    1.18
   0   5  -9   46.44    3.40
  -1   5  -9   61.61    3.79
  -2   5  -9   29.89    3.08
  -2   5  -9   27.51    2.99
  -3   5  -9   12.43    2.39
  -3   5  -9    9.53    1.86
  -4   5  -9    2.90    1.27
  -5   5  -9    0.02    1.16
  -6   5  -9    3.05    1.50
  -7   5  -9   -0.72    1.24
  -8   5  -9    2.42    1.63
  -9   5  -9    7.56    2.48
  12   4  -9    1.88    1.90
  11   4  -9    4.99    2.18
  10   4  -9    2.34    1.60
   9   4  -9    0.86    1.29
   8   4  -9    8.24    2.02
   8   4  -9    9.50    2.39
   7   4  -9   10.55    2.07
   7   4  -9   10.46    2.29
   6   4  -9    4.65    1.54
   6   4  -9    8.42    1.96
   5   4  -9    2.90    1.30
   4   4  -9    8.69    1.95
   3   4  -9   10.62    2.06
   2   4  -9   21.01    2.77
   1   4  -9    1.58    0.85
   0   4  -9   14.16    2.08
  -1   4  -9   38.32    2.84
  -2   4  -9   28.86    3.02
  -2   4  -9   30.34    2.48
  -3   4  -9    5.70    1.35
  -3   4  -9    3.99    1.26
  -4   4  -9    1.61    1.11
  -5   4  -9    1.97    1.16
  -6   4  -9    2.51    1.39
  -7   4  -9    0.38    1.28
  -8   4  -9   -0.97    1.16
  -9   4  -9    2.48    1.59
 -10   4  -9    0.27    1.66
  12   3  -9   -0.13    1.76
  11   3  -9    1.56    1.57
  10   3  -9    1.07    1.63
   9   3  -9    7.88    2.18
   8   3  -9   16.71    2.73
   7   3  -9   22.91    2.93
   6   3  -9   10.38    1.90
   5   3  -9    2.00    1.00
   4   3  -9    0.61    0.81
   4   3  -9   -0.44    0.51
   3   3  -9    1.49    0.75
   3   3  -9    3.28    1.20
   2   3  -9    0.56    0.68
   1   3  -9    0.04    0.66
   0   3  -9    0.00    0.57
  -1   3  -9    6.63    1.42
  -2   3  -9   31.13    2.35
  -2   3  -9   34.97    2.61
  -3   3  -9   28.70    3.03
  -3   3  -9   28.45    2.23
  -4   3  -9    2.98    1.19
  -5   3  -9    1.48    1.02
  -6   3  -9   15.41    2.57
  -7   3  -9    7.52    1.96
  -8   3  -9    0.84    1.38
  -9   3  -9    2.06    1.48
 -10   3  -9   -0.55    1.36
  12   2  -9    1.87    1.90
  11   2  -9   -1.01    1.46
  10   2  -9   -0.57    1.40
   9   2  -9    5.03    1.94
   8   2  -9    2.48    1.34
   7   2  -9    1.03    1.00
   6   2  -9    0.26    0.79
   5   2  -9   13.94    2.08
   4   2  -9   42.97    2.72
   3   2  -9   81.82    3.55
   2   2  -9   59.60    2.77
   2   2  -9   56.84    2.41
   2   2  -9   53.47    3.25
   1   2  -9    0.80    0.68
  -1  -2   9    0.57    0.58
   0   2  -9    1.80    0.82
   0  -2   9    0.04    0.47
  -1   2  -9    7.09    1.29
   1  -2   9    7.75    1.12
  -2   2  -9    1.52    0.77
  -2   2  -9    3.24    1.04
   2  -2   9    2.91    1.14
  -3   2  -9    1.39    0.88
  -3   2  -9    0.77    0.61
  -4   2  -9    5.81    1.41
  -5   2  -9   15.94    2.27
  -6   2  -9   16.10    2.42
  -7   2  -9   10.35    2.12
  -8   2  -9    2.19    1.55
  -9   2  -9    1.76    1.37
 -10   2  -9    1.94    1.57
 -11   2  -9    2.05    1.86
  12   1  -9   -0.01    1.73
  11   1  -9    1.10    2.02
  10   1  -9    0.16    1.31
   9   1  -9    3.65    1.57
   8   1  -9   -0.37    0.80
   7   1  -9   18.99    2.76
   6   1  -9   26.76    3.22
   5   1  -9   31.67    2.60
   4   1  -9   37.53    2.58
   3   1  -9   40.89    2.24
   3   1  -9   51.22    2.79
   2   1  -9   20.62    1.84
   2   1  -9   19.97    2.05
   1   1  -9   24.32    2.62
  -1  -1   9   18.62    1.54
   0   1  -9   52.92    2.87
   0  -1   9   49.06    2.39
  -1   1  -9   79.57    3.53
   1  -1   9   83.53    3.15
  -2   1  -9  121.72    4.36
  -2   1  -9  124.66    4.86
   2  -1   9  129.76    4.23
  -3   1  -9   42.87    2.78
  -3   1  -9   38.20    2.13
   3  -1   9   38.74    2.20
  -4   1  -9   16.26    2.16
   4  -1   9   16.89    1.85
  -5   1  -9    0.51    0.82
   5  -1   9    0.70    0.73
  -6   1  -9    1.31    0.91
   6  -1   9   -0.09    0.75
  -7   1  -9    2.20    1.13
   7  -1   9   -0.50    0.90
  -8   1  -9    8.32    2.07
  -9   1  -9    9.90    2.35
 -10   1  -9    3.65    1.68
 -11   1  -9    6.19    2.22
 -12   1  -9    1.89    1.98
  12   0  -9    2.16    2.22
  11   0  -9    0.98    1.80
  10   0  -9   -0.42    1.44
   9   0  -9    1.59    1.37
   8   0  -9    3.07    1.62
   7   0  -9   18.88    2.97
   6   0  -9   14.90    2.49
   5   0  -9   30.06    3.35
   4   0  -9    8.06    1.57
   3   0  -9   14.55    1.71
   3   0  -9   15.53    2.00
  -2   0   9    8.61    1.48
  -1   0   9   56.13    2.75
   0   0   9   47.45    2.43
  -1   0  -9   82.87    3.41
   1   0   9   81.44    3.28
  -2   0  -9  169.63    5.82
  -2   0  -9  175.07    5.30
   2   0   9  179.35    5.49
  -3   0  -9   15.83    2.05
  -3   0  -9   13.96    1.36
   3   0   9   17.84    1.87
  -4   0  -9   10.49    1.62
   4   0   9   11.54    1.61
  -5   0  -9   19.93    2.38
  -6   0  -9   49.54    3.27
   6   0   9   52.06    3.11
  -7   0  -9   43.11    3.18
   7   0   9   42.80    3.06
  -8   0  -9   10.10    2.01
   8   0   9    9.67    2.03
  -9   0  -9   11.92    2.30
   9   0   9   10.74    2.23
 -10   0  -9    4.61    1.82
  10   0   9    1.69    1.67
 -11   0  -9    0.79    1.59
  11   0   9    0.49    1.69
 -12   0  -9    0.53    1.56
  11  -1  -9   -0.49    1.49
  10  -1  -9    2.17    1.82
   9  -1  -9    9.02    2.35
   8  -1  -9    2.60    1.45
   7  -1  -9    1.73    1.30
   6  -1  -9    4.37    1.56
   5  -1  -9   10.59    2.00
   4  -1  -9   -0.36    0.53
   4  -1  -9   -0.38    0.43
   3  -1  -9   15.31    2.09
   3  -1  -9   15.83    1.82
  -2   1   9    9.06    1.56
  -1   1   9   35.82    2.26
   0   1   9   31.17    2.06
   1   1   9    5.35    1.19
  -2  -1  -9    1.33    0.68
  -2  -1  -9    1.96    0.60
   2   1   9    1.08    0.69
  -3  -1  -9    0.33    0.51
  -3  -1  -9    0.13    0.38
   3   1   9    0.79    0.61
  -4  -1  -9   28.57    2.14
   4   1   9   27.25    2.11
  -5  -1  -9    8.89    1.63
   5   1   9   12.64    1.86
  -6  -1  -9   12.91    2.05
   6   1   9   10.89    1.90
  -7  -1  -9    4.70    1.45
   7   1   9    4.41    1.41
  -8  -1  -9    3.45    1.30
   8   1   9    1.46    1.34
  -9  -1  -9    3.04    1.35
   9   1   9    3.50    1.61
 -10  -1  -9    0.14    1.19
  10   1   9    0.65    1.41
 -11  -1  -9    1.48    1.48
  11   1   9    3.68    1.90
 -12  -1  -9    4.06    2.01
  12   1   9    3.76    2.06
 -13  -1  -9    3.77    2.09
  11  -2  -9    0.48    1.89
  10  -2  -9    6.04    2.49
   9  -2  -9   10.29    2.45
   8  -2  -9    0.41    1.18
   7  -2  -9   -0.39    0.90
   6  -2  -9    0.48    1.04
   5  -2  -9    0.63    0.82
   4  -2  -9    0.36    0.52
   4  -2  -9    0.68    0.68
   3  -2  -9    7.45    1.49
   3  -2  -9    4.98    1.03
  -2   2   9   47.67    2.87
  -1   2   9   37.25    2.40
   0   2   9   23.83    1.88
  -1  -2  -9    1.11    0.55
   1   2   9   -0.05    0.55
  -2  -2  -9   16.25    1.75
   2   2   9   19.30    2.05
  -3  -2  -9   12.83    0.97
  -3  -2  -9   13.77    1.66
   3   2   9   12.16    1.72
  -4  -2  -9   45.38    2.63
   4   2   9   48.31    2.82
  -5  -2  -9    7.49    1.42
   5   2   9    7.94    1.57
  -6  -2  -9   -0.70    0.64
   6   2   9   -0.48    0.72
  -7  -2  -9    1.77    1.04
   7   2   9    1.22    1.06
  -8  -2  -9    3.32    1.31
   8   2   9    3.49    1.48
  -9  -2  -9    4.84    1.67
   9   2   9    4.22    1.71
 -10  -2  -9   -0.52    1.20
  10   2   9    2.95    1.48
 -11  -2  -9    0.59    1.26
  11   2   9    0.64    1.57
 -12  -2  -9    0.82    1.39
  12   2   9   -1.14    1.65
 -13  -2  -9    2.26    2.06
  13   2   9    3.55    2.32
  11  -3  -9    0.79    2.01
  10  -3  -9   -0.01    1.44
   9  -3  -9   -0.93    1.32
   8  -3  -9   -0.17    1.41
   7  -3  -9   22.90    3.25
   6  -3  -9   60.74    4.16
   5  -3  -9   73.82    4.30
   4  -3  -9   32.77    3.27
   4  -3  -9   34.70    2.89
   3  -3  -9    3.11    0.90
  -2   3   9   12.82    1.94
  -1   3   9    4.68    1.20
   0   3   9   32.58    2.28
  -1  -3  -9   49.33    2.29
   1   3   9   46.12    2.71
  -2  -3  -9   43.93    2.21
   2   3   9   47.15    2.74
  -3  -3  -9   24.42    1.74
   3   3   9   27.59    2.15
  -4  -3  -9    4.60    1.06
   4   3   9    3.97    1.14
  -5  -3  -9    0.06    0.51
   5   3   9    0.60    0.86
  -6  -3  -9    1.10    0.76
   6   3   9    2.42    1.14
  -7  -3  -9    3.62    1.34
   7   3   9    3.17    1.35
  -8  -3  -9    7.99    1.86
   8   3   9    7.26    1.80
  -9  -3  -9    1.53    1.31
   9   3   9    0.30    1.25
 -10  -3  -9    0.32    1.09
  10   3   9    1.13    1.46
 -11  -3  -9   -0.04    1.17
  11   3   9    1.22    1.47
 -12  -3  -9    0.99    1.47
  12   3   9    2.26    1.71
 -13  -3  -9    1.55    1.52
  13   3   9    1.58    1.76
  10  -4  -9    3.25    1.97
   9  -4  -9    0.39    1.52
   8  -4  -9    6.22    2.12
   7  -4  -9   27.45    3.55
   6  -4  -9   30.83    3.58
   5  -4  -9   85.01    4.69
   5  -4  -9   85.28    4.15
   4  -4  -9    2.08    1.06
   4  -4  -9    1.35    0.85
  -2   4   9   95.12    4.44
  -1   4   9  135.24    5.34
   0  -4  -9   95.26    3.13
   0   4   9  101.86    4.38
  -1  -4  -9   13.21    1.29
   1   4   9   14.39    1.92
  -2  -4  -9   49.93    2.26
   2   4   9   50.57    2.94
  -3  -4  -9   -0.65    0.34
   3   4   9    0.29    0.71
  -4  -4  -9    0.49    0.62
   4   4   9    0.38    0.74
  -5  -4  -9    1.20    0.68
   5   4   9   -0.43    0.77
  -6  -4  -9    1.86    0.90
   6   4   9   -0.32    0.88
  -7  -4  -9   17.42    2.40
   7   4   9   17.28    2.48
  -8  -4  -9   42.90    3.15
   8   4   9   48.20    3.49
  -9  -4  -9   17.60    2.71
   9   4   9   18.28    2.69
 -10  -4  -9    2.69    1.50
  10   4   9   -0.96    1.33
 -11  -4  -9   -0.81    1.07
  11   4   9   -0.37    1.19
 -12  -4  -9    5.87    1.86
  12   4   9    7.05    2.42
  13   4   9    7.72    2.52
  10  -5  -9    2.35    1.87
   9  -5  -9    2.45    1.96
   8  -5  -9    0.99    1.39
   7  -5  -9    1.49    1.46
   6  -5  -9   -0.10    0.93
   5  -5  -9   10.61    2.07
   5  -5  -9   17.20    2.24
   4  -5  -9    0.40    0.65
   4  -5  -9    0.08    0.71
  -3   5   9   11.83    2.13
  -2   5   9   69.50    3.88
  -2   5   9   74.62    4.05
  -1   5   9   99.94    4.54
  -1   5   9   92.14    4.37
   0   5   9   76.45    3.92
   0   5   9   82.88    3.82
  -1  -5  -9    0.42    0.41
   1   5   9   -0.05    0.45
   1   5   9    0.86    0.81
  -2  -5  -9   20.15    1.33
   2   5   9   22.55    1.71
   2   5   9   22.16    2.42
  -3  -5  -9   83.10    3.09
   3   5   9   81.43    3.06
   3   5   9   79.25    3.90
  -4  -5  -9   72.16    3.06
   4   5   9   69.20    3.65
  -5  -5  -9   61.45    2.99
   5   5   9   58.15    3.44
  -6  -5  -9   22.05    2.42
   6   5   9   19.09    2.54
  -7  -5  -9    1.24    0.92
   7   5   9   -0.91    0.91
  -8  -5  -9    8.61    1.67
   8   5   9    9.65    2.11
  -9  -5  -9    1.28    1.09
   9   5   9    0.27    1.12
 -10  -5  -9   -0.07    1.06
  10   5   9    0.13    1.07
 -11  -5  -9    0.70    1.14
  11   5   9   -0.40    1.36
  12   5   9    8.82    2.66
  13   5   9   12.81    3.00
   9  -6  -9   -0.07    1.68
   8  -6  -9   -0.01    1.54
   7  -6  -9   -1.07    1.13
   6  -6  -9    3.99    1.55
   5  -6  -9    2.11    1.00
   5  -6  -9    5.21    1.56
  -5   6   9    1.39    1.37
   4  -6  -9    0.82    0.93
   4  -6  -9    0.21    0.72
  -4   6   9    0.72    1.20
  -3   6   9   -0.06    0.99
  -2   6   9   -0.43    0.77
  -2   6   9    0.61    0.89
  -1   6   9    8.21    1.68
  -1   6   9   10.79    2.02
   0   6   9    4.01    1.33
   0   6   9    0.80    0.90
   1   6   9   30.14    2.89
   1   6   9   26.89    2.18
  -2  -6  -9   39.12    1.77
   2   6   9   45.75    2.96
   2   6   9   40.17    2.46
  -3  -6  -9   17.71    1.36
   3   6   9   21.88    1.70
   3   6   9   25.28    2.63
  -4  -6  -9   21.59    1.61
   4   6   9   20.85    1.58
   4   6   9   23.33    2.62
  -5  -6  -9   12.76    1.66
   5   6   9   13.29    2.03
  -6  -6  -9    5.63    1.31
   6   6   9    7.13    1.67
  -7  -6  -9   14.46    1.99
   7   6   9   12.19    2.23
  -8  -6  -9    2.08    1.23
   8   6   9    3.37    1.41
  -9  -6  -9    5.75    1.52
   9   6   9    2.43    1.45
 -10  -6  -9    4.28    1.54
  10   6   9    3.55    1.60
  11   6   9    1.22    1.30
  12   6   9    0.86    1.49
  13   6   9    1.10    2.02
  14   6   9   -1.24    2.01
   9  -7  -9    0.31    1.80
   8  -7  -9   -1.89    1.30
   7  -7  -9    3.13    1.80
   6  -7  -9    6.13    1.91
  -6   7   9    8.23    2.36
   5  -7  -9   10.93    2.31
   5  -7  -9    7.98    1.69
  -5   7   9   15.77    2.85
   4  -7  -9    8.22    1.70
   4  -7  -9   17.15    2.70
  -4   7   9    6.03    1.91
   3  -7  -9   -0.69    0.68
   3  -7  -9    0.38    0.75
  -3   7   9   -0.12    1.23
  -2   7   9   14.53    2.44
  -2   7   9   13.63    2.38
  -1   7   9    1.30    1.05
  -1   7   9   -0.24    0.81
   0   7   9    7.96    1.74
   0   7   9    4.24    1.39
   1   7   9    1.94    0.99
   1   7   9    4.18    1.36
   2   7   9   -0.08    0.73
   2   7   9   -0.12    0.56
   3   7   9    0.17    0.61
   3   7   9   -1.05    0.74
  -4  -7  -9    1.28    0.68
   4   7   9    0.18    0.64
   4   7   9   -1.16    0.72
  -5  -7  -9    0.79    0.71
   5   7   9    0.11    0.89
  -6  -7  -9    0.69    0.77
   6   7   9   -0.56    0.80
   7   7   9   12.29    2.19
   8   7   9    6.38    1.81
   9   7   9    4.53    1.61
  10   7   9    1.28    1.39
  11   7   9    0.96    1.49
  12   7   9    0.14    1.51
  13   7   9   -0.08    1.39
  14   7   9    0.85    1.68
   8  -8  -9    1.08    1.94
   7  -8  -9   11.68    2.78
  -7   8   9   11.19    2.94
   6  -8  -9   12.83    2.78
  -6   8   9   10.27    2.78
   5  -8  -9    7.73    2.06
  -5   8   9    6.90    2.34
   4  -8  -9    0.66    1.03
   4  -8  -9   -1.23    0.81
  -4   8   9    0.84    1.46
   3  -8  -9   -0.17    0.66
   3  -8  -9    0.88    1.03
  -3   8   9    2.80    1.56
  -2   8   9   35.96    3.66
  -2   8   9   33.61    3.80
  -1   8   9   29.40    3.37
  -1   8   9   28.60    3.27
   0   8   9    2.08    1.20
   0   8   9    1.46    1.17
   1   8   9   -0.20    1.01
   1   8   9    1.33    1.16
   2   8   9    1.23    1.09
   2   8   9    2.66    1.11
   3   8   9    0.15    0.89
   3   8   9    1.24    0.85
   4   8   9   -0.46    0.76
   4   8   9    1.03    0.94
   5   8   9    6.41    1.66
   6   8   9    5.48    1.64
   7   8   9    3.20    1.48
   8   8   9   12.62    2.27
   9   8   9    1.64    1.33
  10   8   9    0.00    1.10
  11   8   9   -0.30    1.34
  12   8   9    3.04    1.68
  13   8   9    4.86    2.00
   7  -9  -9    5.14    2.13
  -7   9   9    4.64    2.63
   6  -9  -9    0.55    1.64
  -6   9   9    0.06    1.83
   5  -9  -9    1.42    1.33
  -5   9   9   -0.07    1.68
   4  -9  -9   13.04    2.50
   4  -9  -9    9.28    1.79
  -4   9   9   11.99    2.68
   3  -9  -9    7.28    1.79
   3  -9  -9    5.31    1.54
  -3   9   9    8.95    2.38
  -2   9   9   42.91    4.53
  -2   9   9   38.33    4.00
  -1   9   9   47.95    3.57
  -1   9   9   44.10    3.71
   0   9   9    4.55    1.73
   0   9   9    3.57    1.50
   1   9   9    0.03    0.97
   1   9   9   -0.27    1.01
   2   9   9    0.78    1.02
   2   9   9    0.04    0.90
   3   9   9    6.39    1.48
   3   9   9    6.17    1.63
   4   9   9   11.37    2.15
   4   9   9   13.59    2.02
   5   9   9   64.42    4.03
   6   9   9   53.45    3.75
   7   9   9   23.74    2.96
   8   9   9    1.46    1.31
   9   9   9   10.10    2.31
  10   9   9    8.59    2.19
  11   9   9    4.09    1.86
  12   9   9    1.34    1.61
  13   9   9    0.56    1.86
   6 -10  -9    1.81    1.79
  -6  10   9    2.47    2.38
   5 -10  -9    4.73    1.94
  -5  10   9    3.84    2.46
   4 -10  -9   13.88    2.62
   4 -10  -9   11.21    2.13
  -4  10   9   10.21    2.82
   3 -10  -9   14.62    2.60
   3 -10  -9   16.19    2.51
  -3  10   9   11.05    2.83
  -2  10   9    1.09    1.37
  -2  10   9    2.77    1.74
  -1  10   9    2.30    1.30
  -1  10   9   -1.76    1.14
   0  10   9    3.81    1.58
   0  10   9    6.52    1.89
   1  10   9   19.46    2.86
   1  10   9   26.82    3.17
   2  10   9   38.73    3.74
   2  10   9   45.14    3.59
   3  10   9   36.69    3.43
   3  10   9   32.97    3.45
   4  10   9    3.51    1.46
   4  10   9    0.67    0.77
   5  10   9   26.97    3.11
   6  10   9   10.79    2.23
   7  10   9    0.50    1.16
   8  10   9    2.11    1.33
   9  10   9    4.51    1.80
  10  10   9   20.85    3.22
  11  10   9   17.85    3.41
  12  10   9    6.79    2.36
  13  10   9    5.27    2.31
   5 -11  -9   -0.15    1.30
  -5  11   9   -0.19    2.18
   4 -11  -9    1.44    1.24
   4 -11  -9   -0.43    1.28
  -4  11   9    0.21    1.74
   3 -11  -9    0.43    1.26
   3 -11  -9    1.25    1.38
  -3  11   9   -0.17    1.63
   2 -11  -9    0.77    1.07
   2 -11  -9    1.88    1.18
  -2  11   9    4.54    2.05
  -1  11   9   -0.82    1.47
  -1  11   9   -0.40    1.42
   0  11   9   15.75    2.75
   0  11   9   14.52    2.61
   1  11   9   15.91    2.76
   1  11   9   16.88    2.80
   2  11   9   19.45    2.98
   2  11   9   20.97    3.01
   3  11   9   17.48    2.73
   3  11   9   16.16    2.72
   4  11   9    0.96    1.23
   4  11   9    1.19    1.34
   5  11   9   15.84    2.57
   6  11   9    9.17    2.09
   7  11   9   10.57    2.43
   8  11   9    3.25    1.53
   9  11   9    0.84    1.34
  10  11   9    5.88    2.16
  11  11   9    0.08    1.58
  12  11   9    1.19    1.96
  13  11   9    0.16    1.90
   4 -12  -9    1.99    1.98
  -4  12   9   -0.44    2.08
   3 -12  -9    1.22    1.45
   3 -12  -9    0.97    1.26
  -3  12   9    3.16    2.16
   2 -12  -9    1.15    1.40
   2 -12  -9    1.58    1.25
  -2  12   9   -1.44    1.76
  -1  12   9    1.72    1.72
  -1  12   9    1.14    1.66
   0  12   9    1.71    1.76
   0  12   9    0.96    1.34
   1  12   9    1.58    1.62
   1  12   9    0.98    1.45
   2  12   9    8.57    2.22
   2  12   9    3.23    1.67
   3  12   9    2.28    1.37
   3  12   9    2.76    1.53
   4  12   9    3.35    1.74
   4  12   9    1.03    1.58
   5  12   9   36.80    3.91
   6  12   9   24.08    3.19
   7  12   9    5.69    1.85
   8  12   9    1.60    1.53
   9  12   9    7.04    2.15
  10  12   9    9.63    2.56
  11  12   9    0.67    1.61
  12  12   9    0.45    1.72
  -3  13   9    3.95    2.70
  -2  13   9   -2.52    1.91
  -1  13   9    2.71    1.87
   0  13   9   -0.63    1.60
   0  13   9    0.24    1.63
   1  13   9   -0.03    1.59
   1  13   9    0.42    1.71
   2  13   9    1.09    1.64
   2  13   9    1.20    1.80
   3  13   9    3.42    1.80
   3  13   9    0.71    1.36
   4  13   9    9.67    2.68
   4  13   9   12.43    2.49
   5  13   9    8.34    2.25
   6  13   9   10.46    2.40
   7  13   9    0.84    1.46
   8  13   9    3.10    1.89
   9  13   9   11.61    2.84
  10  13   9    7.73    2.28
  11  13   9    2.98    2.00
  -1  14   9    1.08    2.16
   0  14   9    3.34    2.24
   1  14   9   12.75    2.93
   2  14   9    9.16    2.79
   3  14   9    8.91    2.55
   4  14   9    4.23    2.24
   4  14   9    6.85    2.32
   5  14   9    1.29    1.64
   6  14   9   -0.78    1.56
   7  14   9   -0.31    1.60
   8  14   9    1.27    1.62
   9  14   9    2.42    1.98
  10  14   9    3.63    2.11
  11  14   9    4.65    2.09
   1  15   9    4.50    2.68
   2  15   9    9.21    2.99
   3  15   9   10.40    2.97
   4  15   9   -0.55    1.93
   5  11 -10   -0.07    1.90
   4  11 -10   -0.54    1.92
   3  11 -10    2.75    2.16
   2  11 -10    1.32    1.95
   1  11 -10    1.79    1.90
   7  10 -10    1.25    2.32
   6  10 -10   -0.83    1.69
   5  10 -10    2.81    1.95
   4  10 -10    0.30    1.88
   3  10 -10    1.24    1.75
   2  10 -10   -0.17    1.49
   1  10 -10   -0.09    1.48
   0  10 -10   -0.70    1.51
  -1  10 -10    2.20    2.08
  -1  10 -10   -0.62    1.39
  -2  10 -10    0.19    1.42
   9   9 -10   -0.97    1.96
   8   9 -10    2.03    2.17
   7   9 -10    2.66    1.99
   6   9 -10    2.41    2.01
   5   9 -10    0.88    1.59
   4   9 -10    0.39    1.64
   3   9 -10   -1.03    1.26
   2   9 -10    0.21    1.41
   1   9 -10    0.61    1.46
   0   9 -10    0.38    1.48
  -1   9 -10    5.83    2.10
  -1   9 -10    1.37    1.72
  -2   9 -10    1.65    1.63
  -2   9 -10   -2.34    1.40
  -3   9 -10   -0.31    1.30
  -4   9 -10   -1.24    1.31
  10   8 -10    6.44    2.80
   9   8 -10   17.88    3.64
   8   8 -10   13.08    3.13
   7   8 -10    3.71    1.97
   6   8 -10    1.07    1.49
   5   8 -10    2.41    1.71
   4   8 -10    6.68    2.00
   3   8 -10    4.40    1.95
   2   8 -10    6.13    2.09
   1   8 -10    5.79    1.80
   0   8 -10    8.01    2.26
  -1   8 -10    5.75    1.98
  -1   8 -10    4.79    1.97
  -2   8 -10    1.30    1.53
  -2   8 -10    0.10    1.41
  -3   8 -10    0.23    1.29
  -4   8 -10    5.54    1.94
  -5   8 -10    6.62    2.29
  10   7 -10    5.91    2.65
   9   7 -10   11.06    3.03
   8   7 -10    6.44    2.30
   7   7 -10   -0.46    1.34
   6   7 -10   15.09    2.95
   5   7 -10   32.38    3.97
   4   7 -10   33.13    3.91
   3   7 -10   13.97    2.69
   2   7 -10    1.20    1.28
   1   7 -10    0.38    1.15
   0   7 -10    0.12    1.10
  -1   7 -10   -0.37    1.13
  -2   7 -10    0.72    1.31
  -2   7 -10    2.03    1.40
  -3   7 -10    3.05    1.61
  -4   7 -10    5.79    1.84
  -5   7 -10    6.52    2.08
  -6   7 -10    5.42    2.02
  11   6 -10    0.98    1.91
  10   6 -10    1.21    1.96
   9   6 -10   -0.10    1.46
   8   6 -10   -0.10    1.32
   7   6 -10    0.45    1.40
   6   6 -10    5.14    1.90
   5   6 -10    1.84    1.37
   4   6 -10    4.53    1.63
   3   6 -10   11.99    2.36
   2   6 -10    2.24    1.42
   1   6 -10    6.79    1.85
   0   6 -10    7.76    1.82
  -1   6 -10   24.58    3.09
  -2   6 -10   11.35    2.11
  -2   6 -10   13.43    2.49
  -3   6 -10    3.71    1.71
  -4   6 -10   -0.30    1.16
  -5   6 -10   -0.47    1.20
  -6   6 -10    1.97    1.63
  -7   6 -10    1.76    1.92
  11   5 -10   -0.74    2.10
  10   5 -10   -0.40    1.75
   9   5 -10   -0.29    1.31
   8   5 -10    1.32    1.59
   7   5 -10    0.86    1.24
   6   5 -10   -0.08    0.96
   5   5 -10    0.22    1.13
   4   5 -10    0.00    0.90
   3   5 -10    0.65    0.91
   2   5 -10    1.61    1.08
   1   5 -10   17.88    2.55
   0   5 -10    9.67    1.94
  -1   5 -10   10.92    1.99
  -2   5 -10    1.43    1.15
  -2   5 -10    3.24    1.40
  -3   5 -10    0.09    0.99
  -4   5 -10    2.73    1.45
  -5   5 -10    4.96    1.85
  -6   5 -10    1.75    1.47
  -7   5 -10   -1.24    1.32
  -8   5 -10   -0.48    1.47
  11   4 -10    0.44    1.68
  10   4 -10    9.22    2.31
   9   4 -10   13.31    3.39
   9   4 -10   19.98    3.58
   8   4 -10   14.34    2.82
   7   4 -10   -0.87    1.01
   6   4 -10    2.09    1.31
   5   4 -10    7.08    1.89
   4   4 -10    6.97    1.78
   3   4 -10    1.52    1.14
   2   4 -10    0.50    0.97
   1   4 -10   11.19    1.98
   0   4 -10    5.59    1.46
  -1   4 -10    4.28    1.25
  -2   4 -10    0.18    0.82
  -2   4 -10    1.07    0.89
  -3   4 -10   -0.32    0.75
  -4   4 -10    4.24    1.55
  -5   4 -10    9.28    2.01
  -6   4 -10    3.27    1.61
  -7   4 -10   -1.61    1.07
  -8   4 -10    0.23    1.44
  -9   4 -10    1.07    1.68
  11   3 -10    7.35    2.39
  10   3 -10   23.67    3.69
   9   3 -10   15.01    2.90
   8   3 -10    2.39    1.42
   7   3 -10   -0.43    0.76
   6   3 -10   10.10    1.86
   5   3 -10   31.66    2.58
   5   3 -10   28.30    3.51
   4   3 -10   42.35    4.10
   3   3 -10   40.28    3.18
   2   3 -10   27.44    3.07
   1   3 -10   23.28    2.81
   0   3 -10    0.84    0.78
  -1   3 -10    6.41    1.39
  -2   3 -10   16.26    2.27
  -2   3 -10   13.92    1.97
  -3   3 -10   28.00    3.22
  -3   3 -10   24.21    3.82
  -4   3 -10   11.90    2.09
  -5   3 -10    4.42    1.53
  -6   3 -10    2.86    1.20
  -7   3 -10   -0.40    1.08
  -8   3 -10    5.87    1.90
  -9   3 -10    4.59    1.96
 -10   3 -10    1.32    1.95
  11   2 -10    0.13    1.63
  10   2 -10    0.48    1.44
   9   2 -10    0.06    1.31
   8   2 -10    8.31    2.14
   7   2 -10    9.02    2.05
   6   2 -10   27.77    3.14
   5   2 -10   26.68    2.91
   4   2 -10   18.93    2.34
   3   2 -10   23.28    2.94
   3   2 -10   17.75    2.14
   2   2 -10    0.01    0.39
   2   2 -10    0.60    0.50
   2   2 -10    0.88    0.87
   1   2 -10    6.73    1.54
  -1  -2  10    7.65    1.27
   0   2 -10   25.35    2.73
  -1   2 -10   73.88    3.64
  -2   2 -10   73.44    3.58
  -2   2 -10   70.85    3.82
  -3   2 -10   58.13    4.31
  -3   2 -10   62.54    3.69
  -4   2 -10   19.49    2.58
  -5   2 -10    0.10    0.90
  -6   2 -10    1.85    1.18
  -7   2 -10    4.60    1.66
  -8   2 -10    8.06    2.05
  -9   2 -10    1.92    1.45
 -10   2 -10    2.03    1.77
 -11   2 -10    1.36    1.92
  11   1 -10   -2.30    1.58
  10   1 -10   -1.60    1.37
   9   1 -10   -0.68    1.05
   8   1 -10    4.72    1.73
   7   1 -10    1.52    1.13
   6   1 -10    2.89    1.32
   5   1 -10    7.10    1.65
   4   1 -10    0.78    0.64
   3   1 -10    9.98    1.37
   3   1 -10   10.39    1.66
   2   1 -10   45.34    2.63
   2   1 -10   44.07    2.28
   1   1 -10   93.24    4.29
  -1  -1  10   90.41    3.69
   0   1 -10   37.06    2.51
   0  -1  10   36.26    2.18
  -1   1 -10    3.09    0.93
   1  -1  10    3.55    0.97
  -2   1 -10    2.01    1.04
  -2   1 -10    0.37    0.64
   2  -1  10    2.63    0.82
  -3   1 -10    4.12    1.28
   3  -1  10    4.61    1.09
  -4   1 -10    1.67    0.97
   4  -1  10    2.29    0.96
  -5   1 -10    4.74    1.35
  -6   1 -10   13.04    2.15
  -7   1 -10   10.95    2.14
  -8   1 -10    7.89    1.98
  -9   1 -10    1.84    1.39
 -10   1 -10    0.31    1.44
 -11   1 -10   -0.74    1.40
  11   0 -10    4.60    2.22
  10   0 -10    1.95    1.80
   9   0 -10    0.90    1.17
   8   0 -10    1.06    1.32
   7   0 -10   -0.21    1.03
   6   0 -10    0.20    0.91
   5   0 -10    0.26    0.63
   4   0 -10    1.50    0.71
   4   0 -10    1.36    0.86
   3   0 -10   34.02    2.47
   3   0 -10   37.82    2.32
  -2   0  10   34.67    2.42
  -1   0  10    0.00    0.34
   0   0  10   -0.01    0.52
  -1   0 -10   26.95    1.98
   1   0  10   29.23    1.97
  -2   0 -10   65.63    3.00
  -2   0 -10   62.80    3.32
   2   0  10   68.96    3.13
  -3   0 -10   13.64    1.99
   3   0  10   13.01    1.77
  -4   0 -10    7.42    1.56
   4   0  10   11.48    1.75
  -5   0 -10    0.02    0.69
   5   0  10   -0.02    0.85
  -6   0 -10    0.21    0.91
   6   0  10    0.18    0.70
  -7   0 -10    0.45    0.99
   7   0  10    1.82    1.27
  -8   0 -10    2.36    1.41
   8   0  10    1.91    1.33
  -9   0 -10    0.17    1.32
   9   0  10    1.35    1.55
 -10   0 -10    0.53    1.26
 -11   0 -10    1.31    1.76
 -12   0 -10    4.95    2.14
  11  -1 -10   11.08    3.02
  10  -1 -10    3.80    2.04
   9  -1 -10   -0.62    1.20
   8  -1 -10    3.53    1.59
   7  -1 -10    4.59    1.57
   6  -1 -10    0.10    0.77
   5  -1 -10    1.19    0.96
   4  -1 -10    2.35    0.89
   4  -1 -10    2.58    1.02
   3  -1 -10    1.23    0.80
   3  -1 -10    0.91    0.62
  -2   1  10   22.26    2.43
  -1   1  10   11.78    1.74
   0   1  10    0.05    0.62
   1   1  10   26.40    1.99
  -2  -1 -10   61.33    3.16
  -2  -1 -10   65.22    2.83
   2   1  10   61.71    3.09
  -3  -1 -10   42.81    2.65
   3   1  10   45.31    2.68
  -4  -1 -10    5.89    1.31
   4   1  10   10.45    1.69
  -5  -1 -10    8.87    1.70
   5   1  10    9.76    1.69
  -6  -1 -10   29.86    3.11
   6   1  10   32.51    2.65
  -7  -1 -10   31.77    3.45
   7   1  10   32.59    3.32
  -8  -1 -10    3.51    1.42
   8   1  10    9.82    2.06
  -9  -1 -10    2.80    1.43
   9   1  10    4.98    1.66
 -10  -1 -10    0.50    1.20
  10   1  10   -0.42    1.44
 -11  -1 -10   -0.14    1.51
  11   1  10    1.95    1.84
 -12  -1 -10    2.64    1.66
  12   1  10   -0.13    1.84
  11  -2 -10    9.05    3.11
  10  -2 -10    3.67    2.05
   9  -2 -10    0.30    1.38
   8  -2 -10    7.06    2.10
   7  -2 -10   10.31    2.35
   6  -2 -10   44.05    3.59
   5  -2 -10   47.52    3.44
   4  -2 -10   20.81    2.36
   4  -2 -10   19.67    2.63
   3  -2 -10    1.81    0.74
   3  -2 -10    1.02    0.73
  -2   2  10    0.37    0.78
  -1   2  10    5.53    1.37
   0   2  10    2.40    1.01
  -1  -2 -10   21.28    2.14
   1   2  10   18.55    2.14
  -2  -2 -10   30.84    2.09
   2   2  10   28.96    2.18
  -3  -2 -10   39.39    2.41
   3   2  10   37.46    2.54
  -4  -2 -10   18.31    2.17
   4   2  10   16.98    2.09
  -5  -2 -10    3.79    1.17
   5   2  10    7.01    1.54
  -6  -2 -10   40.37    2.85
   6   2  10   38.11    2.90
  -7  -2 -10   45.20    3.23
   7   2  10   48.11    3.36
  -8  -2 -10   13.95    2.33
   8   2  10   17.46    2.58
  -9  -2 -10    9.95    2.11
   9   2  10    5.80    1.89
 -10  -2 -10   -1.61    0.98
  10   2  10    0.15    1.44
 -11  -2 -10   -0.28    1.39
  11   2  10    0.37    1.67
 -12  -2 -10    0.19    1.39
  12   2  10    1.21    1.94
 -13  -2 -10   -1.32    1.59
  13   2  10    0.58    1.94
  10  -3 -10    2.07    1.82
   9  -3 -10    0.17    1.48
   8  -3 -10   13.81    2.71
   7  -3 -10   39.80    4.38
   6  -3 -10   22.69    3.29
   5  -3 -10   10.02    2.04
   5  -3 -10   10.56    1.72
   4  -3 -10   -0.27    0.59
   4  -3 -10    0.07    0.76
   3  -3 -10   46.61    2.78
  -2   3  10   87.07    4.24
  -1   3  10   43.77    2.89
   0   3  10   29.53    2.33
  -1  -3 -10    9.76    1.42
   1   3  10   10.47    1.77
  -2  -3 -10    7.92    1.26
   2   3  10   10.09    1.66
  -3  -3 -10    2.59    0.86
   3   3  10    3.27    1.07
  -4  -3 -10    1.98    0.75
   4   3  10    1.87    0.94
  -5  -3 -10    1.52    0.78
   5   3  10    3.20    1.17
  -6  -3 -10   17.43    2.31
   6   3  10   21.47    2.66
  -7  -3 -10   53.47    3.43
   7   3  10   54.67    3.57
  -8  -3 -10   21.35    2.56
   8   3  10   28.48    3.26
  -9  -3 -10    4.61    1.69
   9   3  10    4.84    1.63
 -10  -3 -10    1.34    1.46
  10   3  10    0.05    1.14
 -11  -3 -10    1.71    1.38
  11   3  10   -0.09    1.37
 -12  -3 -10    3.24    1.71
  12   3  10    0.04    1.85
 -13  -3 -10    1.80    1.98
  13   3  10    3.20    2.56
  10  -4 -10    3.52    1.86
   9  -4 -10    0.56    1.35
   8  -4 -10   -0.20    1.23
   7  -4 -10   -0.83    1.08
   6  -4 -10    2.19    1.18
   5  -4 -10   22.57    2.54
   5  -4 -10   23.84    3.09
   4  -4 -10    5.55    1.38
   4  -4 -10    7.20    1.72
  -3   4  10   35.50    2.92
  -2   4  10   41.36    2.99
  -1   4  10    5.95    1.46
   0  -4 -10    2.34    0.69
   0   4  10    3.24    1.22
  -1  -4 -10    0.77    0.53
   1   4  10   -0.04    0.73
  -2  -4 -10   14.36    1.56
   2   4  10   13.12    1.94
  -3  -4 -10   27.17    1.85
   3   4  10   29.54    2.34
  -4  -4 -10   18.89    2.00
   4   4  10   20.06    2.46
  -5  -4 -10    4.67    1.11
   5   4  10    5.33    1.45
  -6  -4 -10    2.96    1.15
   6   4  10    2.64    1.26
  -7  -4 -10    8.02    1.67
   7   4  10    5.00    1.52
  -8  -4 -10    1.75    1.17
   8   4  10    2.32    1.33
  -9  -4 -10   -0.28    1.17
   9   4  10    2.53    1.44
 -10  -4 -10    1.75    1.33
  10   4  10    1.40    1.52
 -11  -4 -10    2.81    1.58
  11   4  10    5.01    1.96
 -12  -4 -10    0.52    1.59
  12   4  10    2.39    1.82
 -13  -4 -10    1.17    1.54
  13   4  10    1.13    2.15
  10  -5 -10    0.19    1.54
   9  -5 -10    2.41    1.85
   8  -5 -10    9.87    2.63
   7  -5 -10    2.33    1.51
   6  -5 -10    1.28    1.26
   5  -5 -10   13.80    2.02
   5  -5 -10   14.74    2.51
   4  -5 -10    0.14    0.78
   4  -5 -10   -0.58    0.60
  -3   5  10    0.09    1.01
  -2   5  10    0.44    0.91
  -1   5  10    4.73    1.37
   0   5  10   18.23    2.44
  -1  -5 -10   21.65    1.37
   1   5  10   21.41    2.50
  -2  -5 -10  103.19    3.50
   2   5  10   98.15    4.54
  -3  -5 -10   41.88    2.20
   3   5  10   42.24    2.93
  -4  -5 -10    2.58    0.81
   4   5  10    1.93    1.08
  -5  -5 -10    4.62    1.16
   5   5  10    2.65    1.20
  -6  -5 -10   13.91    1.90
   6   5  10   14.23    2.20
  -7  -5 -10   31.04    3.08
   7   5  10   36.84    3.62
  -8  -5 -10   16.97    2.42
   8   5  10   14.81    2.38
  -9  -5 -10    9.37    1.97
   9   5  10   10.79    2.24
 -10  -5 -10    5.66    1.75
  10   5  10   11.97    2.50
 -11  -5 -10    3.74    1.73
  11   5  10    3.76    1.82
 -12  -5 -10    0.85    1.35
  12   5  10    1.19    1.58
  13   5  10    0.05    1.68
   9  -6 -10    3.73    2.16
   8  -6 -10    3.50    1.96
   7  -6 -10   -0.27    1.28
   6  -6 -10    1.94    1.44
   5  -6 -10   -0.25    0.94
   5  -6 -10    1.34    0.93
   4  -6 -10   -0.28    0.75
   4  -6 -10    1.31    0.88
  -3   6  10    4.39    1.66
  -3   6  10    2.93    1.46
  -2   6  10   26.31    3.13
  -2   6  10   34.35    3.65
  -1   6  10   34.85    3.42
  -1   6  10   33.45    3.43
   0   6  10   65.77    3.67
   0   6  10   69.21    3.93
   1   6  10   24.54    2.51
   1   6  10   24.79    2.86
   2   6  10    2.68    1.04
   2   6  10    2.25    1.14
  -3  -6 -10   20.29    1.78
   3   6  10   23.95    2.16
   3   6  10   21.96    2.67
  -4  -6 -10   13.28    1.59
   4   6  10    9.76    1.81
  -5  -6 -10   29.49    2.11
   5   6  10   27.84    2.98
  -6  -6 -10   25.83    2.55
   6   6  10   29.37    3.18
  -7  -6 -10   19.31    2.30
   7   6  10   18.17    2.58
  -8  -6 -10    8.10    1.77
   8   6  10   10.36    2.22
  -9  -6 -10    2.82    1.42
   9   6  10    5.60    1.91
 -10  -6 -10    1.62    1.33
  10   6  10   -1.50    1.02
 -11  -6 -10    0.85    1.21
  11   6  10    2.08    1.56
  12   6  10    3.53    1.94
  13   6  10    4.20    2.14
   8  -7 -10    5.85    2.16
   7  -7 -10   -0.46    1.43
   6  -7 -10    2.06    1.49
   5  -7 -10    2.28    1.29
   5  -7 -10    0.94    0.97
  -5   7  10   -1.45    1.18
   4  -7 -10    1.28    1.04
   4  -7 -10    2.33    1.25
  -4   7  10    2.09    1.63
   3  -7 -10    0.09    0.75
  -3   7  10    0.17    1.26
  -2   7  10    1.85    1.41
  -2   7  10    0.28    1.18
  -1   7  10    6.38    1.72
  -1   7  10    7.42    1.85
   0   7  10   41.27    3.72
   0   7  10   33.73    3.48
   1   7  10   21.47    2.57
   1   7  10   14.43    2.23
   2   7  10   14.43    1.98
   2   7  10   14.32    2.28
   3   7  10    0.74    0.82
   3   7  10    1.85    1.18
  -4  -7 -10    9.07    1.34
   4   7  10    5.74    1.60
  -5  -7 -10   13.07    1.68
   5   7  10   15.01    2.37
  -6  -7 -10   20.91    2.27
   6   7  10   22.43    2.87
  -7  -7 -10   24.05    2.59
   7   7  10   25.14    3.05
  -8  -7 -10    3.43    1.34
   8   7  10    3.42    1.51
  -9  -7 -10    0.08    0.92
   9   7  10   -0.72    1.12
  10   7  10    4.54    1.73
  11   7  10    1.64    1.56
  12   7  10    1.85    1.61
  13   7  10    9.19    2.59
   8  -8 -10    1.98    2.06
   7  -8 -10    2.32    1.89
   6  -8 -10    0.87    1.32
  -6   8  10    2.37    1.81
   5  -8 -10    8.93    2.19
   5  -8 -10    5.11    1.50
  -5   8  10    7.80    2.42
   4  -8 -10   10.26    2.03
   4  -8 -10   10.34    2.33
  -4   8  10   10.54    2.57
   3  -8 -10    4.56    1.54
   3  -8 -10   -0.11    0.82
  -3   8  10    1.42    1.49
  -2   8  10   12.48    2.49
  -2   8  10   12.10    2.47
  -1   8  10    4.15    1.60
  -1   8  10    5.00    1.77
   0   8  10   12.12    2.27
   0   8  10   12.58    2.22
   1   8  10   23.21    2.77
   1   8  10   16.68    2.51
   2   8  10    1.64    1.03
   2   8  10    0.62    0.94
   3   8  10    6.10    1.66
   3   8  10    7.16    1.57
   4   8  10   33.98    3.43
   5   8  10   51.98    3.64
   6   8  10   25.91    3.05
   7   8  10    8.17    1.91
   8   8  10    1.72    1.33
   9   8  10   11.60    2.39
  10   8  10   12.70    2.63
  11   8  10    1.29    1.50
  12   8  10   -0.57    1.53
  13   8  10   -1.52    1.58
   7  -9 -10   -0.27    1.62
   6  -9 -10    1.85    1.60
  -6   9  10    2.32    2.06
   5  -9 -10   10.68    2.47
  -5   9  10   11.56    2.92
   4  -9 -10   19.07    3.06
   4  -9 -10   16.89    2.58
  -4   9  10   18.25    3.53
   3  -9 -10    1.47    1.07
   3  -9 -10    2.91    1.50
  -3   9  10    5.37    2.09
  -2   9  10    0.73    1.25
  -2   9  10    1.16    1.38
  -1   9  10    5.70    1.94
  -1   9  10    7.32    2.01
   0   9  10   47.48    3.66
   0   9  10   47.08    3.72
   1   9  10   19.39    2.78
   1   9  10   20.13    2.72
   2   9  10   13.17    2.23
   2   9  10   14.09    2.37
   3   9  10   12.73    2.26
   4   9  10   14.14    2.39
   5   9  10    3.62    1.45
   6   9  10    0.68    1.22
   7   9  10    1.20    1.14
   8   9  10    2.72    1.47
   9   9  10    6.09    1.96
  10   9  10    9.73    2.47
  11   9  10    2.24    1.70
  12   9  10    1.82    1.61
  13   9  10    1.73    1.73
   6 -10 -10   -1.30    1.51
  -6  10  10   -1.26    1.97
   5 -10 -10    2.54    1.71
  -5  10  10    1.10    1.96
   4 -10 -10    1.12    1.21
   4 -10 -10    0.60    1.06
  -4  10  10   -2.05    1.60
   3 -10 -10   -0.93    0.93
   3 -10 -10    0.60    1.16
  -3  10  10    0.37    1.54
  -2  10  10   26.26    3.72
  -2  10  10   21.94    3.36
  -1  10  10   28.17    3.69
  -1  10  10   37.04    4.20
   0  10  10   81.23    5.06
   0  10  10   89.18    5.14
   1  10  10   54.95    3.98
   1  10  10   57.32    3.98
   2  10  10    2.69    1.41
   2  10  10    1.62    1.29
   3  10  10   16.90    2.36
   3  10  10   18.71    2.69
   4  10  10    7.02    1.95
   4  10  10    4.02    1.71
   5  10  10   39.31    3.90
   6  10  10   10.77    2.31
   7  10  10   12.44    2.35
   8  10  10    3.49    1.64
   9  10  10    4.33    1.77
  10  10  10    0.94    1.45
  11  10  10    1.09    1.60
  12  10  10   -0.80    1.69
  13  10  10    2.61    2.08
   5 -11 -10    0.60    1.79
  -5  11  10    0.42    2.25
   4 -11 -10    2.35    1.38
   4 -11 -10    2.71    1.87
  -4  11  10    3.13    2.50
   3 -11 -10    4.41    1.78
   3 -11 -10    4.79    1.94
  -3  11  10    3.64    2.27
  -2  11  10    8.64    2.60
  -1  11  10    1.85    1.89
  -1  11  10    3.34    1.83
   0  11  10   -0.21    1.40
   0  11  10    2.33    1.70
   1  11  10    1.98    1.54
   1  11  10    0.01    1.30
   2  11  10    5.44    1.79
   2  11  10    0.71    1.20
   3  11  10   26.10    3.21
   3  11  10   20.07    2.94
   4  11  10   10.79    1.99
   4  11  10   16.01    2.61
   5  11  10   51.34    4.02
   6  11  10   25.37    3.17
   7  11  10    9.40    2.23
   8  11  10   -0.32    1.18
   9  11  10    2.84    1.68
  10  11  10    6.60    2.20
  11  11  10    0.70    1.57
  12  11  10    5.53    2.18
   4 -12 -10    2.18    1.58
   4 -12 -10    0.07    1.36
  -4  12  10   -0.07    2.24
   3 -12 -10    1.81    1.73
   3 -12 -10   -0.07    1.41
  -3  12  10    0.68    2.08
   2 -12 -10    0.08    1.43
   2 -12 -10    2.81    1.58
  -2  12  10   -1.47    1.65
  -1  12  10    0.29    1.54
  -1  12  10    0.32    1.77
   0  12  10    0.08    1.39
   0  12  10    0.23    1.58
   1  12  10   -0.08    1.35
   1  12  10    2.70    1.83
   2  12  10    0.69    1.40
   2  12  10   -1.89    1.03
   3  12  10    2.63    1.68
   3  12  10    2.78    1.78
   4  12  10   23.24    3.32
   4  12  10   17.66    2.86
   5  12  10    6.98    2.06
   6  12  10    0.82    1.46
   7  12  10    2.55    1.61
   8  12  10    2.95    1.74
   9  12  10    9.99    2.31
  10  12  10    8.82    2.43
  11  12  10    3.47    2.07
  12  12  10   -0.61    1.78
  -3  13  10    2.36    2.54
   2 -13 -10   -0.87    1.52
   2 -13 -10    0.21    1.76
  -2  13  10   -0.47    2.05
  -1  13  10    1.41    1.84
  -1  13  10   -0.53    1.91
   0  13  10   -0.25    1.75
   0  13  10    0.96    1.74
   1  13  10    1.61    1.69
   1  13  10    3.48    2.06
   2  13  10    0.10    1.59
   2  13  10    0.43    1.61
   3  13  10    0.60    1.71
   3  13  10    1.47    1.65
   4  13  10    1.24    1.70
   4  13  10    3.04    1.74
   5  13  10   -1.18    1.28
   6  13  10    0.70    1.53
   7  13  10    2.20    1.65
   8  13  10    1.28    1.64
   9  13  10    0.16    1.68
  10  13  10    0.45    1.49
  11  13  10    0.64    1.89
  -1  14  10    2.30    2.96
   0  14  10    0.87    2.02
   1  14  10    2.65    2.16
   2  14  10    1.07    1.82
   2  14  10   -0.77    1.86
   3  14  10   -0.41    1.60
   3  14  10   -0.44    1.83
   4  14  10   -0.72    2.32
   4  14  10    1.86    1.84
   5  14  10    1.33    1.69
   6  14  10    5.65    2.05
   7  14  10    5.20    2.15
   8  14  10    3.66    2.09
   9  14  10    1.89    1.75
  10  14  10   -0.04    1.67
   1  15  10    1.91    2.25
   2  15  10    0.47    2.25
   3  15  10    3.97    2.46
   4  15  10   -0.85    2.63
   7  15  10    4.07    2.11
   8  15  10   -0.39    1.80
   9  15  10    0.10    1.82
   6  10 -11   -0.20    2.02
   5  10 -11    3.46    2.41
   4  10 -11   -0.14    1.61
   3  10 -11   -0.18    1.44
   2  10 -11    2.10    1.89
   1  10 -11    5.44    2.21
   0  10 -11    1.75    1.67
   0  10 -11    5.91    2.52
   8   9 -11    0.04    2.05
   7   9 -11   -0.69    1.70
   6   9 -11   -1.03    1.65
   5   9 -11   -1.34    1.37
   4   9 -11    0.25    1.62
   3   9 -11    0.81    1.66
   2   9 -11    2.65    1.82
   1   9 -11    7.66    2.43
   0   9 -11    4.56    2.05
  -1   9 -11    0.21    1.30
  -1   9 -11    0.85    1.82
  -2   9 -11    1.52    1.63
  -3   9 -11    1.09    1.70
   9   8 -11    1.06    1.90
   8   8 -11   -0.73    1.66
   7   8 -11    3.86    2.20
   6   8 -11   12.12    2.87
   5   8 -11   10.34    2.54
   4   8 -11    7.74    2.27
   3   8 -11    2.07    1.66
   2   8 -11   -1.03    1.26
   1   8 -11    0.63    1.35
   0   8 -11   -0.15    1.37
  -1   8 -11    0.71    1.37
  -1   8 -11   -0.26    1.15
  -2   8 -11    1.72    1.45
  -3   8 -11    4.14    1.88
  -4   8 -11    2.23    1.85
   9   7 -11   -0.14    1.71
   8   7 -11    5.62    2.48
   7   7 -11    6.19    2.41
   6   7 -11    5.16    2.18
   5   7 -11    6.38    2.07
   4   7 -11   -0.83    1.04
   3   7 -11    0.47    1.22
   2   7 -11    9.17    2.30
   1   7 -11    8.71    2.24
   0   7 -11    5.78    1.92
  -1   7 -11    0.99    1.17
  -1   7 -11    1.57    1.47
  -2   7 -11    1.09    1.35
  -3   7 -11    1.48    1.33
  -4   7 -11    0.81    1.38
  -5   7 -11    1.10    1.59
  -6   7 -11   -0.87    1.65
  10   6 -11    1.67    2.26
   9   6 -11    0.91    1.75
   8   6 -11    2.19    2.06
   7   6 -11    2.37    1.67
   6   6 -11   -1.03    1.09
   5   6 -11    1.06    1.42
   4   6 -11    8.87    2.18
   3   6 -11    1.90    1.30
   2   6 -11   11.43    2.38
   1   6 -11    6.38    1.89
   0   6 -11    3.75    1.55
  -1   6 -11    1.36    1.25
  -2   6 -11    3.92    1.74
  -2   6 -11    0.80    1.59
  -3   6 -11    9.63    2.34
  -4   6 -11    5.43    1.95
  -5   6 -11    8.89    2.31
  -6   6 -11    3.85    1.88
  -7   6 -11   -0.02    1.67
  10   5 -11    5.42    2.49
   9   5 -11    2.89    1.97
   8   5 -11    2.56    1.84
   7   5 -11    1.12    1.41
   6   5 -11    0.11    1.16
   5   5 -11   -0.41    0.97
   4   5 -11   13.51    2.61
   3   5 -11   10.05    2.19
   2   5 -11    8.31    1.97
   1   5 -11    3.14    1.34
   0   5 -11   -0.92    0.81
  -1   5 -11    3.15    1.32
  -2   5 -11    7.50    1.99
  -2   5 -11    4.73    1.66
  -3   5 -11   12.23    2.38
  -4   5 -11    3.81    1.61
  -5   5 -11    4.96    1.75
  -6   5 -11    3.47    1.78
  -7   5 -11    1.26    1.69
  -8   5 -11    0.94    1.74
  11   4 -11    2.16    2.38
  10   4 -11    3.50    2.17
   9   4 -11    2.77    1.85
   8   4 -11    0.44    1.49
   7   4 -11    1.26    1.36
   6   4 -11   11.19    2.46
   5   4 -11    1.06    1.11
   4   4 -11   16.85    2.73
   3   4 -11   10.95    2.20
   2   4 -11    7.15    1.77
   1   4 -11   14.06    2.44
   0   4 -11    0.13    0.86
  -1   4 -11    6.14    1.70
  -2   4 -11    5.64    1.46
  -2   4 -11    4.94    1.55
  -3   4 -11    5.27    1.64
  -4   4 -11    1.02    1.23
  -5   4 -11    0.11    1.00
  -6   4 -11    1.18    1.51
  -7   4 -11   -0.28    1.38
  -8   4 -11    0.35    1.53
  -9   4 -11   -1.64    1.57
  11   3 -11    0.62    1.73
  10   3 -11   -1.58    1.53
   9   3 -11   10.17    2.48
   8   3 -11   19.09    3.18
   7   3 -11   14.86    2.65
   6   3 -11   12.08    2.49
   5   3 -11   -0.46    0.91
   4   3 -11    0.82    1.05
   3   3 -11   11.25    2.21
   2   3 -11   20.72    2.84
   1   3 -11    1.18    0.96
   0   3 -11    6.57    1.58
  -1   3 -11   35.50    2.83
  -2   3 -11   25.76    2.69
  -2   3 -11   31.81    3.40
  -3   3 -11    8.40    1.99
  -4   3 -11   -0.53    0.86
  -5   3 -11    6.07    1.76
  -6   3 -11    9.97    2.19
  -7   3 -11    4.83    1.83
  -8   3 -11    0.40    1.35
  -9   3 -11    0.34    1.54
 -10   3 -11    1.32    1.80
  11   2 -11    0.56    1.77
  10   2 -11    7.43    2.36
   9   2 -11    3.78    1.93
   8   2 -11   16.00    2.97
   7   2 -11    6.03    1.94
   6   2 -11    0.71    0.96
   5   2 -11   11.68    2.01
   4   2 -11   39.77    2.82
   3   2 -11   59.89    3.92
   3   2 -11   62.75    3.29
   2   2 -11   59.60    3.75
   1   2 -11    6.16    1.51
   0   2 -11    3.55    1.18
  -1   2 -11   -0.43    0.57
  -2   2 -11    7.57    1.73
  -2   2 -11    9.10    1.53
  -3   2 -11    5.87    1.64
  -4   2 -11    6.96    1.74
  -5   2 -11   19.60    2.70
  -6   2 -11    9.33    2.03
  -7   2 -11    5.31    1.79
  -8   2 -11   -0.23    1.18
  -9   2 -11    1.16    1.65
 -10   2 -11    1.04    1.82
  11   1 -11    1.42    2.13
  10   1 -11    0.15    1.56
   9   1 -11   -0.44    1.32
   8   1 -11    0.20    1.17
   7   1 -11    5.45    1.76
   6   1 -11   16.61    2.66
   5   1 -11   19.45    2.69
   4   1 -11   44.82    3.00
   3   1 -11   54.77    3.14
   3   1 -11   51.62    2.73
   2   1 -11   45.29    2.43
   2   1 -11   43.47    2.72
   1   1 -11    0.27    0.65
  -1  -1  11    0.92    0.83
   0   1 -11   44.39    2.94
   0  -1  11   42.23    2.46
  -1   1 -11   63.27    3.41
   1  -1  11   61.64    2.94
  -2   1 -11   38.70    2.83
  -2   1 -11   43.96    2.64
  -3   1 -11   37.37    3.54
  -4   1 -11    0.26    0.82
  -5   1 -11    6.50    1.71
  -6   1 -11    0.19    1.00
  -7   1 -11   -0.16    1.13
  -8   1 -11   -0.11    1.07
  -9   1 -11    5.65    1.83
 -10   1 -11    4.04    2.07
 -11   1 -11    7.48    2.39
  11   0 -11    2.69    1.97
  10   0 -11    1.57    1.61
   9   0 -11    0.67    1.25
   8   0 -11    2.36    1.49
   7   0 -11    3.46    1.54
   6   0 -11    7.37    2.01
   5   0 -11    0.92    0.87
   4   0 -11    4.91    1.18
   4   0 -11    6.83    1.56
   3   0 -11    4.71    1.15
   3   0 -11    5.68    1.38
  -2   0  11   15.60    2.14
  -1   0  11   -0.13    0.44
   0   0 -11   41.15    2.74
   0   0  11   46.55    2.68
  -1   0 -11   65.46    3.30
   1   0  11   63.39    3.16
  -2   0 -11   33.22    3.05
  -2   0 -11   26.03    2.00
   2   0  11   26.04    2.05
  -3   0 -11   35.51    3.30
   3   0  11   30.56    2.26
  -4   0 -11    1.29    0.95
   4   0  11    0.24    0.81
  -5   0 -11    1.40    1.07
   5   0  11    0.63    0.87
  -6   0 -11   10.58    1.90
   6   0  11   17.38    2.28
  -7   0 -11    9.20    2.04
  -8   0 -11    4.33    1.53
  -9   0 -11    3.72    1.67
 -10   0 -11    2.85    1.63
 -11   0 -11    1.75    1.81
  11  -1 -11   -1.14    1.64
  10  -1 -11   -0.08    1.64
   9  -1 -11   -0.22    1.36
   8  -1 -11    6.94    2.11
   7  -1 -11    0.74    1.23
   6  -1 -11   -0.03    0.98
   5  -1 -11    0.25    0.85
   4  -1 -11    0.56    0.65
   4  -1 -11    1.26    0.92
   3  -1 -11    0.71    0.67
   3  -1 -11    0.19    0.62
  -2   1  11    2.65    1.10
  -1   1  11   -0.01    0.64
   0   1  11    0.60    0.70
  -1  -1 -11   11.66    1.76
   1   1  11    9.54    1.68
  -2  -1 -11    9.28    1.60
  -2  -1 -11    5.81    1.09
   2   1  11    6.36    1.36
  -3  -1 -11    3.16    1.10
   3   1  11    4.42    1.25
  -4  -1 -11    5.36    1.36
   4   1  11    2.60    1.11
  -5  -1 -11    2.99    1.14
   5   1  11    3.18    1.21
  -6  -1 -11   17.50    2.56
   6   1  11   19.15    2.47
  -7  -1 -11    7.22    1.76
   7   1  11    7.69    1.88
  -8  -1 -11    1.70    1.41
   8   1  11    2.84    1.34
  -9  -1 -11   -0.78    1.02
   9   1  11    0.04    1.44
 -10  -1 -11    0.77    1.31
  10   1  11    0.48    1.39
 -11  -1 -11    0.48    1.71
 -12  -1 -11   -0.21    1.79
  10  -2 -11    6.58    2.23
   9  -2 -11   12.35    3.01
   8  -2 -11   -0.31    1.18
   7  -2 -11   -0.23    1.00
   6  -2 -11   -0.17    0.82
   5  -2 -11    1.91    1.11
   4  -2 -11    3.27    1.08
   4  -2 -11    1.20    0.81
   3  -2 -11   22.02    2.35
   3  -2 -11   16.01    2.44
  -2   2  11   17.15    2.51
  -1   2  11   11.00    1.85
   0   2  11    3.70    1.15
  -1  -2 -11    2.09    0.87
   1   2  11    4.28    1.27
  -2  -2 -11    4.00    1.08
   2   2  11    4.53    1.27
  -3  -2 -11   -0.47    0.56
   3   2  11   -0.27    0.63
  -4  -2 -11    7.67    1.53
   4   2  11    7.42    1.56
  -5  -2 -11    4.39    1.24
   5   2  11    5.32    1.42
  -6  -2 -11    1.00    0.97
   6   2  11    0.35    1.03
  -7  -2 -11    1.35    1.15
   7   2  11    1.57    1.41
  -8  -2 -11    0.51    1.03
   8   2  11    0.41    1.01
  -9  -2 -11   -0.19    1.12
   9   2  11   -0.08    1.35
 -10  -2 -11   -0.10    1.18
  10   2  11   -1.50    1.22
 -11  -2 -11    2.28    1.74
  11   2  11    2.77    1.91
 -12  -2 -11    2.64    1.83
  12   2  11   -0.11    1.66
  10  -3 -11    1.54    1.83
   9  -3 -11    0.78    1.59
   8  -3 -11    0.43    1.28
   7  -3 -11    6.51    2.14
   6  -3 -11   20.89    3.17
   5  -3 -11   37.59    3.28
   5  -3 -11   34.55    3.66
   4  -3 -11   33.36    3.19
   4  -3 -11   29.23    3.48
   3  -3 -11   26.01    2.55
  -2   3  11    5.29    1.40
  -1   3  11   11.99    1.98
   0   3  11   19.26    2.45
  -1  -3 -11   19.40    2.03
   1   3  11   17.31    2.21
  -2  -3 -11   21.74    2.21
   2   3  11   29.47    2.90
  -3  -3 -11   33.49    2.27
   3   3  11   30.60    2.53
  -4  -3 -11   22.21    2.42
   4   3  11   25.11    2.75
  -5  -3 -11   16.36    2.18
   5   3  11   18.33    2.37
  -6  -3 -11    4.69    1.49
   6   3  11    2.30    1.29
  -7  -3 -11    0.55    0.87
   7   3  11   -0.43    1.15
  -8  -3 -11    3.03    1.39
   8   3  11    2.45    1.43
  -9  -3 -11    2.05    1.51
   9   3  11    3.86    1.72
 -10  -3 -11    3.19    1.66
  10   3  11    3.64    1.80
 -11  -3 -11   -1.11    1.11
  11   3  11   -0.35    1.51
 -12  -3 -11    0.10    1.53
  12   3  11   -0.16    1.59
  10  -4 -11    2.04    1.81
   9  -4 -11   -1.09    1.49
   8  -4 -11    2.02    1.50
   7  -4 -11   11.07    2.47
   6  -4 -11   25.51    3.43
   5  -4 -11   12.18    2.26
   5  -4 -11   13.50    2.00
   4  -4 -11    8.19    1.69
   4  -4 -11    9.10    2.02
  -3   4  11    2.34    1.26
  -2   4  11    2.22    1.17
  -1   4  11   44.09    3.09
   0  -4 -11   41.31    2.18
   0   4  11   42.54    3.00
  -1  -4 -11   20.13    1.90
   1   4  11   17.90    2.44
  -2  -4 -11   43.94    2.36
   2   4  11   41.10    2.90
  -3  -4 -11   64.74    3.08
   3   4  11   59.62    3.52
  -4  -4 -11   15.67    1.91
   4   4  11   19.37    2.59
  -5  -4 -11    1.98    1.02
   5   4  11    3.91    1.31
  -6  -4 -11    1.95    1.04
   6   4  11   -0.26    0.98
  -7  -4 -11   10.89    1.99
   7   4  11   10.21    2.04
  -8  -4 -11   53.85    3.68
   8   4  11   53.41    3.88
  -9  -4 -11   23.89    3.09
   9   4  11   28.62    3.37
 -10  -4 -11    5.03    1.87
  10   4  11    3.96    2.06
 -11  -4 -11    0.59    1.43
  11   4  11    0.51    1.55
 -12  -4 -11   -0.11    1.60
  12   4  11    0.71    1.63
 -13  -4 -11    3.19    2.00
  13   4  11    1.92    2.15
   9  -5 -11    2.57    1.99
   8  -5 -11   -0.02    1.32
   7  -5 -11    0.20    1.32
   6  -5 -11    6.13    1.98
   5  -5 -11    5.64    1.76
   5  -5 -11    8.38    1.66
   4  -5 -11    7.79    1.62
   4  -5 -11    6.37    1.76
  -3   5  11   20.79    2.95
  -2   5  11    7.25    1.69
  -1   5  11   62.27    3.79
   0   5  11   38.82    2.99
   1   5  11    8.75    1.82
  -2  -5 -11    0.02    0.52
   2   5  11    0.14    0.94
  -3  -5 -11   12.73    1.60
   3   5  11   10.63    1.92
  -4  -5 -11   12.77    1.73
   4   5  11   13.45    2.18
  -5  -5 -11    8.09    1.53
   5   5  11   11.62    2.05
  -6  -5 -11   24.16    2.55
   6   5  11   22.90    2.82
  -7  -5 -11    5.65    1.54
   7   5  11    4.72    1.69
  -8  -5 -11   25.96    2.90
   8   5  11   22.22    3.00
  -9  -5 -11   27.73    3.18
   9   5  11   28.44    3.41
 -10  -5 -11    2.38    1.41
  10   5  11    3.77    1.68
 -11  -5 -11    1.15    1.39
  11   5  11   -0.93    1.42
 -12  -5 -11    0.89    1.55
  12   5  11    6.25    2.25
 -13  -5 -11    9.28    2.48
  13   5  11   10.51    2.64
   9  -6 -11    1.48    1.86
   8  -6 -11   -0.17    1.38
   7  -6 -11    1.16    1.48
   6  -6 -11    1.13    1.24
   5  -6 -11   -0.18    0.93
   5  -6 -11    0.40    0.81
   4  -6 -11    1.31    1.11
   4  -6 -11    1.45    0.95
  -3   6  11   10.12    2.16
  -2   6  11   -1.00    0.89
  -1   6  11    0.00    0.93
   0   6  11   14.01    2.23
   0   6  11   14.24    2.29
   1   6  11    1.08    1.02
   1   6  11   -0.68    0.62
   2   6  11   25.62    2.91
  -3  -6 -11   18.01    1.81
   3   6  11   19.90    2.60
  -4  -6 -11   27.45    2.39
   4   6  11   29.69    3.13
  -5  -6 -11   10.21    1.62
   5   6  11   14.63    2.27
  -6  -6 -11    4.47    1.22
   6   6  11    2.97    1.55
  -7  -6 -11    0.23    0.96
   7   6  11   -0.49    0.98
  -8  -6 -11    2.08    1.04
   8   6  11    1.87    1.42
  -9  -6 -11   -0.97    0.94
   9   6  11   -1.11    1.13
 -10  -6 -11    1.50    1.29
  10   6  11    1.66    1.44
 -11  -6 -11    3.77    1.72
  11   6  11    2.97    1.82
  12   6  11    3.26    2.17
  13   6  11    1.29    1.95
   8  -7 -11   -0.59    1.55
   7  -7 -11    3.69    1.94
   6  -7 -11   22.28    3.43
   5  -7 -11   17.16    2.47
   5  -7 -11   14.54    2.65
   4  -7 -11    2.54    1.20
   4  -7 -11    1.72    1.28
  -3   7  11    0.60    1.39
  -2   7  11   -0.62    0.92
  -2   7  11    0.46    1.25
  -1   7  11   -0.26    1.01
  -1   7  11    0.24    1.12
   0   7  11    1.10    1.12
   0   7  11    2.49    1.35
   1   7  11    1.57    1.15
   1   7  11    1.20    1.11
   2   7  11    1.41    1.00
   2   7  11    0.58    0.95
   3   7  11   23.23    2.84
   3   7  11   19.96    3.32
   4   7  11   26.86    3.06
  -5  -7 -11    7.65    1.37
   5   7  11    7.22    1.79
  -6  -7 -11   -1.11    0.65
   6   7  11    1.15    1.10
  -7  -7 -11    4.80    1.36
   7   7  11    8.23    1.96
  -8  -7 -11   28.65    3.00
   8   7  11   30.65    3.60
  -9  -7 -11   14.87    2.30
   9   7  11   14.31    2.64
 -10  -7 -11    2.85    1.44
  10   7  11    2.01    1.59
  11   7  11    1.26    1.53
  12   7  11    1.31    1.65
  13   7  11   -1.14    1.92
   7  -8 -11    8.73    2.80
   6  -8 -11   14.54    2.82
   5  -8 -11   23.35    3.36
   5  -8 -11   23.34    2.95
   4  -8 -11    9.61    2.17
   4  -8 -11    4.43    1.39
  -4   8  11   12.58    2.91
   3  -8 -11    0.73    0.97
   3  -8 -11    1.08    0.97
  -3   8  11    2.10    1.72
  -2   8  11    3.95    1.77
  -2   8  11    2.96    1.63
  -1   8  11   15.38    2.64
  -1   8  11   18.10    2.86
   0   8  11   15.69    2.51
   0   8  11   20.93    2.82
   1   8  11   25.92    3.05
   1   8  11   21.90    2.98
   2   8  11   15.58    2.50
   3   8  11   10.80    1.82
   3   8  11    9.79    2.03
   4   8  11    0.47    1.21
   5   8  11    1.20    1.14
  -6  -8 -11    7.16    2.14
   6   8  11    8.06    2.04
   7   8  11   12.73    2.35
   8   8  11   18.71    2.85
   9   8  11   10.97    2.39
  10   8  11    0.07    1.24
  11   8  11    2.34    1.78
  12   8  11    4.71    1.94
  13   8  11    1.20    1.77
   7  -9 -11    2.41    2.25
   6  -9 -11    2.17    1.70
   5  -9 -11    1.75    1.42
   5  -9 -11    0.80    1.51
  -5   9  11    2.07    1.93
   4  -9 -11    0.02    1.11
   4  -9 -11   -0.68    0.95
  -4   9  11   -0.51    1.47
   3  -9 -11   14.69    2.24
   3  -9 -11   11.80    2.43
  -3   9  11   10.21    2.59
  -2   9  11   35.61    4.14
  -2   9  11   36.79    4.15
  -1   9  11   51.35    4.12
  -1   9  11   57.94    4.22
   0   9  11   28.81    3.46
   0   9  11   27.73    3.49
   1   9  11   13.39    2.41
   1   9  11   11.19    2.36
   2   9  11    0.40    1.05
   2   9  11    1.31    1.24
   3   9  11   14.93    2.23
   3   9  11   22.49    3.06
   4   9  11   14.80    2.52
   5   9  11   10.86    2.14
   6   9  11   11.01    2.25
   7   9  11    1.74    1.32
   8   9  11    2.68    1.55
   9   9  11    2.33    1.60
  10   9  11   -0.33    1.23
  11   9  11   -0.12    1.38
  12   9  11    2.02    1.76
  13   9  11    5.33    2.34
   6 -10 -11   -0.07    1.67
  -6  10  11    0.00    2.12
   5 -10 -11    3.96    1.94
  -5  10  11    0.53    2.06
   4 -10 -11    1.66    1.52
   4 -10 -11    4.43    1.64
  -4  10  11    7.51    2.61
   3 -10 -11    9.75    2.33
   3 -10 -11    4.91    1.61
  -3  10  11    4.79    2.17
  -2  10  11    2.74    1.96
  -2  10  11    3.00    1.94
  -1  10  11    2.18    1.54
  -1  10  11    3.16    1.68
   0  10  11    0.35    1.22
   0  10  11    3.05    1.67
   1  10  11    7.01    1.92
   1  10  11    7.93    2.03
   2  10  11    9.08    2.13
   2  10  11   12.45    2.55
   3  10  11    6.32    1.82
   3  10  11    3.58    1.36
   4  10  11    4.48    1.70
   5  10  11    3.06    1.62
   6  10  11   22.40    3.17
   7  10  11    1.62    1.32
   8  10  11    0.14    1.05
   9  10  11   -0.25    1.21
  10  10  11    3.46    1.82
  11  10  11    6.19    2.09
  12  10  11    4.82    2.22
  13  10  11    0.79    2.00
   5 -11 -11    1.61    1.87
  -5  11  11   -0.38    2.13
   4 -11 -11    1.51    1.68
   4 -11 -11    1.37    1.51
  -4  11  11   -2.20    2.03
   3 -11 -11   -0.87    1.14
   3 -11 -11   -0.36    1.11
  -3  11  11   -1.02    1.93
  -2  11  11   -0.58    1.50
  -2  11  11    2.22    2.05
  -1  11  11    2.23    2.02
  -1  11  11    2.98    1.82
   0  11  11    3.76    1.85
   0  11  11    2.10    1.60
   1  11  11    7.25    2.19
   1  11  11    2.54    1.59
   2  11  11    5.83    1.91
   2  11  11    5.47    1.93
   3  11  11   -0.12    1.27
   3  11  11    3.76    1.71
   4  11  11   -0.34    1.17
   5  11  11    2.18    1.50
   6  11  11   -1.92    1.00
   7  11  11    8.23    2.12
   8  11  11    2.89    1.70
   9  11  11    5.82    2.06
  10  11  11    4.11    1.93
  11  11  11   -0.61    1.58
  12  11  11    0.28    1.87
   4 -12 -11    1.15    1.68
   4 -12 -11    1.34    1.47
  -4  12  11    2.13    2.63
   3 -12 -11    0.15    1.33
   3 -12 -11    1.35    1.42
  -3  12  11    0.55    2.05
   2 -12 -11   -0.16    1.20
   2 -12 -11    0.74    1.48
  -2  12  11   -0.90    1.83
  -1  12  11   -0.09    1.59
  -1  12  11    2.47    2.02
   0  12  11    1.58    1.85
   0  12  11    1.87    1.81
   1  12  11    1.87    1.84
   1  12  11    1.31    1.42
   2  12  11    2.02    1.60
   2  12  11    3.87    1.83
   3  12  11    0.38    1.46
   3  12  11    0.64    1.46
   4  12  11    1.06    1.43
   5  12  11   15.62    2.83
   6  12  11    8.35    2.27
   7  12  11    4.30    1.82
   8  12  11    1.12    1.55
   9  12  11    1.33    1.81
  10  12  11    0.11    1.36
  11  12  11   -0.11    1.57
  12  12  11    0.19    1.83
   2 -13 -11    8.44    2.44
   2 -13 -11    5.98    1.98
  -2  13  11    5.62    3.13
  -1  13  11    2.26    2.20
  -1  13  11    0.38    1.96
   0  13  11   -0.09    1.91
   0  13  11   -0.79    1.71
   1  13  11    0.04    1.96
   1  13  11    0.26    1.82
   2  13  11    0.22    1.62
   2  13  11   -0.20    1.55
   3  13  11   -0.31    1.55
   3  13  11   -0.39    1.53
   4  13  11    2.24    1.80
   5  13  11    4.90    1.99
   6  13  11   11.19    2.56
   7  13  11    2.06    1.70
   8  13  11    0.59    1.55
   9  13  11    0.57    1.50
  10  13  11    0.87    1.48
  11  13  11    3.40    1.98
  -1  14  11    0.85    2.36
   0  14  11    0.14    2.09
   0  14  11   -1.17    1.85
   1  14  11   -1.80    2.03
   1  14  11    7.37    2.72
   2  14  11    3.27    2.22
   2  14  11    4.79    2.29
   3  14  11    4.34    2.09
   3  14  11    2.28    2.03
   4  14  11    3.89    2.10
   5  14  11    3.13    2.05
   6  14  11    8.87    2.54
   7  14  11    7.69    2.58
   8  14  11    0.22    1.64
   9  14  11    0.83    1.77
  10  14  11    4.70    2.30
   2  15  11    4.12    2.44
   3  15  11    4.97    2.53
   4  15  11    0.24    2.03
   5  15  11   -0.55    1.89
   6  15  11    3.01    2.00
   7  15  11    2.75    2.15
   8  15  11   -0.22    1.98
   6   9 -12    7.92    2.93
   5   9 -12    3.48    2.23
   4   9 -12    0.44    1.69
   3   9 -12   -0.13    1.60
   2   9 -12   -0.52    1.56
   1   9 -12    0.36    1.64
   0   9 -12    0.52    1.68
  -1   9 -12    0.42    1.66
   7   8 -12    8.43    2.97
   6   8 -12   10.54    2.81
   5   8 -12   -0.17    1.46
   4   8 -12    0.13    1.43
   3   8 -12    2.01    1.69
   2   8 -12    5.99    2.27
   1   8 -12    5.07    2.07
   0   8 -12    3.13    1.77
  -1   8 -12    2.53    1.81
  -2   8 -12    4.51    1.92
  -3   8 -12    1.44    1.61
   8   7 -12    5.19    2.43
   7   7 -12    0.21    1.65
   6   7 -12   -0.76    1.36
   5   7 -12    3.85    1.94
   4   7 -12    3.62    1.72
   3   7 -12   10.75    2.62
   2   7 -12    5.64    1.98
   1   7 -12   -0.42    1.30
   0   7 -12    1.79    1.38
  -1   7 -12    0.19    1.29
  -1   7 -12   -0.44    1.32
  -2   7 -12    0.07    1.30
  -3   7 -12    1.87    1.55
  -4   7 -12    5.74    2.25
  -5   7 -12    4.22    2.19
   9   6 -12    3.39    2.33
   8   6 -12    2.73    2.12
   7   6 -12    0.73    1.61
   6   6 -12   -0.22    1.22
   5   6 -12    0.48    1.21
   4   6 -12    3.67    1.72
   3   6 -12    2.81    1.54
   2   6 -12    0.35    1.14
   1   6 -12    3.39    1.71
   0   6 -12    1.45    1.39
  -1   6 -12    7.09    1.96
  -1   6 -12    6.96    2.07
  -2   6 -12    1.28    1.49
  -3   6 -12   -0.18    1.21
  -4   6 -12    0.05    1.33
  -5   6 -12    0.25    1.26
  -6   6 -12    0.76    1.64
  10   5 -12    0.81    2.10
   9   5 -12    0.02    1.84
   8   5 -12    1.37    1.62
   7   5 -12    1.03    1.59
   6   5 -12    1.82    1.45
   5   5 -12    1.56    1.47
   4   5 -12   -0.07    1.08
   3   5 -12   -0.24    0.95
   2   5 -12    0.10    1.00
   1   5 -12   13.59    2.47
   0   5 -12    4.25    1.63
  -1   5 -12    5.24    1.64
  -2   5 -12    0.67    1.29
  -3   5 -12   -0.18    1.10
  -4   5 -12    2.33    1.38
  -5   5 -12    1.54    1.31
  -6   5 -12    0.64    1.58
  -7   5 -12    0.38    1.50
  10   4 -12    4.77    2.57
   9   4 -12   17.28    3.57
   8   4 -12   15.24    3.15
   7   4 -12    3.78    1.83
   6   4 -12    0.62    1.34
   5   4 -12    0.41    0.98
   4   4 -12    0.62    1.10
   3   4 -12    6.12    1.80
   2   4 -12    4.56    1.52
   1   4 -12    2.30    1.21
   0   4 -12   11.96    2.22
  -1   4 -12    9.51    1.93
  -2   4 -12    0.98    1.29
  -3   4 -12    0.85    1.20
  -4   4 -12   13.00    2.47
  -5   4 -12   10.43    2.17
  -6   4 -12    2.58    1.62
  -7   4 -12    1.01    1.37
  -8   4 -12   -0.51    1.39
   6   3 -12    1.98    1.43
   5   3 -12   25.30    3.40
   4   3 -12   35.70    4.08
   3   3 -12   16.33    2.61
   2   3 -12   10.28    2.10
   1   3 -12    6.48    1.66
   0   3 -12    0.64    0.88
  -1   3 -12    0.05    0.91
  -2   3 -12    2.75    1.37
  -3   3 -12    2.54    1.30
  -4   3 -12    9.13    1.99
  -5   3 -12   18.01    2.85
  -6   3 -12    9.91    2.38
  -7   3 -12   -0.38    1.28
  -8   3 -12    1.38    1.53
  -9   3 -12    0.45    1.72
  10   2 -12    1.33    1.65
   9   2 -12    0.30    2.83
   8   2 -12    0.53    1.19
   7   2 -12    0.22    1.05
   6   2 -12   11.95    2.36
   5   2 -12   46.62    3.44
   4   2 -12   20.89    3.07
   3   2 -12    1.31    1.08
   2   2 -12    0.17    0.80
   1   2 -12    2.09    1.09
   0   2 -12   20.54    2.59
  -1   2 -12   22.97    2.58
  -2   2 -12   19.23    2.63
  -3   2 -12    9.62    2.12
  -4   2 -12    3.69    1.39
  -5   2 -12    0.64    1.10
  -6   2 -12    4.20    1.65
  -7   2 -12    2.28    1.36
  -8   2 -12    0.74    1.31
  -9   2 -12    1.44    1.60
 -10   2 -12    3.76    2.11
  10   1 -12    2.67    1.92
   9   1 -12   -0.38    1.25
   8   1 -12    1.71    1.36
   7   1 -12    1.44    1.26
   6   1 -12    3.00    1.43
   5   1 -12   -0.88    0.75
   4   1 -12    3.53    1.25
   3   1 -12    5.86    1.21
   3   1 -12    4.49    1.31
   2   1 -12   34.68    2.52
   2   1 -12   31.14    3.43
   2   1 -12   33.25    2.19
   1   1 -12   19.05    2.66
  -1  -1  12   19.87    2.28
   0   1 -12    2.51    1.11
  -1   1 -12   -0.03    0.72
  -2   1 -12    4.97    1.58
  -3   1 -12    1.57    1.06
  -4   1 -12    0.25    0.88
  -5   1 -12    0.39    0.99
  -6   1 -12    0.14    0.90
  -7   1 -12    0.67    1.21
  -8   1 -12    4.87    1.74
  -9   1 -12    0.32    1.47
 -10   1 -12    0.49    1.55
  10   0 -12    1.60    1.78
   9   0 -12    2.72    1.71
   8   0 -12    4.82    1.83
   7   0 -12    0.49    0.99
   6   0 -12   -0.36    1.00
   5   0 -12    3.99    1.42
   4   0 -12    5.42    1.23
   4   0 -12    3.45    1.21
   3   0 -12    0.90    0.71
   3   0 -12    3.27    1.11
  -2   0  12    6.90    1.63
  -1   0  12   -0.03    0.50
   0   0 -12    0.97    0.76
   0   0  12    1.32    0.97
  -1   0 -12    3.68    1.11
   1   0  12    2.36    1.06
  -2   0 -12    2.48    1.14
   2   0  12    3.00    1.09
  -3   0 -12    0.52    0.85
   3   0  12   -0.64    0.74
  -4   0 -12    4.87    1.45
   4   0  12    7.89    2.17
  -5   0 -12   19.06    2.71
  -6   0 -12   10.05    2.09
  -7   0 -12    1.49    1.31
  -8   0 -12   -1.56    1.01
  -9   0 -12    0.96    1.23
 -10   0 -12    0.98    1.56
 -11   0 -12   -0.76    1.65
  10  -1 -12    4.75    2.14
   9  -1 -12    5.08    2.12
   8  -1 -12    1.35    1.59
   7  -1 -12   -0.11    0.93
   6  -1 -12   -0.68    0.83
   5  -1 -12    0.65    0.98
   4  -1 -12    1.78    0.94
   4  -1 -12    3.57    1.04
   3  -1 -12   13.07    1.84
   3  -1 -12    9.65    1.88
  -2   1  12   24.10    2.85
  -1   1  12   44.98    2.95
   0   1  12   17.56    2.27
  -1  -1 -12   15.51    2.00
  -1  -1 -12   19.94    2.39
   1   1  12   20.36    2.44
   2   1  12   51.34    3.02
  -3  -1 -12   38.63    3.49
  -4  -1 -12    3.39    1.23
   4   1  12    0.94    0.80
  -5  -1 -12    4.71    1.41
   5   1  12    2.82    1.11
  -6  -1 -12    1.40    1.01
   6   1  12    1.35    1.11
  -7  -1 -12    3.06    1.39
   7   1  12    3.65    1.64
  -8  -1 -12    1.17    1.29
   8   1  12    0.34    1.43
  -9  -1 -12    1.06    1.46
 -10  -1 -12    5.09    2.06
 -11  -1 -12    4.96    2.21
  10  -2 -12    1.15    1.86
   9  -2 -12   -0.27    1.58
   8  -2 -12    0.93    1.37
   7  -2 -12   13.69    2.72
   6  -2 -12   14.43    2.59
   5  -2 -12   19.96    2.89
   4  -2 -12   13.40    1.96
   4  -2 -12   10.17    2.02
   3  -2 -12   16.67    2.50
   3  -2 -12   13.91    1.89
  -2   2  12    7.08    1.71
  -1   2  12    8.38    1.73
   0   2  12   -0.45    0.69
  -1  -2 -12    7.84    1.51
   1   2  12    8.10    1.69
  -2  -2 -12   50.39    3.03
   2   2  12   48.44    3.13
  -3  -2 -12   69.83    3.60
   3   2  12   64.67    3.67
  -4  -2 -12   16.32    2.25
   4   2  12   21.10    2.58
  -5  -2 -12    0.57    0.84
   5   2  12    1.63    1.04
  -6  -2 -12    0.08    0.86
   6   2  12    1.78    1.21
  -7  -2 -12    7.85    1.92
   7   2  12   11.71    2.24
  -8  -2 -12   10.74    2.21
   8   2  12    4.71    1.72
  -9  -2 -12    2.11    1.66
   9   2  12    1.27    1.48
 -10  -2 -12    1.60    1.50
  10   2  12    1.69    1.60
 -11  -2 -12    0.40    1.64
  11   2  12   -0.97    1.74
 -12  -2 -12    0.13    1.80
  10  -3 -12    0.27    1.54
   9  -3 -12    3.56    2.03
   8  -3 -12    9.04    2.58
   7  -3 -12   21.80    3.53
   6  -3 -12   23.53    3.51
   5  -3 -12    3.45    1.19
   5  -3 -12    3.04    1.46
   4  -3 -12    1.43    1.08
   4  -3 -12    0.87    0.78
   3  -3 -12    2.13    0.89
  -2   3  12   38.84    3.92
  -1   3  12   27.36    2.99
   0  -3 -12   11.12    1.64
   0   3  12   11.73    2.06
  -1  -3 -12   23.58    2.40
   1   3  12   23.51    2.81
  -2  -3 -12   15.89    2.03
   2   3  12   16.35    2.38
  -3  -3 -12   35.11    3.05
   3   3  12   39.32    2.88
  -4  -3 -12   25.66    2.68
   4   3  12   23.19    2.68
  -5  -3 -12    0.55    0.90
   5   3  12    0.20    1.04
  -6  -3 -12   16.50    2.34
   6   3  12   16.69    2.42
  -7  -3 -12   12.47    2.17
   7   3  12   18.67    2.72
  -8  -3 -12   15.85    2.56
   8   3  12   16.02    2.65
  -9  -3 -12    3.73    1.48
   9   3  12    4.85    1.92
 -10  -3 -12   -0.49    1.35
  10   3  12    0.18    1.35
 -11  -3 -12    0.37    1.62
  11   3  12    1.02    1.76
 -12  -3 -12   -0.50    1.54
  12   3  12   -1.18    1.90
   9  -4 -12   -0.60    1.56
   8  -4 -12   -0.18    1.32
   7  -4 -12    0.55    1.36
   6  -4 -12    0.67    1.25
   5  -4 -12    4.71    1.77
   5  -4 -12    2.66    1.14
   4  -4 -12    5.81    1.60
   4  -4 -12    3.54    1.45
  -3   4  12   41.54    4.05
  -2   4  12   56.46    3.79
  -1   4  12   66.44    3.99
   0  -4 -12    1.43    0.85
   0   4  12    1.56    1.10
  -1  -4 -12   15.13    1.84
   1   4  12   11.21    2.12
  -2  -4 -12   27.75    2.03
   2   4  12   31.38    3.18
  -3  -4 -12   11.44    1.71
   3   4  12   10.21    1.96
  -4  -4 -12    3.68    1.21
   4   4  12    3.62    1.29
  -5  -4 -12    0.06    0.70
   5   4  12   -0.53    0.91
  -6  -4 -12    4.01    1.34
   6   4  12    2.04    1.35
  -7  -4 -12    3.05    1.31
   7   4  12    9.86    2.11
  -8  -4 -12    2.15    1.32
   8   4  12    1.57    1.29
  -9  -4 -12   -0.29    1.00
   9   4  12   -0.45    1.30
 -10  -4 -12    0.29    1.39
  10   4  12   -0.23    1.28
 -11  -4 -12    1.05    1.46
  11   4  12    1.59    1.67
 -12  -4 -12    1.12    1.72
  12   4  12    0.94    2.02
   9  -5 -12   -1.00    1.76
   8  -5 -12    1.42    1.64
   7  -5 -12    0.17    1.35
   6  -5 -12    0.62    1.08
   5  -5 -12    4.91    1.70
   5  -5 -12    2.85    1.15
   4  -5 -12    3.42    1.50
   4  -5 -12    0.87    1.00
  -3   5  12    4.50    1.63
  -2   5  12    5.66    1.62
  -1   5  12    1.79    1.22
   0   5  12    9.13    1.98
   1   5  12   22.12    2.91
  -2  -5 -12   89.14    3.57
   2   5  12   83.15    4.48
  -3  -5 -12   60.84    3.05
   3   5  12   68.26    3.97
  -4  -5 -12   14.53    1.95
   4   5  12   19.87    2.69
  -5  -5 -12    1.45    0.89
   5   5  12    1.23    1.20
  -6  -5 -12   12.62    2.12
   6   5  12   16.00    2.47
  -7  -5 -12   10.23    1.95
   7   5  12   14.37    2.50
  -8  -5 -12    6.29    1.78
   8   5  12    7.99    2.01
  -9  -5 -12    1.68    1.36
   9   5  12    2.10    1.68
 -10  -5 -12    4.12    1.57
  10   5  12    6.54    2.03
 -11  -5 -12    5.73    2.14
  11   5  12    7.34    2.11
 -12  -5 -12    1.35    1.75
  12   5  12    1.53    1.85
   8  -6 -12    3.62    2.00
   7  -6 -12    5.77    2.36
   6  -6 -12    3.24    1.67
   5  -6 -12    2.38    1.10
   5  -6 -12    3.28    1.52
   4  -6 -12    7.89    1.74
   4  -6 -12    4.99    1.80
  -3   6  12    0.47    1.14
  -2   6  12    2.34    1.36
  -1   6  12    9.73    2.10
   0   6  12    6.30    1.74
   1   6  12   25.33    3.03
   2   6  12   37.65    3.07
   3   6  12    4.54    1.57
  -4  -6 -12   -0.63    0.60
   4   6  12    0.72    1.09
  -5  -6 -12    2.03    0.93
   5   6  12    5.10    1.75
  -6  -6 -12   21.12    2.44
   6   6  12   24.73    3.00
  -7  -6 -12   16.89    2.34
   7   6  12   14.48    2.41
  -8  -6 -12   11.55    2.14
   8   6  12   10.87    2.31
  -9  -6 -12    4.24    1.58
   9   6  12    2.31    1.46
 -10  -6 -12    3.62    1.54
  10   6  12    3.85    1.92
 -11  -6 -12    1.30    1.51
  11   6  12    1.49    1.70
 -12  -6 -12   -0.26    1.37
  12   6  12   -1.66    1.45
  13   6  12    1.92    2.00
   8  -7 -12    1.68    1.96
   7  -7 -12    1.89    1.81
   6  -7 -12    1.62    1.66
   5  -7 -12    4.60    1.86
   5  -7 -12    7.58    1.88
   4  -7 -12    2.24    1.36
   4  -7 -12    2.04    1.22
  -2   7  12    5.21    1.90
  -1   7  12   17.53    2.80
   0   7  12    7.56    1.84
   0   7  12    8.62    2.04
   1   7  12   10.74    2.10
   1   7  12    9.96    2.12
   2   7  12    5.34    1.56
   2   7  12    3.83    1.42
   3   7  12    9.58    2.11
   4   7  12    0.45    0.99
   5   7  12    3.68    1.53
  -6  -7 -12    3.41    1.18
   6   7  12    5.71    1.63
  -7  -7 -12    5.03    1.35
   7   7  12    5.35    1.61
  -8  -7 -12    3.04    1.32
   8   7  12    4.13    1.72
  -9  -7 -12    0.22    1.05
   9   7  12   -0.21    1.14
 -10  -7 -12    1.24    1.32
  10   7  12   -0.56    1.30
 -11  -7 -12    1.01    1.39
  11   7  12    0.28    1.65
  12   7  12   -1.02    1.69
  13   7  12    8.32    2.52
   7  -8 -12    3.70    2.14
   6  -8 -12    0.48    1.55
   5  -8 -12    0.25    1.19
   5  -8 -12    3.99    1.55
   4  -8 -12    4.41    1.56
   4  -8 -12    5.31    2.01
   3  -8 -12    9.53    2.23
   3  -8 -12    2.67    1.25
  -3   8  12    4.88    2.22
  -2   8  12    6.55    2.01
  -2   8  12    8.83    2.44
  -1   8  12   30.09    3.67
  -1   8  12   27.69    3.60
   0   8  12    8.82    2.17
   0   8  12    4.57    1.79
   1   8  12    0.19    1.11
   1   8  12    0.56    1.05
   2   8  12   -0.08    1.04
   2   8  12    0.87    1.12
   3   8  12    6.24    1.73
   4   8  12   20.67    2.93
   5   8  12    1.60    1.17
   6   8  12    0.70    1.08
  -7  -8 -12    1.48    1.06
   7   8  12    0.92    1.16
  -8  -8 -12   -0.41    1.01
   8   8  12   -0.69    1.07
   9   8  12    1.35    1.43
  10   8  12    0.51    1.41
  11   8  12    0.52    1.60
  12   8  12   -1.75    1.59
  13   8  12    0.75    2.05
   6  -9 -12    2.81    1.71
   5  -9 -12   11.10    2.17
   5  -9 -12   10.34    2.50
   4  -9 -12   14.15    2.91
   4  -9 -12   12.43    2.26
  -4   9  12   15.99    3.27
   3  -9 -12    5.91    1.82
   3  -9 -12    6.51    1.81
  -3   9  12    8.97    2.66
  -2   9  12    0.47    1.63
  -2   9  12   -0.13    1.27
  -1   9  12   20.13    3.14
  -1   9  12   16.35    2.93
   0   9  12   15.90    2.78
   0   9  12   21.55    3.07
   1   9  12   21.30    2.97
   1   9  12   25.98    3.37
   2   9  12   11.18    2.35
   2   9  12   10.19    2.11
   3   9  12    2.91    1.52
   4   9  12    2.14    1.44
   5   9  12    2.05    1.43
   6   9  12    3.77    1.50
   7   9  12    1.32    1.26
   8   9  12    1.11    1.30
   9   9  12    9.32    2.36
  10   9  12    7.13    2.21
  11   9  12    6.07    2.15
  12   9  12   -0.10    1.63
   5 -10 -12    4.28    2.10
  -5  10  12    3.48    2.56
   4 -10 -12    3.38    1.68
   4 -10 -12   -0.02    1.34
  -4  10  12    0.13    1.96
   3 -10 -12   -0.12    0.98
   3 -10 -12    0.79    1.21
  -3  10  12   -1.06    1.58
  -2  10  12    8.71    2.44
  -2  10  12    9.79    2.71
  -1  10  12   24.64    3.52
  -1  10  12   24.90    3.55
   0  10  12   26.20    3.55
   0  10  12   31.04    4.03
   1  10  12   24.38    3.32
   1  10  12   25.94    3.46
   2  10  12    6.66    2.09
   2  10  12    2.96    1.69
   3  10  12   -0.55    1.10
   4  10  12    1.69    1.42
   5  10  12    5.97    1.85
   6  10  12    7.79    2.02
   7  10  12    7.30    2.12
   8  10  12   11.21    2.57
   9  10  12    9.57    2.40
  10  10  12    3.75    1.88
  11  10  12    2.26    1.89
  12  10  12    0.36    1.77
   4 -11 -12    0.14    1.49
   4 -11 -12    2.04    1.38
  -4  11  12    2.25    2.37
   3 -11 -12   -1.20    1.15
   3 -11 -12    1.04    1.52
  -3  11  12    1.55    2.25
  -2  11  12   -0.61    1.83
  -2  11  12    0.89    1.72
  -1  11  12   12.13    3.11
  -1  11  12    5.08    2.26
   0  11  12    8.42    2.55
   0  11  12    9.29    2.39
   1  11  12    6.90    2.08
   1  11  12    8.57    2.36
   2  11  12   -0.84    1.25
   2  11  12    1.18    1.54
   3  11  12    8.25    2.40
   4  11  12   15.46    2.87
   5  11  12   20.20    3.16
   6  11  12   23.46    3.43
   7  11  12    4.77    1.84
   8  11  12    0.22    1.37
   9  11  12   -1.06    1.20
  10  11  12   -0.56    1.41
  11  11  12   -0.24    1.58
  12  11  12    1.93    2.03
   3 -12 -12    0.42    1.44
   3 -12 -12    1.74    1.65
  -3  12  12   -3.94    1.85
   2 -12 -12   -1.08    1.25
   2 -12 -12   -0.42    1.48
  -2  12  12   -1.79    2.05
  -1  12  12    0.60    1.86
  -1  12  12   -0.18    1.83
   0  12  12    0.88    1.79
   0  12  12   -0.01    2.05
   1  12  12    0.55    1.45
   1  12  12    0.34    1.50
   2  12  12    0.19    1.55
   2  12  12    1.27    1.60
   3  12  12    2.06    1.77
   4  12  12    8.76    2.35
   5  12  12    7.78    2.13
   6  12  12    3.77    1.87
   7  12  12    1.14    1.59
   8  12  12    3.01    1.73
   9  12  12    6.80    2.31
  10  12  12    4.34    1.92
  11  12  12    1.36    1.90
   2 -13 -12   -0.10    1.43
   2 -13 -12    0.73    1.72
  -2  13  12    0.80    2.42
  -1  13  12    0.96    2.26
  -1  13  12   -0.61    2.01
   0  13  12    1.52    2.19
   0  13  12    2.11    2.11
   1  13  12    0.05    1.93
   1  13  12    2.06    2.11
   2  13  12    1.18    1.55
   2  13  12   -0.10    1.80
   3  13  12   -0.08    1.40
   4  13  12   -0.49    1.42
   5  13  12    2.10    1.61
   6  13  12    0.15    1.35
   7  13  12    2.05    1.90
   8  13  12    1.65    1.76
   9  13  12    2.63    1.97
  10  13  12    2.71    1.86
   0  14  12    9.94    3.05
   0  14  12   11.51    3.37
   1  14  12    7.56    2.72
   1  14  12    2.01    2.22
   2  14  12    1.25    2.26
   2  14  12    5.70    2.56
   3  14  12    2.78    1.90
   4  14  12    1.92    1.88
   5  14  12    2.10    1.86
   6  14  12    0.84    1.93
   7  14  12    2.70    1.91
   8  14  12    5.33    2.42
   9  14  12    1.40    1.77
   3  15  12    3.51    2.12
   4  15  12    2.84    2.30
   5  15  12    5.54    2.66
   6  15  12    6.64    2.80
   7  15  12    6.80    2.51
   2   9 -13    2.94    2.01
   6   8 -13    2.33    2.11
   5   8 -13    5.93    2.39
   4   8 -13    2.18    1.75
   3   8 -13   -0.34    1.44
   2   8 -13   -0.05    1.50
   1   8 -13   -0.54    1.66
   0   8 -13   -0.22    1.60
  -1   8 -13   -0.73    1.56
  -2   8 -13    0.52    1.61
   7   7 -13    4.74    2.34
   6   7 -13    8.63    2.60
   5   7 -13   11.18    2.83
   4   7 -13    2.16    1.79
   3   7 -13    0.69    1.49
   2   7 -13    8.48    2.33
   1   7 -13   11.40    2.69
   0   7 -13    3.56    1.84
  -1   7 -13    1.83    1.71
  -2   7 -13    1.22    1.41
  -3   7 -13    2.22    1.63
  -4   7 -13    1.55    1.66
   8   6 -13    5.18    2.83
   7   6 -13    2.02    1.82
   6   6 -13   -0.16    1.44
   5   6 -13    1.58    1.61
   4   6 -13    0.25    1.26
   3   6 -13    3.09    1.74
   2   6 -13   11.63    2.50
   1   6 -13   14.89    2.82
   0   6 -13    5.55    1.85
  -1   6 -13    0.39    1.33
  -2   6 -13   -1.41    1.08
  -3   6 -13    3.46    1.82
  -4   6 -13    2.65    1.78
  -5   6 -13    2.44    1.73
   9   5 -13    1.95    2.19
   8   5 -13    1.21    1.77
   7   5 -13    2.96    1.91
   6   5 -13    0.56    1.45
   5   5 -13    1.49    1.44
   4   5 -13   -0.77    1.03
   3   5 -13    2.38    1.43
   2   5 -13    6.26    1.90
   1   5 -13    7.97    2.16
   0   5 -13    6.27    1.92
  -1   5 -13    0.05    1.06
  -2   5 -13   -0.21    1.05
  -3   5 -13    2.36    1.45
  -4   5 -13    7.58    2.28
  -5   5 -13    5.29    2.10
  -6   5 -13    3.70    2.16
   9   4 -13    3.61    2.30
   8   4 -13    0.19    1.73
   7   4 -13   -0.67    1.24
   6   4 -13    0.75    1.24
   5   4 -13    6.92    2.08
   4   4 -13   12.53    2.52
   3   4 -13    5.49    1.76
   2   4 -13    1.11    1.18
   1   4 -13    0.95    1.14
   0   4 -13    2.18    1.20
  -2   4 -13    0.13    1.13
  -3   4 -13    4.26    1.79
  -4   4 -13    2.72    1.55
  -5   4 -13    0.66    1.20
  -6   4 -13   -1.34    1.26
  -7   4 -13   -1.03    1.27
   8   3 -13   11.60    3.15
   7   3 -13    9.32    2.58
   6   3 -13    5.51    2.18
   5   3 -13    4.32    1.71
   4   3 -13    1.00    1.20
   3   3 -13    1.18    1.34
   2   3 -13   -1.20    0.74
   1   3 -13    0.37    1.05
   0   3 -13    0.78    1.03
  -2   3 -13    4.79    1.63
  -3   3 -13    1.60    1.20
  -4   3 -13   -0.24    0.85
  -5   3 -13   -0.48    1.02
  -6   3 -13    3.41    1.66
  -7   3 -13   -0.02    1.16
  -8   3 -13   -0.12    1.42
  10   2 -13    3.29    2.03
   9   2 -13    0.41    1.53
   4   2 -13   22.81    3.39
   3   2 -13   24.06    3.35
   2   2 -13   20.12    2.83
   1   2 -13   21.21    2.90
   0   2 -13    7.02    1.78
  -1   2 -13    4.02    2.22
  -2   2 -13    0.70    1.08
  -3   2 -13   -0.49    0.82
  -4   2 -13    0.73    0.99
  -5   2 -13    9.89    2.23
  -6   2 -13   14.00    2.54
  -7   2 -13    7.05    2.12
  -8   2 -13   -0.35    1.26
  -9   2 -13    0.42    1.82
  10   1 -13   -1.31    1.66
   9   1 -13    0.53    1.44
   8   1 -13   -0.69    1.31
   7   1 -13    4.78    1.84
   6   1 -13    0.98    1.08
   5   1 -13    6.35    1.79
   4   1 -13   31.20    3.43
   3   1 -13   30.65    3.55
   3   1 -13   31.29    2.79
   2   1 -13   12.96    2.32
   1   1 -13    6.35    1.65
   0   1 -13    0.41    0.77
  -1   1 -13    0.13    0.90
  -2   1 -13    6.10    1.79
  -3   1 -13   15.04    2.50
  -4   1 -13    6.19    1.68
  -5   1 -13   13.57    2.30
  -6   1 -13    7.43    2.03
  -7   1 -13    1.89    1.45
  -8   1 -13    1.02    1.42
  -9   1 -13    1.79    1.53
 -10   1 -13    6.46    2.39
  10   0 -13   -0.02    1.53
   9   0 -13    0.15    1.36
   8   0 -13    0.28    1.18
   7   0 -13    1.62    1.19
   6   0 -13    1.63    1.35
   5   0 -13    1.38    0.95
   4   0 -13    3.05    1.09
   4   0 -13    6.13    1.34
   3   0 -13   19.70    2.22
   3   0 -13   16.45    2.36
   2   0 -13   33.14    2.30
  -1   0  13    6.42    1.55
   0   0 -13   16.79    2.29
   0   0  13   15.96    2.20
  -1   0 -13   10.76    2.01
  -1   0 -13    9.51    1.80
   1   0  13   13.13    2.05
  -2   0 -13   19.33    2.58
  -3   0 -13   24.58    2.96
  -4   0 -13    0.18    0.82
  -5   0 -13    0.99    1.04
  -6   0 -13   -0.54    0.97
  -7   0 -13    0.63    1.28
  -8   0 -13   -0.59    1.20
  -9   0 -13   -0.07    1.36
 -10   0 -13    3.87    2.20
   9  -1 -13    0.95    1.76
   8  -1 -13   -0.09    1.33
   7  -1 -13    0.83    1.30
   6  -1 -13    1.88    1.40
   5  -1 -13    0.31    0.80
   4  -1 -13    1.38    0.84
   4  -1 -13    0.52    0.79
   3  -1 -13    1.22    0.84
   3  -1 -13    0.70    0.86
  -2   1  13    1.50    1.12
  -1   1  13   10.74    1.99
   0   1  13    4.98    1.53
  -1  -1 -13   27.31    2.98
  -1  -1 -13   24.76    2.68
   1   1  13   26.57    2.80
  -2  -1 -13   15.13    2.33
  -3  -1 -13    0.31    0.91
   3   1  13    0.64    0.75
  -4  -1 -13    0.06    0.82
   4   1  13   -0.18    0.72
  -5  -1 -13    7.84    1.84
  -6  -1 -13   10.93    2.13
   6   1  13    7.58    2.48
  -7  -1 -13    4.53    1.62
  -8  -1 -13   -0.43    1.24
  -9  -1 -13    3.00    1.57
 -10  -1 -13    0.64    1.54
 -11  -1 -13   -1.00    1.77
   9  -2 -13    6.85    2.28
   8  -2 -13   15.54    3.10
   7  -2 -13   10.73    2.70
   6  -2 -13    0.00    0.99
   5  -2 -13    1.38    1.06
   4  -2 -13   10.87    1.93
   4  -2 -13   14.71    2.45
   3  -2 -13    8.44    1.56
   3  -2 -13    4.88    1.45
  -2   2  13    8.19    1.83
  -1   2  13    2.24    1.16
   0   2  13    8.41    1.82
  -1  -2 -13    5.73    1.42
   1   2  13   10.53    1.93
  -2  -2 -13    0.84    0.84
   2   2  13    0.40    0.86
  -3  -2 -13    2.92    1.16
   3   2  13    3.26    1.34
  -4  -2 -13    1.17    0.95
   4   2  13    0.58    1.02
  -5  -2 -13    2.73    1.26
   5   2  13    4.49    1.51
  -6  -2 -13    6.56    1.88
   6   2  13    6.56    1.67
  -7  -2 -13    7.03    1.88
   7   2  13    8.15    2.06
  -8  -2 -13   -0.10    1.10
   8   2  13    0.59    1.44
  -9  -2 -13   -0.20    1.37
   9   2  13    2.64    1.72
 -10  -2 -13    6.29    2.08
 -11  -2 -13    2.74    1.86
   9  -3 -13    3.11    2.13
   8  -3 -13    1.38    1.53
   7  -3 -13    1.18    1.38
   6  -3 -13    1.84    1.26
   5  -3 -13   15.15    2.23
   5  -3 -13   18.81    3.01
   4  -3 -13   45.47    3.22
   4  -3 -13   42.15    4.41
   3  -3 -13   21.08    3.06
   3  -3 -13   25.86    2.84
  -2   3  13   49.47    3.60
  -1   3  13   11.26    2.12
   0  -3 -13    5.34    1.27
   0   3  13    7.73    1.91
  -1  -3 -13    6.26    1.44
   1   3  13    7.21    1.74
  -2  -3 -13    7.53    1.56
   2   3  13    8.62    1.96
  -3  -3 -13   17.89    2.25
   3   3  13   23.70    2.80
  -4  -3 -13   35.39    3.40
   4   3  13   37.95    3.53
  -5  -3 -13   20.54    2.65
   5   3  13   23.18    2.99
  -6  -3 -13    3.16    1.28
   6   3  13    5.26    1.59
  -7  -3 -13    3.10    1.51
   7   3  13    2.27    1.53
  -8  -3 -13    0.12    1.05
   8   3  13    0.83    1.47
  -9  -3 -13    0.67    1.29
   9   3  13    4.91    2.01
 -10  -3 -13    3.97    1.79
  10   3  13    0.87    1.89
 -11  -3 -13   -1.09    1.56
  11   3  13    1.41    1.78
 -12  -3 -13    1.21    1.95
  12   3  13    1.33    1.91
   9  -4 -13   -0.98    1.68
   8  -4 -13   -0.59    1.21
   7  -4 -13    1.95    1.65
   6  -4 -13    9.18    2.34
   5  -4 -13    5.58    1.50
   5  -4 -13    8.12    2.11
   4  -4 -13   17.19    2.88
   4  -4 -13   19.84    2.70
  -2   4  13    6.80    1.96
  -1   4  13    0.75    1.06
   0   4  13   22.84    2.92
  -1  -4 -13   34.31    2.36
   1   4  13   45.76    4.22
  -2  -4 -13   44.61    2.67
   2   4  13   46.59    3.35
  -3  -4 -13   41.56    2.75
   3   4  13   40.78    3.16
  -4  -4 -13   10.38    1.81
   4   4  13    9.53    2.05
  -5  -4 -13    1.40    1.06
   5   4  13    2.68    1.40
  -6  -4 -13    1.96    1.21
   6   4  13    1.04    1.25
  -7  -4 -13   12.45    2.09
   7   4  13   12.45    2.34
  -8  -4 -13    5.45    1.78
   8   4  13    4.94    1.84
  -9  -4 -13    3.29    1.67
   9   4  13    5.74    2.00
 -10  -4 -13    1.32    1.52
  10   4  13    5.59    2.07
 -11  -4 -13    2.40    1.92
  11   4  13    3.71    2.12
 -12  -4 -13    1.21    1.91
  12   4  13    1.48    1.98
   8  -5 -13   -0.07    1.33
   7  -5 -13    0.47    1.50
   6  -5 -13   -0.75    1.03
   5  -5 -13    0.41    1.02
   5  -5 -13    0.70    0.88
   4  -5 -13    3.42    1.54
   4  -5 -13    3.17    1.33
  -3   5  13    0.26    1.11
  -2   5  13    2.52    1.45
  -1   5  13    4.38    1.54
   0   5  13   17.59    2.65
   1   5  13    6.86    1.69
   2   5  13    0.87    1.06
  -3  -5 -13    0.28    0.72
   3   5  13    1.53    1.14
  -4  -5 -13    2.40    1.03
   4   5  13    4.79    1.62
  -5  -5 -13    4.88    1.42
   5   5  13    3.58    1.56
  -6  -5 -13    6.14    1.58
   6   5  13    6.98    1.89
  -7  -5 -13   16.94    2.57
   7   5  13   25.66    3.27
  -8  -5 -13   12.49    2.40
   8   5  13   10.69    2.29
  -9  -5 -13    7.90    2.04
   9   5  13    6.88    2.10
 -10  -5 -13    0.24    1.45
  10   5  13    1.69    1.63
 -11  -5 -13    2.12    1.74
  11   5  13   -1.88    1.46
 -12  -5 -13    1.56    1.84
  12   5  13   -1.29    1.72
   8  -6 -13    0.00    1.69
   7  -6 -13    2.28    1.80
   6  -6 -13    0.39    1.44
   5  -6 -13   -0.29    0.91
   5  -6 -13    0.57    0.87
   4  -6 -13    0.39    0.97
   4  -6 -13   -0.82    0.98
  -3   6  13    0.34    1.23
  -2   6  13    7.48    2.03
  -1   6  13    9.60    2.17
   0   6  13    3.45    1.40
   1   6  13    0.81    1.12
   2   6  13   13.43    2.39
   3   6  13   31.53    3.51
  -4  -6 -13   49.79    5.29
   4   6  13   37.89    3.81
  -5  -6 -13   13.97    2.07
   5   6  13   14.59    2.45
  -6  -6 -13    1.08    1.08
   6   6  13   -0.14    1.16
  -7  -6 -13   -0.31    1.02
   7   6  13    1.07    1.14
  -8  -6 -13   -0.08    1.09
   8   6  13   -0.71    1.15
  -9  -6 -13    1.12    1.40
   9   6  13   -0.18    1.33
 -10  -6 -13    0.91    1.33
  10   6  13    0.49    1.51
 -11  -6 -13    2.66    1.76
  11   6  13    2.84    1.71
 -12  -6 -13   -1.51    1.43
  12   6  13    0.40    2.04
   7  -7 -13    1.45    1.76
   6  -7 -13   10.74    2.73
   5  -7 -13    5.04    1.85
   5  -7 -13    7.35    1.85
   4  -7 -13    5.94    1.82
   4  -7 -13    3.09    1.62
  -2   7  13    5.78    1.88
  -1   7  13    2.94    1.60
   0   7  13    2.23    1.45
   1   7  13    3.16    1.48
   2   7  13   16.30    2.70
   3   7  13   17.23    2.80
   4   7  13   18.52    2.71
   5   7  13    4.56    1.61
  -6  -7 -13    1.36    1.08
   6   7  13    3.54    1.67
  -7  -7 -13    9.38    1.95
   7   7  13    7.18    2.02
  -8  -7 -13   11.12    2.09
   8   7  13    9.83    2.29
  -9  -7 -13    1.16    1.35
   9   7  13    2.78    1.76
 -10  -7 -13    0.60    1.25
  10   7  13    0.55    1.44
 -11  -7 -13    1.52    1.52
  11   7  13   -0.13    1.43
  12   7  13    0.19    1.76
   6  -8 -13    8.95    2.53
   5  -8 -13   18.15    2.68
   5  -8 -13   18.70    3.31
   4  -8 -13    7.89    2.10
   4  -8 -13   11.93    2.28
   3  -8 -13    2.68    1.22
   3  -8 -13    0.21    0.99
  -2   8  13    7.53    2.19
  -1   8  13    3.44    1.55
   0   8  13    2.40    1.66
   0   8  13    8.34    2.16
   1   8  13    1.61    1.45
   1   8  13    5.57    1.89
   2   8  13    0.68    1.32
   3   8  13   13.20    2.44
   4   8  13   25.66    3.27
   5   8  13    6.99    1.95
   6   8  13    3.92    1.55
   7   8  13    6.51    1.98
  -8  -8 -13   12.15    2.14
   8   8  13   15.09    2.65
  -9  -8 -13   15.73    2.51
   9   8  13   15.77    2.89
 -10  -8 -13    5.41    1.74
  10   8  13    2.89    1.81
  11   8  13   -1.00    1.42
  12   8  13    1.48    2.06
   6  -9 -13   -0.56    1.44
   5  -9 -13    2.76    1.70
   5  -9 -13    1.97    1.37
   4  -9 -13    0.10    1.24
   4  -9 -13    1.66    1.43
   3  -9 -13    1.58    1.28
   3  -9 -13    3.73    1.81
  -2   9  13   14.34    2.96
  -2   9  13   11.27    2.80
  -1   9  13   31.07    4.06
  -1   9  13   20.66    3.28
   0   9  13   18.15    2.98
   0   9  13   11.61    2.59
   1   9  13    9.27    2.15
   1   9  13    5.69    1.86
   2   9  13    3.76    1.74
   3   9  13   -0.47    1.04
   4   9  13    3.22    1.55
   5   9  13   -0.65    1.09
   6   9  13    3.74    1.60
   7   9  13    4.57    1.84
   8   9  13   14.79    2.79
   9   9  13    8.98    2.45
  10   9  13    3.66    1.82
  11   9  13   -1.34    1.35
  12   9  13    0.29    1.71
   5 -10 -13   -0.20    1.48
   5 -10 -13    2.41    1.81
   4 -10 -13   -0.65    1.28
   4 -10 -13    0.62    1.42
  -4  10  13   -0.09    2.08
   3 -10 -13    0.65    1.28
   3 -10 -13    1.01    1.52
  -3  10  13    0.75    1.91
  -2  10  13   -0.30    1.44
  -2  10  13    2.97    2.13
  -1  10  13    8.93    2.63
  -1  10  13   11.43    2.98
   0  10  13    1.46    1.94
   0  10  13    5.15    1.89
   1  10  13   -0.67    1.10
   1  10  13   -0.38    1.51
   2  10  13    1.89    1.48
   3  10  13   10.61    2.26
   4  10  13   18.85    3.02
   5  10  13    2.40    1.58
   6  10  13    7.13    2.15
   7  10  13    1.60    1.46
   8  10  13    1.70    1.46
   9  10  13    1.26    1.47
  10  10  13   -0.23    1.52
  11  10  13    1.07    1.73
  12  10  13    2.08    2.00
   4 -11 -13    0.87    1.59
   4 -11 -13    1.47    1.50
  -4  11  13   -1.01    2.18
   3 -11 -13    2.92    1.88
   3 -11 -13    1.68    1.61
  -3  11  13    1.83    2.53
  -2  11  13    2.51    2.10
  -2  11  13    2.94    2.00
  -1  11  13   -1.07    1.63
  -1  11  13   -1.38    1.81
   0  11  13   -2.20    1.69
   0  11  13   -0.01    1.60
   1  11  13    1.50    1.68
   1  11  13    4.00    2.02
   2  11  13    9.19    2.50
   3  11  13   14.84    2.98
   4  11  13   14.86    2.79
   5  11  13   -0.35    1.11
   6  11  13    0.66    1.42
   7  11  13    3.81    1.76
   8  11  13    4.99    1.97
   9  11  13    3.45    1.88
  10  11  13    2.92    1.76
  11  11  13    2.81    2.07
   3 -12 -13    0.13    1.49
   3 -12 -13    0.00    1.43
  -3  12  13    5.20    2.81
   2 -12 -13    2.60    1.63
   2 -12 -13   -0.37    1.21
  -2  12  13    0.72    2.07
  -1  12  13   -1.95    2.02
  -1  12  13    1.92    1.83
   0  12  13    4.34    2.28
   0  12  13    1.44    1.66
   1  12  13    2.68    2.15
   1  12  13    0.86    1.53
   2  12  13    4.20    1.81
   3  12  13   -1.70    1.11
   4  12  13    1.29    1.52
   5  12  13   -1.77    1.26
   6  12  13    1.17    1.51
   7  12  13    1.81    1.68
   8  12  13    7.20    2.18
   9  12  13    6.59    2.32
  10  12  13   -0.06    1.68
  11  12  13    0.33    1.71
  -1  13  13    0.91    2.25
  -1  13  13    3.65    2.84
   0  13  13    2.68    2.41
   0  13  13    4.88    2.41
   1  13  13    6.77    2.45
   1  13  13    0.37    2.01
   2  13  13    5.77    2.21
   3  13  13    0.24    1.76
   4  13  13   -1.07    1.53
   5  13  13    1.53    1.65
   6  13  13    6.83    2.10
   7  13  13    7.51    2.43
   8  13  13    3.20    1.98
   9  13  13   -1.71    1.46
  10  13  13    1.58    2.00
   1  14  13    1.95    2.51
   1  14  13    0.14    1.70
   2  14  13    1.13    1.79
   3  14  13    3.24    2.18
   4  14  13    0.48    1.73
   5  14  13    4.74    2.28
   6  14  13    6.37    2.55
   7  14  13    9.17    2.68
   8  14  13    0.80    1.88
   9  14  13    1.80    2.11
   5  15  13    0.16    2.01
   3   8 -14   -0.69    1.64
   2   8 -14    2.74    2.00
   1   8 -14    2.62    1.90
   6   7 -14    0.83    1.75
   5   7 -14   -0.30    1.56
   4   7 -14    0.38    1.57
   3   7 -14    3.47    1.98
   2   7 -14    3.41    1.94
   1   7 -14    3.63    1.99
  -1   7 -14    0.02    1.59
  -2   7 -14    1.28    1.67
   7   6 -14    0.81    1.88
   6   6 -14    0.76    1.81
   5   6 -14    2.58    1.85
   4   6 -14    0.28    1.40
   3   6 -14    1.14    1.55
   2   6 -14   -0.86    1.26
   1   6 -14    0.31    1.44
  -1   6 -14   -0.07    1.53
  -2   6 -14    0.34    1.47
  -3   6 -14    2.58    1.79
  -4   6 -14    0.44    1.53
   8   5 -14   -0.87    1.63
   7   5 -14   -1.09    1.53
   6   5 -14    1.45    1.74
   5   5 -14    2.84    1.85
   4   5 -14    1.21    1.48
   3   5 -14    0.93    1.33
   2   5 -14   -0.75    1.06
   1   5 -14    1.50    1.43
  -1   5 -14    1.07    1.45
  -2   5 -14    1.26    1.41
  -3   5 -14    0.35    1.22
  -4   5 -14    1.42    1.70
  -5   5 -14   -0.39    1.39
   8   4 -14    7.00    2.76
   7   4 -14    3.50    1.98
   6   4 -14    2.20    1.59
   5   4 -14    4.58    1.90
   4   4 -14   -0.20    1.29
   3   4 -14    0.08    1.21
   2   4 -14    1.45    1.27
   1   4 -14    4.88    1.75
   0   4 -14   16.83    3.43
  -1   4 -14    8.67    2.09
  -2   4 -14    3.51    1.66
  -3   4 -14    0.00    1.16
  -4   4 -14    0.58    1.18
  -5   4 -14    2.82    1.56
  -6   4 -14    1.56    1.77
   9   3 -14    7.07    2.74
   8   3 -14    8.44    2.64
   7   3 -14    3.88    2.10
   6   3 -14   -0.29    1.22
   5   3 -14    0.14    1.34
   4   3 -14    3.37    1.66
   3   3 -14    7.14    1.97
   2   3 -14    1.12    1.21
   1   3 -14   -0.49    0.91
   0   3 -14    4.69    1.63
  -1   3 -14    7.62    2.01
  -2   3 -14    8.66    2.21
  -3   3 -14   -0.21    1.13
  -4   3 -14    2.87    1.45
  -5   3 -14   16.33    3.08
  -6   3 -14    7.19    2.27
  -7   3 -14    0.71    1.62
   5   2 -14    4.12    1.77
   4   2 -14    0.95    1.34
   3   2 -14    2.15    1.32
   2   2 -14    3.38    1.43
   1   2 -14   -0.40    0.92
   0   2 -14    1.72    1.13
  -1   2 -14   -0.34    0.84
  -2   2 -14    0.97    1.19
  -3   2 -14   10.10    2.33
  -4   2 -14    5.04    1.68
  -5   2 -14    5.73    1.80
  -6   2 -14    2.72    1.64
  -7   2 -14   -0.02    1.28
  -8   2 -14   -0.23    1.38
   9   1 -14    2.55    1.73
   8   1 -14   -0.75    1.25
   7   1 -14   -0.49    1.03
   6   1 -14    0.92    1.38
   3   1 -14   -0.33    0.97
   2   1 -14    3.02    1.45
   1   1 -14   13.54    2.32
   0   1 -14   21.90    2.87
  -1   1 -14   18.87    2.77
  -2   1 -14    4.49    1.56
  -3   1 -14    0.03    0.88
  -4   1 -14    0.14    0.99
  -5   1 -14    1.60    1.26
  -6   1 -14    0.74    1.19
  -7   1 -14    1.13    1.53
  -8   1 -14    2.91    1.83
  -9   1 -14    0.44    1.66
   9   0 -14    0.23    1.48
   8   0 -14    1.53    1.61
   7   0 -14    3.48    1.61
   6   0 -14    2.67    1.55
   5   0 -14    0.35    0.91
   4   0 -14   -0.13    0.62
   4   0 -14    0.35    0.83
   3   0 -14    4.86    1.44
   3   0 -14    4.87    1.30
   2   0 -14    7.28    1.65
   2   0 -14    6.66    1.33
   1   0 -14    3.21    1.30
   0   0 -14    9.00    1.84
  -1   0 -14    6.61    1.75
  -2   0 -14    0.43    0.95
  -3   0 -14    7.64    1.82
  -4   0 -14   13.99    2.45
  -5   0 -14   24.37    3.18
  -6   0 -14    7.42    1.89
  -7   0 -14    2.13    1.50
  -8   0 -14    0.37    1.31
  -9   0 -14   -0.08    1.50
 -10   0 -14    1.52    1.92
   9  -1 -14    4.78    2.20
   8  -1 -14   10.00    2.78
   7  -1 -14    2.67    1.70
   6  -1 -14   -0.30    0.97
   5  -1 -14   -0.44    0.83
   4  -1 -14    6.57    1.73
   4  -1 -14    5.62    1.30
   3  -1 -14   12.10    1.98
   3  -1 -14   16.62    2.61
  -2   1  14   12.77    2.28
  -1   1  14   11.17    2.17
   0   1  14    6.16    1.58
  -1  -1 -14   -0.37    0.90
   1   1  14   -0.46    0.66
  -2  -1 -14    2.65    1.23
   2   1  14   -0.51    0.73
  -3  -1 -14    8.37    1.88
   3   1  14    9.68    2.01
  -4  -1 -14    8.60    1.83
  -5  -1 -14   15.01    2.59
  -6  -1 -14    3.80    1.42
  -7  -1 -14    1.91    1.38
  -8  -1 -14   -0.58    1.20
  -9  -1 -14    3.45    1.70
 -10  -1 -14    1.87    2.02
   9  -2 -14    2.12    1.87
   8  -2 -14   -0.32    1.26
   7  -2 -14    1.39    1.60
   6  -2 -14    8.68    2.22
   5  -2 -14   11.35    2.41
   4  -2 -14    6.10    1.66
   4  -2 -14    5.47    1.43
   3  -2 -14    2.04    0.97
   3  -2 -14    2.23    1.25
  -2   2  14    8.85    2.07
  -1   2  14    2.46    1.28
   0   2  14    7.79    1.85
  -1  -2 -14    0.96    0.99
   1   2  14    1.71    1.15
  -2  -2 -14   31.20    3.19
   2   2  14   29.37    3.21
  -3  -2 -14   19.93    2.60
   3   2  14   23.59    2.88
  -4  -2 -14    3.70    1.42
   4   2  14    6.05    1.71
  -5  -2 -14    6.24    1.70
   5   2  14    9.55    2.06
  -6  -2 -14    0.11    1.11
   6   2  14    1.89    1.29
  -7  -2 -14    1.14    1.20
   7   2  14    1.76    1.28
  -8  -2 -14   -1.31    1.09
  -9  -2 -14   -0.14    1.32
 -10  -2 -14    0.80    1.54
 -11  -2 -14    1.68    1.86
   8  -3 -14    1.89    1.82
   7  -3 -14    3.06    2.02
   6  -3 -14    8.75    2.31
   5  -3 -14    2.10    1.15
   5  -3 -14    4.95    1.55
   4  -3 -14   -0.14    0.84
   4  -3 -14   -0.52    0.80
   3  -3 -14    3.41    1.35
   3  -3 -14    3.02    1.07
  -2   3  14    2.04    1.35
  -1   3  14    6.45    1.79
   0  -3 -14   14.65    2.11
   0   3  14   13.85    2.29
  -1  -3 -14   14.93    2.11
   1   3  14   13.42    2.34
  -2  -3 -14   12.74    2.02
   2   3  14   13.71    2.31
  -3  -3 -14   20.67    2.61
   3   3  14   15.92    2.40
  -4  -3 -14    3.18    1.46
   4   3  14    1.59    1.35
  -5  -3 -14    0.88    0.93
   5   3  14    0.48    1.09
  -6  -3 -14    2.08    1.32
   6   3  14    4.54    1.73
  -7  -3 -14    1.50    1.26
   7   3  14    1.93    1.45
  -8  -3 -14    5.05    1.77
   8   3  14    5.54    1.98
  -9  -3 -14    1.07    1.67
   9   3  14    1.17    1.61
 -10  -3 -14   -1.06    1.43
  10   3  14    0.92    1.64
 -11  -3 -14    0.87    1.95
   8  -4 -14   -0.16    1.59
   7  -4 -14    1.54    1.67
   6  -4 -14    1.88    1.49
   5  -4 -14    1.90    1.13
   5  -4 -14    0.28    1.07
   4  -4 -14   14.82    2.74
   4  -4 -14   11.82    2.18
   3  -4 -14   22.36    2.67
  -2   4  14   46.35    3.78
  -1   4  14   15.39    2.62
   0   4  14    5.10    1.71
   1   4  14    4.42    1.55
  -2  -4 -14   11.46    1.86
   2   4  14    9.98    2.09
  -3  -4 -14    0.46    0.87
   3   4  14    0.53    1.14
  -4  -4 -14   -0.03    0.89
   4   4  14   -0.05    1.00
  -5  -4 -14    2.41    1.27
   5   4  14    3.07    1.42
  -6  -4 -14    9.49    2.05
   6   4  14    8.94    2.10
  -7  -4 -14    8.77    2.02
   7   4  14   10.91    2.28
  -8  -4 -14    3.20    1.59
   8   4  14    4.48    1.82
  -9  -4 -14    2.26    1.42
   9   4  14    2.24    1.63
 -10  -4 -14    0.65    1.75
  10   4  14   -0.85    1.45
 -11  -4 -14    0.91    1.70
  11   4  14   -1.26    1.65
   8  -5 -14   -2.42    1.40
   7  -5 -14   -0.94    1.33
   6  -5 -14    2.34    1.45
   5  -5 -14    1.82    1.07
   5  -5 -14   -0.10    1.00
   4  -5 -14    4.16    1.77
   4  -5 -14    0.99    1.00
  -2   5  14   20.72    3.17
  -1   5  14    4.62    1.67
   0   5  14    0.06    1.02
   1   5  14   11.54    2.34
   2   5  14   41.68    3.42
  -3  -5 -14   60.52    6.07
   3   5  14   43.84    3.50
  -4  -5 -14    8.03    1.68
   4   5  14    6.27    1.83
  -5  -5 -14    0.79    0.93
   5   5  14   -0.75    1.09
  -6  -5 -14    1.51    1.14
   6   5  14   -0.12    1.20
  -7  -5 -14    0.10    1.13
   7   5  14   -0.47    1.18
  -8  -5 -14    1.17    1.28
   8   5  14    0.12    1.43
  -9  -5 -14    1.32    1.42
   9   5  14    1.44    1.38
 -10  -5 -14    3.12    1.89
  10   5  14    4.26    2.05
 -11  -5 -14    8.49    2.27
  11   5  14    6.19    2.40
   7  -6 -14    2.64    1.86
   6  -6 -14   -0.98    1.15
   5  -6 -14   -0.19    1.08
   5  -6 -14   -0.06    0.92
   4  -6 -14    0.01    1.07
   4  -6 -14   -0.41    0.80
  -2   6  14    6.57    2.07
  -1   6  14    0.35    1.19
   0   6  14    0.04    1.04
   1   6  14    6.18    1.86
   2   6  14   31.21    3.74
   3   6  14   37.46    3.89
   4   6  14    9.47    2.21
  -5  -6 -14    1.18    0.98
   5   6  14    0.89    1.31
  -6  -6 -14    2.72    1.25
   6   6  14    1.64    1.39
  -7  -6 -14    3.31    1.53
   7   6  14    3.73    1.88
  -8  -6 -14    3.92    1.60
   8   6  14    6.04    1.86
  -9  -6 -14    2.93    1.58
   9   6  14    4.46    1.90
 -10  -6 -14    2.04    1.33
  10   6  14    0.94    1.61
 -11  -6 -14   -1.17    1.50
  11   6  14   -0.83    1.50
 -12  -6 -14   -0.44    1.70
  12   6  14   -0.68    1.77
   7  -7 -14    9.93    2.88
   6  -7 -14    5.13    2.20
   5  -7 -14    4.61    1.53
   5  -7 -14    2.70    1.72
   4  -7 -14   -0.78    0.99
   4  -7 -14    1.10    1.20
   3  -7 -14    0.27    0.96
  -2   7  14    0.69    1.31
  -1   7  14    1.30    1.26
   0   7  14    2.66    1.56
   1   7  14    0.23    1.18
   2   7  14    5.58    1.91
   3   7  14   19.12    2.95
   4   7  14   18.05    2.92
   5   7  14   -2.30    1.03
   6   7  14    3.66    1.69
  -7  -7 -14    6.45    1.74
   7   7  14    5.99    1.88
  -8  -7 -14    0.37    1.14
   8   7  14    2.41    1.51
  -9  -7 -14   -0.92    1.03
   9   7  14    0.18    1.49
 -10  -7 -14    0.59    1.42
  10   7  14    1.61    1.66
 -11  -7 -14   -0.39    1.55
  11   7  14    1.09    1.84
 -12  -7 -14    0.24    1.46
  12   7  14   -1.45    1.65
   6  -8 -14    0.94    1.66
   5  -8 -14    0.16    1.07
   5  -8 -14   -0.81    1.25
   4  -8 -14    5.74    1.82
   4  -8 -14    3.55    1.73
   3  -8 -14    7.54    2.13
   3  -8 -14    3.46    1.33
  -2   8  14    3.57    1.75
  -1   8  14    2.65    1.69
   0   8  14    5.09    1.72
   1   8  14   -0.13    1.16
   2   8  14   -0.49    1.01
   3   8  14    0.55    1.10
   4   8  14   -0.14    1.08
   5   8  14    1.75    1.52
   6   8  14    5.65    1.89
   7   8  14    3.28    1.63
   8   8  14    2.93    1.58
  -9  -8 -14   -0.53    1.14
   9   8  14    0.49    1.26
 -10  -8 -14    1.85    1.48
  10   8  14   -0.45    1.56
 -11  -8 -14    0.73    1.51
  11   8  14    2.33    2.01
  12   8  14   -0.69    1.74
   5  -9 -14    3.69    1.88
   5  -9 -14    0.74    1.23
   4  -9 -14    4.20    1.83
   4  -9 -14    7.67    2.47
   3  -9 -14    7.21    2.32
   3  -9 -14    5.00    1.71
  -2   9  14    1.50    1.72
  -1   9  14    1.63    1.74
   0   9  14   -0.28    0.99
   1   9  14    2.81    1.57
   1   9  14    2.28    1.98
   2   9  14    5.28    1.79
   3   9  14   29.62    3.66
   4   9  14   23.16    3.31
   5   9  14    8.79    2.19
   6   9  14    0.10    1.27
   7   9  14    0.23    1.33
   8   9  14    2.53    1.52
   9   9  14    2.65    1.82
  10   9  14    0.96    1.59
  11   9  14    1.44    1.86
   4 -10 -14    4.78    2.07
   4 -10 -14    0.78    1.53
   3 -10 -14    2.64    1.75
   3 -10 -14    4.58    1.74
  -2  10  14   -1.03    1.54
  -2  10  14   -1.65    1.87
  -1  10  14    6.76    2.43
  -1  10  14    3.22    1.96
   0  10  14    9.38    2.62
   0  10  14   17.37    3.30
   1  10  14   22.70    3.65
   1  10  14   19.76    3.24
   2  10  14   14.54    3.05
   3  10  14    8.74    2.31
   4  10  14    3.21    1.66
   5  10  14   -0.73    1.20
   6  10  14    5.20    1.91
   7  10  14    1.33    1.35
   8  10  14    4.71    1.87
   9  10  14    9.28    2.51
  10  10  14    5.10    1.92
  11  10  14    2.56    2.07
   3 -11 -14    1.14    1.53
   3 -11 -14   -0.39    1.45
  -3  11  14   -1.05    2.18
  -2  11  14    1.66    2.10
  -2  11  14    0.22    2.19
  -1  11  14    2.88    2.23
  -1  11  14    3.67    2.52
   0  11  14    5.30    2.15
   0  11  14    3.33    2.32
   1  11  14    3.38    1.88
   1  11  14    3.89    2.31
   2  11  14   -1.55    1.14
   3  11  14   -0.42    1.28
   4  11  14    2.55    1.54
   5  11  14    1.04    1.54
   6  11  14   10.41    2.58
   7  11  14    0.76    1.49
   8  11  14    5.64    2.14
   9  11  14   -0.25    1.49
  10  11  14   -2.80    1.30
  11  11  14    1.30    1.79
   2 -12 -14    0.73    1.44
   2 -12 -14    1.26    1.66
  -2  12  14    1.87    2.61
  -1  12  14    0.24    2.14
  -1  12  14    3.29    2.28
   0  12  14    1.05    1.98
   0  12  14   -1.83    2.02
   1  12  14   -0.49    2.38
   1  12  14    3.72    1.98
   2  12  14    0.24    1.40
   3  12  14    0.01    1.41
   4  12  14    4.93    2.06
   5  12  14    6.71    2.17
   6  12  14    1.01    1.56
   7  12  14    1.03    1.65
   8  12  14    2.57    1.93
   9  12  14    0.53    1.59
  10  12  14    0.27    1.68
   0  13  14    1.13    2.20
   0  13  14   -2.79    2.31
   1  13  14    2.40    2.12
   1  13  14   -0.39    3.16
   2  13  14    1.57    1.83
   3  13  14    2.40    1.88
   4  13  14    2.61    1.94
   5  13  14    2.04    1.84
   6  13  14    1.03    1.79
   7  13  14   -0.81    1.48
   8  13  14    1.91    1.88
   9  13  14    1.12    1.92
   2  14  14    6.72    2.65
   3  14  14    0.16    1.79
   4  14  14   -1.03    1.80
   5  14  14   -0.37    1.97
   6  14  14   -1.08    1.38
   7  14  14    0.81    1.74
   3   7 -15   -0.14    1.60
   2   7 -15    2.62    2.00
   5   6 -15    0.43    1.67
   4   6 -15   -1.31    1.31
   3   6 -15    0.14    1.56
   2   6 -15    0.23    1.61
  -1   6 -15   -0.43    1.41
  -2   6 -15   -0.39    1.42
   6   5 -15    1.45    1.91
   5   5 -15    1.71    1.88
   4   5 -15    5.27    1.97
   3   5 -15   -0.70    1.10
   2   5 -15    0.44    1.39
   1   5 -15    5.01    2.12
  -1   5 -15   -0.58    1.23
  -2   5 -15    0.57    1.45
  -3   5 -15    3.37    1.89
  -4   5 -15    2.38    1.65
   7   4 -15   -0.44    1.68
   6   4 -15    2.60    1.79
   5   4 -15    1.35    1.65
   4   4 -15   -0.06    1.30
   3   4 -15    0.20    1.33
   2   4 -15    0.48    1.21
   1   4 -15    0.60    1.25
  -1   4 -15   -0.56    1.21
  -2   4 -15   -0.54    1.06
  -3   4 -15    1.71    1.32
  -4   4 -15   -0.08    1.24
  -5   4 -15   -0.88    1.19
   8   3 -15    3.77    2.35
   7   3 -15    5.10    2.39
   6   3 -15    7.05    2.28
   5   3 -15   10.51    2.59
   4   3 -15    6.21    2.08
   3   3 -15   -0.12    1.13
   2   3 -15    1.49    1.34
   1   3 -15    5.05    1.76
  -1   3 -15    3.38    1.62
  -2   3 -15    2.44    1.42
  -3   3 -15    3.95    1.73
  -4   3 -15    2.29    1.44
  -5   3 -15   -1.35    1.18
  -6   3 -15    0.15    1.56
  -7   3 -15    1.72    1.73
   6   2 -15    2.18    1.73
   5   2 -15    1.39    1.47
   4   2 -15    0.58    1.22
   3   2 -15    2.05    1.38
   2   2 -15   10.84    2.31
   1   2 -15   31.32    3.67
  -1   2 -15    7.45    2.17
  -2   2 -15    3.16    1.58
  -3   2 -15    0.95    1.15
  -4   2 -15   -0.26    1.04
  -5   2 -15    3.64    1.75
  -6   2 -15    5.72    2.06
  -7   2 -15    3.53    1.84
   3   1 -15   12.08    2.47
   2   1 -15   16.61    2.91
   1   1 -15   23.48    3.23
  -1   1 -15    0.37    1.09
  -2   1 -15    1.46    1.33
  -3   1 -15    2.90    1.56
  -4   1 -15    2.60    1.33
  -5   1 -15    4.73    1.81
  -6   1 -15    8.39    2.09
  -7   1 -15    3.59    1.91
  -8   1 -15    0.51    1.53
   8   0 -15   -0.49    1.36
   7   0 -15    1.72    1.47
   6   0 -15   -0.40    1.01
   5   0 -15    3.04    1.44
   4   0 -15    7.09    2.10
   1   0 -15    1.52    1.19
  -1   0 -15    0.23    0.95
  -2   0 -15    0.99    1.08
  -3   0 -15    0.64    1.12
  -4   0 -15   -0.92    0.98
  -5   0 -15    1.55    1.22
  -6   0 -15    1.19    1.43
  -7   0 -15   -0.76    1.32
  -8   0 -15    1.05    1.47
  -9   0 -15   -0.84    1.50
   8  -1 -15    1.58    1.84
   7  -1 -15    5.53    2.10
   6  -1 -15    0.95    1.42
   5  -1 -15    0.37    0.96
   4  -1 -15    0.70    1.05
   4  -1 -15    1.23    0.93
   3  -1 -15   -0.38    0.77
   3  -1 -15    0.03    0.84
  -1   1  15   -0.91    0.95
   0   1  15    0.15    0.88
  -1  -1 -15    2.01    1.24
  -2  -1 -15    4.26    1.57
  -3  -1 -15    3.93    1.50
  -4  -1 -15    1.75    1.15
  -5  -1 -15    5.82    1.84
  -6  -1 -15    3.20    1.54
  -7  -1 -15    1.25    1.54
  -8  -1 -15    0.06    1.45
  -9  -1 -15    0.02    1.53
   8  -2 -15    8.32    2.53
   7  -2 -15    7.57    2.46
   6  -2 -15    2.34    1.40
   5  -2 -15    0.50    1.13
   4  -2 -15    3.13    1.17
   4  -2 -15    3.07    1.37
   3  -2 -15    3.42    1.24
   3  -2 -15    5.71    1.77
  -2   2  15    1.18    1.25
  -1   2  15    5.68    1.76
   0  -2 -15    7.77    1.78
   0   2  15    6.59    1.88
  -1  -2 -15   21.63    2.74
   1   2  15   12.86    2.31
  -2  -2 -15    9.54    1.96
   2   2  15    5.76    1.69
  -3  -2 -15    4.59    1.52
   3   2  15    4.26    1.55
  -4  -2 -15   -0.13    1.03
   4   2  15    1.59    1.34
  -5  -2 -15    7.51    1.96
   5   2  15   12.53    3.05
  -6  -2 -15    7.88    2.06
  -7  -2 -15    2.88    1.47
  -8  -2 -15   -1.59    1.30
  -9  -2 -15    1.62    1.74
 -10  -2 -15    1.29    1.83
   8  -3 -15    3.85    2.08
   7  -3 -15    1.54    1.63
   6  -3 -15    2.44    1.42
   5  -3 -15    3.85    1.37
   5  -3 -15    4.93    1.66
   4  -3 -15   32.25    4.00
   4  -3 -15   31.52    3.48
   3  -3 -15   24.36    2.79
   3  -3 -15   22.64    3.15
  -2   3  15   16.75    2.87
  -1   3  15   16.14    2.76
   0   3  15    1.39    1.21
  -1  -3 -15   -0.24    0.91
   1   3  15    0.88    1.20
  -2  -3 -15    1.06    1.04
   2   3  15   -1.18    0.92
  -3  -3 -15    1.67    1.09
   3   3  15    2.83    1.36
  -4  -3 -15    4.70    1.55
   4   3  15    2.85    1.49
  -5  -3 -15    7.09    1.79
   5   3  15    6.86    1.91
  -6  -3 -15   21.48    2.93
   6   3  15   14.86    2.62
  -7  -3 -15   13.22    2.51
   7   3  15   15.32    2.71
  -8  -3 -15    2.73    1.68
   8   3  15    5.71    1.94
  -9  -3 -15   -0.98    1.50
 -10  -3 -15    0.78    1.54
   7  -4 -15   -1.13    1.27
   6  -4 -15    0.41    1.27
   5  -4 -15    4.83    1.86
   5  -4 -15    4.04    1.43
   4  -4 -15   12.88    2.69
   4  -4 -15   11.00    2.14
   3  -4 -15   13.50    2.23
   3  -4 -15   11.36    2.35
  -2   4  15    2.13    1.50
  -1   4  15   -0.42    0.88
   0   4  15    2.02    1.26
   1   4  15   13.98    2.46
  -2  -4 -15   16.76    2.98
   2   4  15   20.02    3.03
  -3  -4 -15   22.08    2.73
   3   4  15   19.83    2.95
  -4  -4 -15    7.29    1.83
   4   4  15    5.71    1.80
  -5  -4 -15    3.44    1.52
   5   4  15    1.47    1.43
  -6  -4 -15    0.72    1.03
   6   4  15    0.61    1.37
  -7  -4 -15    0.97    1.37
   7   4  15   -0.56    1.24
  -8  -4 -15   -0.75    1.20
   8   4  15    1.38    1.44
  -9  -4 -15    0.67    1.49
   9   4  15    0.27    1.68
 -10  -4 -15    1.67    1.66
  10   4  15    3.61    2.15
 -11  -4 -15    3.07    2.11
  11   4  15    7.77    2.61
   7  -5 -15   -0.53    1.53
   6  -5 -15    1.06    1.37
   5  -5 -15    0.32    0.91
   5  -5 -15   -0.81    0.88
   4  -5 -15   -0.26    1.03
   4  -5 -15   -0.63    0.88
   3  -5 -15    0.87    0.90
   3  -5 -15    0.32    0.89
  -2   5  15    0.52    1.27
  -1   5  15    0.63    1.15
   0   5  15    3.93    1.65
   1   5  15    7.13    1.96
   2   5  15    4.88    1.70
   3   5  15    2.28    1.40
  -4  -5 -15   -0.17    0.90
   4   5  15    0.08    1.17
  -5  -5 -15    1.21    1.10
   5   5  15    1.63    1.38
  -6  -5 -15    8.92    1.98
   6   5  15    9.58    2.13
  -7  -5 -15    9.91    2.21
   7   5  15   12.35    2.50
  -8  -5 -15    2.92    1.47
   8   5  15    2.51    1.52
  -9  -5 -15    1.51    1.55
   9   5  15    1.18    1.71
 -10  -5 -15   -0.79    1.55
  10   5  15    0.18    1.60
 -11  -5 -15   -0.87    1.61
  11   5  15    1.19    1.97
   6  -6 -15   -0.10    1.32
   5  -6 -15    0.19    0.90
   5  -6 -15    0.31    1.13
   4  -6 -15   -0.09    1.14
   4  -6 -15   -0.03    1.00
   3  -6 -15    1.20    1.12
  -2   6  15    1.41    1.41
  -1   6  15    5.66    1.89
   0   6  15   11.92    2.45
   1   6  15    3.33    1.62
   2   6  15    2.11    1.42
   3   6  15    9.45    2.20
   4   6  15   12.85    2.55
   5   6  15   10.63    2.33
  -6  -6 -15    2.10    1.36
   6   6  15    4.20    1.75
  -7  -6 -15    0.99    1.18
   7   6  15    0.35    1.36
  -8  -6 -15   -0.43    1.36
   8   6  15   -2.47    1.13
  -9  -6 -15   -1.68    1.09
   9   6  15    2.11    1.44
 -10  -6 -15    3.51    1.95
  10   6  15    2.75    2.15
 -11  -6 -15    0.09    1.61
  11   6  15    2.14    2.01
   6  -7 -15   -0.68    1.34
   5  -7 -15    7.00    1.88
   5  -7 -15    4.34    2.01
   4  -7 -15    5.49    2.03
   4  -7 -15    6.51    1.94
   3  -7 -15    3.47    1.28
   3  -7 -15    9.52    2.29
  -2   7  15   12.11    2.68
  -1   7  15    6.77    2.01
   0   7  15    5.29    1.81
   1   7  15   -0.20    1.09
   2   7  15    6.88    2.00
   3   7  15    8.50    2.19
   4   7  15    3.24    1.63
   5   7  15    1.80    1.56
   6   7  15    0.17    1.28
   7   7  15    1.65    1.59
  -8  -7 -15   -0.62    1.16
   8   7  15   -1.24    1.39
  -9  -7 -15    1.95    1.43
   9   7  15   -0.40    1.35
 -10  -7 -15    0.81    1.48
  10   7  15   -0.91    1.45
 -11  -7 -15    0.00    1.54
  11   7  15    0.68    1.85
   5  -8 -15    4.31    1.98
   5  -8 -15    4.59    1.63
   4  -8 -15    9.72    2.50
   4  -8 -15    5.82    1.74
   3  -8 -15    1.48    1.21
   3  -8 -15    2.14    1.52
  -2   8  15    1.86    1.56
  -1   8  15   -0.87    1.18
   0   8  15    0.27    1.11
   1   8  15    0.52    1.18
   2   8  15    4.66    1.93
   3   8  15    7.38    2.16
   4   8  15   19.49    3.12
   5   8  15   10.69    2.46
   6   8  15   -0.52    1.27
   7   8  15    4.95    1.87
   8   8  15    5.80    2.09
   9   8  15    8.80    2.48
 -10  -8 -15   -0.19    1.54
  10   8  15    2.70    1.77
 -11  -8 -15    0.99    1.53
  11   8  15    0.91    1.88
   4  -9 -15    4.26    1.74
   4  -9 -15    2.52    1.66
   3  -9 -15    0.75    1.24
   3  -9 -15    1.18    1.57
  -2   9  15    2.53    1.91
  -1   9  15   10.80    2.66
   0   9  15   14.58    2.98
   1   9  15    2.37    1.55
   2   9  15    4.30    1.86
   3   9  15    1.44    1.41
   4   9  15    0.41    1.21
   5   9  15    2.66    1.51
   6   9  15    0.65    1.42
   7   9  15    8.11    2.31
   8   9  15    5.61    2.11
   9   9  15    9.43    2.44
  10   9  15    4.11    2.07
  11   9  15    2.36    2.04
   3 -10 -15    0.67    1.27
   3 -10 -15    4.15    2.01
  -2  10  15    8.99    2.83
  -1  10  15   11.79    2.81
   0  10  15    3.34    1.98
   1  10  15   -0.58    1.25
   2  10  15    1.86    1.69
   3  10  15   11.47    2.78
   4  10  15    6.93    2.11
   5  10  15    1.38    1.39
   6  10  15   -0.79    1.21
   7  10  15   -0.05    1.48
   8  10  15    2.61    1.81
   9  10  15    5.00    2.07
  10  10  15   -1.62    1.44
  -2  11  15    0.21    2.06
  -1  11  15   -0.79    2.24
  -1  11  15   -1.14    1.71
   0  11  15   -1.24    1.89
   0  11  15    1.92    1.93
   1  11  15    1.46    1.52
   2  11  15    4.85    1.95
   3  11  15   12.06    2.79
   4  11  15    9.20    2.27
   5  11  15    2.84    1.83
   6  11  15    0.00    1.47
   7  11  15    1.78    1.80
   8  11  15    3.86    1.89
   9  11  15    2.86    2.12
  10  11  15    1.00    1.92
  -1  12  15   -0.82    2.40
  -1  12  15    3.67    2.28
   0  12  15    1.99    2.23
   0  12  15    1.91    2.16
   1  12  15    1.86    2.11
   2  12  15    1.88    1.80
   3  12  15    0.41    1.78
   4  12  15    2.38    1.93
   5  12  15    0.03    1.46
   6  12  15    0.35    1.55
   7  12  15    5.25    2.29
   8  12  15    7.28    2.47
   9  12  15    8.18    2.49
   1  13  15    2.49    2.42
   2  13  15   -1.21    1.70
   3  13  15    2.88    2.07
   4  13  15    0.90    1.79
   5  13  15    0.86    1.78
   6  13  15    0.57    1.80
   7  13  15    1.43    1.85
   8  13  15   -0.84    1.67
   4  14  15    5.25    2.63
   5  14  15    2.66    2.17
   5   5 -16    3.11    2.15
   4   5 -16    3.75    1.91
   3   5 -16    3.47    2.01
   2   5 -16    0.63    1.41
   0   5 -16    3.67    1.83
  -1   5 -16    2.40    1.87
  -2   5 -16    3.47    1.95
   6   4 -16    9.58    2.96
   5   4 -16    3.06    2.03
   4   4 -16    5.85    2.22
   3   4 -16    1.51    1.48
   2   4 -16    0.40    1.21
  -1   4 -16   10.67    2.66
  -2   4 -16    1.98    1.53
  -3   4 -16   -0.08    1.31
  -4   4 -16    1.05    1.48
   6   3 -16   -0.48    1.24
   5   3 -16   -0.07    1.42
   4   3 -16   -0.85    1.31
   3   3 -16    1.11    1.41
   2   3 -16    3.33    1.77
  -1   3 -16    3.93    1.81
  -2   3 -16    2.28    1.65
  -3   3 -16    1.25    1.54
  -4   3 -16    0.28    1.38
  -5   3 -16    0.75    1.51
   7   2 -16    2.00    2.04
   6   2 -16    0.20    1.44
   5   2 -16    3.09    1.92
   4   2 -16    2.50    1.60
   3   2 -16    3.57    1.79
   2   2 -16    0.09    1.22
  -1   2 -16    1.15    1.35
  -2   2 -16   -0.22    1.18
  -3   2 -16    1.51    1.48
  -4   2 -16    3.57    1.67
  -5   2 -16    6.99    2.38
  -6   2 -16    1.22    1.62
   4   1 -16    7.27    2.15
   3   1 -16    2.53    1.54
   2   1 -16   -0.13    1.06
  -1   1 -16   14.43    2.67
  -2   1 -16   -0.06    1.16
  -3   1 -16   -0.12    1.12
  -4   1 -16    1.35    1.29
  -5   1 -16   -0.31    1.35
  -6   1 -16    0.23    1.25
  -7   1 -16   -0.29    1.58
   2   0 -16    2.16    1.43
  -1   0 -16   13.08    2.43
  -2   0 -16   -0.50    1.05
  -3   0 -16    0.82    1.23
  -4   0 -16    4.32    1.74
  -5   0 -16    6.36    2.01
  -6   0 -16    1.71    1.56
  -7   0 -16    0.60    1.66
  -8   0 -16    1.85    1.83
   7  -1 -16    1.07    1.57
   6  -1 -16    0.09    1.26
   5  -1 -16    0.54    1.03
   4  -1 -16    0.22    1.00
   4  -1 -16    0.94    0.93
   3  -1 -16    1.07    1.01
   3  -1 -16   -0.35    0.91
   2  -1 -16    2.90    1.38
   2  -1 -16    3.33    1.68
   0  -1 -16    1.37    1.32
  -1  -1 -16   10.23    2.29
  -2  -1 -16    2.91    1.53
  -3  -1 -16    0.99    1.21
  -4  -1 -16    6.56    1.96
  -5  -1 -16    7.64    2.18
  -6  -1 -16    5.22    1.94
  -7  -1 -16    0.89    1.58
  -8  -1 -16   -0.26    1.49
  -9  -1 -16   -0.74    1.64
   7  -2 -16   -1.24    1.16
   6  -2 -16    0.86    1.34
   5  -2 -16    4.36    1.69
   4  -2 -16    2.78    1.21
   4  -2 -16    7.08    2.02
   3  -2 -16   10.62    2.39
   3  -2 -16    5.99    1.62
  -2   2  16    3.63    1.74
  -1   2  16    2.61    1.49
   0  -2 -16   -1.04    0.91
   0   2  16    0.21    1.01
  -1  -2 -16   -0.23    1.07
   1   2  16    2.12    1.30
  -2  -2 -16    0.53    1.01
   2   2  16    0.27    1.15
  -3  -2 -16   -0.29    0.99
  -4  -2 -16    6.05    1.96
  -5  -2 -16    8.43    2.04
  -6  -2 -16    2.41    1.58
  -7  -2 -16    0.01    1.19
  -8  -2 -16    0.29    1.53
  -9  -2 -16    0.03    1.51
   7  -3 -16    1.44    1.54
   6  -3 -16    5.81    2.13
   5  -3 -16    6.68    1.98
   5  -3 -16    7.59    1.80
   4  -3 -16    3.25    1.42
   4  -3 -16    3.29    1.53
   3  -3 -16    1.34    1.30
   3  -3 -16    0.40    0.99
  -2   3  16    1.69    1.35
  -1   3  16    1.85    1.35
   0   3  16   11.39    2.26
  -1  -3 -16   15.10    3.84
   1   3  16    8.76    2.20
  -2  -3 -16    3.43    1.32
   2   3  16    6.94    1.89
  -3  -3 -16    1.24    1.15
   3   3  16   -0.33    1.10
  -4  -3 -16    1.92    1.40
   4   3  16    3.72    1.66
  -5  -3 -16    0.46    1.05
   5   3  16    0.18    1.35
  -6  -3 -16   -0.33    1.16
   6   3  16   -0.30    1.24
  -7  -3 -16   -0.19    1.25
  -8  -3 -16    0.07    1.51
  -9  -3 -16    1.32    1.74
 -10  -3 -16    1.04    1.91
   7  -4 -16   -0.48    1.44
   6  -4 -16    4.62    1.99
   5  -4 -16    0.25    0.96
   5  -4 -16    0.59    1.11
   4  -4 -16    0.07    0.90
   4  -4 -16    1.22    1.10
   3  -4 -16    5.68    1.60
   3  -4 -16    4.04    1.64
  -2   4  16   17.70    3.04
  -1   4  16    6.74    1.97
   0   4  16    2.83    1.53
   1   4  16    3.52    1.60
   2   4  16    2.06    1.41
  -3  -4 -16    0.11    0.98
   3   4  16   -0.26    1.14
  -4  -4 -16    0.72    1.20
   4   4  16    1.12    1.27
  -5  -4 -16    6.18    1.83
   5   4  16    9.12    2.43
  -6  -4 -16   19.30    2.90
   6   4  16   12.51    2.60
  -7  -4 -16    7.99    2.08
   7   4  16   14.74    2.81
  -8  -4 -16    2.81    1.58
   8   4  16    2.73    1.85
  -9  -4 -16    0.69    1.64
   9   4  16    0.95    1.84
 -10  -4 -16   -1.66    1.59
   6  -5 -16    1.36    1.57
   5  -5 -16   -0.28    0.97
   5  -5 -16   -0.46    1.19
   4  -5 -16    0.34    1.08
   4  -5 -16    0.64    1.18
   3  -5 -16    0.80    1.04
   3  -5 -16    3.77    1.59
  -2   5  16    8.00    2.31
  -1   5  16    4.88    1.86
   0   5  16    2.56    1.52
   1   5  16    0.79    1.24
   2   5  16    3.13    1.55
   3   5  16   24.70    3.30
   4   5  16   18.69    3.02
  -5  -5 -16    9.68    2.04
   5   5  16    5.09    2.02
  -6  -5 -16    2.98    1.60
   6   5  16    5.34    1.92
  -7  -5 -16    1.13    1.31
   7   5  16    1.22    1.63
  -8  -5 -16   -0.20    1.23
   8   5  16   -0.25    1.53
  -9  -5 -16   -0.33    1.67
   9   5  16    0.01    1.67
 -10  -5 -16    3.35    1.95
  10   5  16    5.09    2.11
   6  -6 -16   -0.57    1.22
   5  -6 -16    0.10    1.35
   5  -6 -16    1.05    1.08
   4  -6 -16    0.00    1.24
   4  -6 -16    0.91    1.28
   3  -6 -16    1.99    1.27
   3  -6 -16    2.23    1.54
  -2   6  16    2.64    1.51
  -1   6  16    9.37    2.55
   0   6  16    0.80    1.27
   1   6  16    4.25    1.82
   2   6  16   11.79    2.47
   3   6  16   15.56    2.73
   4   6  16    7.87    2.20
   5   6  16    0.01    1.33
   6   6  16    1.62    1.55
  -7  -6 -16   -0.48    1.13
   7   6  16    0.56    1.49
  -8  -6 -16   -0.57    1.33
   8   6  16   -1.93    1.23
  -9  -6 -16   -0.97    1.31
   9   6  16   -1.06    1.49
 -10  -6 -16   -1.10    1.63
  10   6  16    1.28    1.76
   5  -7 -16    5.31    2.19
   5  -7 -16    2.33    1.48
   4  -7 -16   -0.87    1.01
   4  -7 -16    1.38    1.50
   3  -7 -16    0.74    1.09
   3  -7 -16    0.71    1.22
  -2   7  16    0.42    1.46
  -1   7  16    0.51    1.40
   0   7  16   -0.97    1.13
   1   7  16    4.06    1.77
   2   7  16   15.38    2.84
   3   7  16   12.13    2.72
   4   7  16    3.56    1.72
   5   7  16    0.00    1.37
   6   7  16    3.18    1.74
   7   7  16    5.52    2.04
   8   7  16   -0.53    1.45
  -9  -7 -16   -1.08    1.38
   9   7  16    0.36    1.64
 -10  -7 -16    1.43    1.70
  10   7  16    0.09    1.51
   4  -8 -16    1.94    1.49
   4  -8 -16    2.54    1.70
   3  -8 -16    6.78    1.87
   3  -8 -16    5.17    2.03
  -2   8  16    5.35    2.38
  -1   8  16    3.69    1.94
   0   8  16    4.38    1.85
   1   8  16    1.88    1.65
   2   8  16    1.95    1.51
   3   8  16   -0.63    1.21
   4   8  16    0.00    1.20
   5   8  16    1.61    1.65
   6   8  16    4.95    2.03
   7   8  16   10.68    2.55
   8   8  16    5.28    2.10
   9   8  16    1.44    1.83
  10   8  16    0.74    1.76
   4  -9 -16    1.65    1.64
   4  -9 -16    2.56    1.65
   3  -9 -16    9.81    2.67
   3  -9 -16    6.52    1.87
  -2   9  16    7.59    2.52
  -1   9  16    3.71    1.99
   0   9  16    1.98    1.74
   1   9  16    3.12    1.84
   2   9  16   12.53    2.84
   3   9  16   12.22    2.64
   4   9  16   21.35    3.34
   5   9  16   17.81    3.29
   6   9  16    2.32    1.71
   7   9  16    4.15    2.03
   8   9  16   -0.99    1.40
   9   9  16    1.92    1.95
  10   9  16    0.40    1.82
   3 -10 -16    2.66    1.92
   3 -10 -16    2.38    1.69
  -2  10  16    0.79    1.93
  -1  10  16    0.28    1.68
   0  10  16    1.90    1.93
   1  10  16    7.15    2.28
   2  10  16   18.19    3.35
   3  10  16   14.40    2.99
   4  10  16    6.92    2.18
   5  10  16   -1.35    1.16
   6  10  16    0.78    1.41
   7  10  16    2.62    1.85
   8  10  16    4.56    2.06
   9  10  16    1.42    1.81
  10  10  16    0.05    1.75
  -1  11  16    1.46    2.12
   0  11  16    3.32    2.20
   1  11  16    1.63    1.68
   2  11  16    1.37    1.51
   3  11  16    0.46    1.58
   4  11  16    1.32    1.63
   5  11  16   -0.93    1.33
   6  11  16    1.74    1.64
   7  11  16    3.49    1.92
   8  11  16    1.44    1.71
   9  11  16    1.88    2.00
   0  12  16    5.35    2.77
   1  12  16    3.91    2.40
   2  12  16    0.93    1.61
   3  12  16   -0.82    1.55
   4  12  16   -0.01    1.82
   5  12  16    0.19    1.59
   6  12  16   -0.47    1.54
   7  12  16    1.56    1.72
   8  12  16   -0.10    1.83
   2  13  16    3.85    2.20
   3  13  16    1.71    2.06
   4  13  16    4.85    2.21
   5  13  16    8.44    2.77
   6  13  16    2.84    1.87
   7  13  16    0.67    1.82
   4   4 -17   -0.30    1.45
   3   4 -17    0.39    1.49
   0   4 -17    3.44    1.95
  -1   4 -17    1.40    1.67
  -2   4 -17    0.12    1.38
   5   3 -17    5.75    2.21
   4   3 -17    5.28    2.29
   3   3 -17   -0.74    1.32
   0   3 -17   -0.15    1.40
  -1   3 -17    0.23    1.53
  -2   3 -17    2.55    1.79
  -3   3 -17    3.71    2.00
  -4   3 -17    3.24    1.81
   5   2 -17    4.64    2.15
   4   2 -17    2.49    1.63
   3   2 -17    0.40    1.35
   0   2 -17    8.99    2.46
  -1   2 -17    2.75    1.70
  -2   2 -17    5.31    2.09
  -3   2 -17    2.17    1.57
  -4   2 -17   -0.39    1.28
  -5   2 -17   -0.03    1.55
   6   1 -17   -0.77    1.60
   5   1 -17    0.64    1.61
   4   1 -17    0.18    1.42
   3   1 -17    0.90    1.93
   2   1 -17    2.41    1.96
   0   1 -17    5.12    1.86
  -1   1 -17    0.60    1.43
  -2   1 -17   -0.69    1.22
  -3   1 -17   -0.65    1.19
  -4   1 -17    1.36    1.44
  -5   1 -17    4.42    2.07
  -6   1 -17    1.92    1.80
   3   0 -17    1.15    1.36
   2   0 -17    0.21    1.27
   0   0 -17   -0.70    1.23
  -1   0 -17    2.20    1.58
  -2   0 -17    0.78    1.49
  -3   0 -17   -0.03    1.29
  -4   0 -17    0.38    1.30
  -5   0 -17    0.65    1.36
  -6   0 -17    0.00    1.48
  -7   0 -17   -0.46    1.76
   0  -1 -17    0.32    1.19
  -1  -1 -17    1.33    1.37
  -2  -1 -17    1.60    1.39
  -3  -1 -17    2.39    1.41
  -4  -1 -17    3.26    1.73
  -5  -1 -17   -1.19    1.21
  -6  -1 -17    0.71    1.38
  -7  -1 -17   -1.13    1.41
  -8  -1 -17    0.60    1.65
   6  -2 -17    3.53    1.80
   5  -2 -17    2.48    1.49
   4  -2 -17    2.33    1.90
   4  -2 -17   -0.02    2.63
   3  -2 -17   -0.29    0.86
   3  -2 -17   -0.41    0.91
   2  -2 -17    1.39    0.99
  -1   2  17    4.04    1.76
  -1  -2 -17   13.74    2.59
  -2  -2 -17   15.17    2.54
  -3  -2 -17    7.91    1.99
  -4  -2 -17    0.60    1.24
  -5  -2 -17    2.07    1.50
  -6  -2 -17    4.72    1.91
  -7  -2 -17    2.97    1.73
  -8  -2 -17    1.06    1.71
   6  -3 -17    0.58    1.31
   5  -3 -17   -0.20    1.04
   4  -3 -17    1.37    1.25
   4  -3 -17    3.42    1.37
   3  -3 -17    4.71    1.62
   3  -3 -17    9.64    1.92
  -2   3  17    8.64    2.39
  -1   3  17   11.29    2.51
   0   3  17    4.98    1.79
   1   3  17    8.39    2.23
  -2  -3 -17    3.16    1.52
   2   3  17    6.01    1.93
  -3  -3 -17   -0.08    1.12
   3   3  17    1.23    1.47
  -4  -3 -17   -0.13    1.21
  -5  -3 -17   12.15    2.46
  -6  -3 -17   13.92    2.69
  -7  -3 -17   14.28    2.80
  -8  -3 -17    2.28    1.87
  -9  -3 -17   -0.31    1.73
   6  -4 -17    1.26    1.55
   5  -4 -17    0.09    1.16
   5  -4 -17    0.32    1.03
   4  -4 -17    4.27    1.61
   4  -4 -17    3.60    1.67
   3  -4 -17    6.49    2.05
   3  -4 -17   13.43    2.40
  -2   4  17    5.30    2.27
  -1   4  17   -0.22    1.10
   0   4  17    2.59    1.72
   1   4  17    7.00    2.08
   2   4  17    5.24    1.94
   3   4  17    3.43    1.72
  -4  -4 -17    8.82    2.18
   4   4  17    3.53    1.67
  -5  -4 -17    1.44    1.51
   5   4  17    4.31    1.96
  -6  -4 -17    4.34    1.69
   6   4  17    2.50    1.76
  -7  -4 -17    2.86    1.79
   7   4  17    2.83    1.84
  -8  -4 -17    1.11    1.55
  -9  -4 -17    1.14    1.67
   5  -5 -17    0.81    1.04
   5  -5 -17   -0.21    1.25
   4  -5 -17    0.64    1.04
   4  -5 -17    0.18    1.06
   3  -5 -17    0.78    1.05
   3  -5 -17    2.15    1.52
  -2   5  17    0.08    1.32
  -1   5  17    0.20    1.33
   0   5  17    4.01    1.86
   1   5  17    6.71    2.15
   2   5  17    2.84    1.64
   3   5  17    1.88    1.56
   4   5  17   -0.92    1.12
   5   5  17    4.15    1.86
  -6  -5 -17    2.05    1.65
   6   5  17    2.90    1.72
  -7  -5 -17    4.59    1.76
   7   5  17    2.84    1.88
  -8  -5 -17    1.37    1.69
   8   5  17    1.77    1.70
  -9  -5 -17    0.32    1.50
   9   5  17   -1.63    1.52
   5  -6 -17    0.91    1.28
   5  -6 -17    0.09    1.58
   4  -6 -17   -0.31    1.10
   4  -6 -17    0.95    1.28
   3  -6 -17    0.34    1.27
   3  -6 -17   -0.41    0.95
  -2   6  17   -0.49    1.32
  -1   6  17    0.17    1.28
   0   6  17    1.01    1.44
   1   6  17    4.02    1.79
   2   6  17    0.42    1.35
   3   6  17   -1.13    1.16
   4   6  17    0.46    1.29
   5   6  17    6.97    2.13
   6   6  17   10.83    2.61
   7   6  17    4.50    2.14
  -8  -6 -17    0.69    1.49
   8   6  17    0.03    1.60
  -9  -6 -17   -0.86    1.45
   9   6  17    0.52    1.69
   4  -7 -17    5.23    2.17
   4  -7 -17    5.31    1.84
   3  -7 -17    5.95    1.71
   3  -7 -17    6.25    2.06
  -2   7  17    2.21    1.85
  -1   7  17    6.64    2.28
   0   7  17    5.00    2.01
   1   7  17    3.68    1.80
   2   7  17   -0.72    1.34
   3   7  17    2.03    1.59
   4   7  17    3.41    2.13
   5   7  17    5.87    1.95
   6   7  17    4.57    2.06
   7   7  17    4.53    1.98
   8   7  17    1.85    1.78
   9   7  17   -0.12    1.65
   4  -8 -17    2.84    1.76
   3  -8 -17    6.58    2.40
   3  -8 -17    3.93    1.71
  -2   8  17    2.98    2.17
  -1   8  17    2.69    1.92
   0   8  17    0.01    1.53
   1   8  17   -0.93    1.20
   2   8  17    0.36    1.54
   3   8  17    1.29    1.46
   4   8  17    9.14    2.33
   5   8  17    6.42    2.25
   6   8  17    2.01    1.90
   7   8  17   -0.17    1.53
   8   8  17    0.36    1.45
   9   8  17   -0.25    1.60
   3  -9 -17    1.29    1.75
   3  -9 -17   -0.59    1.09
  -2   9  17    0.50    1.82
  -1   9  17   -0.09    1.55
   0   9  17    2.01    1.89
   1   9  17    1.97    1.63
   2   9  17    4.73    2.10
   3   9  17    3.79    1.87
   4   9  17    0.79    1.37
   5   9  17    1.33    1.56
   6   9  17   -0.30    1.43
   7   9  17    5.81    2.38
   8   9  17    5.03    2.18
   9   9  17    4.11    2.34
  -2  10  17    2.91    2.51
  -1  10  17    1.34    2.05
   0  10  17    3.70    2.19
   1  10  17    1.32    1.55
   2  10  17   -0.21    1.33
   3  10  17    3.26    1.91
   4  10  17    3.84    2.01
   5  10  17    2.09    1.72
   6  10  17    0.14    1.47
   7  10  17    1.26    1.79
   8  10  17    0.57    1.70
   9  10  17    0.54    1.70
   0  11  17    0.30    2.08
   1  11  17    1.53    1.91
   2  11  17    1.97    1.77
   3  11  17    6.45    2.33
   4  11  17    3.96    1.94
   5  11  17    1.98    1.90
   6  11  17   -0.02    1.63
   7  11  17    0.43    1.69
   8  11  17   -0.97    1.51
   2  12  17   -1.50    1.63
   3  12  17    1.45    1.98
   4  12  17    4.34    1.95
   5  12  17    5.01    2.44
   6  12  17    0.19    1.72
   7  12  17    1.45    1.85
   0   3 -18    0.92    1.66
  -1   3 -18    3.00    2.07
   4   2 -18    1.38    1.72
   0   2 -18   -1.43    1.39
  -1   2 -18    0.24    1.37
  -2   2 -18    0.43    1.48
  -3   2 -18    4.92    2.20
   4   1 -18    9.43    2.73
   3   1 -18    1.02    1.34
   0   1 -18    4.24    1.97
  -1   1 -18    6.08    2.14
  -2   1 -18    2.45    1.64
  -3   1 -18    0.75    1.49
  -4   1 -18   -0.07    1.39
  -5   1 -18    0.55    1.49
   4   0 -18    6.00    2.49
   3   0 -18    1.70    1.69
   0   0 -18    2.36    1.60
  -1   0 -18    5.20    1.95
  -2   0 -18    1.26    1.50
  -3   0 -18    0.25    1.48
  -4   0 -18   -0.41    1.42
  -5   0 -18    0.13    1.48
  -6   0 -18   -0.22    1.59
   0  -1 -18    6.17    1.96
  -1  -1 -18    4.05    1.71
  -2  -1 -18    6.10    2.09
  -3  -1 -18   -0.76    1.13
  -4  -1 -18   -0.60    1.21
  -5  -1 -18   -0.74    1.46
  -6  -1 -18    1.72    1.82
   5  -2 -18    1.36    1.47
   4  -2 -18    6.28    1.88
   4  -2 -18    3.26    1.90
  -1  -2 -18    0.55    2.02
  -2  -2 -18    0.40    1.29
  -3  -2 -18   -0.81    1.15
  -4  -2 -18    3.37    1.80
  -5  -2 -18    2.51    1.72
  -6  -2 -18    3.28    1.95
  -7  -2 -18    2.76    1.86
   5  -3 -18    3.07    1.66
   4  -3 -18    5.66    1.69
   4  -3 -18    8.67    2.38
   3  -3 -18    2.42    1.41
   3  -3 -18    3.67    1.69
   2  -3 -18    0.09    2.01
  -1   3  18    4.16    1.89
   0   3  18    4.59    1.90
  -3  -3 -18    0.77    1.43
  -4  -3 -18    1.42    1.55
  -5  -3 -18    1.60    1.43
  -6  -3 -18   -0.34    1.44
  -7  -3 -18    2.01    1.64
  -8  -3 -18   -0.43    1.59
   5  -4 -18    0.72    1.36
   4  -4 -18    1.61    1.30
   4  -4 -18    1.80    1.42
   3  -4 -18    1.37    1.30
   3  -4 -18    0.27    1.09
  -2   4  18    1.46    1.73
  -1   4  18   10.92    2.72
   0   4  18   13.53    2.73
   1   4  18    8.73    2.38
   2   4  18    0.86    1.43
   3   4  18    1.01    1.39
   4   4  18    1.12    1.50
  -5  -4 -18    1.44    1.60
   5   4  18   -0.24    1.89
  -6  -4 -18    2.85    1.73
  -7  -4 -18    4.64    2.11
  -8  -4 -18    5.09    1.92
   4  -5 -18    0.12    1.24
   4  -5 -18    0.09    1.25
   3  -5 -18   -0.33    0.93
   3  -5 -18    1.61    1.41
  -2   5  18    0.42    1.58
  -1   5  18    4.34    2.18
   0   5  18   -0.46    1.41
   1   5  18   -0.29    1.21
   2   5  18    1.05    1.45
   3   5  18    0.09    1.42
   4   5  18    1.10    1.53
   5   5  18    2.08    1.83
   6   5  18    4.30    1.93
  -7  -5 -18    3.24    1.77
   7   5  18    0.87    1.73
  -8  -5 -18   -0.86    1.63
   8   5  18    0.98    1.84
   4  -6 -18    0.57    1.26
   4  -6 -18    1.16    1.38
   3  -6 -18   -1.34    1.24
   3  -6 -18    1.25    1.25
  -2   6  18   -0.50    1.57
  -1   6  18    0.76    1.63
   0   6  18    0.68    1.53
   1   6  18    1.75    1.69
   2   6  18    1.88    1.59
   3   6  18    2.24    1.67
   4   6  18    2.31    1.71
   5   6  18    0.78    1.85
   6   6  18    1.18    1.70
   7   6  18   -0.95    1.47
   8   6  18    1.56    1.99
   3  -7 -18    2.54    2.02
   3  -7 -18    1.25    1.36
  -2   7  18   -0.49    1.55
  -1   7  18    2.24    1.82
   0   7  18   -1.18    1.37
   1   7  18    3.46    1.98
   2   7  18    3.30    2.01
   3   7  18    6.61    2.13
   4   7  18    4.09    1.80
   5   7  18    1.30    1.68
   6   7  18    2.33    1.69
   7   7  18    2.70    1.90
   8   7  18    2.40    2.01
  -2   8  18    8.12    2.91
  -1   8  18    3.42    2.20
   0   8  18    1.64    1.80
   1   8  18    0.39    1.51
   2   8  18    1.56    1.62
   3   8  18    2.53    1.72
   4   8  18    0.59    1.48
   5   8  18    2.76    1.84
   6   8  18    3.60    2.11
   7   8  18    8.21    2.72
   8   8  18    5.99    2.33
  -1   9  18    4.77    2.56
   0   9  18   -1.08    1.68
   1   9  18    0.86    1.66
   2   9  18    2.69    1.78
   3   9  18    2.12    1.76
   4   9  18    5.39    2.39
   5   9  18    9.22    2.61
   6   9  18    0.14    1.63
   7   9  18    4.48    2.28
   8   9  18    3.00    2.00
   0  10  18    1.29    1.93
   1  10  18    3.51    2.10
   2  10  18    7.97    2.43
   3  10  18    4.05    2.14
   4  10  18    1.38    2.02
   5  10  18   -1.02    1.36
   6  10  18   -2.40    1.33
   7  10  18    2.09    2.02
   2  11  18    1.15    2.03
   3  11  18    0.95    1.74
   4  11  18    0.91    1.76
   5  11  18   -0.11    1.66
   6  11  18    1.35    1.76
   1   1 -19    0.19    1.64
   0   1 -19    0.96    1.68
  -1   1 -19    0.67    1.62
  -2   1 -19    0.02    1.56
   1   0 -19    4.47    2.14
   0   0 -19    2.25    1.84
  -1   0 -19    1.67    1.58
  -2   0 -19    0.39    1.55
  -3   0 -19    1.75    1.69
  -4   0 -19    0.91    1.50
  -1  -1 -19    2.58    1.81
  -2  -1 -19    1.34    1.66
  -3  -1 -19    6.15    2.09
  -4  -1 -19    0.37    1.54
  -5  -1 -19    1.20    1.71
  -2  -2 -19    8.08    3.66
  -3  -2 -19    0.56    1.70
  -4  -2 -19    1.03    1.55
  -5  -2 -19    0.29    1.72
  -6  -2 -19    0.23    1.87
   3  -3 -19    0.73    1.13
   3  -3 -19    1.30    1.21
   2  -3 -19    5.58    2.87
   2  -3 -19    2.28    1.60
  -4  -3 -19   -0.21    1.59
  -5  -3 -19    2.35    1.62
  -6  -3 -19    2.70    1.98
   3  -4 -19    3.19    1.94
   3  -4 -19    2.18    1.85
   2  -4 -19    0.87    1.22
  -1   4  19    1.57    1.58
   0   4  19   -1.76    1.33
   1   4  19    2.19    1.70
   2   4  19    0.54    1.62
  -6  -4 -19    0.83    1.58
  -7  -4 -19   -0.41    1.65
   3  -5 -19    1.90    1.51
   3  -5 -19    2.52    1.50
  -1   5  19    1.28    1.73
   0   5  19    5.44    2.15
   1   5  19    8.55    2.68
   2   5  19    3.77    2.08
   3   5  19    0.56    1.46
   4   5  19   -0.67    1.34
   5   5  19   -0.70    1.41
   6   5  19    1.29    1.65
  -2   6  19   -0.74    1.63
  -1   6  19    0.03    1.58
   0   6  19    0.45    1.46
   1   6  19    8.76    2.61
   2   6  19    7.25    2.37
   3   6  19    0.93    1.68
   4   6  19   -1.78    1.41
   5   6  19    3.87    1.86
   6   6  19    2.10    1.96
   7   6  19    3.95    2.28
  -2   7  19    0.87    1.87
  -1   7  19    4.03    2.21
   0   7  19    4.61    2.11
   1   7  19    5.01    2.10
   2   7  19    5.91    2.34
   3   7  19    0.80    1.69
   4   7  19   -0.07    1.58
   5   7  19    0.87    1.62
   6   7  19    4.80    2.41
   7   7  19    3.05    2.17
  -1   8  19   -0.58    1.90
   0   8  19    0.71    1.79
   1   8  19   -0.07    1.57
   2   8  19    0.16    1.51
   3   8  19    0.07    1.59
   4   8  19   -0.50    1.52
   5   8  19    3.54    2.10
   6   8  19    5.18    2.40
   7   8  19   -0.35    2.50
   0   9  19    4.96    2.46
   1   9  19    4.82    2.34
   2   9  19    3.06    2.03
   3   9  19    1.87    1.89
   4   9  19   -0.01    1.71
   5   9  19    2.64    1.89
   6   9  19   -0.22    1.76
   2  10  19   -2.56    1.67
   3  10  19   -1.57    1.54
   4  10  19    0.57    1.64
   5  10  19    0.78    1.68
  -1   5  20   -0.29    1.58
   0   5  20    0.45    1.60
   1   5  20    2.97    1.94
   2   5  20    1.84    1.94
   3   5  20   -0.99    1.57
   0   6  20    2.74    1.98
   1   6  20    2.15    1.75
   2   6  20    0.03    1.71
   3   6  20    1.57    1.91
   4   6  20    1.74    1.87
   5   6  20   -0.04    1.72
   1   7  20    2.66    2.09
   2   7  20    2.63    2.07
   3   7  20    1.53    1.96
   4   7  20    2.12    1.95
   5   7  20    3.24    2.19
   2   8  20    2.41    2.25
   3   8  20    4.58    2.41
   4   8  20    2.58    1.92
   0   0   0    0.00    0.00
;
_shelx_hkl_checksum              28542
loop_
_space_group_symop_operation_xyz
'x, y, z'
'-x, -y, -z'
loop_
_atom_site_label
_atom_site_type_symbol
_atom_site_fract_x
_atom_site_fract_y
_atom_site_fract_z
_atom_site_U_iso_or_equiv
_atom_site_adp_type
_atom_site_occupancy
_atom_site_site_symmetry_order
_atom_site_calc_flag
_atom_site_refinement_flags_posn
_atom_site_refinement_flags_adp
_atom_site_refinement_flags_occupancy
_atom_site_disorder_assembly
_atom_site_disorder_group
Ru1 Ru 0.4447(3) 0.2744(3) 0.2687(2) 0.0369(12) Uani 1 1 d . . . . .
Ru2 Ru 0.4078(4) 0.4613(3) 0.2898(3) 0.0743(16) Uani 1 1 d . . . . .
P3 P 0.3306(10) 0.6621(11) 0.2926(8) 0.060(3) Uani 1 1 d . . . . .
S1 S 0.6257(13) 0.4000(10) 0.3476(8) 0.069(3) Uani 1 1 d . . . . .
P5 P 0.5986(12) 0.3134(11) 0.1489(9) 0.064(3) Uani 1 1 d . . . . .
S2 S 0.5598(11) 0.5083(11) 0.1688(7) 0.060(3) Uani 1 1 d . . . . .
P7 P 0.6568(12) 0.2178(12) 0.3251(9) 0.070(4) Uani 1 1 d . . . . .
C1 C 0.873(3) 0.521(3) 0.186(3) 0.034(8) Uani 1 1 d . . . . .
C3 C 0.885(3) 0.323(3) 0.179(3) 0.039(9) Uani 1 1 d . . . . .
C2 C 0.821(3) 0.438(2) 0.198(2) 0.028(8) Uani 1 1 d . . . . .
C5 C 1.056(3) 0.400(3) 0.119(2) 0.038(9) Uani 1 1 d . . . . .
C4 C 1.000(3) 0.312(3) 0.139(3) 0.043(10) Uani 1 1 d . . . . .
C6 C 1.030(5) 0.613(5) 0.117(3) 0.081(17) Uani 1 1 d . . . . .
C9 C 0.834(10) 0.590(10) 0.208(5) 0.16(4) Uani 1 1 d . . . . .
C8 C 0.818(12) 0.697(18) 0.164(7) 0.37(8) Uani 1 1 d . . . . .
C7 C 0.978(12) 0.687(14) 0.194(12) 0.73(12) Uani 1 1 d . . . . .
C10 C 0.675(4) 0.443(4) 0.250(3) 0.062(13) Uani 1 1 d . . . . .
S4 S 0.404(3) 0.360(4) 0.101(3) 0.266(16) Uani 1 1 d . . . . .
S3 S 0.300(2) 0.578(3) 0.169(3) 0.217(15) Uani 1 1 d . . . . .
C11 C 0.311(5) 0.565(5) 0.087(2) 0.074(15) Uani 1 1 d . . . . .
C12 C 0.248(5) 0.652(6) 0.027(3) 0.098(19) Uani 1 1 d . . . . .
C13 C 0.219(4) 0.690(3) 0.383(3) 0.070(14) Uani 1 1 d . . . . .
C14 C 0.106(5) 0.680(4) 0.372(3) 0.066(13) Uani 1 1 d . . . . .
C15 C 0.227(4) 0.751(3) 0.439(2) 0.045(9) Uani 1 1 d . . . . .
loop_
_atom_site_aniso_label
_atom_site_aniso_U_11
_atom_site_aniso_U_22
_atom_site_aniso_U_33
_atom_site_aniso_U_23
_atom_site_aniso_U_13
_atom_site_aniso_U_12
Ru1 0.042(2) 0.0346(18) 0.0380(19) -0.0120(13) 0.0015(12) -0.0157(13)
Ru2 0.090(3) 0.049(2) 0.088(3) -0.028(2) 0.036(2) -0.035(2)
P3 0.033(6) 0.067(7) 0.075(8) -0.011(6) -0.014(5) -0.012(5)
S1 0.089(9) 0.048(7) 0.069(8) -0.017(6) -0.011(7) -0.018(6)
P5 0.066(8) 0.054(7) 0.075(8) -0.020(6) 0.007(6) -0.023(6)
S2 0.055(7) 0.068(7) 0.051(7) -0.010(6) 0.002(5) -0.019(6)
P7 0.049(8) 0.077(9) 0.081(9) -0.015(7) -0.009(6) -0.018(6)
C1 0.027(18) 0.033(19) 0.05(2) -0.031(17) 0.012(14) -0.011(14)
C3 0.006(15) 0.05(2) 0.07(3) -0.02(2) -0.002(15) -0.012(14)
C2 0.023(17) 0.009(15) 0.05(2) -0.012(14) -0.028(15) 0.010(12)
C5 0.04(2) 0.06(2) 0.033(19) -0.014(17) -0.010(15) -0.032(17)
C4 0.007(16) 0.021(17) 0.10(3) -0.034(19) -0.013(17) 0.010(13)
C6 0.11(4) 0.13(5) 0.04(2) -0.03(3) 0.04(2) -0.09(4)
C9 0.19(10) 0.27(10) 0.09(5) -0.01(5) 0.06(5) -0.21(9)
C8 0.18(13) 0.9(3) 0.16(8) -0.27(12) 0.13(8) -0.32(16)
C7 0.49(12) 0.65(19) 1.1(3) -0.4(2) 0.71(17) -0.40(14)
C10 0.04(2) 0.05(2) 0.06(3) -0.02(2) -0.02(2) 0.037(19)
S4 0.12(3) 0.35(4) 0.38(4) -0.23(4) 0.03(2) -0.06(2)
S3 0.11(2) 0.15(2) 0.35(4) 0.01(3) 0.01(2) -0.071(17)
C11 0.10(4) 0.13(4) 0.006(18) -0.02(2) -0.003(19) -0.05(3)
C12 0.13(4) 0.18(6) 0.02(2) 0.01(3) 0.00(2) -0.13(4)
C13 0.04(2) 0.04(2) 0.13(4) -0.04(2) 0.06(2) -0.014(18)
C14 0.09(4) 0.06(3) 0.06(3) -0.02(2) 0.03(2) -0.05(2)
C15 0.06(3) 0.04(2) 0.03(2) -0.013(17) 0.019(17) -0.026(18)
loop_
_atom_type_symbol
_atom_type_description
_atom_type_scat_dispersion_real
_atom_type_scat_dispersion_imag
_atom_type_scat_source
C C 0.0033 0.0016 'International Tables Vol C Tables 4.2.6.8 and 6.1.1.4'
H H 0.0000 0.0000 'International Tables Vol C Tables 4.2.6.8 and 6.1.1.4'
O O 0.0106 0.0060 'International Tables Vol C Tables 4.2.6.8 and 6.1.1.4'
P P 0.1023 0.0942 'International Tables Vol C Tables 4.2.6.8 and 6.1.1.4'
S S 0.1246 0.1234 'International Tables Vol C Tables 4.2.6.8 and 6.1.1.4'
Ru Ru -1.2594 0.8363 'International Tables Vol C Tables 4.2.6.8 and 6.1.1.4'
loop_
_geom_angle_atom_site_label_1
_geom_angle_atom_site_label_2
_geom_angle_atom_site_label_3
_geom_angle
_geom_angle_site_symmetry_1
_geom_angle_site_symmetry_3
Ru2 Ru1 P5 89.4(3) . .
Ru2 Ru1 P7 87.0(4) . .
P5 Ru1 P7 68.0(5) . .
Ru2 Ru1 S4 93.1(9) . .
P5 Ru1 S4 53.3(7) . .
P7 Ru1 S4 121.3(8) . .
S3 Ru2 Ru1 100.2(10) . .
S3 Ru2 P3 68.6(10) . .
Ru1 Ru2 P3 167.2(3) . .
S3 Ru2 S2 71.7(8) . .
Ru1 Ru2 S2 92.5(3) . .
P3 Ru2 S2 89.7(4) . .
S3 Ru2 S1 138.9(7) . .
Ru1 Ru2 S1 92.2(3) . .
P3 Ru2 S1 100.4(4) . .
S2 Ru2 S1 68.7(4) . .
C13 P3 Ru2 113.7(14) . .
C13 P3 S3 124.8(18) . .
Ru2 P3 S3 53.8(7) . .
C10 S1 P7 89.7(16) . .
C10 S1 Ru2 88.8(15) . .
P7 S1 Ru2 86.3(5) . .
S4 P5 S2 93.8(11) . .
S4 P5 Ru1 66.3(11) . .
S2 P5 Ru1 91.0(5) . .
C10 S2 P5 88.8(15) . .
C10 S2 Ru2 86.6(16) . .
P5 S2 Ru2 87.0(5) . .
S1 P7 Ru1 94.6(6) . .
C9 C1 C2 121(6) . .
C4 C3 C2 114(3) . .
C1 C2 C3 124(3) . .
C1 C2 C10 125(3) . .
C3 C2 C10 111(3) . .
C3 C4 C5 124(3) . .
C8 C9 C1 125(9) . .
C9 C8 C7 91(10) . .
C8 C7 C6 83(8) . .
S1 C10 C2 136(3) . .
S1 C10 S2 116(3) . .
C2 C10 S2 108(3) . .
C11 S4 P5 104.7(18) . .
C11 S4 Ru1 102.6(16) . .
P5 S4 Ru1 60.4(9) . .
C11 S3 C12 30(3) . .
C11 S3 Ru2 131(3) . .
C12 S3 Ru2 160(3) . .
C11 S3 P3 156(3) . .
C12 S3 P3 136(2) . .
Ru2 S3 P3 57.6(10) . .
C12 C11 S3 119(5) . .
C12 C11 S4 133(4) . .
S3 C11 S4 106(3) . .
C11 C12 S3 31(2) . .
C14 C13 C15 120(3) . .
C14 C13 P3 113(4) . .
C15 C13 P3 124(3) . .
loop_
_geom_bond_atom_site_label_1
_geom_bond_atom_site_label_2
_geom_bond_distance
_geom_bond_site_symmetry_2
Ru1 Ru2 2.333(5) .
Ru1 P5 2.462(14) .
Ru1 P7 2.485(12) .
Ru1 S4 2.59(4) .
Ru2 S3 2.25(4) .
Ru2 P3 2.355(13) .
Ru2 S2 2.483(12) .
Ru2 S1 2.546(14) .
P3 C13 1.80(4) .
P3 S3 2.59(5) .
S1 C10 1.57(5) .
S1 P7 2.297(19) .
P5 S4 2.27(3) .
P5 S2 2.417(18) .
S2 C10 1.77(4) .
C1 C9 0.96(11) .
C1 C2 1.32(5) .
C3 C4 1.35(5) .
C3 C2 1.47(4) .
C2 C10 1.75(6) .
C5 C4 1.40(5) .
C6 C7 1.67(12) .
C9 C8 1.3(2) .
C8 C7 1.90(19) .
S4 C11 2.36(7) .
S3 C11 1.33(5) .
S3 C12 2.24(6) .
C11 C12 1.28(7) .
C13 C14 1.38(6) .
C13 C15 1.36(6) .
