#------------------------------------------------------------------------------
#$Date: 2022-01-01 07:13:54 +0200 (Sat, 01 Jan 2022) $
#$Revision: 271676 $
#$URL: file:///home/coder/svn-repositories/cod/cif/1/56/58/1565871.cif $
#------------------------------------------------------------------------------
#
# This file is available in the Crystallography Open Database (COD),
# http://www.crystallography.net/. The original data for this entry
# were provided by IUCr Journals, http://journals.iucr.org/.
#
# The file may be used within the scientific community so long as
# proper attribution is given to the journal article from which the
# data were obtained.
#
data_1565871
loop_
_publ_author_name
'Olejniczak, Anna'
'Katrusiak, Anna'
'Podsiad\/lo, Marcin'
'Katrusiak, Andrzej'
_publ_section_title
;
 Stochastic hydration of a high-nitrogen-content molecular compound
 recrystallized under pressure
;
_journal_issue                   1
_journal_name_full               IUCrJ
_journal_page_first              49
_journal_page_last               54
_journal_paper_doi               10.1107/S2052252521010381
_journal_volume                  9
_journal_year                    2022
_chemical_formula_moiety         'C4 H2 Cl N5'
_chemical_formula_sum            'C4 H2 Cl N5'
_chemical_formula_weight         155.56
_chemical_name_systematic        6-chloro-1,2,3,4-tetrazolo[1,5-b]pyridazine
_space_group_crystal_system      orthorhombic
_space_group_IT_number           19
_space_group_name_Hall           'P 2ac 2ab'
_space_group_name_H-M_alt        'P 21 21 21'
_atom_sites_solution_hydrogens   geom
_atom_sites_solution_primary     direct
_audit_creation_date             2020-07-14
_audit_creation_method
;
Olex2 1.3
(compiled 2020.06.28 svn.raecde09e for OlexSys, GUI svn.r6132)
;
_cell_angle_alpha                90
_cell_angle_beta                 90
_cell_angle_gamma                90
_cell_formula_units_Z            4
_cell_length_a                   7.0336(2)
_cell_length_b                   8.7575(2)
_cell_length_c                   10.0065(2)
_cell_measurement_reflns_used    2653
_cell_measurement_temperature    160.0(1)
_cell_measurement_theta_max      64.7980
_cell_measurement_theta_min      5.0590
_cell_volume                     616.37(3)
_computing_cell_refinement       'CrysAlisPro 1.171.40.67a (Rigaku OD, 2019)'
_computing_data_collection       'CrysAlisPro 1.171.40.67a (Rigaku OD, 2019)'
_computing_data_reduction        'CrysAlisPro 1.171.40.67a (Rigaku OD, 2019)'
_computing_molecular_graphics    'Olex2 1.3 (Dolomanov et al., 2009)'
_computing_publication_material  'Olex2 1.3 (Dolomanov et al., 2009)'
_computing_structure_refinement  'SHELXL 2018/3 (Sheldrick, 2015)'
_computing_structure_solution    'SHELXT 2018/2 (Sheldrick, 2018)'
_diffrn_ambient_environment      N~2~
_diffrn_ambient_temperature      160.0(1)
_diffrn_detector                 'CCD plate'
_diffrn_detector_area_resol_mean 10.5357
_diffrn_detector_type            Atlas
_diffrn_measured_fraction_theta_full 0.992
_diffrn_measured_fraction_theta_max 0.992
_diffrn_measurement_details
;
List of Runs (angles in degrees, time in seconds):

  # Type    Start    End  Width  t~exp~   \w     \q     \k     \f   Frames
--------------------------------------------------------------------------
  1  \w     13.00 116.00   1.00    1.25    --   41.73  77.00 150.00  103
  2  \w     13.00  88.00   1.00    1.25    --   41.73-125.00  60.00   75
  3  \w     40.00  99.00   1.00    1.25    --   41.73  37.00 -90.00   59
  4  \w     16.00  51.00   1.00    2.50    --   88.44 -45.00 150.00   35
  5  \w     36.00 158.00   1.00    2.50    --   88.44  15.00  60.00  122
  6  \w      8.00 106.00   1.00    2.50    --   88.44 -94.00 120.00   98
  7  \w     37.00  77.00   1.00    2.50    --   88.44 -45.00  90.00   40
  8  \w     44.00  70.00   1.00    2.50    --   88.44 -45.00-120.00   26
  9  \w     16.00 109.00   1.00    2.50    --   88.44 -94.00-120.00   93
 10  \w     26.00  75.00   1.00    2.50    --   88.44 -45.00   0.00   49
 11  \w     42.00  81.00   1.00    2.50    --   88.44 -94.00   0.00   39
 12  \w     85.00 111.00   1.00    2.50    --   88.44 125.00  90.00   26
 13  \w    116.00 146.00   1.00    2.50    --   88.44 125.00  90.00   30
 14  \w     68.00 107.00   1.00    2.50    --   88.44-125.00  90.00   39
 15  \w     75.00 156.00   1.00    2.50    --   88.44  61.00 -90.00   81
;
_diffrn_measurement_device       'four-circle diffractometer'
_diffrn_measurement_device_type
'SuperNova, Single source at offset/far, Atlas'
_diffrn_measurement_method       '\w scans'
_diffrn_orient_matrix_type
'CrysAlisPro convention (1999,Acta A55,543-557)'
_diffrn_orient_matrix_UB_11      0.0555055000
_diffrn_orient_matrix_UB_12      0.0080128000
_diffrn_orient_matrix_UB_13      -0.1487654000
_diffrn_orient_matrix_UB_21      -0.0489184000
_diffrn_orient_matrix_UB_22      0.1714629000
_diffrn_orient_matrix_UB_23      -0.0020349000
_diffrn_orient_matrix_UB_31      0.2061429000
_diffrn_orient_matrix_UB_32      0.0385686000
_diffrn_orient_matrix_UB_33      0.0395601000
_diffrn_radiation_monochromator  mirror
_diffrn_radiation_probe          x-ray
_diffrn_radiation_type           'Cu K\a'
_diffrn_radiation_wavelength     1.54184
_diffrn_reflns_av_R_equivalents  0.0158
_diffrn_reflns_av_unetI/netI     0.0139
_diffrn_reflns_Laue_measured_fraction_full 0.992
_diffrn_reflns_Laue_measured_fraction_max 0.992
_diffrn_reflns_limit_h_max       8
_diffrn_reflns_limit_h_min       -6
_diffrn_reflns_limit_k_max       10
_diffrn_reflns_limit_k_min       -9
_diffrn_reflns_limit_l_max       11
_diffrn_reflns_limit_l_min       -10
_diffrn_reflns_number            3626
_diffrn_reflns_point_group_measured_fraction_full 0.983
_diffrn_reflns_point_group_measured_fraction_max 0.983
_diffrn_reflns_theta_full        64.888
_diffrn_reflns_theta_max         64.888
_diffrn_reflns_theta_min         6.718
_diffrn_source                   'micro-focus sealed X-ray tube'
_diffrn_source_type              'SuperNova (Cu) X-ray Source'
_exptl_absorpt_coefficient_mu    4.845
_exptl_absorpt_correction_T_max  1.00000
_exptl_absorpt_correction_T_min  0.66437
_exptl_absorpt_correction_type   multi-scan
_exptl_absorpt_process_details
;
CrysAlisPro 1.171.40.67a (Rigaku Oxford Diffraction, 2019)
Empirical absorption correction using spherical harmonics,
 implemented in SCALE3 ABSPACK scaling algorithm.
;
_exptl_crystal_colour            colourless
_exptl_crystal_density_diffrn    1.676
_exptl_crystal_description       plate
_exptl_crystal_F_000             312
_exptl_crystal_size_max          0.50
_exptl_crystal_size_mid          0.20
_exptl_crystal_size_min          0.15
_refine_diff_density_max         0.153
_refine_diff_density_min         -0.146
_refine_diff_density_rms         0.034
_refine_ls_abs_structure_details
;
 Flack x determined using 383 quotients [(I+)-(I-)]/[(I+)+(I-)]
 (Parsons, Flack and Wagner, Acta Cryst. B69 (2013) 249-259).
;
_refine_ls_abs_structure_Flack   0.480(7)
_refine_ls_extinction_method     none
_refine_ls_goodness_of_fit_ref   1.067
_refine_ls_hydrogen_treatment    constr
_refine_ls_matrix_type           full
_refine_ls_number_parameters     91
_refine_ls_number_reflns         1028
_refine_ls_number_restraints     0
_refine_ls_restrained_S_all      1.067
_refine_ls_R_factor_all          0.0313
_refine_ls_R_factor_gt           0.0308
_refine_ls_shift/su_max          0.000
_refine_ls_shift/su_mean         0.000
_refine_ls_structure_factor_coef Fsqd
_refine_ls_weighting_details
'w=1/[\s^2^(Fo^2^)+(0.0382P)^2^+0.3868P] where P=(Fo^2^+2Fc^2^)/3'
_refine_ls_weighting_scheme      calc
_refine_ls_wR_factor_gt          0.0790
_refine_ls_wR_factor_ref         0.0797
_reflns_Friedel_coverage         0.632
_reflns_Friedel_fraction_full    0.968
_reflns_Friedel_fraction_max     0.968
_reflns_number_gt                1009
_reflns_number_total             1028
_reflns_threshold_expression     'I > 2\s(I)'
_cod_data_source_file            lt5042.cif
_cod_data_source_block           C4H2N5Cl1@160K_phase_alpha
_cod_database_code               1565871
_shelx_shelxl_version_number     2018/3
_chemical_oxdiff_formula         C4H2N5Cl1
_shelx_space_group_comment
;
The symmetry employed for this shelxl refinement is uniquely defined
by the following loop, which should always be used as a source of
symmetry information in preference to the above space-group names.
They are only intended as comments.
;
_reflns_odcompleteness_completeness 99.08
_reflns_odcompleteness_iscentric 1
_reflns_odcompleteness_theta     64.79
_olex2_refinement_description
;
1. Fixed Uiso
 At 1.2 times of:
  All C(H) groups
2.a Aromatic/amide H refined with riding coordinates:
 C7(H7), C8(H8)
;
_shelx_res_file
;
TITL 1a_a.res in P2(1)2(1)2(1)
    1a.res
    created by SHELXL-2018/3 at 12:53:57 on 14-Jul-2020
REM Old TITL 1a in P2(1)2(1)2(1)
REM SHELXT solution in P2(1)2(1)2(1): R1 0.122, Rweak 0.020, Alpha 0.002
REM <I/s> 0.975 for 15 systematic absences, Orientation as input
REM Flack x = 0.489 ( 0.006 ) from 387 Parsons' quotients
REM Formula found by SHELXT: C8 N Cl
CELL 1.54184 7.0336 8.7575 10.0065 90 90 90
ZERR 4 0.0002 0.0002 0.0002 0 0 0
LATT -1
SYMM 0.5-X,-Y,0.5+Z
SYMM -X,0.5+Y,0.5-Z
SYMM 0.5+X,0.5-Y,-Z
SFAC C H Cl N
UNIT 16 8 4 20

L.S. 44 0 0
PLAN  5
CONF
BOND
list 4
fmap 2 53
MORE -1
BOND $H
ACTA
REM <olex2.extras>
REM <HklSrc "%.\\1a.hkl">
REM </olex2.extras>

WGHT    0.038200    0.386800
FVAR       1.02478
CL1   3    0.289629    0.332407    0.318881    11.00000    0.05380    0.02544 =
         0.05713   -0.00236    0.01228   -0.00152
N4    4    0.359817    0.747622    0.411442    11.00000    0.03996    0.02729 =
         0.02576   -0.00127   -0.00007   -0.00258
N5    4    0.369630    0.593784    0.417767    11.00000    0.04217    0.02792 =
         0.03050    0.00403    0.00233   -0.00024
N3    4    0.434736    0.838040    0.506138    11.00000    0.05532    0.03849 =
         0.03210   -0.00498   -0.00538   -0.00730
N2    4    0.397173    0.977151    0.465954    11.00000    0.06223    0.03491 =
         0.04496   -0.01061    0.00335   -0.00722
N1    4    0.300396    0.981212    0.349006    11.00000    0.05217    0.02953 =
         0.04340   -0.00273    0.00502   -0.00078
C9    1    0.278008    0.834761    0.314907    11.00000    0.03869    0.02702 =
         0.02809    0.00335    0.00493    0.00160
C7    1    0.198830    0.604801    0.206914    11.00000    0.04302    0.03921 =
         0.02667   -0.00651    0.00069   -0.00389
AFIX  43
H7    2    0.144391    0.548941    0.137751    11.00000   -1.20000
AFIX   0
C6    1    0.287268    0.529129    0.316081    11.00000    0.03728    0.02663 =
         0.03343   -0.00194    0.00842   -0.00029
C8    1    0.194941    0.758903    0.205003    11.00000    0.04276    0.04070 =
         0.02647    0.00456    0.00081    0.00183
AFIX  43
H8    2    0.140145    0.812521    0.134631    11.00000   -1.20000
AFIX   0
HKLF 4




REM  1a_a.res in P2(1)2(1)2(1)
REM wR2 = 0.0797, GooF = S = 1.067, Restrained GooF = 1.067 for all data
REM R1 = 0.0308 for 1009 Fo > 4sig(Fo) and 0.0313 for all 1028 data
REM 91 parameters refined using 0 restraints

END

WGHT      0.0382      0.3868

REM Highest difference peak  0.153,  deepest hole -0.146,  1-sigma level  0.034
Q1    1   0.1608  0.3386  0.3368  11.00000  0.05    0.15
Q2    1   0.2552  0.5660  0.2598  11.00000  0.05    0.15
Q3    1   0.4184  0.3369  0.3474  11.00000  0.05    0.14
Q4    1   0.1930  0.3623  0.2338  11.00000  0.05    0.13
Q5    1   0.2811  1.0456  0.3170  11.00000  0.05    0.13
;
_shelx_res_checksum              66336
_shelx_hkl_file
;
   0   0  -1    0.16    0.16
   0   0  -2 1547.97   17.54
   0   0  -3    0.20    0.50
   0   0  -4   20.58    1.64
   0   0  -5   -0.03    0.70
   0   0  -6 1440.96   22.65
   0   0   6 1479.13   18.91
   0   0   7    0.00    0.54
   0   0   7    0.20    0.58
   0   0  -7    0.38    0.70
   0   0   8 1004.16   14.66
   0   0  -8  978.66   19.60
   0   0   8 1005.48   15.00
   0   0   9    0.69    0.84
   0   0   9   -0.93    0.77
   0   0  10  365.14    7.47
   0   0  10  398.87    8.16
   0   0  11   -0.04    0.47
   0   1   0    0.14    0.24
   0   1   0    1.07    0.18
   0   1  -1 1284.97   14.18
   0  -1  -1 1295.50   14.40
   0  -1  -2   35.81    1.55
   0   1  -2   35.66    1.46
   0   1  -3 4059.56   43.66
   0  -1  -3 4043.27   43.97
   0   1  -4   23.57    1.75
   0  -1  -4   23.82    1.77
   0   1  -5 1445.16   20.33
   0  -1  -5 1446.16   20.68
   0   1   6    0.88    0.57
   0  -1  -6    3.39    1.10
   0  -1   6    1.40    0.50
   0   1   6    2.01    0.68
   0   1  -6    1.27    0.89
   0  -1   6    1.25    0.69
   0   1  -7   44.08    3.28
   0  -1   7   43.52    2.29
   0  -1  -7   50.80    3.74
   0  -1   7   45.39    2.36
   0   1   7   47.04    2.38
   0   1   7   45.49    2.40
   0  -1  -8   72.68    4.84
   0  -1   8   71.49    3.18
   0   1   8   68.96    3.03
   0   1  -8   66.85    4.53
   0  -1   8   66.92    3.02
   0   1   8   68.05    3.20
   0  -1   9   41.44    2.45
   0   1   9   36.80    2.22
   0   1   9   38.76    2.47
   0  -1   9   40.35    2.41
   0  -1  10  147.63    4.39
   0  -1  10  152.02    4.66
   0   1  10  154.59    4.86
   0  -1  11   18.89    1.47
   0   1  11   22.04    1.66
   0   2   0  195.88    3.98
   0   2   0  198.04    2.85
   0   2  -1 1191.12   14.60
   0  -2  -1 1192.24   14.33
   0  -2  -2  392.40    6.74
   0   2  -2  393.51    6.81
   0   2  -2  384.82    6.39
   0  -2  -3  444.28    7.96
   0   2  -3  418.78    7.54
   0   2  -4    9.27    1.23
   0  -2  -4   10.16    1.29
   0  -2   5  772.05   10.80
   0  -2  -5  748.65   13.63
   0  -2   5  747.55   10.45
   0   2   5  751.58   10.62
   0   2  -5  787.16   13.39
   0  -2   6    9.58    1.10
   0  -2  -6    7.92    1.37
   0   2  -6   10.23    1.56
   0   2   6    8.78    1.02
   0   2   6    9.47    1.05
   0  -2   6    7.96    0.94
   0  -2   7  540.16    9.53
   0   2   7  542.55    9.61
   0   2  -7  543.84   13.01
   0   2   7  540.55    9.45
   0  -2   7  547.78    9.34
   0  -2  -7  518.91   12.91
   0   2   8   51.56    2.64
   0   2   8   50.59    2.77
   0   2  -8   52.26    4.09
   0  -2  -8   51.16    4.32
   0  -2   8   48.93    2.65
   0  -2   8   50.04    2.69
   0  -2   9    2.28    0.85
   0  -2   9    2.58    0.85
   0   2   9    2.63    0.97
   0  -2  10  166.53    4.75
   0  -2  10  161.52    4.61
   0   2  10  168.18    4.89
   0   2  11    3.21    0.78
   0  -2  11    1.64    0.56
   0   3   0    0.17    0.21
   0   3   0    0.14    0.53
   0  -3  -1  293.43    5.67
   0   3  -1  284.37    4.68
   0   3  -1  287.28    6.06
   0   3  -2 2069.39   25.18
   0  -3  -2 2035.73   24.73
   0   3  -3   11.00    1.39
   0  -3  -3   12.08    1.34
   0   3   4   47.57    1.93
   0  -3  -4   47.71    2.84
   0  -3   4   45.91    1.96
   0   3  -4   48.88    2.95
   0  -3   5   91.15    3.08
   0   3  -5   91.88    4.45
   0  -3  -5   95.14    4.46
   0  -3   5   91.48    2.86
   0   3   5   92.92    3.03
   0  -3  -6   36.53    2.96
   0   3  -6   35.48    3.08
   0  -3   6   34.78    1.91
   0   3   6   35.19    1.99
   0  -3   6   35.34    2.07
   0   3  -6   34.75    2.81
   0   3   7    4.97    1.05
   0   3  -7    3.85    1.22
   0   3   7    4.37    1.05
   0   3   7    5.66    0.99
   0  -3   7    4.02    0.91
   0  -3  -7    6.34    1.59
   0  -3   7    5.82    1.13
   0   3   8  199.23    5.72
   0  -3   8  194.69    5.30
   0  -3   8  194.98    5.48
   0  -3   9   17.99    1.69
   0  -3   9   18.94    1.60
   0   3   9   17.78    1.72
   0  -3  10    3.17    0.77
   0  -3  10    2.21    0.73
   0   3  10    1.51    0.87
   0  -3  11    1.92    0.61
   0   3  11    0.64    0.50
   0   4   0   29.95    2.15
   0   4  -1 3423.35   39.94
   0  -4  -1 3419.45   38.64
   0   4  -2   89.23    2.90
   0  -4  -2   92.78    3.59
   0   4  -2   85.35    3.76
   0  -4   3  228.96    4.85
   0   4  -3  239.93    6.80
   0  -4  -3  241.88    6.45
   0   4   3  246.73    4.98
   0  -4   4  100.41    3.18
   0  -4  -4  102.91    4.45
   0   4   4   97.95    2.92
   0   4   4   98.24    3.11
   0  -4   5  267.32    5.89
   0  -4  -5  262.98    8.04
   0   4   5  267.52    5.38
   0   4   5  262.98    5.82
   0  -4   5  259.35    5.35
   0  -4   6   55.94    2.48
   0   4   6   52.24    2.64
   0  -4  -6   56.02    3.86
   0   4  -6   57.05    4.17
   0  -4   6   54.25    2.70
   0  -4   7  286.47    6.25
   0   4   7  280.42    6.72
   0  -4   7  276.61    6.67
   0   4   7  275.99    6.84
   0  -4  -7  273.06    9.45
   0   4  -7  273.40    9.68
   0  -4   8   12.11    1.41
   0   4   8   10.44    1.54
   0   4   9  436.00    8.75
   0  -4   9  427.78    8.45
   0  -4  10   21.94    1.57
   0   4  10   23.38    1.64
   0   5   0    1.24    0.60
   0  -5   0    0.58    0.60
   0   5   0    0.22    0.49
   0   5  -1  538.03   11.25
   0   5  -1  527.14    8.38
   0  -5  -1  545.49    8.53
   0  -5  -1  537.77   10.10
   0   5  -1  533.87    8.45
   0   5   1  538.83    8.49
   0  -5   1  527.31    8.45
   0   5   1  538.22    8.64
   0   5   2    1.16    0.48
   0   5  -2    2.20    0.59
   0  -5   2    1.42    0.61
   0   5  -2    0.96    0.77
   0   5  -2    0.82    0.42
   0  -5  -2    0.98    0.70
   0  -5  -2    0.76    0.54
   0   5  -3  873.22   12.28
   0   5   3  877.24   12.55
   0  -5   3  861.69   12.50
   0  -5  -3  880.23   15.15
   0   5  -3  854.46   15.94
   0   5  -4  797.95   11.76
   0  -5   4  796.62   12.11
   0   5   4  770.10   11.51
   0   5   4  804.76   12.08
   0  -5  -4  803.61   15.22
   0   5  -4  802.53   15.76
   0   5  -5    2.93    1.07
   0  -5   5    2.95    0.97
   0   5   5    2.77    0.80
   0   5   5    3.19    0.73
   0  -5  -5    3.49    1.21
   0  -5  -6   92.18    5.25
   0   5  -6  103.76    5.72
   0   5   6  106.17    3.91
   0  -5   6  109.18    3.98
   0  -5   7   18.09    1.73
   0   5   7   20.07    1.83
   0  -5   8    5.89    1.18
   0   5   8    7.41    1.29
   0  -5   9  108.93    3.72
   0   5   9  108.52    3.78
   0   5  10    2.45    0.56
   0  -5  10    1.95    0.62
   0   6   0 1074.78   15.03
   0  -6   0 1084.98   14.99
   0   6   0 1076.56   14.73
   0  -6  -1   66.60    2.75
   0   6   1   61.32    2.73
   0   6  -1   62.93    2.68
   0   6   1   60.67    2.63
   0   6  -1   65.38    4.04
   0  -6   1   60.01    2.64
   0   6  -1   62.31    2.57
   0  -6   2  212.98    5.26
   0   6  -2  210.68    5.12
   0   6  -2  209.11    4.98
   0   6  -2  214.18    7.54
   0   6   2  202.71    5.16
   0   6   3   21.76    1.60
   0  -6   3   26.42    1.90
   0   6  -3   23.51    1.71
   0   6   3   23.89    1.81
   0   6   4   14.35    1.48
   0   6  -4   12.86    1.34
   0   6   4   14.78    1.40
   0  -6   4   15.10    1.62
   0   6  -4   14.63    2.15
   0  -6   5    9.38    1.38
   0   6   5    8.28    1.35
   0   6   5    9.37    1.26
   0   6  -5   10.23    1.17
   0   6  -5   10.13    2.38
   0   6   6 1549.41   21.16
   0  -6   6 1536.07   20.99
   0  -6   7    4.16    1.00
   0   6   7    2.29    0.98
   0   6   8   57.60    2.81
   0  -6   8   53.70    2.67
   0   6   9    4.10    0.78
   0  -6   9    4.11    0.75
   0  -7   0    0.98    0.65
   0   7   0    0.28    0.62
   0   7   0   -0.14    0.57
   0   7   1    2.89    0.93
   0   7  -1    3.86    0.87
   0   7  -1    2.96    0.71
   0  -7   1    3.32    0.91
   0  -7  -1    4.74    0.95
   0   7   2    6.05    1.13
   0  -7   2    7.51    1.24
   0   7  -2    9.21    1.14
   0  -7   3   75.21    3.32
   0   7   3   69.02    3.11
   0   7   3   73.57    3.15
   0   7  -3   67.72    4.57
   0   7  -3   74.07    3.07
   0  -7   4  102.36    3.94
   0   7  -4  100.55    3.55
   0   7   4  100.03    3.68
   0   7   4   94.82    3.73
   0   7   5  254.17    6.04
   0   7   5  251.94    6.38
   0  -7   5  261.48    6.51
   0  -7   6    4.87    0.97
   0   7   6    5.77    1.16
   0   7   7   23.13    1.84
   0  -7   7   22.63    1.76
   0   7   7   23.32    1.80
   0  -7   8    1.04    0.39
   0   7   8    1.30    0.58
   0   8   0    0.86    0.57
   0  -8   0    0.92    0.77
   0   8   1  607.57   10.39
   0   8  -1  628.29   10.75
   0  -8   1  608.18   10.79
   0   8  -2   38.54    2.27
   0   8   2   37.76    2.31
   0   8   2   35.46    2.17
   0  -8   2   39.35    2.38
   0  -8   3   11.63    1.34
   0   8   3    9.23    1.22
   0   8   3    8.12    1.28
   0   8   4    0.86    0.72
   0   8   4    2.65    0.86
   0  -8   4    1.53    0.85
   0  -8   5   25.29    1.82
   0   8   5   25.43    1.82
   0   8   5   24.33    1.66
   0  -8   6  102.65    3.55
   0   8   6   98.69    3.46
   0  -8   7  104.80    3.25
   0   8   7  100.01    3.23
   0   9   0    0.02    0.61
   0  -9   1   86.66    3.36
   0   9   1   79.88    2.93
   0   9   1   81.90    3.26
   0   9   2  157.57    4.51
   0  -9   2  154.21    4.51
   0   9   2  153.44    4.22
   0  -9   3   11.99    1.28
   0   9   3   12.21    1.21
   0   9   3   13.24    1.33
   0   9   4  208.27    4.93
   0   9   4  206.23    4.89
   0   9   5    9.38    0.99
   0  -9   5   10.42    1.04
   0  10   0  100.40    3.13
   0  10   1  182.54    4.36
   0  10  -1  172.32    4.17
   0  10   2   17.96    1.27
   0  10  -2   17.04    1.23
   1   0   0    2.40    0.47
  -1   0   0    0.10    0.15
   1   0   1 1030.71   12.12
   1   0  -1 1038.11   12.15
  -1   0  -3 1391.08   17.15
   1   0  -3 1398.18   17.97
   1   0  -4  564.46   10.23
  -1   0  -4  543.68    9.39
  -1   0   5    7.91    0.93
  -1   0  -5    8.21    1.18
   1   0  -5    8.20    1.39
   1   0   5    8.04    0.95
  -1   0   6   44.99    2.01
   1   0  -6   40.93    3.11
  -1   0   6   47.94    2.36
   1   0   6   48.92    2.32
  -1   0  -6   47.28    3.02
  -1   0   7   25.26    1.91
   1   0   7   23.25    1.85
  -1   0   7   26.40    1.74
  -1   0  -7   20.40    2.27
   1   0  -7   23.93    2.69
   1   0   8  171.80    5.20
   1   0   8  172.77    5.14
  -1   0   8  175.95    5.22
  -1   0   8  171.21    4.81
   1   0  -8  163.95    7.55
  -1   0  -8  175.03    7.45
   1   0   9   24.54    2.03
  -1   0   9   22.92    1.96
   1   0  10  520.39    9.86
  -1   0  10  518.71    9.64
  -1   0  10  530.07    9.57
   1   0  11   27.08    1.82
  -1   0  11   23.27    1.56
   1  -1  11   27.56    1.75
  -1   1  11   28.78    1.76
   1  -1  10   86.54    3.36
  -1   1  10   89.26    3.48
   1  -1  10   88.26    3.58
   1  -1   9   68.75    3.25
  -1   1   9   65.35    3.15
  -1   1   9   59.53    2.80
  -1   1   8  363.90    7.49
   1   1  -8  369.97   11.78
  -1   1   8  353.33    7.88
   1  -1   8  347.98    7.20
   1  -1   8  351.66    7.73
  -1  -1  -8  361.87   11.21
   1  -1   7  307.57    6.67
   1  -1   7  301.62    6.28
  -1  -1  -7  306.61    9.19
  -1   1   7  314.32    6.48
   1   1  -7  293.41    9.54
  -1   1   7  308.21    6.95
   1  -1   7  299.70    6.81
   1  -1   6   11.67    1.15
   1  -1   6   14.84    1.35
  -1  -1  -6   13.73    1.72
   1  -1   6   13.99    1.24
  -1   1   6   13.29    1.13
  -1   1   6   12.00    1.34
   1   1  -6   14.02    1.95
  -1   1   6   15.56    1.25
  -1  -1  -5  379.74    8.62
   1  -1   5  385.81    6.70
   1   1  -5  383.93    9.04
  -1  -1  -4  140.11    4.34
   1   1  -4  137.34    4.56
  -1  -1  -3  824.08   11.92
   1   1  -3  806.76   12.17
   1   1  -2 1749.17   20.48
  -1  -1  -2 1690.48   20.22
   1   1  -1  690.17    7.86
   1   1  -1  685.63    9.32
   1   1   0  688.98    9.12
  -1   1   0  710.22    8.79
   1  -1   0  694.88    8.16
   1  -1  -1  690.88    8.47
  -1   1  -1  695.29    7.49
   1   1   1  675.75    9.15
  -1   1  -2 1718.34   18.83
   1  -1  -2 1732.42   19.95
  -1   1  -3  849.58   11.32
   1  -1  -3  878.12   12.53
  -1   1  -4  131.74    3.88
   1  -1  -4  142.51    4.62
  -1   1  -5  382.28    8.24
   1   1   5  392.88    6.82
   1  -1  -5  404.32    9.49
  -1  -1   5  399.15    7.00
  -1  -1   6   15.71    1.40
   1  -1  -6   11.65    1.80
   1   1   6   13.40    1.32
  -1   1  -6   13.28    1.64
   1  -1  -7  315.93    9.90
   1   1   7  317.65    7.01
  -1   1  -7  320.38    9.12
  -1  -1   7  297.95    6.76
   1   1   8  368.31    8.13
  -1  -1   8  360.11    7.89
   1  -1  -8  361.41   11.38
   1   1   9   67.55    3.31
   1   1   9   63.81    3.17
  -1  -1   9   62.59    2.96
  -1  -1   9   63.67    3.15
  -1  -1  10   88.02    3.54
   1   1  10   90.97    3.66
  -1  -1  10   90.27    3.37
   1   1  11   29.61    1.83
  -1  -1  11   24.87    1.59
   1  -2  11   41.77    2.06
  -1   2  11   45.68    2.20
   1  -2  10   51.62    2.63
  -1   2  10   46.76    2.39
  -1   2   9   63.72    2.94
   1  -2   9   58.75    2.96
  -1   2   9   60.55    3.05
   1  -2   8   50.92    2.72
  -1   2   8   47.39    2.82
  -1   2   8   51.89    2.64
   1   2  -8   54.34    4.65
  -1  -2  -8   51.86    4.22
   1  -2   8   52.06    2.59
  -1   2   7   65.11    2.82
  -1  -2  -7   65.49    4.32
  -1   2   7   69.22    3.20
   1  -2   7   65.57    2.93
  -1   2   7   70.15    2.84
   1   2  -7   64.16    4.45
   1  -2   7   68.99    2.88
  -1  -2  -6  413.18   10.42
   1  -2   6  425.78    7.76
  -1   2   6  435.62    7.48
  -1   2   6  427.67    7.58
   1   2  -6  410.34   10.68
   1  -2   6  425.37    7.59
  -1   2   5 2094.67   23.81
   1  -2   5 2042.06   24.17
   1   2  -5 2090.06   28.49
  -1  -2  -5 2100.32   28.15
   1  -2   5 2089.80   24.10
  -1  -2  -4  271.98    6.81
   1   2  -4  275.26    7.06
   1   2  -3 2068.61   25.68
  -1  -2  -3 2047.68   25.45
  -1  -2  -2   35.86    1.96
   1   2  -2   39.55    1.69
   1   2  -1  735.44   10.31
  -1   2   1  759.61   10.54
   1   2  -1  737.75    9.49
   1   2   0  741.74   10.10
  -1   2   0  759.29   10.49
   1  -2   0  740.56    8.14
   1  -2  -1  754.76    9.47
   1  -2  -1  755.03    8.34
  -1   2  -1  748.35   10.76
   1   2   1  724.27   10.09
  -1   2  -2   42.00    1.39
  -1   2  -2   38.15    2.06
   1  -2  -2   40.66    1.85
   1  -2  -3 2031.83   24.98
  -1   2  -3 2048.58   23.20
   1  -2  -4  269.54    6.91
  -1   2  -4  279.63    5.90
   1  -2  -5 2041.63   28.35
   1   2   5 2081.64   24.36
   1   2   5 2050.29   23.84
  -1  -2   5 2099.91   24.47
  -1   2  -6  436.57    9.83
  -1  -2   6  419.59    7.28
   1  -2  -6  438.34   11.16
   1   2   6  430.19    8.00
  -1  -2   6  414.16    7.87
  -1  -2   7   65.24    2.72
   1   2   7   66.95    3.09
  -1   2  -7   68.00    4.09
   1  -2  -7   63.70    4.49
  -1  -2   7   65.55    3.03
  -1  -2   8   51.04    2.55
   1  -2  -8   49.67    4.20
   1   2   8   51.42    2.90
  -1  -2   8   47.02    2.73
   1   2   9   57.98    3.12
  -1  -2   9   59.89    3.09
  -1  -2   9   61.89    2.77
   1   2  10   52.14    2.79
  -1  -2  10   53.99    2.71
   1   2  10   55.03    2.81
  -1  -2  11   39.59    1.96
   1   2  11   44.98    2.24
  -1   3  11    9.13    0.96
   1  -3  11    8.33    1.05
  -1   3   9   48.86    2.72
   1  -3   9   48.84    2.60
  -1   3   9   54.92    2.69
   1  -3   9   49.76    2.51
   1  -3   8   88.07    3.50
  -1   3   8   88.80    3.59
   1  -3   8   93.44    3.72
  -1   3   8   88.75    3.79
   1   3  -7   64.92    4.31
  -1   3   7   64.74    2.86
   1  -3   7   70.32    3.06
  -1   3   7   64.70    2.90
  -1  -3  -7   65.30    4.42
   1  -3   7   68.90    2.98
  -1   3   6  143.79    4.07
   1  -3   6  140.05    4.11
  -1  -3  -6  134.17    5.92
   1   3  -6  132.20    5.65
   1  -3   6  138.96    4.08
  -1  -3  -5   20.59    2.21
   1  -3   5   22.58    1.51
   1  -3   5   23.84    1.56
  -1   3   5   22.62    1.46
   1   3  -5   20.30    1.95
  -1  -3  -4  133.55    4.97
   1   3  -4  137.06    4.61
   1  -3   4  132.02    3.45
  -1   3   4  136.18    3.45
   1  -3   4  130.05    3.37
   1   3  -3  177.18    4.83
  -1  -3  -3  186.79    5.48
   1   3  -2  261.81    5.56
   1   3  -2  265.24    5.93
  -1  -3  -2  271.36    6.43
   1   3  -1  139.72    3.69
   1   3  -1  142.17    3.86
  -1   3   0 1939.52   24.48
   1  -3   0 1982.24   21.42
   1   3   0 2011.43   23.06
   1   3   1  149.66    3.60
   1  -3  -1  142.58    3.37
  -1   3  -1  143.15    4.36
   1  -3  -2  264.56    5.65
  -1   3  -2  274.21    6.59
  -1   3  -3  165.14    5.45
   1  -3  -3  176.75    5.10
   1   3   4  131.78    3.37
   1   3   4  134.75    3.54
  -1   3  -4  135.91    5.28
   1  -3  -4  138.29    4.97
  -1  -3   4  140.21    3.64
  -1   3  -5   19.62    2.29
   1   3   5   22.24    1.49
   1  -3  -5   21.38    2.17
   1   3   5   20.29    1.52
  -1  -3   5   24.72    1.66
   1   3   6  134.67    3.86
  -1   3  -6  143.56    6.46
   1   3   6  139.53    4.27
   1  -3  -6  136.72    6.12
  -1  -3   6  137.67    4.30
   1   3   7   69.31    3.22
  -1  -3   7   70.25    3.26
  -1   3  -7   75.53    4.90
   1  -3  -7   76.45    5.06
  -1  -3   8   92.90    3.89
   1   3   8   92.53    3.92
  -1  -3   9   50.40    2.78
   1   3   9   56.02    3.00
   1   3  10   14.81    1.51
   1  -3 -10   15.77    1.62
   1   3  10   14.07    1.44
  -1  -3  10   14.16    1.41
   1   3  11    9.40    1.04
   1  -4  10   29.21    1.93
  -1   4   9   99.48    3.56
   1  -4   9   90.67    3.37
  -1   4   9   95.49    3.61
  -1   4   8   10.47    1.37
  -1   4   8   11.33    1.54
  -1   4   8    8.33    1.23
   1  -4   8    7.18    1.22
  -1   4   7   20.82    1.74
   1  -4   7   18.39    1.67
  -1   4   7   19.87    1.73
   1  -4   7   18.12    1.71
  -1  -4  -7   24.25    2.77
  -1  -4  -6   63.94    4.29
  -1   4   6   69.84    2.94
   1  -4   6   67.79    2.92
   1  -4   6   66.01    2.84
   1   4  -6   66.14    4.13
  -1   4   5  452.65    8.08
   1  -4   5  451.22    8.17
   1   4  -5  452.16   10.53
  -1  -4  -5  449.62   11.09
   1  -4   4  184.74    4.54
   1   4  -4  173.73    5.78
  -1  -4  -4  188.28    6.40
  -1   4   4  183.56    4.53
   1   4  -3  964.05   15.08
   1   4  -3  973.71   15.35
   1  -4   3  956.50   12.98
  -1  -4  -3 1001.69   16.29
  -1   4   3  965.55   13.08
   1   4  -2   28.39    2.02
   1  -4   2   29.52    1.58
   1   4  -2   28.06    1.95
  -1   4   2   26.60    1.53
  -1  -4  -2   30.51    2.24
   1   4  -1  424.76    7.77
   1   4  -1  408.34    8.13
   1   4   0  313.68    5.91
   1  -4   0  290.66    5.20
  -1   4   0  306.51    7.48
  -1   4  -1  416.29    9.10
   1   4   1  423.89    6.98
   1  -4  -1  415.40    7.25
   1   4   2   29.18    1.60
   1  -4  -2   30.83    1.99
  -1   4  -2   26.85    2.33
   1  -4  -3  962.62   15.37
   1   4   3  994.25   13.00
   1   4   3  960.05   12.89
  -1   4  -3  984.58   16.78
  -1  -4   3  958.24   12.94
   1   4   4  184.81    4.55
   1  -4  -4  176.46    6.05
  -1  -4   4  186.06    4.60
   1   4   4  186.08    4.50
  -1   4  -4  187.00    6.70
   1   4   5  439.54    7.87
   1   4   5  445.54    8.27
   1  -4  -5  445.34   11.07
  -1  -4   5  438.07    8.22
  -1   4  -5  470.96   11.99
   1  -4  -6   65.34    4.32
   1   4   6   64.41    2.75
   1   4   6   62.97    3.00
  -1  -4   6   66.24    3.06
  -1   4  -6   64.01    4.53
  -1  -4   7   16.65    1.78
   1   4   7   19.86    1.86
   1  -4  -7   18.87    2.56
  -1   4  -7   19.23    2.95
   1   4   8    9.85    1.44
  -1  -4   8   10.98    1.39
   1   4   9   98.32    3.95
  -1  -4   9  100.47    3.80
   1   4  10   30.47    2.00
   1   4  10   34.00    1.96
   1  -4 -10   28.78    2.07
  -1  -4  10   28.89    1.85
   1  -5  10   -0.23    0.40
  -1   5   9   72.07    2.83
   1  -5   9   73.59    3.18
   1  -5   9   68.70    2.79
   1  -5   8   11.65    1.34
  -1   5   8   10.83    1.34
  -1   5   8   11.87    1.39
  -1   5   8   11.21    1.44
   1  -5   7  167.02    5.00
  -1   5   7  169.63    5.12
  -1   5   6  104.42    3.85
   1  -5   6  103.78    3.87
  -1  -5  -6  101.80    5.65
  -1   5   5   56.70    2.70
   1  -5   5   55.72    2.73
  -1  -5  -5   54.86    3.94
  -1   5   4    5.57    0.98
   1   5  -4    3.32    1.01
  -1   5   4    4.48    0.73
  -1  -5  -4    4.45    1.21
   1  -5   4    5.09    1.00
   1  -5   3   52.77    2.47
   1   5  -3   55.64    2.52
   1   5  -3   58.77    3.37
  -1  -5  -3   53.41    3.42
   1   5  -2  418.43    7.56
   1   5  -2  428.19    9.47
  -1  -5  -2  422.57    9.84
   1  -5   2  413.08    7.49
  -1   5   2  428.30    7.63
  -1   5   1 2088.73   24.50
   1   5  -1 2021.01   27.21
   1  -5   1 2061.49   24.40
  -1  -5  -1 2060.07   23.81
   1   5  -1 2063.79   24.48
  -1   5   0  252.50    5.12
  -1   5   0  239.28    5.30
  -1   5   0  248.14    7.48
  -1  -5   0  248.88    5.00
   1   5   0  245.26    5.34
   1  -5   0  241.49    5.26
   1   5   1 2075.51   24.05
  -1   5  -1 2092.28   28.99
  -1  -5   1 2071.67   24.05
   1  -5  -1 2071.53   24.50
   1   5   1 2054.67   24.60
  -1   5  -2  435.65   10.59
  -1  -5   2  424.45    7.35
   1   5   2  408.16    7.69
   1   5   2  427.89    7.43
  -1   5  -3   55.20    3.78
   1   5   3   51.03    2.34
  -1  -5   3   51.74    2.37
   1   5   3   55.84    2.42
   1   5   4    5.52    1.01
   1   5   4    3.98    0.83
  -1   5  -4    5.17    1.32
  -1  -5   4    5.81    0.99
   1  -5  -4    7.46    1.32
   1   5   5   55.52    2.64
   1   5   5   59.49    2.89
   1  -5  -5   53.34    3.71
  -1   5  -5   58.08    4.32
  -1  -5   5   62.08    2.93
   1   5   6   99.92    3.67
  -1   5  -6   95.32    5.76
   1   5   6   97.48    3.89
  -1  -5   6  103.61    3.97
   1   5   7  167.92    5.37
   1   5   7  170.49    5.40
  -1  -5   7  177.17    5.35
  -1  -5   8   11.44    1.43
   1   5   8   11.88    1.46
   1   5   9   73.96    3.19
  -1  -5   9   73.59    3.06
   1  -5 -10    2.41    0.86
   1   5  10    2.34    0.63
  -1  -5  10    2.17    0.59
   1  -6   9   10.72    1.20
   1  -6   8   72.30    2.97
  -1   6   8   80.62    3.22
   1  -6   8   79.61    3.28
  -1   6   8   74.06    2.99
   1  -6   7  135.73    4.43
  -1   6   7  145.72    4.65
   1   6  -7  142.43    4.43
   1   6  -6  390.52    8.15
  -1   6   6  402.46    8.34
   1  -6   6  383.72    8.19
  -1   6   5  115.88    4.10
   1   6  -5  118.15    4.14
   1  -6   5  115.84    4.18
  -1  -6  -5  107.51    5.67
   1   6  -4 2175.14   26.78
  -1   6   4 2131.40   25.76
  -1   6   4 2148.52   26.72
   1  -6   4 2180.26   26.89
   1   6  -3  152.93    4.65
   1  -6   3  155.51    4.67
  -1  -6  -3  162.68    6.38
  -1   6   3  164.13    4.76
  -1   6   2  775.98   12.10
   1   6  -2  746.64   14.70
   1   6  -2  758.34   12.03
   1  -6   2  759.30   12.01
  -1  -6  -2  759.15   14.93
  -1  -6  -1   73.40    3.97
   1   6  -1   69.96    2.95
  -1   6   1   73.25    3.00
   1  -6   1   71.95    2.99
  -1  -6  -1   76.56    2.82
   1   6   0   19.67    1.66
  -1   6   0   19.86    1.65
   1  -6   0   16.61    1.52
  -1   6   0   21.05    1.52
  -1  -6   0   16.22    1.37
   1   6   0   17.18    1.31
   1   6   1   70.82    2.79
  -1   6  -1   69.29    2.94
   1  -6  -1   69.24    2.98
  -1   6  -1   67.82    4.33
   1   6   1   72.76    3.03
  -1  -6   1   77.90    2.90
   1   6   2  785.48   12.17
  -1   6  -2  766.34   16.31
  -1   6  -2  770.93   12.03
   1   6   2  763.59   11.77
   1   6   2  771.47   12.36
  -1  -6   2  791.72   11.91
   1   6   3  150.74    4.45
  -1   6  -3  163.02    7.09
   1   6   3  156.17    4.63
  -1  -6   3  156.11    4.52
   1   6   4 2117.24   26.82
  -1   6  -4 2176.91   33.48
  -1  -6   4 2173.46   26.83
   1   6   4 2192.87   26.96
   1   6   5  118.50    4.30
   1   6   5  119.43    4.07
  -1   6  -5  111.59    6.34
  -1  -6   5  121.13    4.27
   1   6   6  391.27    8.46
  -1  -6   6  396.61    8.40
   1   6   6  389.17    8.01
   1   6   7  148.86    4.92
  -1  -6   7  145.59    4.71
   1   6   8   77.22    3.31
  -1  -6   8   75.62    3.15
   1   6   9   11.92    1.21
  -1  -6   9    9.44    1.09
   1  -6  -9    8.81    1.29
  -1   7   8   50.86    2.19
   1  -7   8   55.09    2.31
   1  -7   8   55.92    2.31
   1  -7   7    7.11    0.87
   1  -7   7    5.73    0.99
  -1   7   7    8.61    1.15
  -1   7   7    8.15    1.17
   1   7  -6   17.67    1.56
   1  -7   6   15.32    1.35
  -1   7   6   18.34    1.68
   1  -7   6   15.10    1.62
  -1   7   5    2.43    0.98
   1   7  -5    2.24    0.91
   1  -7   5    1.55    0.82
  -1   7   4    3.00    0.95
  -1   7   4    2.28    0.71
   1   7  -4    2.79    0.88
   1  -7   4    2.39    0.94
   1  -7   3   37.27    2.39
  -1   7   3   33.90    2.28
   1   7  -3   36.54    2.39
   1  -7   2  176.88    5.18
   1   7  -2  172.39    5.14
  -1   7   2  174.23    5.16
   1   7  -1  381.72    8.14
  -1   7   1  385.92    8.12
   1  -7   1  385.12    8.13
  -1  -7   0    1.07    0.78
   1   7   0    1.13    0.70
  -1   7   0    0.26    0.73
   1  -7   0    1.70    0.80
   1   7   1  400.16    8.43
  -1  -7   1  403.42    7.95
   1   7   1  412.21    8.28
  -1   7  -1  397.12    8.09
   1   7   1  393.97    7.69
   1  -7  -1  408.59    8.41
  -1  -7   2  180.96    5.05
  -1   7  -2  177.42    5.01
  -1   7  -2  185.63    7.86
   1   7   2  168.07    4.76
   1   7   2  183.28    5.22
  -1  -7   3   34.10    2.24
   1   7   3   33.98    2.25
  -1   7  -3   30.58    2.12
   1   7   3   33.62    2.18
  -1   7  -3   38.38    3.75
  -1   7  -4    2.42    0.72
  -1  -7   4    2.25    0.85
   1   7   4    1.51    0.62
   1   7   4    2.24    0.75
  -1  -7   5    2.95    0.94
   1   7   5    2.51    0.80
   1   7   5    2.49    0.84
   1   7   6   17.10    1.65
   1   7   6   17.53    1.52
  -1  -7   6   18.04    1.65
   1   7   7    6.76    1.03
  -1  -7   7    6.37    1.04
   1   7   8   58.29    2.54
   1  -7  -8   59.69    2.85
  -1  -7   8   56.94    2.41
  -1   8   7    4.04    0.82
   1  -8   7    5.10    0.84
   1  -8   6   80.43    3.07
  -1   8   6   84.76    3.17
   1   8  -5   79.17    3.04
   1  -8   5   82.09    3.29
  -1   8   5   78.84    3.19
  -1   8   4  293.00    6.35
   1  -8   4  304.54    7.00
  -1   8   4  299.17    6.77
   1   8  -4  298.36    6.63
   1   8  -3  229.22    5.88
   1  -8   3  233.15    6.08
  -1   8   3  223.38    5.83
  -1   8   3  220.09    5.53
  -1   8   2   60.63    2.94
   1   8  -2   65.30    3.08
   1  -8   2   61.60    3.04
  -1   8   1  272.70    6.56
   1  -8   1  272.27    6.76
   1   8  -1  283.44    6.85
  -1  -8   0  266.48    6.24
  -1   8   0  264.37    6.40
   1   8   0  279.82    6.70
   1   8   0  274.58    6.77
   1  -8   0  273.52    6.77
  -1  -8   1  293.37    6.60
  -1   8  -1  276.66    6.49
   1   8   1  290.20    6.89
  -1   8  -2   64.46    2.91
  -1  -8   2   62.02    2.92
   1   8   2   67.43    2.88
   1   8   2   62.96    3.07
   1   8   3  218.57    5.89
  -1   8  -3  216.17    5.36
  -1  -8   3  224.31    5.77
   1   8   3  223.51    5.62
   1   8   4  292.04    6.61
  -1  -8   4  308.09    6.87
   1   8   4  306.78    6.88
   1   8   5   77.58    3.13
   1   8   5   76.64    3.12
  -1  -8   5   84.30    3.31
   1  -8  -6   73.34    3.12
   1   8   6   76.23    2.83
   1   8   7    5.36    0.80
  -1  -8   7    5.17    0.79
   1  -9   5   16.99    1.31
  -1   9   5   19.83    1.38
  -1   9   4   14.81    1.30
   1  -9   4   13.63    1.37
  -1   9   4   13.94    1.18
   1  -9   3   40.92    2.26
   1   9  -3   38.70    2.11
  -1   9   3   40.27    2.11
  -1   9   3   39.19    2.05
   1   9  -2  114.54    3.64
   1  -9   2  115.66    3.91
  -1   9   2  115.86    3.73
  -1   9   2  119.10    3.76
   1   9  -2  113.48    3.73
  -1   9   1   79.05    3.11
   1   9  -1   85.39    3.24
  -1   9   0  155.03    4.37
   1   9   0  172.09    4.79
   1   9   1   90.57    3.45
  -1  -9   1   86.49    3.14
  -1   9  -1   79.80    3.00
   1   9   2  119.97    4.00
  -1  -9   2  116.27    3.67
   1   9   3   43.17    2.27
  -1  -9   3   40.74    2.11
   1   9   4   14.74    1.31
  -1  -9   4   14.94    1.30
  -1  -9   5   18.38    1.31
   1   9   5   15.87    1.23
   1  10  -1   21.10    1.38
  -1  10   1   19.46    1.34
  -1  10   0    6.51    0.83
   1  10   0    5.62    0.87
  -1  10  -1   18.92    1.36
   1  10   1   18.97    1.37
  -1  10  -2   40.74    1.85
   1  10   2   42.91    1.93
   2   0  -1 9999.00  102.56
   2   0  -2 7749.50   81.05
  -2   0  -2 7686.98   79.40
   2   0  -2 7724.71   80.67
  -2   0  -3  977.16   13.31
   2   0  -3  948.83   14.74
  -2   0  -4  398.11    7.89
   2   0  -4  393.91    9.06
  -2   0   5  362.67    7.10
   2   0   5  356.78    6.59
   2   0  -5  365.04    7.05
   2   0   5  351.94    6.33
   2   0   5  360.65    6.64
   2   0  -5  370.43    9.65
  -2   0  -5  362.24    8.27
   2   0   6  652.87   10.51
   2   0   6  646.35   10.42
  -2   0  -6  621.81   12.61
  -2   0   6  641.80   10.82
   2   0  -6  651.16   14.67
   2   0   6  623.92    9.76
   2   0  -6  650.17   10.74
   2   0   7   79.86    3.40
  -2   0   7   79.76    3.49
   2   0   7   83.64    3.41
  -2   0  -7   84.57    4.69
   2   0   7   78.93    3.35
   2   0   7   79.97    2.92
   2   0  -7   86.03    5.37
  -2   0   8  892.06   14.79
   2   0   8  897.59   14.09
   2   0  -8  948.98   20.78
   2   0   8  939.29   14.55
  -2   0  -8  907.47   18.54
   2   0   8  914.41   14.67
   2   0   9    4.97    1.21
  -2   0   9    4.55    1.13
  -2   0  10   81.92    3.03
   2   0  10   79.52    3.38
  -2   0  10   76.64    3.37
  -2   0  11  124.87    3.72
   2   0  11  130.30    3.81
   2  -1  11   24.07    1.60
  -2   1  11   23.91    1.58
  -2   1  10   30.77    2.13
   2  -1  10   31.36    2.13
   2  -1  10   29.18    2.00
   2  -1   9   93.86    3.87
  -2   1   9   97.76    4.05
   2  -1   9   94.05    3.85
  -2   1   8   46.57    2.96
   2  -1   8   44.18    2.61
   2   1  -8   49.80    4.56
  -2  -1  -8   49.90    4.15
   2  -1   8   47.67    2.84
   2  -1   7   21.90    1.83
  -2   1   7   21.17    1.95
   2   1  -7   17.37    2.60
   2  -1   7   21.09    1.52
  -2  -1  -7   22.73    2.54
  -2   1   6  325.73    7.10
   2  -1   6  303.68    6.00
  -2  -1  -6  312.08    8.77
   2  -1   6  323.39    6.70
   2   1  -6  310.07    9.70
   2  -1   6  316.28    6.70
   2  -1   5  951.65   12.95
   2  -1   5  921.96   12.41
   2   1  -5  951.02   17.24
  -2  -1  -5  913.06   15.60
   2  -1   5  935.63   12.85
  -2  -1  -4   30.48    2.12
   2   1  -4   26.52    2.37
  -2  -1  -3  346.86    7.33
   2   1  -3  362.37    8.04
   2   1  -2 2121.32   26.25
   2   1  -1  503.52    8.77
   2  -1   1  509.09    7.75
   2   1   0  181.42    4.60
  -2   1   0  178.51    3.74
   2  -1   0  182.18    4.03
   2  -1  -1  507.22    8.01
  -2   1  -1  514.16    7.97
  -2   1  -1  521.45    6.45
   2   1   1  499.72    8.64
   2   1   2 2123.80   25.55
  -2   1  -2 2151.39   23.17
   2  -1  -2 2141.65   25.31
   2  -1  -2 2147.32   25.19
   2  -1  -3  341.97    7.39
  -2   1  -3  362.07    6.12
   2  -1  -4   28.54    2.29
  -2   1  -4   35.13    1.94
   2  -1  -5  913.97   16.70
   2   1   5  930.87   12.90
   2   1   5  935.24   12.64
  -2   1  -5  931.68   14.43
  -2  -1   5  942.91   13.30
  -2  -1   6  328.27    7.03
   2   1   6  318.57    6.75
   2   1   6  320.14    6.38
  -2   1  -6  345.33    8.65
   2  -1  -6  314.90    9.75
   2   1   7   20.80    1.80
   2  -1  -7   22.52    2.91
   2  -1  -7   22.58    2.02
   2   1   7   22.35    1.63
  -2  -1   7   20.71    1.88
   2   1   8   48.12    2.90
   2   1   8   50.11    2.85
   2  -1  -8   50.57    2.90
   2  -1  -8   42.47    4.40
  -2  -1   8   44.46    2.75
   2   1   9   93.25    3.93
   2   1   9   97.47    3.95
  -2  -1   9   91.08    3.90
   2   1  10   32.05    2.11
  -2  -1  10   29.01    2.08
   2   1  11   22.74    1.60
  -2  -1  11   25.22    1.64
   2  -2  10   20.81    1.80
   2  -2  10   21.26    1.74
  -2   2  10   20.73    1.74
  -2   2   9   44.39    2.77
   2  -2   9   43.79    2.74
   2  -2   9   45.08    2.63
  -2   2   8  205.23    6.13
   2  -2   8  200.33    5.77
  -2   2   7  303.23    7.45
   2  -2   7  295.76    6.89
  -2  -2  -7  305.98    9.73
  -2  -2  -6    3.47    1.03
   2  -2   6    2.14    0.86
   2  -2   6    2.94    0.71
  -2  -2  -5  246.94    7.32
   2  -2   5  238.24    5.29
  -2   2   5  242.49    4.82
   2  -2   5  242.71    5.04
  -2  -2  -4  432.72    9.58
   2  -2   4  433.81    7.19
   2  -2   4  425.12    6.85
   2   2  -3  119.27    3.09
   2   2  -3  121.28    4.73
  -2  -2  -3  119.35    4.38
   2   2  -2  113.36    4.11
   2   2  -2  107.16    2.36
   2   2  -1  989.59   14.54
  -2   2   1  990.62   13.67
   2  -2   0  105.08    2.59
  -2   2   0  111.47    3.44
   2   2   1  972.17   14.03
   2  -2  -1  963.09   12.23
  -2   2  -1  969.98   13.83
   2  -2  -1  971.62   11.74
   2  -2  -2  110.28    3.28
   2  -2  -2  106.62    3.06
  -2   2  -2  113.57    3.92
   2   2   2  112.19    3.72
   2  -2  -3  125.32    3.90
   2  -2  -3  120.14    4.18
  -2   2  -3  119.38    4.41
   2  -2  -4  433.20    9.80
   2   2   4  437.49    7.27
   2  -2  -4  440.16    7.06
  -2  -2   4  450.45    7.42
   2   2   5  246.75    5.48
   2  -2  -5  248.80    7.95
   2   2   5  241.58    5.28
  -2  -2   5  256.77    5.64
   2  -2  -5  241.15    5.04
   2   2   6    2.40    0.90
   2  -2  -6    2.45    1.23
   2   2   6    2.33    0.81
  -2  -2   6    1.94    0.81
   2  -2  -7  310.58   10.57
   2   2   7  295.10    7.00
   2   2   7  295.65    6.45
  -2  -2   7  289.81    7.00
   2   2   8  210.62    6.08
   2  -2  -8  218.66    6.61
  -2  -2   8  202.20    5.99
   2  -2  -9   44.07    2.83
   2   2   9   47.70    2.71
   2   2   9   46.92    2.83
  -2  -2   9   43.82    2.68
   2   2  10   22.85    1.85
  -2  -2  10   21.96    1.80
   2   2  10   23.41    1.87
   2   2  11   40.67    1.98
  -2  -2  11   40.62    1.98
   2  -3  10   19.05    1.69
  -2   3  10   17.59    1.55
  -2   3   9   21.86    1.98
   2  -3   9   24.54    1.95
   2  -3   9   25.89    2.15
  -2   3   8   20.85    2.02
   2  -3   8   22.59    1.89
  -2   3   7  106.13    3.58
   2  -3   7   96.54    3.78
   2   3  -7  113.28    6.65
  -2  -3  -7  107.02    5.90
  -2   3   6   35.53    1.95
   2  -3   6   31.73    2.06
   2  -3   6   31.13    1.94
  -2  -3  -6   29.73    2.92
  -2   3   5   14.89    1.23
   2  -3   5   14.72    1.37
   2   3  -5   15.51    2.26
   2  -3   5   16.19    1.29
  -2  -3  -5   16.83    2.15
   2   3  -4  309.18    8.74
  -2   3   4  289.85    5.60
   2  -3   4  292.72    5.78
  -2  -3  -4  306.73    8.44
   2  -3   4  285.32    5.80
  -2  -3  -3  299.83    7.98
  -2   3   3  287.60    5.42
   2   3  -3  283.21    7.65
   2   3  -2  338.17    5.91
   2   3  -2  345.57    7.97
  -2   3   1  462.47    8.98
   2   3  -1  458.96    9.14
   2   3   0  182.42    5.19
  -2   3   0  193.50    5.44
   2   3   1  445.64    8.57
  -2   3  -1  458.20    9.20
   2  -3  -2  331.34    6.46
   2   3   2  357.14    7.40
  -2   3  -2  339.16    8.01
   2   3   3  280.97    5.44
  -2   3  -3  294.74    7.89
  -2  -3   3  280.68    5.31
   2   3   4  297.00    6.03
   2  -3  -4  278.87    7.96
   2   3   4  282.49    5.84
  -2   3  -4  305.06    8.58
  -2  -3   4  298.78    5.93
   2  -3  -4  293.20    5.69
   2   3   5   16.03    1.37
  -2   3  -5   16.32    2.03
   2  -3  -5   13.40    1.89
  -2  -3   5   15.30    1.39
   2  -3  -5   15.80    1.30
   2   3   6   34.06    2.23
   2  -3  -6   30.51    3.09
   2   3   6   32.37    2.01
  -2   3  -6   31.85    3.13
  -2  -3   6   32.06    2.13
   2  -3  -7  101.59    6.04
   2   3   7  101.68    3.99
   2   3   7  100.99    3.63
  -2   3  -7   89.56    5.75
  -2  -3   7  107.93    4.10
   2   3   8   21.39    1.99
  -2  -3   8   22.02    2.03
   2  -3  -8   27.53    2.41
   2   3   9   23.84    2.03
   2  -3  -9   22.76    2.20
   2   3   9   22.76    1.87
  -2  -3   9   23.82    2.05
   2   3  10   16.50    1.61
   2   3  10   21.14    1.63
   2  -3 -10   15.22    1.53
  -2  -3  10   18.53    1.64
   2  -4  10   68.82    2.88
  -2   4   9  126.01    4.36
   2  -4   9  134.37    4.66
  -2   4   8   63.33    3.32
  -2   4   8   60.39    2.78
   2  -4   8   64.15    3.41
  -2   4   7  396.50    7.94
   2  -4   7  395.71    7.99
  -2   4   6   14.03    1.34
  -2  -4  -6   12.61    2.14
   2  -4   6   13.67    1.40
   2   4  -6   12.65    2.03
  -2   4   5   97.53    3.34
  -2  -4  -5   98.39    5.22
   2   4  -5   98.53    5.36
   2  -4   5   97.71    3.49
   2   4  -4  240.45    7.89
   2  -4   4  257.00    5.66
  -2   4   4  254.77    5.56
  -2  -4  -4  261.77    8.28
  -2  -4  -3  175.32    6.41
   2   4  -3  159.63    5.89
   2  -4   3  164.78    4.29
  -2   4   3  172.73    4.34
   2  -4   2  453.17    7.74
   2   4  -2  454.95    9.94
  -2   4   2  457.23    7.79
   2  -4   2  477.23    7.83
   2   4  -1 1678.60   22.96
  -2   4   1 1668.51   20.38
   2  -4   1 1672.26   20.18
   2   4  -1 1672.63   20.21
   2  -4   0    2.19    0.58
   2   4   0    0.30    0.81
   2   4   0    1.23    0.60
   2   4   0    1.50    0.55
   2   4   0    1.82    0.68
  -2   4   0    1.98    0.90
   2   4   1 1695.73   22.24
   2   4   1 1699.28   20.32
   2  -4  -1 1667.42   20.35
  -2   4  -1 1672.85   24.05
   2   4   1 1676.99   20.26
   2   4   2  461.53    7.82
  -2   4  -2  475.75   10.75
  -2  -4   2  469.94    7.38
   2   4   2  461.39    7.86
   2   4   3  166.90    4.40
  -2   4  -3  171.90    6.38
  -2  -4   3  172.10    4.18
   2   4   3  173.75    4.40
   2   4   4  239.51    5.67
   2   4   4  250.49    5.64
  -2   4  -4  253.31    8.34
  -2  -4   4  241.84    5.49
   2  -4  -4  237.95    5.29
   2   4   5   99.25    3.72
   2   4   5   89.70    3.44
  -2  -4   5   96.79    3.58
  -2   4  -5  100.10    5.50
   2  -4  -5  100.70    3.22
  -2  -4   6   12.29    1.55
   2   4   6   12.43    1.35
  -2   4  -6   10.13    2.10
   2   4   7  397.63    8.61
  -2  -4   7  395.45    8.52
   2   4   7  390.94    7.96
   2   4   8   56.99    3.07
   2  -4  -8   65.47    3.72
  -2  -4   8   65.20    3.25
   2   4   9  138.93    4.61
   2   4   9  125.99    4.06
   2  -4  -9  130.16    4.91
  -2  -4   9  140.85    4.48
   2   4  10   70.13    2.85
  -2  -4  10   73.61    2.82
  -2   5   9   19.33    1.60
   2   5  -9   21.59    1.60
   2  -5   9   23.39    1.82
  -2   5   8   50.09    2.82
  -2   5   8   51.44    2.53
   2  -5   8   52.24    2.92
   2  -5   7   32.64    2.20
  -2   5   7   32.15    2.14
   2  -5   7   35.72    2.59
  -2   5   6  123.84    4.15
   2  -5   6  120.74    4.22
   2  -5   6  131.42    4.78
  -2  -5  -5  170.70    7.28
   2   5  -5  178.05    7.30
   2  -5   5  174.34    5.06
  -2   5   5  176.38    4.94
   2  -5   5  186.27    5.56
  -2  -5  -4  353.29   10.34
   2  -5   4  347.02    7.32
   2   5  -4  351.55    9.93
  -2   5   4  346.24    7.20
   2  -5   4  341.12    7.47
  -2   5   3  500.29    9.03
   2   5  -3  495.50   11.44
   2   5  -3  500.41    9.17
   2  -5   3  501.75    9.03
   2  -5   3  515.14    9.03
  -2  -5  -3  535.55   12.56
   2   5  -2   69.99    3.79
   2  -5   2   65.67    2.76
   2   5  -2   65.88    2.81
  -2   5   2   63.08    2.73
  -2  -5  -2   66.37    4.07
   2  -5   1  256.44    5.74
  -2   5   1  249.36    5.76
   2   5  -1  257.05    5.78
   2   5   0  533.24    9.16
  -2   5   0  558.73   12.42
   2  -5   0  544.75    9.14
   2   5   0  550.18    9.23
  -2   5   0  549.91    9.37
  -2   5  -1  265.30    8.23
   2   5   1  260.02    5.78
   2  -5  -1  255.45    5.84
  -2  -5   1  249.41    5.11
   2   5   1  258.59    5.82
   2   5   2   63.28    2.76
  -2   5  -2   65.18    4.06
   2   5   2   66.13    2.82
   2   5   2   62.04    2.58
  -2  -5   2   69.67    2.62
   2   5   3  504.91    8.99
  -2   5  -3  528.42   12.98
  -2  -5   3  512.18    8.72
   2   5   3  510.89    9.28
   2   5   4  344.56    7.41
   2   5   4  332.32    7.28
   2  -5  -4  348.32    6.80
  -2   5  -4  338.90   10.55
  -2  -5   4  336.49    7.04
   2   5   5  170.76    5.06
   2   5   5  174.46    5.30
  -2   5  -5  175.11    7.74
  -2  -5   5  175.62    5.02
   2   5   6  125.55    4.30
  -2  -5   6  123.96    4.36
   2   5   7   32.94    2.40
   2   5   7   33.58    2.20
  -2  -5   7   35.01    2.30
   2   5   8   46.56    2.68
   2  -5  -8   52.45    3.36
  -2  -5   8   49.67    2.67
   2   5   9   21.03    1.70
  -2  -5   9   20.07    1.60
   2  -5  -9   20.75    1.91
   2   6  -8  155.42    4.38
  -2   6   8  158.32    4.61
  -2   6   8  155.63    4.29
   2  -6   8  167.77    4.75
  -2   6   7  195.10    5.24
   2  -6   7  198.35    5.23
   2   6  -7  195.40    5.39
   2  -6   7  194.74    5.56
  -2   6   6  283.37    6.72
   2  -6   6  281.58    6.76
   2   6  -6  291.75    7.02
   2  -6   6  301.46    7.21
  -2   6   5  354.58    7.66
   2  -6   5  358.23    7.86
   2   6  -5  343.89    7.89
   2  -6   5  364.88    7.98
   2  -6   4  133.21    4.51
  -2   6   4  137.72    4.50
   2  -6   4  139.47    4.47
  -2  -6  -4  135.42    6.44
   2   6  -4  131.15    4.55
   2  -6   3   26.12    2.04
   2   6  -3   25.76    1.97
  -2  -6  -3   25.42    2.85
  -2   6   3   27.01    1.99
  -2   6   2  508.41    9.42
   2   6  -2  505.19    9.55
  -2  -6  -2  497.38   12.62
   2   6  -2  514.95    9.34
   2  -6   2  503.51    9.46
   2   6  -1   22.81    1.83
   2  -6   1   21.93    1.81
   2   6  -1   22.99    1.81
  -2   6   1   23.06    1.89
  -2  -6  -1   24.57    2.52
  -2   6   0  442.97    8.71
   2   6   0  451.79    8.67
   2  -6   0  445.93    8.60
   2   6   0  429.15    8.53
  -2   6  -1   24.75    2.68
   2   6   1   25.32    1.92
   2   6   1   23.51    1.87
  -2  -6   1   25.86    1.67
  -2   6  -1   21.65    1.82
   2   6   2  521.53    9.63
   2   6   2  517.59    9.64
  -2   6  -2  487.98   13.09
  -2  -6   2  509.45    8.84
   2   6   2  504.45    9.01
   2   6   3   28.13    1.97
   2   6   3   27.76    2.08
  -2   6  -3   27.89    3.23
  -2  -6   3   28.78    1.90
   2   6   4  138.44    4.64
   2   6   4  140.01    4.60
  -2   6  -4  137.38    6.99
  -2  -6   4  140.87    4.43
   2   6   5  349.69    7.79
  -2  -6   5  354.27    7.65
   2   6   5  335.70    7.78
   2   6   6  280.34    6.73
  -2  -6   6  286.42    6.80
   2  -6  -7  194.10    6.31
   2   6   7  192.41    5.53
   2   6   7  190.71    5.14
  -2  -6   7  198.77    5.41
   2   6   8  156.29    4.63
   2  -6  -8  164.88    5.34
  -2  -6   8  168.60    4.63
   2   6   9   48.64    2.21
   2  -6  -9   47.53    2.45
  -2  -6   9   53.30    2.19
  -2   7   7   17.90    1.48
   2  -7   7   19.68    1.46
   2  -7   7   15.54    1.37
   2   7  -7   17.95    1.55
  -2   7   6   89.49    3.43
   2  -7   6   88.08    3.39
   2   7  -6   86.52    3.44
   2  -7   6   88.00    3.27
   2  -7   5   12.67    1.45
   2   7  -5   13.53    1.54
  -2   7   5   14.40    1.48
   2   7  -4  161.29    5.06
   2  -7   4  158.18    5.00
  -2   7   4  159.89    4.97
  -2   7   3   49.09    2.73
   2  -7   3   45.25    2.68
   2   7  -3   42.24    2.64
   2  -7   2    5.35    1.14
  -2   7   2    6.61    1.20
   2   7  -2    4.74    1.07
   2   7  -2    5.16    1.06
  -2  -7  -1   32.29    3.12
   2   7  -1   35.94    2.32
   2   7  -1   35.22    2.40
   2  -7   1   32.61    2.32
  -2   7   1   31.62    2.26
   2   7   0    6.83    1.29
   2  -7   0    8.27    1.37
   2   7   0    9.05    1.32
  -2  -7   0    7.84    1.76
  -2   7   0    7.36    1.29
   2   7   1   34.77    2.40
  -2   7  -1   35.10    2.39
   2   7   1   31.96    2.33
  -2  -7   2    5.37    1.02
  -2   7  -2    4.93    1.16
   2   7   2    5.23    1.27
   2   7   3   48.92    2.82
  -2   7  -3   42.37    2.59
  -2  -7   3   50.58    2.57
   2   7   3   50.16    2.63
   2   7   4  163.81    4.92
   2  -7  -4  166.76    5.54
   2   7   4  168.73    5.17
  -2  -7   4  159.27    4.76
  -2   7  -4  149.70    4.83
   2   7   5   12.63    1.51
   2  -7  -5   16.68    1.88
   2   7   5   16.01    1.68
  -2  -7   5   14.50    1.50
  -2   7  -5   13.19    1.46
   2   7   6   90.05    3.44
   2  -7  -6   83.88    3.85
  -2  -7   6   85.98    3.33
   2   7   7   19.14    1.58
   2   7   7   17.55    1.37
   2  -7  -7   14.92    1.75
  -2  -7   7   19.40    1.58
   2   7   8   13.16    1.18
   2  -7  -8   11.81    1.37
  -2  -7   8   14.03    1.17
  -2   8   6   27.87    1.67
   2  -8   6   25.90    1.62
   2   8  -6   24.35    1.62
   2   8  -5   70.30    2.96
   2  -8   5   69.55    2.87
  -2   8   5   69.76    2.91
   2  -8   4    3.62    0.87
  -2   8   4    4.00    0.95
   2   8  -4    2.32    0.94
  -2   8   3   19.71    1.56
   2  -8   3   18.23    1.69
   2   8  -3   20.45    1.79
  -2   8   3   20.44    1.81
  -2   8   2  191.44    5.43
   2   8  -2  196.80    5.29
   2  -8   2  196.66    5.58
   2   8  -2  200.88    5.63
   2   8  -1  306.48    6.99
   2   8  -1  293.60    7.12
   2  -8   1  283.72    7.05
  -2   8   1  291.12    6.95
  -2   8   0    9.20    1.40
   2   8   0    9.93    1.34
   2   8   0   11.25    1.48
  -2   8  -1  288.94    6.87
   2   8   1  302.50    7.18
  -2  -8   2  191.04    4.91
   2   8   2  203.90    5.75
  -2   8  -2  192.19    5.38
  -2   8  -3   19.56    1.64
   2   8   3   22.93    1.87
  -2  -8   3   17.58    1.47
  -2  -8   4    3.56    0.75
  -2   8  -4    2.85    0.81
   2   8   4    3.08    0.98
   2   8   5   70.99    3.01
  -2  -8   5   73.46    2.85
   2   8   6   24.66    1.68
   2   8   6   25.26    1.56
  -2  -8   6   22.49    1.53
  -2   9   4  123.36    3.54
   2  -9   4  121.79    3.62
   2   9  -4  117.89    3.46
  -2   9   3   45.06    2.22
   2  -9   3   43.86    2.24
  -2   9   3   44.02    1.96
   2   9  -3   44.32    2.25
  -2   9   2  101.83    3.48
  -2   9   2   96.71    3.20
   2   9  -2  105.40    3.58
  -2   9   1   47.38    2.41
   2   9  -1   52.40    2.61
   2   9  -1   53.52    2.54
  -2   9   0   64.43    2.78
   2   9   0   62.32    2.81
   2   9   1   51.23    2.55
  -2   9  -1   50.66    2.44
  -2   9  -2   99.18    3.34
   2   9   2   98.75    3.53
   2   9   3   47.26    2.33
   2   9   4  124.65    3.69
   3   0   0   -0.85    0.77
   3   0   1 1502.02   20.24
   3   0  -1 1484.99   20.69
  -3   0  -1 1473.37   17.54
   3   0  -2  310.46    7.71
  -3   0  -2  315.44    6.50
   3   0   2  301.42    7.08
   3   0   3  823.56   11.11
   3   0  -3  825.89   14.92
  -3   0  -3  845.42   12.78
   3   0  -3  832.27   11.11
   3   0   3  824.11   11.30
   3   0  -3  832.86   11.05
   3   0   4 2138.19   24.90
  -3   0  -4 2185.09   27.18
  -3   0   4 2166.37   25.61
   3   0   4 2167.52   25.21
   3   0  -4 2158.18   26.50
   3   0  -4 2081.07   30.77
   3   0   4 2181.95   25.10
   3   0   4 2160.73   25.83
   3   0   5  193.46    4.78
   3   0   5  194.33    5.24
  -3   0   5  204.41    5.33
   3   0  -5  192.71    5.42
   3   0   5  193.53    4.94
   3   0   5  209.52    4.96
  -3   0  -5  198.07    6.08
   3   0  -5  191.82    7.68
   3   0   6   10.71    1.41
  -3   0   6    8.43    1.39
   3   0   6   10.09    1.26
   3   0   6    8.94    1.33
  -3   0  -6   11.25    1.50
   3   0  -6   11.29    1.34
   3   0  -6    4.85    2.02
   3   0  -6    9.32    1.83
   3   0   6    8.57    1.38
   3   0   7  125.70    4.38
  -3   0   7  125.74    4.66
   3   0   7  127.48    4.41
   3   0  -7  126.84    4.59
   3   0   7  124.73    4.08
   3   0  -7  117.31    7.15
   3   0  -7  139.29    7.51
   3   0   7  126.40    4.52
  -3   0   8  133.46    4.87
   3   0   8  136.42    4.13
   3   0   8  138.61    4.81
   3   0   8  129.17    4.52
   3   0   9   46.40    2.65
  -3   0   9   46.10    2.76
   3   0  10   69.44    2.96
  -3   0  10   71.87    3.08
   3  -1  10   21.69    1.67
  -3   1  10   20.82    1.72
   3  -1   9   19.88    1.82
   3  -1   9   17.25    1.74
  -3   1   9   19.51    1.91
  -3   1   8  216.27    6.34
   3  -1   8  213.45    6.06
   3  -1   8  209.99    6.25
  -3   1   7   81.58    3.79
   3  -1   7   85.71    3.31
   3  -1   7   85.62    3.65
  -3  -1  -7   76.34    4.66
   3  -1   7   85.65    3.99
   3   1  -7   76.67    6.00
  -3   1   6  168.33    5.24
   3  -1   6  166.60    4.90
   3   1  -6  155.50    8.08
  -3  -1  -6  168.05    6.58
   3  -1   6  163.15    5.41
   3  -1   6  172.69    4.60
  -3  -1  -5   62.44    3.60
   3  -1   5   62.17    2.59
   3  -1   5   60.39    2.68
   3   1  -5   58.82    4.42
   3  -1   5   57.58    3.01
   3  -1   4  507.44    8.39
  -3  -1  -4  518.06   10.78
   3   1  -4  519.39   12.59
   3  -1   4  515.23    9.31
   3  -1   4  506.22    8.28
  -3  -1  -3  268.74    6.85
   3  -1   3  248.90    4.96
   3   1  -3  261.97    7.81
   3   1  -3  253.12    4.96
   3  -1   3  251.21    5.59
   3   1  -2  217.21    6.62
   3  -1   1  165.64    4.65
   3   1  -1  164.62    5.44
   3  -1   0  637.55   10.70
   3   1   0  635.37   11.68
  -3   1   0  653.96    9.37
   3   1   1  158.77    5.14
   3  -1  -1  152.65    4.69
  -3   1  -1  159.61    4.17
   3  -1  -2  209.46    5.87
  -3   1  -2  219.73    5.55
  -3   1  -2  210.20    4.20
   3   1   2  226.16    6.16
   3   1   3  254.48    5.11
   3  -1  -3  261.48    6.01
   3  -1  -3  252.79    7.02
   3   1   3  249.16    4.98
   3  -1  -3  244.79    6.93
   3  -1  -3  247.08    4.89
  -3  -1   4  506.01    8.47
   3  -1  -4  518.32    9.70
   3   1   4  502.68    8.07
   3   1   4  502.15    8.33
   3   1   4  494.53    8.11
   3   1   4  488.41    8.15
   3  -1  -4  528.82   11.72
   3  -1  -4  511.56    7.90
   3  -1  -4  507.81   11.76
   3   1   4  495.66    8.31
   3  -1  -4  500.51    8.13
  -3  -1   5   57.59    2.70
   3   1   5   60.25    2.63
   3   1   5   60.67    2.63
   3  -1  -5   66.57    3.30
   3  -1  -5   53.58    4.11
   3   1   5   58.81    2.62
   3   1   5   64.59    2.74
   3  -1  -5   55.79    4.12
  -3  -1   6  168.10    5.01
   3   1   6  161.77    4.75
   3   1   6  169.10    4.71
   3   1   6  176.13    5.00
   3  -1  -6  167.86    5.57
   3  -1  -6  150.44    7.41
   3  -1  -6  162.97    7.76
   3   1   6  161.21    4.64
   3   1   7   87.08    3.68
   3   1   7   88.53    3.41
   3   1   7   87.18    3.73
   3  -1  -7   85.26    4.06
   3  -1  -7   83.57    5.92
   3  -1  -7   83.83    5.94
  -3  -1   7   83.17    3.67
   3   1   8  205.48    5.88
   3   1   8  206.01    5.31
   3   1   8  210.22    5.95
   3  -1  -8  217.68    6.49
  -3  -1   8  211.44    6.09
   3   1   9   19.26    1.76
  -3  -1   9   21.52    1.90
   3   1  10   22.06    1.69
  -3  -1  10   21.98    1.74
  -3   2  10    2.07    0.77
   3  -2  10    0.52    0.61
  -3   2   9   75.10    3.50
   3  -2   9   68.84    3.17
   3  -2   9   65.99    3.35
  -3   2   8  107.07    4.49
   3  -2   8  101.61    4.06
   3  -2   8   99.61    4.41
  -3   2   7  170.40    5.71
   3  -2   7  170.13    5.23
   3   2  -7  178.16    9.07
  -3  -2  -7  173.25    7.38
   3  -2   7  165.70    5.87
   3  -2   6  350.11    7.16
   3  -2   6  350.89    7.52
   3   2  -6  398.29   12.88
   3  -2   6  309.13    8.25
  -3  -2  -6  357.90   10.36
   3  -2   5   53.94    2.44
   3  -2   5   51.39    2.49
   3   2  -5   59.79    4.59
  -3  -2  -5   52.08    3.53
   3  -2   4   12.90    1.22
  -3  -2  -4   13.93    1.72
   3  -2   4   10.91    1.16
   3   2  -4   13.96    2.18
   3  -2   4   10.24    1.45
   3  -2   3 1460.86   17.83
   3   2  -3 1498.54   23.31
  -3  -2  -3 1500.08   22.20
   3  -2   3 1440.24   19.20
   3   2  -2  736.36   13.86
   3  -2   2  714.40    9.92
   3   2  -2  726.17    9.93
   3  -2   2  719.43   10.82
   3   2  -1   69.21    3.67
   3  -2   0  416.77    7.50
   3   2   0  407.57    9.20
  -3   2   0  423.57    8.03
   3   2   1   62.49    3.29
   3  -2  -1   61.60    2.63
  -3   2  -1   57.92    2.83
   3  -2  -2  711.15   11.57
   3   2   2  712.27   10.29
   3   2   2  714.72   10.21
   3  -2  -2  712.81   11.33
   3   2   2  712.27   10.06
  -3   2  -2  704.10   12.38
   3   2   2  735.23   12.86
   3  -2  -3 1424.21   20.24
   3   2   3 1473.38   18.18
   3   2   3 1464.65   17.95
   3  -2  -3 1473.85   19.87
   3  -2  -3 1426.66   20.85
  -3   2  -3 1452.68   21.48
  -3  -2   3 1433.91   17.51
   3  -2  -3 1436.23   17.94
   3   2   4   11.16    1.06
   3   2   4   13.26    1.19
   3   2   4   13.79    1.33
   3  -2  -4   14.99    1.68
   3  -2  -4   13.77    1.63
   3  -2  -4   12.75    0.99
  -3   2  -4   14.89    1.90
   3  -2  -4   18.75    2.23
   3  -2  -4   12.77    1.23
  -3  -2   4   14.11    1.23
   3   2   5   51.37    2.46
   3   2   5   49.05    2.46
   3  -2  -5   56.57    3.30
   3   2   5   50.54    2.49
   3  -2  -5   53.24    3.71
  -3   2  -5   51.36    3.70
   3  -2  -5   44.50    3.75
   3  -2  -5   52.80    2.38
  -3  -2   5   49.68    2.49
   3   2   6  365.95    7.64
   3  -2  -6  367.18    9.19
   3   2   6  356.31    7.58
   3   2   6  348.29    7.40
   3  -2  -6  337.93   11.48
  -3   2  -6  367.46   11.01
  -3  -2   6  356.14    7.67
   3   2   7  170.26    5.25
   3  -2  -7  178.33    6.30
   3   2   7  166.24    5.13
   3  -2  -7  161.76    8.23
  -3   2  -7  164.60    7.74
   3   2   7  170.37    4.98
  -3  -2   7  168.42    5.26
   3   2   8  106.63    4.20
   3   2   8  106.36    4.13
   3  -2  -8  102.97    4.71
   3   2   8   98.75    3.59
  -3  -2   8  100.31    4.15
   3   2   9   65.14    3.15
   3   2   9   66.83    3.06
   3  -2  -9   63.61    3.39
  -3  -2   9   68.16    3.24
   3   2  10    2.39    0.64
  -3  -2  10    1.33    0.79
   3  -3  10    9.04    1.19
  -3   3  10   10.21    1.16
  -3   3   9   17.75    1.75
   3  -3   9   17.51    1.82
  -3   3   8   13.59    1.79
   3  -3   8   13.89    1.80
   3  -3   7   11.09    1.80
  -3  -3  -6  173.27    7.44
   3   3  -6  167.74    8.24
   3  -3   6  151.42    5.68
  -3  -3  -5  120.67    5.85
   3   3  -5  127.11    6.61
   3  -3   5  111.95    4.63
  -3   3   4   12.80    1.06
  -3  -3  -4    8.52    1.62
   3   3  -4   12.39    1.16
   3   3  -4   13.19    2.26
   3  -3   4   10.20    1.47
  -3   3   3  154.72    3.95
   3   3  -3  157.62    4.19
  -3  -3  -3  162.02    6.29
   3  -3   3  156.90    4.68
   3   3  -3  168.68    6.70
   3   3  -2   79.07    4.25
  -3   3   2   80.54    2.72
   3   3  -2   78.41    2.79
   3  -3   2   86.40    3.13
   3   3  -1  377.06    6.75
   3  -3   1  380.13    6.91
   3   3   0  309.87    8.12
   3   3   0  299.86    5.78
  -3   3   0  299.87    7.43
   3   3   1  397.55    9.14
   3   3   1  384.65    6.81
   3  -3  -1  390.67    7.49
  -3   3  -1  375.03    8.70
   3   3   1  370.40    6.63
   3   3   2   85.67    2.96
   3   3   2   81.39    2.89
   3  -3  -2   83.41    3.43
   3   3   2   81.95    2.65
  -3   3  -2   78.29    3.90
   3   3   2   82.03    3.85
   3   3   3  155.49    4.05
   3   3   3  162.53    4.39
   3  -3  -3  147.34    5.05
  -3   3  -3  154.97    5.92
  -3  -3   3  158.43    3.90
   3   3   4   11.30    1.26
   3   3   4   10.62    1.09
   3  -3  -4    9.37    1.66
  -3  -3   4   10.13    1.17
  -3   3  -4   11.55    1.82
   3  -3  -4   10.53    1.15
   3   3   5  115.28    3.91
  -3   3  -5  116.02    5.94
   3  -3  -5  114.02    5.07
   3   3   5  120.54    4.10
  -3  -3   5  120.75    3.97
   3  -3  -5  120.79    3.80
   3   3   5  127.17    3.72
   3   3   6  164.01    4.99
   3   3   6  167.72    5.02
   3  -3  -6  176.49    6.53
  -3   3  -6  164.00    7.54
  -3  -3   6  168.88    5.07
   3   3   7   14.03    1.65
   3   3   7   12.40    1.53
   3  -3  -7   14.68    2.20
   3   3   7   14.54    1.55
  -3  -3   7   16.83    1.77
   3   3   8   11.58    1.49
   3   3   8   14.37    1.47
   3  -3  -8   14.07    2.06
   3   3   8   17.26    1.48
  -3  -3   8   14.55    1.56
   3   3   9   17.15    1.67
   3   3   9   15.72    1.43
   3  -3  -9   17.43    1.87
  -3  -3   9   17.44    1.64
  -3  -3  10    7.61    1.00
  -3   4   9   71.01    3.15
   3  -4   9   75.95    3.34
  -3   4   8  127.87    4.78
   3  -4   8  130.85    4.94
   3  -4   7   31.42    2.63
  -3   4   6  105.63    3.50
   3  -4   6  110.33    4.78
   3   4  -5  221.85    9.01
  -3   4   5  219.84    5.31
  -3  -4  -5  228.08    8.60
   3  -4   5  231.27    6.80
   3   4  -4   50.97    4.08
   3   4  -4   53.87    2.44
  -3  -4  -4   53.52    4.05
   3  -4   4   52.64    2.61
   3  -4   4   56.89    3.09
  -3   4   4   56.52    2.55
   3   4  -3  552.74   13.26
  -3   4   3  566.08    9.44
   3   4  -3  568.02    9.26
  -3  -4  -3  597.61   13.74
   3  -4   3  564.20    9.63
   3  -4   3  565.84   10.25
   3  -4   2  157.76    4.47
   3   4  -2  153.71    4.10
   3  -4   2  151.02    4.27
   3   4  -2  155.39    6.24
  -3   4   2  154.33    4.28
   3   4  -1   14.82    2.01
  -3   4   1   16.63    1.41
   3   4  -1   14.72    1.32
   3   4  -1   16.59    1.34
   3  -4   1   17.31    1.47
   3   4  -1   15.11    1.37
   3  -4   1   17.74    1.45
   3   4   0  251.44    7.49
   3   4   0  241.26    5.52
   3   4   0  244.28    5.35
   3  -4   0  244.38    5.52
  -3   4   0  254.43    7.57
   3   4   0  249.10    5.45
   3   4   1   15.49    1.79
   3   4   1   13.32    1.27
   3  -4  -1   16.34    1.54
  -3   4  -1   16.26    1.99
   3   4   1   14.70    1.35
   3   4   2  152.27    4.44
   3   4   2  151.39    4.19
   3  -4  -2  153.97    4.95
   3   4   2  155.19    4.15
  -3   4  -2  149.12    6.04
  -3   4  -3  589.73   13.28
   3   4   3  564.52    9.29
   3   4   3  582.90   10.09
  -3  -4   3  581.57    9.08
   3   4   4   52.07    2.37
   3   4   4   55.56    2.84
  -3   4  -4   52.06    4.00
  -3  -4   4   57.97    2.58
   3  -4  -4   55.76    2.58
   3   4   5  215.91    5.73
   3   4   5  214.58    5.84
   3  -4  -5  200.76    7.16
  -3   4  -5  219.91    8.62
  -3  -4   5  228.34    5.66
   3  -4  -5  212.72    5.36
   3   4   6  109.28    4.09
   3   4   6  105.18    4.07
   3  -4  -6  101.19    5.18
  -3  -4   6  108.72    4.01
   3   4   7   27.73    2.10
   3  -4  -7   29.25    2.86
  -3  -4   7   29.06    2.12
   3   4   7   28.39    2.03
   3   4   8  119.08    4.29
   3   4   8  117.92    3.86
   3  -4  -8  132.30    5.35
  -3  -4   8  128.08    4.34
   3   4   9   71.02    3.05
   3  -4  -9   70.00    3.52
  -3  -4   9   71.07    2.93
  -3   5   9   27.79    1.76
   3   5  -9   31.51    1.76
   3  -5   9   29.48    1.91
  -3   5   8   19.91    1.85
   3  -5   8   20.13    1.86
  -3   5   7   67.50    2.81
   3  -5   7   71.06    3.58
  -3   5   6   28.88    1.96
   3  -5   6   26.36    2.37
  -3   5   5  122.96    4.03
   3  -5   5  124.93    4.33
   3  -5   5  130.08    4.91
  -3   5   4  107.56    3.77
   3   5  -4   96.14    5.63
   3  -5   4  106.29    4.01
  -3  -5  -4  102.76    5.84
   3  -5   4  103.22    4.14
  -3  -5  -3  164.66    7.23
  -3   5   3  162.02    4.71
   3   5  -3  147.43    6.54
   3  -5   3  154.09    4.78
   3   5  -3  156.13    4.81
   3  -5   3  153.70    4.82
  -3  -5  -2  626.97   14.86
   3   5  -2  627.24   13.77
  -3   5   2  658.70   10.93
   3   5  -2  643.87   10.13
   3  -5   2  625.36   10.81
   3   5  -2  647.26   10.91
   3  -5   2  625.97   10.56
  -3   5   1  243.95    5.92
   3   5  -1  237.70    7.73
   3   5  -1  251.89    5.56
   3  -5   1  240.44    5.89
   3   5  -1  250.08    5.96
  -3   5   0  188.20    5.22
   3   5   0  174.01    5.14
  -3   5   0  184.88    7.02
   3  -5   0  192.66    5.22
   3   5   0  189.50    5.02
   3   5   1  248.73    6.22
   3  -5  -1  242.27    6.16
  -3   5  -1  248.44    8.44
   3   5   1  254.30    5.89
   3   5   1  251.63    7.26
   3   5   2  635.81   10.48
   3   5   2  634.40   11.20
   3  -5  -2  631.83   11.60
   3   5   2  635.69   10.59
  -3   5  -2  654.90   14.92
   3   5   3  157.16    4.96
   3   5   3  154.53    4.26
   3  -5  -3  152.90    5.54
  -3   5  -3  156.40    6.98
  -3  -5   3  153.31    4.18
   3   5   4  102.11    4.08
   3  -5  -4  104.50    4.90
  -3   5  -4  105.50    6.00
  -3  -5   4  106.16    3.64
   3  -5  -4  101.42    3.69
   3   5   5  126.64    4.57
   3  -5  -5  123.78    5.55
  -3  -5   5  128.38    4.19
   3  -5  -5  119.92    3.90
   3   5   6   28.30    2.16
   3  -5  -6   26.19    2.72
   3   5   6   27.27    2.14
  -3  -5   6   27.92    2.03
   3   5   7   72.48    3.29
   3   5   7   65.76    3.05
   3  -5  -7   67.97    4.04
  -3  -5   7   69.32    3.09
   3   5   8   20.51    1.67
   3   5   8   16.70    1.45
   3  -5  -8   22.73    2.16
  -3  -5   8   20.25    1.61
   3   5   9   29.33    1.83
   3  -5  -9   32.14    2.14
  -3  -5   9   31.50    1.78
  -3   6   8   14.91    1.39
   3   6  -8   15.96    1.44
   3  -6   8   17.02    1.50
  -3   6   7  328.52    6.60
   3   6  -7  340.29    7.23
   3  -6   7  336.50    7.35
  -3   6   6  101.46    3.58
   3  -6   6  100.48    3.63
   3   6  -6  106.27    4.06
   3  -6   6  105.26    4.05
  -3   6   5  180.78    5.08
   3  -6   5  178.67    5.26
   3   6  -5  181.76    5.50
   3  -6   5  181.57    5.50
  -3   6   4  430.71    8.62
   3  -6   4  437.15    8.92
   3   6  -4  421.14    8.96
   3  -6   4  429.03    8.80
   3  -6   3  237.93    6.26
   3   6  -3  238.37    6.43
  -3   6   3  243.17    6.22
   3  -6   2  679.90   11.88
  -3  -6  -2  670.28   16.02
   3   6  -2  697.14   11.98
  -3   6   2  678.02   11.71
  -3   6   1  484.22    9.43
   3   6  -1  456.32    9.38
   3  -6   1  482.44    9.48
   3   6  -1  486.39    9.38
  -3   6   0   -0.02    0.75
   3   6   0    1.20    0.88
   3   6   0    0.11    0.74
  -3   6  -1  495.98    9.78
   3   6   1  498.75    9.93
  -3   6  -1  482.56   13.06
   3   6   1  489.72    9.41
   3   6   2  699.41   12.32
  -3   6  -2  663.60   16.05
   3   6   2  674.28   11.64
   3   6   3  248.95    6.68
   3  -6  -3  230.11    6.79
  -3   6  -3  226.29    9.00
   3  -6  -4  422.36    9.99
  -3  -6   4  418.10    8.03
   3  -6  -4  431.84    8.26
   3   6   5  177.66    5.44
   3  -6  -5  171.16    6.18
  -3  -6   5  178.14    4.95
   3  -6  -5  173.78    4.59
   3   6   6   99.62    3.86
   3   6   6  100.42    3.90
   3  -6  -6   99.63    4.66
  -3  -6   6  100.00    3.59
   3   6   7  330.61    7.08
   3   6   7  321.95    6.83
   3  -6  -7  335.05    8.34
  -3  -6   7  335.20    6.81
   3   6   8   15.09    1.35
   3  -6  -8   18.63    1.71
  -3  -6   8   14.46    1.23
   3   7  -7   41.02    2.07
  -3   7   6   36.33    2.02
   3   7  -6   37.16    2.20
  -3   7   5   36.61    2.16
   3  -7   5   36.45    2.24
   3   7  -5   37.31    2.35
  -3   7   4   29.29    2.05
   3  -7   4   29.87    2.15
   3   7  -4   29.24    2.23
  -3   7   3   68.27    3.19
   3  -7   3   66.58    3.22
   3   7  -3   72.04    3.44
  -3   7   2  152.84    4.93
   3  -7   2  153.34    5.01
   3   7  -2  146.06    4.92
  -3   7   1   33.81    2.34
   3   7  -1   35.93    2.39
   3   7  -1   34.12    2.41
  -3   7   0  132.17    4.67
   3   7   0  134.13    4.70
   3   7   0  125.87    4.49
   3   7   1   34.06    2.45
   3   7   1   33.25    2.37
  -3   7  -1   33.93    2.43
  -3   7  -2  146.72    5.01
   3   7   2  150.69    5.14
  -3   7  -3   66.98    3.35
   3   7   3   69.41    3.45
  -3   7  -4   28.24    2.15
   3   7   4   32.05    2.31
   3  -7  -4   25.02    2.12
  -3   7  -5   36.77    2.27
   3   7   5   37.97    2.38
   3  -7  -5   36.57    2.59
  -3  -7   5   35.80    1.96
   3   7   6   35.88    2.09
   3   7   6   37.72    2.21
  -3   7  -6   34.03    2.06
   3  -7  -6   38.13    2.59
  -3  -7   6   35.36    1.89
   3   7   7   38.64    1.96
   3   7   7   36.86    1.85
   3  -7  -7   40.54    2.40
  -3  -7   7   37.02    1.79
  -3   8   5   34.78    1.88
   3   8  -5   36.74    2.04
  -3   8   4   58.33    2.60
   3  -8   4   51.83    2.51
   3   8  -4   59.69    2.72
  -3   8   3  301.45    6.64
   3  -8   3  288.43    6.65
   3   8  -3  296.20    6.75
  -3   8   2   84.46    3.41
   3   8  -2   87.09    3.55
  -3   8   1   51.07    2.74
   3   8  -1   51.74    2.77
   3   8  -1   53.48    2.67
  -3   8   0  207.16    5.70
   3   8   0  201.93    5.67
   3   8   0  211.87    5.79
  -3   8  -1   49.05    2.70
   3   8   1   55.36    2.92
  -3   8  -2   81.35    3.42
   3   8   2   83.49    3.56
  -3   8  -3  293.22    6.73
   3   8   3  314.18    7.18
   3   8   4   58.36    2.79
  -3   8  -4   53.77    2.55
   3   8   5   27.66    1.71
   3   8   5   33.66    1.98
  -3   8  -5   30.47    1.81
  -3   9   3   42.15    1.98
   3   9  -3   47.19    2.17
   3   9  -2   42.67    2.16
  -3   9   2   43.49    2.12
  -3   9   1   28.57    1.76
  -3   9   0  135.33    3.96
   3   9   0  140.37    3.98
   3   9   1   32.64    1.94
  -3   9  -1   31.36    1.89
  -3   9  -2   47.79    2.20
   3   9   2   45.65    2.27
  -3   9  -3   43.75    1.98
   3   9   3   43.42    2.12
   4   0   0   10.79    1.71
   4   0   0   14.60    1.44
   4   0   0   14.27    1.29
   4   0   1  272.64    7.54
   4   0  -1  256.91    7.67
   4   0   1  267.03    5.10
   4   0  -1  254.16    5.21
   4   0   1  266.39    5.75
   4   0  -1  255.73    5.87
   4   0   1  259.04    5.28
   4   0   1  262.51    5.34
   4   0  -1  262.52    5.49
   4   0   1  264.26    5.68
   4   0  -1  257.63    4.90
   4   0  -2 1551.70   23.93
   4   0   2 1536.04   18.96
   4   0   2 1538.66   18.78
   4   0  -2 1523.22   20.04
  -4   0  -2 1478.09   20.56
   4   0   2 1513.98   18.47
   4   0  -2 1553.45   19.03
   4   0   2 1528.16   19.64
   4   0   2 1544.07   22.57
   4   0  -2 1525.55   18.43
  -4   0   3 3745.43   41.52
   4   0   3 3752.69   41.63
   4   0  -3 3849.26   48.57
   4   0   3 3813.89   41.55
   4   0  -3 3775.79   43.06
   4   0  -3 3786.90   41.51
   4   0   3 3771.08   42.74
   4   0  -3 3772.66   41.22
  -4   0   4   30.59    1.98
   4   0   4   27.19    1.89
   4   0   4   29.28    1.86
   4   0  -4   28.01    3.17
   4   0  -4   32.93    1.92
   4   0   4   29.09    2.16
  -4   0   5  377.47    7.91
   4   0   5  369.93    7.66
   4   0   5  386.90    7.82
   4   0  -5  356.46   12.12
   4   0   5  363.87    8.20
  -4   0   6  533.41   10.05
   4   0   6  507.96    9.63
   4   0   6  532.59   10.02
   4   0   6  531.36   10.47
  -4   0   7  130.00    4.69
   4   0   7  139.90    4.49
   4   0   7  135.82    4.74
   4   0  -7  133.72    4.81
   4   0   7  129.04    4.76
   4   0   8   84.95    3.37
   4   0   8   83.84    3.62
   4   0   8   82.98    3.57
  -4   0   8   90.95    3.77
   4   0   9   80.37    3.30
  -4   0   9   82.90    3.43
  -4   0  10    9.23    1.08
  -4   1  10   33.16    1.89
   4  -1   9    9.45    1.23
  -4   1   9   10.38    1.31
  -4   1   8   43.64    2.72
   4  -1   8   45.13    2.86
  -4   1   7  122.99    4.67
   4  -1   7  126.77    4.27
   4  -1   7  130.42    4.64
   4  -1   7  128.70    5.11
  -4   1   6  308.58    7.51
   4  -1   6  313.35    6.91
   4   1  -6  298.29    7.04
   4  -1   6  301.99    7.19
   4  -1   6  302.33    8.11
  -4   1   5    6.70    1.22
   4   1  -5    4.01    1.02
   4  -1   5    5.14    1.06
   4  -1   5    5.77    1.03
   4   1  -5    6.70    1.74
   4  -1   5    5.90    1.43
   4  -1   4  149.61    4.28
   4   1  -4  147.12    7.24
   4   1  -4  142.06    4.53
  -4  -1  -4  146.21    5.62
   4  -1   4  149.30    5.03
   4  -1   3   38.40    2.01
   4   1  -3   35.53    3.38
   4   1  -3   36.05    2.18
   4   1  -3   41.69    2.11
   4  -1   3   38.33    2.41
  -4  -1  -3   39.29    2.77
   4  -1   2  153.17    3.87
   4   1  -2  163.29    6.60
   4   1  -2  149.85    4.35
   4   1  -2  154.03    4.06
   4  -1   2  159.72    3.95
   4  -1   2  146.35    4.48
   4  -1   1  291.55    5.41
   4   1  -1  299.24    8.60
   4  -1   1  304.27    6.16
   4   1  -1  295.78    6.22
   4   1  -1  292.78    5.77
   4  -1   1  292.46    5.51
   4  -1   1  293.61    6.24
   4   1  -1  294.72    5.16
   4  -1   1  285.16    7.37
   4  -1   0  982.21   15.87
   4   1   0 1012.35   17.24
   4  -1   0  947.86   12.56
   4   1   0  977.20   13.74
   4  -1   0  982.48   13.90
   4   1   0  958.94   13.42
   4   1   0  982.93   13.26
   4  -1   0  968.51   13.57
   4   1   1  311.77    8.50
   4  -1  -1  290.93    7.73
   4   1   1  296.46    5.98
   4  -1  -1  282.62    6.40
   4   1   1  292.25    5.81
   4   1   1  290.48    5.56
   4  -1  -1  299.24    5.98
   4   1   1  287.33    5.91
   4  -1  -2  146.54    5.62
   4   1   2  154.10    4.01
   4   1   2  146.73    4.07
   4   1   2  153.93    3.96
   4  -1  -2  158.23    4.08
   4   1   2  149.61    4.14
   4   1   2  157.63    5.82
   4  -1  -2  150.14    3.89
   4   1   3   37.38    2.06
   4   1   3   37.67    2.06
   4  -1  -3   36.50    3.04
   4  -1  -3   37.12    1.95
   4   1   3   38.77    2.15
  -4   1  -3   40.50    2.78
   4  -1  -3   36.91    1.97
  -4  -1   4  153.46    4.28
   4   1   4  148.29    4.43
   4  -1  -4  150.98    6.67
   4  -1  -4  156.34    5.49
   4   1   4  152.16    4.29
   4  -1  -4  149.90    4.13
   4   1   4  140.70    4.34
  -4   1  -4  153.16    5.99
   4  -1  -4  148.21    4.22
   4   1   5    5.31    1.06
  -4  -1   5    4.87    1.10
   4  -1  -5    6.65    1.43
   4   1   5    4.61    1.06
   4  -1  -5    5.46    1.85
   4   1   5    6.40    1.21
  -4   1  -5    7.65    1.64
   4   1   6  300.37    6.78
   4   1   6  298.81    7.01
   4   1   6  290.38    7.02
   4  -1  -6  307.90    8.40
   4  -1  -6  283.42   10.79
   4   1   6  293.57    6.90
  -4   1  -6  273.65    9.66
  -4  -1   6  302.15    7.01
   4   1   7  122.33    4.31
   4   1   7  131.35    4.42
   4   1   7  118.43    4.36
  -4  -1   7  133.15    4.59
   4   1   8   44.38    2.40
   4   1   8   44.13    2.56
  -4  -1   8   49.21    2.76
   4   1   9   10.62    1.15
   4   1   9    9.82    1.20
  -4  -1   9   11.46    1.50
  -4  -1  10   35.11    1.90
  -4   2  10   30.65    1.75
  -4   2   9   68.08    3.10
   4  -2   9   60.97    2.96
  -4   2   8   66.80    3.32
   4  -2   8   57.92    3.33
  -4   2   7   99.16    4.25
   4  -2   7   90.24    4.44
  -4   2   6   36.16    2.60
   4  -2   6   36.48    2.34
   4   2  -6   35.09    4.31
   4  -2   6   27.16    2.62
  -4  -2  -6   30.14    2.91
   4  -2   5   27.30    1.96
  -4  -2  -5   26.29    2.63
   4   2  -5   28.20    3.77
   4  -2   5   27.77    2.60
   4  -2   4  243.09    5.79
   4   2  -4  253.63    5.84
   4   2  -4  263.65   10.09
  -4  -2  -4  243.25    8.16
   4  -2   4  247.48    7.04
   4  -2   3   33.49    1.93
  -4  -2  -3   33.45    2.84
   4   2  -3   29.55    3.16
   4   2  -3   29.79    1.87
   4   2  -3   30.84    1.90
   4  -2   3   29.69    2.22
   4  -2   2  188.56    4.48
   4   2  -2  179.34    7.15
   4   2  -2  182.21    4.77
   4   2  -2  187.61    4.94
   4   2  -2  186.53    4.48
   4  -2   2  193.21    5.31
   4  -2   1  334.88    6.04
   4   2  -1  329.53    9.47
   4  -2   1  327.48    6.63
   4   2  -1  330.47    6.74
   4   2  -1  333.13    6.22
   4  -2   1  332.39    6.93
   4  -2   0   29.64    2.08
   4   2   0   31.06    2.77
   4   2   0   35.41    1.77
   4  -2   0   31.01    2.00
   4   2   0   30.47    1.85
   4   2   0   30.92    1.71
   4  -2   0   32.06    1.92
   4   2   1  339.33    9.32
   4  -2  -1  325.49    7.71
   4   2   1  345.36    6.50
   4  -2  -1  332.21    7.18
   4   2   1  329.60    6.54
   4   2   1  328.69    6.23
   4  -2  -1  323.17    6.44
   4   2   1  323.75    6.69
   4  -2  -2  176.53    5.75
   4   2   2  192.37    4.78
   4   2   2  179.73    4.72
   4   2   2  183.22    4.56
  -4   2  -2  184.07    5.97
   4  -2  -2  188.62    4.52
   4   2   2  184.30    4.45
   4   2   2  198.00    6.75
   4   2   3   26.71    1.82
   4   2   3   30.14    1.93
   4  -2  -3   27.09    2.36
   4  -2  -3   28.18    1.73
  -4   2  -3   25.30    2.30
   4   2   3   24.71    1.63
   4  -2  -3   29.90    1.90
   4   2   4  262.93    6.25
   4   2   4  250.45    5.83
   4  -2  -4  266.36    7.75
   4  -2  -4  261.93    5.56
  -4   2  -4  262.48    8.41
  -4  -2   4  254.67    5.61
   4  -2  -4  263.28    5.89
   4   2   5   30.75    2.01
   4   2   5   25.71    2.07
   4   2   5   32.32    2.05
  -4   2  -5   25.99    2.75
   4  -2  -5   29.82    2.74
   4  -2  -5   28.80    1.99
  -4  -2   5   31.84    2.07
   4   2   6   33.68    2.24
   4   2   6   36.70    2.47
   4  -2  -6   35.96    3.12
  -4   2  -6   36.19    3.30
  -4  -2   6   35.36    2.26
   4   2   7  100.38    3.86
   4   2   7  100.92    3.84
   4  -2  -7  104.40    5.06
  -4  -2   7  100.69    3.92
   4   2   8   63.84    3.03
   4   2   8   57.75    2.76
  -4  -2   8   63.93    3.05
   4   2   9   60.14    2.40
   4  -2  -9   62.24    2.92
  -4  -2   9   67.34    2.91
  -4   3   9    0.19    0.51
   4  -3   9    1.86    0.77
  -4   3   8    4.87    1.14
   4  -3   8    4.53    1.43
  -4   3   7   13.88    1.73
   4  -3   7   11.81    1.86
   4   3  -6   14.26    1.41
   4  -3   6   14.85    2.17
   4   3  -5  174.34    5.13
  -4  -3  -5  185.26    7.70
   4  -3   5  167.33    6.24
   4   3  -4  101.80    6.20
   4   3  -4   99.61    3.74
  -4  -3  -4   99.59    5.49
   4  -3   4  105.87    4.63
  -4  -3  -3   28.72    3.05
   4   3  -3   33.89    3.42
   4   3  -3   29.48    2.03
   4  -3   3   28.59    2.31
  -4   3   2   37.41    1.99
   4   3  -2   44.71    3.74
   4   3  -2   41.63    2.34
   4  -3   2   41.61    2.56
   4   3  -1  213.86    7.74
   4  -3   1  201.63    5.02
   4   3  -1  209.66    5.20
  -4   3   1  201.34    4.90
   4   3  -1  208.21    4.81
   4   3  -1  207.17    4.67
   4  -3   1  205.38    5.36
   4  -3   0    3.54    0.85
   4   3   0    4.14    0.91
   4   3   0    3.69    0.71
   4   3   0    4.39    1.41
   4   3   0    1.75    0.54
   4   3   0    3.11    0.71
  -4   3   0    2.12    0.73
   4  -3   0    3.23    0.84
   4   3   1  206.68    7.24
   4   3   1  225.38    5.44
   4   3   1  211.47    5.18
  -4   3  -1  214.13    6.70
   4   3   1  206.75    4.53
   4  -3  -1  211.42    4.99
   4   3   2   42.27    2.37
   4   3   2   42.63    2.34
   4  -3  -2   36.30    2.60
   4   3   2   37.03    2.16
  -4   3  -2   42.50    3.11
   4  -3  -2   38.20    1.98
   4   3   2   43.11    3.26
   4   3   3   29.70    1.96
   4  -3  -3   27.42    2.53
  -4   3  -3   33.88    2.85
   4   3   3   33.37    2.22
   4  -3  -3   28.15    1.95
   4   3   4  106.28    4.04
   4   3   4  105.04    3.64
   4  -3  -4  104.15    5.05
  -4   3  -4  103.02    5.49
   4  -3  -4  103.48    3.67
   4   3   5  180.99    5.08
   4   3   5  186.41    5.45
   4   3   5  190.18    5.04
  -4   3  -5  177.89    7.69
  -4  -3   5  176.12    4.89
   4  -3  -5  182.15    5.07
   4   3   6   16.61    1.64
   4   3   6   18.41    1.79
   4  -3  -6   17.28    2.38
  -4  -3   6   19.16    1.80
   4   3   7   14.21    1.66
   4   3   7   15.96    1.57
   4  -3  -7   12.85    2.04
  -4  -3   7   14.67    1.53
   4   3   8    5.18    1.09
  -4  -3   8    5.08    0.92
   4  -3  -8    4.14    1.44
   4   3   8    3.44    0.89
  -4  -3   9    1.16    0.51
   4   3   9    0.96    0.49
  -4   4   9   25.32    1.77
   4  -4   9   20.07    1.63
  -4   4   8   15.50    1.61
   4  -4   8   14.61    1.66
  -4   4   7  148.56    5.15
   4  -4   7  158.50    5.74
   4  -4   6  158.86    5.92
   4   4  -5   22.96    1.76
   4  -4   5   19.61    2.27
   4   4  -4  325.80   11.41
   4   4  -4  320.35    7.03
  -4  -4  -4  319.33   10.82
   4  -4   4  329.11    8.47
   4   4  -3  118.26    6.54
  -4   4   3  111.91    3.66
  -4  -4  -3  118.77    6.24
   4   4  -3  109.35    3.82
   4   4  -3  106.97    3.90
   4  -4   3  113.64    4.47
   4   4  -2  328.22   10.47
  -4   4   2  340.88    7.03
   4   4  -2  345.02    7.25
   4   4  -2  338.96    7.12
   4  -4   2  350.26    7.76
   4   4  -1  202.01    7.81
  -4   4   1  214.91    5.46
   4   4  -1  210.22    5.41
   4   4  -1  209.18    5.26
   4  -4   1  202.93    5.38
   4   4   0   95.49    5.17
   4   4   0  106.01    3.80
   4  -4   0   99.42    3.65
   4   4   0  106.94    3.69
   4   4   0  104.77    3.52
   4  -4   0  107.16    3.61
   4   4   1  214.75    7.58
   4   4   1  216.25    5.78
   4   4   1  212.71    5.42
  -4   4  -1  199.01    7.18
   4   4   1  206.31    5.01
   4   4   2  333.53    7.21
   4   4   2  352.27    7.81
   4  -4  -2  335.30    8.42
   4   4   2  334.20    6.71
  -4   4  -2  335.61    9.91
   4  -4  -3  110.82    3.95
   4   4   3  109.01    3.82
   4   4   3  107.81    4.20
   4  -4  -3  104.81    4.88
  -4   4  -3   98.44    5.37
   4   4   4  316.15    6.85
   4   4   4  327.78    7.75
  -4   4  -4  305.79   10.23
   4  -4  -4  317.83    7.02
   4   4   5   21.96    1.91
   4   4   5   20.53    1.59
   4   4   5   18.27    1.89
   4  -4  -5   18.18    2.53
  -4  -4   5   19.33    1.62
   4  -4  -5   24.04    1.87
   4   4   6  154.63    4.82
   4   4   6  149.50    4.94
   4  -4  -6  158.01    6.74
  -4  -4   6  155.36    4.62
   4   4   7  152.00    4.70
   4   4   7  142.50    4.61
   4  -4  -7  154.68    6.21
  -4  -4   7  146.08    4.41
   4   4   8   11.91    1.30
   4   4   8   13.84    1.35
   4  -4  -8   14.91    1.90
  -4  -4   8   13.35    1.35
  -4   5   8    6.65    1.14
   4   5  -8    7.60    1.13
   4  -5   8    5.89    1.01
   4   5  -7   51.79    2.68
   4  -5   7   55.74    3.09
   4   5  -6  156.88    4.99
   4  -5   6  164.31    5.62
  -4   5   5   84.68    3.17
   4   5  -5   95.94    3.94
   4  -5   5   94.60    4.21
  -4   5   4   17.68    1.62
   4   5  -4   20.04    1.60
   4   5  -4   23.16    2.02
   4  -5   4   19.44    2.02
  -4  -5  -3  107.23    6.17
   4   5  -3  102.05    6.05
  -4   5   3  120.89    4.06
   4   5  -3  118.57    3.94
   4   5  -3  108.74    4.12
   4  -5   3  118.91    4.49
   4   5  -2   88.25    5.30
  -4   5   2   97.92    3.70
   4   5  -2   98.92    3.57
   4   5  -2   92.21    3.69
   4  -5   2   98.40    3.82
  -4  -5  -2   86.75    5.52
   4   5  -1  146.77    6.62
  -4   5   1  146.27    4.64
   4   5  -1  147.97    4.51
   4   5  -1  142.14    4.52
   4   5   0  377.21   10.64
  -4   5   0  395.89    8.30
   4   5   0  387.33    7.81
   4   5   1  134.92    4.87
   4  -5  -1  140.82    4.73
  -4   5  -1  146.58    6.60
   4   5   1  141.28    4.39
   4   5   1  136.76    6.02
   4   5   2   93.42    3.61
   4   5   2   88.06    3.96
   4   5   2   92.62    3.50
  -4   5  -2   89.39    5.31
   4   5   3  121.26    4.03
   4   5   3  118.18    4.66
   4  -5  -3  111.94    5.01
  -4   5  -3  119.24    6.29
   4   5   4   16.54    1.51
   4   5   4   20.88    2.01
   4  -5  -4   19.70    2.36
   4  -5  -4   20.41    1.75
   4   5   5   95.29    3.65
   4   5   5   97.37    4.13
   4  -5  -5   94.35    5.05
   4  -5  -5   90.26    3.45
   4   5   6  144.73    4.59
   4  -5  -6  155.08    6.29
   4   5   6  157.09    4.95
  -4  -5   6  151.42    4.29
   4   5   7   51.66    2.49
   4   5   7   48.07    2.53
   4  -5  -7   50.55    3.38
  -4  -5   7   46.30    2.20
  -4  -5   8    7.64    0.79
   4   5   8    6.89    0.90
  -4   6   7   16.52    1.61
   4   6  -7   19.11    1.54
   4  -6   7   20.49    1.59
   4   6  -6   -0.43    0.83
   4  -6   6    0.50    0.59
  -4   6   5   37.06    2.06
   4   6  -5   34.34    2.30
   4  -6   5   34.64    2.26
  -4   6   4   54.65    2.69
   4   6  -4   55.33    2.95
   4  -6   4   56.80    2.96
  -4   6   3  445.12    8.72
   4   6  -3  435.77    9.02
  -4   6   2   54.84    2.88
   4   6  -2   54.10    2.91
  -4   6   1    5.14    1.07
   4   6  -1    5.38    1.14
  -4   6   0  439.65    9.07
   4   6   0  435.58    8.70
   4   6   1    5.08    1.00
   4   6   1    4.42    1.18
   4   6   1    3.25    1.03
  -4   6  -1    3.70    1.16
  -4   6  -2   60.53    3.28
   4   6   2   53.26    2.67
   4   6   2   56.23    3.25
   4   6   3  462.01    9.79
   4  -6  -3  429.61    8.67
   4   6   4   60.06    3.22
   4  -6  -4   51.25    3.36
   4  -6  -4   58.27    2.73
   4   6   5   32.33    2.34
   4  -6  -5   34.77    2.87
   4  -6  -5   35.79    2.00
   4  -6  -6    1.80    0.92
   4   6   6    1.50    0.64
   4   6   7   20.49    1.46
   4   7  -6   14.46    1.27
  -4   7   5   43.42    2.05
   4   7  -5   44.38    2.36
  -4   7   4    0.33    0.48
   4   7  -4    1.52    0.85
  -4   7   3    4.71    0.88
   4   7  -3    4.02    1.05
  -4   7   2   67.25    3.12
   4   7  -2   67.12    3.16
  -4   7   1   23.30    1.91
   4   7  -1   21.28    1.87
  -4   7   0   27.02    2.04
   4   7   0   25.40    2.16
   4   7   0   26.30    2.03
  -4   7  -1   21.96    1.90
   4   7   1   23.93    1.82
   4   7   1   21.47    1.96
   4   7   1   23.85    1.85
   4   7   2   75.21    3.60
  -4   7  -2   69.56    3.34
   4  -7  -3    4.69    0.97
  -4   7  -3    6.12    1.08
   4   7   3    4.15    1.22
   4  -7  -4    1.07    0.54
  -4   7  -4    1.92    0.90
   4   7   4   -0.48    0.83
  -4   7  -5   43.30    2.43
   4   7   5   48.76    2.52
  -4   7  -6   14.54    1.32
   4   7   6   14.04    1.27
  -4   8   4   83.27    2.75
   4   8  -4   84.90    2.95
  -4   8   3   61.82    2.53
   4   8  -3   61.55    2.63
  -4   8   2   85.35    3.16
   4   8  -2   88.15    3.30
  -4   8   1   26.24    1.85
   4   8  -1   24.17    1.68
   4   8  -1   24.49    1.82
  -4   8   0   67.95    2.97
   4   8   0   71.74    2.98
  -4   8  -1   24.24    1.82
   4   8   1   27.97    1.97
  -4   8  -2   87.10    3.34
   4   8   2   91.96    3.52
   4  -8  -2   84.73    2.96
  -4   8  -3   58.75    2.64
   4   8   3   61.04    2.77
   4  -8  -3   56.55    2.18
  -4   8  -4   81.05    2.91
   4   8   4   84.05    3.10
  -4   9   0   11.34    1.09
   5   0   0    0.44    0.54
   5   0   0   -0.57    0.83
   5   0   0   -0.98    0.85
   5   0   0   -1.59    1.26
   5   0   0    0.50    0.78
   5   0  -1  306.42    9.50
   5   0   1  305.98    6.06
   5   0   1  303.60    6.40
   5   0  -1  288.11    6.10
   5   0  -1  296.93    7.19
   5   0   1  295.04    6.31
   5   0  -1  295.28    6.77
   5   0  -1  299.85    6.53
   5   0   1  308.89    6.95
   5   0  -1  295.03    5.82
   5   0   1  305.77    9.01
   5   0  -2    2.23    0.78
   5   0   2    2.67    0.83
   5   0  -2    2.43    0.67
   5   0  -2    4.66    1.05
   5   0   2    4.74    0.97
   5   0   2    3.00    0.72
   5   0  -2    2.75    1.05
   5   0  -2    3.54    0.72
   5   0   2    2.97    1.04
   5   0   3   43.64    2.40
   5   0  -3   47.27    4.12
   5   0   3   49.22    2.53
   5   0  -3   46.27    2.92
   5   0  -3   49.21    2.51
   5   0   3   45.90    2.78
   5   0   4  482.62    9.16
   5   0  -4  488.43   10.28
   5   0   4  481.45    9.96
  -5   0   5  560.89   10.16
   5   0   5  589.87   10.58
   5   0  -5  583.32   11.51
   5   0   5  563.27   11.22
  -5   0   6   64.40    3.07
   5   0   6   68.89    3.26
   5   0  -6   71.43    3.68
   5   0   6   69.59    3.59
   5   0   7  221.01    5.78
   5   0  -7  233.02    6.24
   5   0   7  218.21    6.03
  -5   0   7  222.52    5.79
   5   0   8    9.86    1.07
  -5   0   8    9.85    1.21
  -5   0   9    1.30    0.39
  -5   1   9   28.46    1.67
   5   1  -8   13.97    1.48
   5  -1   8   18.05    1.66
  -5   1   8   16.83    1.57
  -5   1   7   14.07    1.49
   5  -1   7   12.48    1.46
   5  -1   7   11.66    1.66
  -5   1   6   14.25    1.54
   5  -1   6   15.48    1.63
   5   1  -6   14.28    1.65
   5  -1   6   13.76    1.99
  -5   1   5  259.61    6.52
   5  -1   5  262.56    6.46
   5   1  -5  258.79    6.77
   5  -1   5  262.27    7.65
  -5   1   4    2.44    0.88
   5   1  -4    2.09    1.06
   5  -1   4    1.61    0.96
   5   1  -4    4.40    1.73
   5  -1   4    1.82    1.26
   5  -1   3   59.90    2.75
   5   1  -3   59.92    4.90
   5   1  -3   58.03    3.08
   5   1  -3   61.26    2.82
   5  -1   3   62.67    3.40
   5  -1   2  114.44    3.63
   5   1  -2  121.29    6.47
   5  -1   2  118.65    3.76
   5   1  -2  120.80    4.40
   5   1  -2  113.47    4.18
   5   1  -2  117.49    3.85
   5  -1   2  120.82    4.49
   5   1  -1  124.44    6.14
   5  -1   1  130.83    3.71
   5  -1   1  129.26    3.76
   5   1  -1  126.41    4.14
   5   1  -1  132.32    4.52
   5   1  -1  136.90    4.44
   5   1  -1  130.73    4.04
   5  -1   1  134.44    4.55
   5  -1   0   11.75    1.14
   5   1   0   13.25    1.42
   5  -1   0   11.61    1.39
   5   1   0   11.72    1.42
   5  -1   0   12.48    1.40
   5  -1   0   13.78    1.98
   5   1   0   12.33    1.88
   5   1   0   11.83    1.33
   5  -1   0   13.44    1.42
   5  -1   0   10.59    1.16
   5   1   1  132.09    5.98
   5  -1  -1  129.32    5.64
   5   1   1  131.03    3.82
   5   1   1  125.70    4.10
   5  -1  -1  130.51    4.66
   5   1   1  129.14    4.08
   5  -1  -1  131.81    4.20
   5   1   1  131.18    4.16
   5  -1  -1  124.53    3.75
   5  -1  -2  108.18    5.41
   5   1   2  114.27    3.81
   5   1   2  113.79    4.02
   5  -1  -2  118.19    4.62
   5   1   2  117.21    3.72
   5  -1  -2  115.51    3.82
   5   1   2  111.67    3.95
   5  -1  -2  116.23    3.70
   5  -1  -3   58.40    4.18
   5   1   3   61.98    2.92
   5   1   3   62.23    2.87
   5  -1  -3   63.05    3.58
   5  -1  -3   63.96    2.84
   5   1   3   57.06    2.92
   5  -1  -3   60.43    2.73
   5   1   4    2.52    0.94
   5  -1  -4    3.82    1.37
   5   1   4    4.09    1.05
   5  -1  -4    2.09    0.85
   5   1   4    2.56    1.02
   5   1   5  270.48    6.74
   5  -1  -5  274.30    7.94
   5   1   5  252.55    6.55
   5   1   6   13.07    1.56
   5  -1  -6   12.90    1.95
   5   1   6   12.28    1.50
  -5  -1   6   12.17    1.34
   5   1   7   14.24    1.54
   5  -1  -7   15.68    1.80
  -5  -1   7   13.33    1.37
   5   1   8   16.07    1.42
   5  -1  -8   14.63    1.54
  -5  -1   8   15.57    1.49
  -5  -1   9   28.24    1.60
  -5   2   8  135.09    4.22
   5   2  -8  121.98    3.74
   5  -2   8  128.49    4.45
  -5   2   7   28.58    2.15
   5   2  -7   30.59    2.10
   5  -2   7   26.86    2.52
  -5   2   6   56.32    3.09
   5   2  -6   50.52    2.90
   5  -2   6   49.76    3.48
  -5   2   5   48.95    2.91
   5   2  -5   47.82    2.85
   5  -2   5   41.16    3.35
   5  -2   4   76.73    3.27
   5   2  -4   71.98    6.02
   5   2  -4   72.20    3.23
   5   2  -4   76.73    3.56
   5  -2   4   73.84    4.09
   5  -2   3   10.36    1.37
   5   2  -3    7.30    1.38
   5   2  -3    8.43    1.97
   5  -2   3    8.13    1.67
  -5  -2  -3    6.66    1.49
   5   2  -2  313.52   10.76
   5   2  -2  300.89    7.15
   5   2  -2  306.26    6.51
   5  -2   2  317.34    7.77
   5  -2   1  139.51    4.53
   5   2  -1  139.67    4.55
   5   2  -1  140.70    4.16
   5  -2   1  148.13    4.85
   5   2   0  592.60   14.31
   5   2   0  580.40   10.62
   5  -2   0  592.45   10.84
   5   2   0  597.86   10.36
   5   2   0  576.28    9.72
   5  -2   0  601.33   10.47
   5   2   1  147.53    6.58
   5   2   1  149.33    4.37
   5   2   1  151.52    4.67
   5  -2  -1  147.89    5.11
   5   2   1  148.36    4.49
   5   2   1  139.74    4.15
   5  -2  -1  142.18    4.39
   5  -2  -1  142.02    4.36
   5   2   2  315.57    6.94
   5   2   2  305.73    6.94
   5  -2  -2  310.89    8.01
   5   2   2  300.30    6.61
   5  -2  -2  290.65    6.51
   5   2   2  282.82    6.33
   5  -2  -2  300.79    6.57
   5   2   3    8.40    1.36
   5   2   3    9.50    1.31
   5  -2  -3    8.98    1.67
   5  -2  -3    7.69    1.17
   5   2   3    6.63    1.03
   5  -2  -3    8.63    1.22
   5   2   4   77.22    3.51
   5   2   4   74.79    3.26
   5  -2  -4   70.72    4.04
   5  -2  -4   73.41    2.94
   5   2   4   66.46    2.87
   5  -2  -4   68.25    3.12
   5   2   5   52.87    2.91
   5  -2  -5   58.87    3.89
   5   2   6   62.77    3.14
   5  -2  -6   62.84    3.88
  -5  -2   6   55.95    2.67
   5   2   7   30.32    2.12
   5  -2  -7   32.14    2.72
  -5  -2   7   28.86    1.94
   5   2   8  131.07    3.88
   5  -2  -8  132.41    4.61
  -5  -2   8  123.30    3.71
  -5   3   8    5.47    1.00
   5  -3   8    5.39    1.10
  -5   3   7   16.61    1.69
   5   3  -7   14.76    1.44
   5  -3   7   15.46    1.81
  -5   3   6    7.29    1.44
   5   3  -6    5.70    1.05
   5  -3   6    5.78    1.71
   5   3  -5   54.90    2.90
   5  -3   5   44.90    3.32
   5   3  -4   36.13    2.38
   5  -3   4   36.73    2.99
   5   3  -3  226.37    9.74
   5   3  -3  229.53    6.19
   5   3  -3  223.88    5.70
   5  -3   3  236.76    7.03
   5   3  -2   48.99    4.43
   5   3  -2   52.36    2.81
   5   3  -2   45.13    2.42
   5  -3   2   53.16    3.13
  -5  -3  -2   45.74    3.95
   5   3  -1   27.99    3.34
   5  -3   1   27.16    2.02
   5   3  -1   27.41    2.09
   5   3  -1   29.14    1.88
   5  -3   1   28.60    2.18
   5   3   0   25.73    2.84
   5   3   0   26.93    2.17
   5  -3   0   25.92    2.16
   5   3   0   22.44    1.86
   5   3   0   25.90    1.76
   5  -3   0   22.04    1.90
   5   3   1   24.05    2.74
   5   3   1   29.32    2.06
   5   3   1   27.97    2.16
   5  -3  -1   25.69    2.34
   5   3   1   29.10    2.06
   5   3   1   25.93    1.71
   5  -3  -1   27.20    1.93
   5   3   2   52.06    2.82
   5   3   2   53.30    2.76
   5  -3  -2   46.81    3.23
   5  -3  -2   45.46    2.33
   5  -3  -2   50.06    2.75
   5   3   3  235.62    6.37
   5   3   3  226.45    5.91
   5  -3  -3  220.19    7.23
   5  -3  -3  217.23    5.17
   5  -3  -3  230.84    5.94
   5   3   4   35.49    2.51
   5   3   4   37.46    2.29
   5  -3  -4   37.95    2.37
   5   3   5   60.08    3.19
   5  -3  -5   49.12    2.67
   5   3   6    8.17    1.35
   5   3   7   15.26    1.55
   5  -3  -7   18.59    2.06
   5  -3  -8    5.25    1.11
   5   3   8    5.69    0.89
  -5   4   8   78.30    2.91
   5   4  -8   76.35    2.75
   5  -4   8   76.19    3.04
  -5   4   7   24.88    1.89
   5   4  -7   24.85    1.84
   5  -4   7   23.71    2.17
  -5   4   6  143.00    4.88
   5   4  -6  140.48    4.54
   5  -4   6  153.56    5.63
   5   4  -5  117.99    4.03
   5   4  -5  121.57    4.30
   5  -4   5  129.38    5.25
   5   4  -4    3.72    1.03
   5   4  -4    4.76    1.15
   5  -4   4    6.52    1.38
   5   4  -3   21.06    1.85
   5   4  -3   19.60    1.80
   5  -4   3   21.56    2.16
   5   4  -2  108.12    4.03
   5   4  -2  106.20    3.85
   5  -4   2  108.95    4.41
   5   4  -1   28.72    3.10
  -5   4   1   31.99    2.10
   5   4  -1   29.93    2.15
   5   4  -1   30.15    2.00
   5  -4   1   29.98    2.28
   5   4   0  209.53    8.36
  -5   4   0  213.45    5.74
   5   4   0  218.65    6.31
   5  -4   0  207.83    5.80
   5   4   0  221.96    5.88
   5  -4   0  208.40    5.56
   5   4   1   29.62    2.28
   5   4   1   30.63    2.31
   5  -4  -1   25.06    2.26
   5  -4  -1   29.18    1.89
   5   4   1   29.46    3.16
   5  -4  -2  116.18    4.31
   5   4   2  113.09    4.42
   5   4   2  112.06    4.17
   5  -4  -2  105.11    4.71
   5   4   3   21.21    2.08
   5   4   3   21.93    1.85
   5  -4  -3   22.88    2.43
   5  -4  -3   21.97    1.86
   5  -4  -4    4.37    1.06
   5   4   4    4.28    0.96
   5   4   4    4.75    1.25
   5   4   5  129.66    4.67
   5  -4  -5  125.82    4.17
   5   4   6  144.20    4.72
   5   4   7   22.36    1.67
   5  -4  -7   24.50    2.33
   5   4   8   72.01    2.53
   5  -4  -8   80.76    3.26
  -5   5   7   13.26    1.36
   5   5  -7   15.02    1.36
   5  -5   7   14.54    1.42
  -5   5   6   16.94    1.63
   5   5  -6   18.21    1.58
   5  -5   6   18.92    1.77
   5   5  -5    2.15    0.87
   5  -5   5    2.63    1.14
   5   5  -4  290.24    6.39
   5   5  -4  291.63    6.86
   5  -5   4  293.12    7.53
   5   5  -3   47.82    2.54
   5   5  -3   43.25    2.49
   5  -5   3   40.51    2.61
  -5   5   2  109.55    3.83
   5   5  -2  113.81    4.05
   5   5  -2  105.32    3.89
   5  -5   2  109.83    4.09
  -5   5   1   33.30    2.23
   5   5  -1   31.19    2.25
   5   5  -1   32.29    2.15
   5  -5   1   33.30    2.14
  -5   5   0   25.64    2.00
   5   5   0   26.69    2.31
   5   5   0   22.51    1.74
  -5   5  -1   31.22    2.32
   5   5   1   28.91    2.22
   5   5   1   37.21    2.52
   5  -5  -1   31.29    2.30
   5  -5  -2  118.61    4.34
   5   5   2  100.56    4.34
   5   5   2  112.48    4.13
   5  -5  -2  104.23    4.38
   5   5   3   44.75    2.86
   5   5   3   42.55    2.43
   5  -5  -3   40.79    2.89
   5  -5  -3   44.34    2.59
   5   5   4  311.46    7.60
   5   5   4  287.73    6.31
   5  -5  -4  285.90    8.08
   5  -5  -4  304.48    6.77
   5  -5  -5    1.51    0.72
   5  -5  -5    2.20    1.23
   5   5   5    2.04    0.89
   5   5   6   18.00    1.59
   5  -5  -6   18.09    2.09
   5   5   7   14.70    1.33
   5  -5  -7   16.62    1.69
  -5   6   6   10.31    1.16
   5   6  -6    7.95    1.04
   5   6  -5   79.25    3.05
   5  -6   5   74.03    2.93
   5   6  -4   16.41    1.55
   5  -6   4   19.51    1.55
  -5   6   3   21.97    1.69
   5   6  -3   18.80    1.70
  -5   6   2  101.02    3.60
   5   6  -2  101.84    3.71
  -5   6   1  612.02   10.56
   5   6  -1  591.88   10.34
  -5   6   0   36.36    2.34
   5   6   0   33.74    2.44
   5   6   0   29.35    2.07
  -5   6  -1  615.48   10.86
   5   6   1  609.17   10.58
  -5   6  -2  106.85    4.11
   5   6   2  105.36    4.33
   5   6   2  103.50    3.70
   5  -6  -2  110.29    4.07
  -5   6  -3   22.10    1.95
   5   6   3   23.68    2.06
   5   6   3   21.23    1.59
   5  -6  -3   21.34    1.93
   5  -6  -3   23.69    1.81
  -5   6  -4   16.73    1.65
   5   6   4   17.68    1.75
   5  -6  -4   16.46    1.79
   5  -6  -4   18.87    1.47
   5   6   5   75.15    3.16
   5  -6  -5   78.48    3.50
   5   6   6    8.01    1.04
  -5   6  -6    8.24    1.02
   5  -6  -6   10.10    1.31
   5   7  -4   69.13    2.64
  -5   7   3   24.89    1.60
   5   7  -3   25.34    1.72
  -5   7   2   12.77    1.21
   5   7  -2   14.62    1.45
  -5   7   1   26.61    1.82
   5   7  -1   25.80    1.89
   5   7  -1   23.55    1.76
  -5   7   0    4.98    0.94
   5   7   0    4.20    1.06
   5   7   0    3.17    0.82
  -5   7  -1   23.49    1.85
   5   7   1   24.24    1.70
  -5   7  -2   14.99    1.45
   5   7   2   15.34    1.51
   5  -7  -2   14.71    1.37
  -5   7  -3   28.28    1.88
   5   7   3   31.84    2.06
   5  -7  -3   26.62    1.65
  -5   7  -4   69.12    2.78
   5   7   4   72.45    2.91
   5  -7  -4   70.80    2.40
  -5   8   1   60.92    2.29
   5  -8   0   18.47    1.34
  -5   8   0   15.84    1.30
  -5   8  -1   64.84    2.46
   5  -8  -1   66.18    2.40
   6   0   0    0.66    0.65
   6   0   0    2.14    0.90
   6   0   0    0.76    0.98
   6   0  -1   35.02    3.75
   6   0   1   38.64    2.19
   6   0   1   35.37    2.22
   6   0  -1   36.40    2.14
   6   0   1   33.92    2.20
   6   0  -1   38.45    2.58
   6   0  -1   38.40    2.44
   6   0   1   39.37    2.57
   6   0   2   10.15    1.36
   6   0   2   11.52    1.41
   6   0  -2   13.27    1.83
   6   0  -2   12.19    1.48
   6   0   2   11.33    1.71
   6   0   3  822.07   12.96
   6   0  -3  824.02   14.66
   6   0  -3  824.63   14.37
   6   0  -3  802.15   12.86
   6   0   3  833.96   14.12
   6   0   4   75.24    3.27
   6   0  -4   68.23    3.64
   6   0   4   67.58    3.52
   6   0   5  911.45   13.95
   6   0  -5  889.39   14.99
   6   0   5  876.73   14.62
   6   0   6   28.23    2.03
   6   0  -6   24.69    2.12
   6   0   6   23.29    2.00
   6   0  -7    1.60    0.74
   6   0  -7    2.95    0.96
   6   1  -7   54.77    2.69
   6  -1   7   46.75    2.52
   6   1  -6    2.57    0.90
   6  -1   6    2.63    0.98
   6  -1   5   52.60    2.78
   6   1  -5   49.72    2.87
   6   1  -5   54.26    3.14
   6  -1   5   50.47    3.19
   6  -1   4   29.47    2.21
   6   1  -4   29.76    2.42
   6   1  -4   27.11    2.41
   6  -1   4   30.59    2.64
   6  -1   3   14.76    1.63
   6   1  -3   14.45    1.48
   6   1  -3   16.24    2.01
   6   1  -3   18.12    1.80
   6  -1   3   18.16    2.17
   6  -1   2   83.65    3.28
   6   1  -2   82.77    3.42
   6   1  -2   91.60    3.98
   6   1  -2   83.91    3.45
   6  -1   2   89.99    4.09
   6   1  -1    6.59    1.13
   6   1  -1    6.10    1.33
   6   1  -1    5.92    1.23
   6  -1   1    7.40    1.54
   6   1   0  370.52   11.54
   6  -1   0  384.79    7.36
   6   1   0  391.24    8.24
   6   1   0  399.49    8.33
   6  -1   0  386.08    7.91
   6   1   0  399.73    8.15
   6  -1   0  416.07    8.66
   6  -1  -1    6.97    1.15
   6   1   1    6.47    1.25
   6  -1  -1    5.09    1.44
   6   1   1    8.72    1.32
   6  -1  -1    7.30    1.34
   6  -1  -1    5.63    1.17
   6   1   1    6.78    1.31
   6   1   2   93.82    3.58
   6   1   2   86.15    3.55
   6  -1  -2   93.88    4.49
   6   1   2   81.84    3.29
   6  -1  -2   85.52    3.88
   6  -1  -2   81.12    3.40
   6   1   2   86.16    3.67
   6  -1  -2   83.87    3.28
   6   1   3   16.23    1.74
   6   1   3   19.88    1.83
   6  -1  -3   20.45    2.33
   6  -1  -3   17.16    1.70
   6   1   3   14.48    1.64
   6   1   4   29.65    2.27
   6  -1  -4   33.85    2.90
   6   1   4   26.72    2.10
   6   1   5   48.55    2.78
   6  -1  -5   50.91    3.36
   6   1   5   44.21    2.51
   6  -1  -6    0.04    0.92
   6   1   6    2.62    0.89
   6   1   7   53.43    2.49
   6  -1  -7   50.34    2.66
   6   2  -7    4.51    0.85
   6  -2   7    3.79    0.87
   6   2  -6   10.88    1.45
   6  -2   6   10.76    1.63
   6   2  -5   76.63    3.50
   6  -2   5   71.20    3.89
   6   2  -4   48.01    2.73
   6   2  -4   54.48    3.10
   6  -2   4   51.37    3.40
   6   2  -3    4.68    1.23
   6   2  -3    6.64    1.49
   6  -2   3    4.04    1.33
   6   2  -2  173.32    5.51
   6   2  -2  194.13    5.78
   6   2  -2  186.26    5.14
   6  -2   2  186.57    6.10
   6   2  -1   23.30    2.07
   6   2  -1   21.28    1.95
   6   2  -1   21.15    1.78
   6  -2   1   22.13    2.08
   6  -2   1   19.66    1.74
   6   2   0    8.11    1.30
   6  -2   0    7.50    1.52
   6   2   0    8.57    1.37
   6   2   0   10.20    1.36
   6  -2   0   10.48    1.45
   6  -2   0   10.35    1.26
   6   2   1   19.87    1.96
   6  -2  -1   23.53    2.25
   6   2   1   21.23    1.81
   6  -2  -1   19.45    1.88
   6   2   1   19.37    1.69
   6  -2  -1   20.08    1.84
   6  -2  -1   20.91    1.75
   6   2   2  192.39    5.44
   6   2   2  185.07    5.46
   6  -2  -2  184.61    6.38
   6  -2  -2  177.34    5.12
   6   2   2  167.60    4.84
   6  -2  -2  186.50    5.19
   6  -2  -3    4.95    1.08
   6   2   3    4.47    1.08
   6  -2  -3    3.21    1.41
   6   2   3    4.44    1.01
   6  -2  -3    4.58    0.97
   6   2   3    4.88    0.91
   6   2   4   54.06    2.98
   6  -2  -4   49.11    3.51
   6   2   5   78.94    3.48
   6  -2  -5   80.66    4.35
   6   2   6   10.96    1.37
   6  -2  -6   13.31    1.91
   6  -2  -7    3.79    1.20
   6   2   7    4.41    0.88
   6  -3   7   10.38    1.33
  -6   3   6   19.05    1.53
   6   3  -6   19.14    1.52
   6  -3   6   17.68    1.96
   6   3  -5   53.67    2.71
   6  -3   5   47.25    3.12
   6   3  -4   10.57    1.53
   6   3  -4   12.11    1.56
   6  -3   4   11.62    1.66
   6   3  -3   12.18    1.76
   6   3  -3   10.87    1.48
   6  -3   3   11.06    1.74
   6   3  -2   11.44    1.64
   6   3  -2   10.25    1.56
   6  -3   2    9.99    1.61
   6   3  -1   66.53    3.49
   6   3  -1   67.82    3.30
   6  -3   1   68.42    3.43
   6  -3   1   63.90    3.14
   6  -3   0    4.92    1.19
   6   3   0    4.14    1.34
   6  -3   0    6.56    1.33
   6   3   0    5.10    1.21
   6   3   0    5.21    1.04
   6  -3   0    6.19    1.19
   6   3   1   63.39    3.28
   6  -3  -1   62.80    3.43
   6   3   1   67.71    3.21
   6   3   1   60.52    2.63
   6  -3  -1   63.79    2.96
   6  -3  -1   69.96    3.22
   6   3   2   12.40    1.57
   6   3   2   12.82    1.59
   6  -3  -2   12.82    1.95
   6  -3  -2   12.36    1.33
   6  -3  -2   12.54    1.47
   6   3   3   10.65    1.44
   6   3   3   11.14    1.38
   6  -3  -3   10.40    1.97
   6  -3  -3   11.20    1.21
   6  -3  -3    9.86    1.36
   6   3   4   13.39    1.56
   6   3   4   11.77    1.42
   6  -3  -4   11.05    1.98
   6  -3  -4   11.21    1.40
   6   3   5   53.73    2.83
   6  -3  -5   44.75    3.26
   6   3   6   17.97    1.62
   6  -3  -6   20.55    2.24
   6   3   7   10.86    1.12
   6  -3  -7   11.76    1.44
   6  -4   6   77.47    3.27
   6   4  -5   13.18    1.33
   6  -4   5   13.69    1.70
   6   4  -4  261.71    6.16
   6  -4   4  271.47    7.24
   6   4  -3   10.74    1.64
   6   4  -3   10.28    1.38
   6  -4   3   10.58    1.58
   6   4  -2   97.69    4.39
   6   4  -2  103.45    3.91
   6  -4   2   98.65    4.04
   6   4  -1   13.54    1.79
   6   4  -1   15.70    1.68
   6  -4   1   14.49    1.60
   6   4   0   20.14    2.02
   6  -4   0   19.60    1.68
   6  -4   0   19.79    1.95
  -6   4  -1   13.47    1.48
   6   4   1   15.08    1.82
   6  -4  -1   17.16    1.90
   6  -4  -1   14.59    1.43
   6  -4  -1   14.28    1.67
   6   4   2   96.59    3.93
   6   4   2  103.24    3.98
   6  -4  -2   94.71    4.21
   6  -4  -2  101.55    3.88
   6   4   3   10.92    1.42
   6   4   3    9.80    1.43
   6  -4  -3    7.70    1.62
   6  -4  -3    9.85    1.41
   6   4   4  264.49    6.67
   6   4   4  261.23    6.03
   6  -4  -4  275.90    6.22
   6   4   5   16.18    1.57
   6  -4  -5   12.31    1.90
   6   4   6   73.93    2.95
   6  -4  -6   70.21    3.42
   6   5  -5    8.11    1.23
   6  -5   5   10.43    1.17
   6   5  -4   10.42    1.56
   6  -5   4    8.29    1.17
   6   5  -3    2.18    1.11
   6  -5   3    1.12    0.78
   6   5  -2   86.30    3.88
   6  -5   2   73.87    3.07
   6   5  -1  112.01    4.39
   6  -5   1   96.51    3.31
  -6   5   0   14.29    1.43
   6   5   0   16.16    1.70
   6  -5   0   12.82    1.54
   6   5   1  111.99    4.07
   6  -5  -1  103.77    3.94
  -6   5  -2   77.61    3.26
   6   5   2   82.45    3.34
   6  -5  -2   76.85    3.39
   6  -5  -2   84.83    3.41
   6  -5  -3   -0.69    0.75
  -6   5  -3   -0.67    0.53
   6   5   3   -0.39    0.50
   6  -5  -3    0.29    0.82
   6   5   3    0.04    0.66
   6   5   4    9.42    1.19
  -6   5  -4   11.23    1.32
   6  -5  -4    9.59    1.52
   6  -5  -4    9.93    1.19
   6  -5  -5    7.57    1.30
   6   5   5    6.83    1.05
   6   6  -4   14.75    1.45
   6   6  -3  141.68    4.44
   6   6  -2   -0.96    0.78
   6   6  -1  130.87    4.26
  -6   6   0   65.06    2.62
   6   6   0   70.11    3.04
   6   6   1  131.22    3.98
   6  -6  -1  140.14    4.22
  -6   6  -2   -0.61    0.36
   6   6   2    0.04    0.33
  -6   6  -3  123.55    3.72
   6   6   3  118.12    3.26
  -6   6  -4   13.80    1.24
   6  -7   0   32.96    1.81
   6  -7  -1   23.84    1.46
   7   0   0    0.80    0.59
   7   0   0    1.06    0.78
   7   0   0   -0.56    1.04
   7   0  -1  120.33    4.24
   7   0  -1  118.05    4.10
   7   0   1  116.39    4.26
   7   0  -2    2.90    1.10
   7   0  -2    4.49    1.07
   7   0   2    3.19    1.10
   7   0  -3   74.79    3.56
   7   0   3   72.12    3.33
   7   0  -4    2.46    1.03
   7   0   4    3.70    1.04
   7   0  -5  148.93    4.79
   7   0   5  124.99    3.89
   7   0  -6   55.84    2.66
   7   1  -6    6.32    1.09
   7   1  -5   41.89    2.41
   7  -1   5   39.74    2.33
   7   1  -4    7.39    1.39
   7  -1   4    8.35    1.41
   7   1  -3   68.36    3.36
   7  -1   3   65.67    3.37
   7   1  -2   62.55    3.15
   7   1  -2   59.60    2.84
   7  -1   2   63.23    3.32
   7   1  -1    5.51    1.15
   7   1  -1    4.03    1.10
   7   1  -1    4.40    1.04
   7  -1   1    5.85    1.22
   7   1   0    1.72    0.74
   7   1   0    2.75    0.83
   7   1   0    1.33    0.97
   7  -1   0    2.92    1.03
   7   1   1    3.76    1.12
   7   1   1    4.05    1.05
   7  -1  -1    4.15    1.07
   7  -1  -1    5.18    1.23
   7   1   1    3.90    1.10
   7   1   2   58.24    2.85
   7  -1  -2   54.83    2.94
   7  -1  -2   59.50    2.80
   7   1   2   54.97    2.77
   7   1   3   63.92    2.85
   7  -1  -3   60.41    3.22
   7   1   3   66.30    2.90
   7   1   4    8.90    1.29
   7  -1  -4    5.82    1.26
   7   1   4    7.03    1.06
   7   1   5   45.75    2.29
   7  -1  -5   43.17    2.66
   7  -1  -6    4.29    0.94
   7   2  -5    1.09    0.76
   7  -2   5    0.59    0.71
   7   2  -4   13.33    1.51
   7  -2   4   10.70    1.60
   7   2  -3   16.69    1.81
   7  -2   3   14.38    1.71
   7   2  -2   23.94    1.91
   7   2  -2   24.73    2.03
   7  -2   2   22.75    2.09
   7   2  -1    8.08    1.32
   7   2  -1    7.83    1.34
   7   2  -1    9.21    1.24
   7  -2   1    8.31    1.38
   7   2   0  348.22    7.65
   7   2   0  343.06    7.42
   7   2   0  337.82    6.99
   7  -2   0  363.98    7.80
   7   2   1    7.84    1.24
   7   2   1    7.03    1.07
   7  -2  -1    7.83    1.19
   7   2   2   23.10    1.83
   7  -2  -2   21.35    1.69
   7   2   2   19.34    1.57
   7   2   3   16.18    1.42
   7  -2  -3   15.21    1.85
   7  -2  -3   11.45    1.53
   7   2   4   11.65    1.30
   7  -2  -4   13.42    1.74
   7  -2  -4   10.92    1.47
   7  -2  -5    2.65    1.06
   7   2   5    1.46    0.78
   7  -2  -5    0.13    0.83
   7   3  -5    8.56    0.99
   7  -3   5    5.98    1.01
   7   3  -4   19.16    1.53
   7  -3   4   15.34    1.56
   7   3  -3   72.31    3.06
   7  -3   3   68.16    3.27
   7   3  -2   23.94    1.95
   7   3  -2   26.72    2.01
   7  -3   2   27.69    2.12
   7   3  -1    0.20    0.93
   7   3  -1    0.75    0.74
   7  -3   1    1.02    0.76
   7   3   0    0.74    0.87
   7  -3   0    2.38    0.80
   7  -3  -1   -0.20    0.59
   7   3   1    0.92    0.93
   7  -3  -1    0.00    0.63
   7   3   2   26.84    1.97
   7  -3  -2   24.49    1.64
   7  -3  -2   27.67    1.88
   7  -3  -3   61.74    3.32
   7   3   4   16.18    1.46
   7  -3  -4   16.08    1.82
   7  -3  -5    6.59    1.17
   7  -4   4    1.51    0.66
   7   4  -3    3.28    0.78
   7  -4   3    2.77    0.86
   7   4  -2   35.60    2.31
   7  -4   2   35.58    2.07
   7   4  -1    6.99    1.29
   7  -4   1    8.93    1.10
   7  -4   0   93.42    3.11
   7  -4   0   89.45    3.27
   7  -4  -1    8.15    1.11
   7   4   1    8.61    1.26
   7   4   2   39.62    2.14
   7  -4  -2   37.87    2.09
   7  -4  -4    2.53    0.85
   7   5  -2   18.86    1.59
   7   5  -1   10.31    1.24
   7  -5   0    1.16    0.67
   7   5   0   -0.04    0.57
   7   5   1   12.77    1.20
   7  -5  -1    9.56    1.07
   7   5   2   21.56    1.49
   7  -5  -2   23.92    1.55
   8   0   0   35.66    2.01
   8   0   1   30.16    1.89
   8   0   2   36.43    2.01
   8  -1   2    9.65    1.25
   8  -1   1   17.53    1.56
   8  -1   0   53.75    2.42
   8  -1  -1   17.17    1.46
   8   1   1   17.22    1.40
   8  -2   1    6.85    0.96
   8  -2   0    0.78    0.69
   0   0   0    0.00    0.00


TITL 1a in P2(1)2(1)2(1)
REM P2(1)2(1)2(1) (#19 in standard setting)
CELL 1.54184   7.033599   8.757546  10.006503  90.0000  90.0000  90.0000
ZERR    3.00   0.000173   0.000182   0.000223   0.0000   0.0000   0.0000
LATT -1
SYMM -x+1/2,-y, z+1/2
SYMM -x, y+1/2,-z+1/2
SYMM  x+1/2,-y+1/2,-z
SFAC C H N Cl
UNIT 12.00 6.00 15.00 3.00
TREF
HKLF 4
END
_computing_structure_solution     'SHELXT 2018/2 (Sheldrick, 2018)'
;
_shelx_hkl_checksum              6038
_olex2_submission_special_instructions 'No special instructions were received'
_oxdiff_exptl_absorpt_empirical_details
;
Empirical correction (ABSPACK) includes:
- Absorption correction using spherical harmonics
- Frame scaling
;
_oxdiff_exptl_absorpt_empirical_full_max 1.611
_oxdiff_exptl_absorpt_empirical_full_min 0.774
loop_
_space_group_symop_operation_xyz
'x, y, z'
'-x+1/2, -y, z+1/2'
'-x, y+1/2, -z+1/2'
'x+1/2, -y+1/2, -z'
loop_
_atom_site_label
_atom_site_type_symbol
_atom_site_fract_x
_atom_site_fract_y
_atom_site_fract_z
_atom_site_U_iso_or_equiv
_atom_site_adp_type
_atom_site_occupancy
_atom_site_site_symmetry_order
_atom_site_calc_flag
_atom_site_refinement_flags_posn
_atom_site_refinement_flags_adp
_atom_site_refinement_flags_occupancy
_atom_site_disorder_assembly
_atom_site_disorder_group
Cl1 Cl 0.28963(13) 0.33241(9) 0.31888(9) 0.0455(3) Uani 1 1 d . . . . .
N4 N 0.3598(4) 0.7476(3) 0.4114(3) 0.0310(6) Uani 1 1 d . . . . .
N5 N 0.3696(4) 0.5938(3) 0.4178(3) 0.0335(7) Uani 1 1 d . . . . .
N3 N 0.4347(4) 0.8380(4) 0.5061(3) 0.0420(7) Uani 1 1 d . . . . .
N2 N 0.3972(5) 0.9772(4) 0.4660(3) 0.0474(8) Uani 1 1 d . . . . .
N1 N 0.3004(5) 0.9812(3) 0.3490(3) 0.0417(7) Uani 1 1 d . . . . .
C9 C 0.2780(5) 0.8348(4) 0.3149(3) 0.0313(7) Uani 1 1 d . . . . .
C7 C 0.1988(5) 0.6048(4) 0.2069(3) 0.0363(8) Uani 1 1 d . . . . .
H7 H 0.144391 0.548941 0.137751 0.044 Uiso 1 1 calc R U . . .
C6 C 0.2873(5) 0.5291(3) 0.3161(3) 0.0325(7) Uani 1 1 d . . . . .
C8 C 0.1949(5) 0.7589(4) 0.2050(3) 0.0366(8) Uani 1 1 d . . . . .
H8 H 0.140145 0.812521 0.134631 0.044 Uiso 1 1 calc R U . . .
loop_
_atom_site_aniso_label
_atom_site_aniso_U_11
_atom_site_aniso_U_22
_atom_site_aniso_U_33
_atom_site_aniso_U_23
_atom_site_aniso_U_13
_atom_site_aniso_U_12
Cl1 0.0538(5) 0.0254(4) 0.0571(5) -0.0024(4) 0.0123(4) -0.0015(4)
N4 0.0400(15) 0.0273(13) 0.0258(13) -0.0013(11) -0.0001(12) -0.0026(12)
N5 0.0422(15) 0.0279(14) 0.0305(14) 0.0040(11) 0.0023(14) -0.0002(13)
N3 0.0553(17) 0.0385(17) 0.0321(14) -0.0050(15) -0.0054(14) -0.0073(17)
N2 0.062(2) 0.0349(17) 0.0450(17) -0.0106(14) 0.0034(16) -0.0072(15)
N1 0.0522(19) 0.0295(14) 0.0434(16) -0.0027(12) 0.0050(16) -0.0008(14)
C9 0.0387(16) 0.0270(15) 0.0281(14) 0.0034(13) 0.0049(14) 0.0016(16)
C7 0.0430(19) 0.0392(18) 0.0267(16) -0.0065(13) 0.0007(17) -0.0039(15)
C6 0.0373(17) 0.0266(15) 0.0334(16) -0.0019(13) 0.0084(17) -0.0003(15)
C8 0.0428(19) 0.0407(18) 0.0265(16) 0.0046(13) 0.0008(17) 0.0018(16)
loop_
_atom_type_symbol
_atom_type_description
_atom_type_scat_dispersion_real
_atom_type_scat_dispersion_imag
_atom_type_scat_source
C C 0.0181 0.0091 'International Tables Vol C Tables 4.2.6.8 and 6.1.1.4'
H H 0.0000 0.0000 'International Tables Vol C Tables 4.2.6.8 and 6.1.1.4'
Cl Cl 0.3639 0.7018 'International Tables Vol C Tables 4.2.6.8 and 6.1.1.4'
N N 0.0311 0.0180 'International Tables Vol C Tables 4.2.6.8 and 6.1.1.4'
loop_
_geom_angle_atom_site_label_1
_geom_angle_atom_site_label_2
_geom_angle_atom_site_label_3
_geom_angle
_geom_angle_site_symmetry_1
_geom_angle_site_symmetry_3
_geom_angle_publ_flag
N5 N4 C9 128.0(3) . . ?
N3 N4 N5 122.4(3) . . ?
N3 N4 C9 109.7(3) . . ?
C6 N5 N4 112.0(3) . . ?
N2 N3 N4 104.6(3) . . ?
N3 N2 N1 113.0(3) . . ?
C9 N1 N2 104.8(3) . . ?
N4 C9 C8 117.7(3) . . ?
N1 C9 N4 107.9(3) . . ?
N1 C9 C8 134.4(3) . . ?
C6 C7 H7 120.5 . . ?
C8 C7 H7 120.5 . . ?
C8 C7 C6 119.1(3) . . ?
N5 C6 Cl1 114.7(2) . . ?
N5 C6 C7 126.4(3) . . ?
C7 C6 Cl1 118.9(2) . . ?
C9 C8 H8 121.6 . . ?
C7 C8 C9 116.8(3) . . ?
C7 C8 H8 121.6 . . ?
loop_
_geom_bond_atom_site_label_1
_geom_bond_atom_site_label_2
_geom_bond_distance
_geom_bond_site_symmetry_2
_geom_bond_publ_flag
Cl1 C6 1.723(3) . ?
N4 N5 1.350(4) . ?
N4 N3 1.343(4) . ?
N4 C9 1.359(4) . ?
N5 C6 1.301(4) . ?
N3 N2 1.310(4) . ?
N2 N1 1.354(5) . ?
N1 C9 1.336(4) . ?
C9 C8 1.411(5) . ?
C7 H7 0.9300 . ?
C7 C6 1.421(5) . ?
C7 C8 1.350(5) . ?
C8 H8 0.9300 . ?
loop_
_geom_torsion_atom_site_label_1
_geom_torsion_atom_site_label_2
_geom_torsion_atom_site_label_3
_geom_torsion_atom_site_label_4
_geom_torsion
_geom_torsion_site_symmetry_1
_geom_torsion_site_symmetry_2
_geom_torsion_site_symmetry_3
_geom_torsion_site_symmetry_4
_geom_torsion_publ_flag
N4 N5 C6 Cl1 -178.7(2) . . . . ?
N4 N5 C6 C7 1.3(5) . . . . ?
N4 N3 N2 N1 0.1(4) . . . . ?
N4 C9 C8 C7 1.9(5) . . . . ?
N5 N4 N3 N2 -179.9(3) . . . . ?
N5 N4 C9 N1 179.7(3) . . . . ?
N5 N4 C9 C8 -1.3(5) . . . . ?
N3 N4 N5 C6 179.7(3) . . . . ?
N3 N4 C9 N1 -0.3(4) . . . . ?
N3 N4 C9 C8 178.7(3) . . . . ?
N3 N2 N1 C9 -0.3(4) . . . . ?
N2 N1 C9 N4 0.4(4) . . . . ?
N2 N1 C9 C8 -178.4(4) . . . . ?
N1 C9 C8 C7 -179.5(4) . . . . ?
C9 N4 N5 C6 -0.3(5) . . . . ?
C9 N4 N3 N2 0.1(4) . . . . ?
C6 C7 C8 C9 -1.0(6) . . . . ?
C8 C7 C6 Cl1 179.3(3) . . . . ?
C8 C7 C6 N5 -0.7(6) . . . . ?
