#------------------------------------------------------------------------------
#$Date: 2022-03-06 06:37:54 +0200 (Sun, 06 Mar 2022) $
#$Revision: 273468 $
#$URL: file:///home/coder/svn-repositories/cod/cif/1/56/59/1565964.cif $
#------------------------------------------------------------------------------
#
# This file is available in the Crystallography Open Database (COD),
# http://www.crystallography.net/
#
# All data on this site have been placed in the public domain by the
# contributors.
#
data_1565964
loop_
_publ_author_name
'Wildner, Manfred'
'Zakharov, Boris A.'
'Bogdanov, Nikita E.'
'Talla, Dominik'
'Boldyreva, Elena V.'
'Miletich, Ronald'
_publ_section_title
;
 Crystallography relevant to Mars and Galilean icy moons: crystal behavior
 of kieserite-type monohydrate sulfates at extraterrestrial conditions
 down to 15 K
;
_journal_issue                   2
_journal_name_full               IUCrJ
_journal_page_first              194
_journal_page_last               203
_journal_paper_doi               10.1107/S2052252521012720
_journal_volume                  9
_journal_year                    2022
_chemical_formula_sum            'H2 Ni O5 S'
_chemical_formula_weight         172.79
_space_group_crystal_system      monoclinic
_space_group_IT_number           15
_space_group_name_Hall           '-C 2yc'
_space_group_name_H-M_alt        'C 1 2/c 1'
_atom_sites_solution_hydrogens   difmap
_audit_creation_method           SHELXL-2017/1
_cell_angle_alpha                90
_cell_angle_beta                 117.629(10)
_cell_angle_gamma                90
_cell_formula_units_Z            4
_cell_length_a                   6.8115(10)
_cell_length_b                   7.6122(10)
_cell_length_c                   7.4444(10)
_cell_measurement_temperature    193(2)
_cell_volume                     341.98(9)
_computing_structure_refinement  'SHELXL-2017/1 (Sheldrick, 2017)'
_diffrn_ambient_temperature      193(2)
_diffrn_measured_fraction_theta_full 1.000
_diffrn_measured_fraction_theta_max 1.000
_diffrn_radiation_type           MoK\a
_diffrn_radiation_wavelength     0.71073
_diffrn_reflns_av_R_equivalents  0.0232
_diffrn_reflns_av_unetI/netI     0.0105
_diffrn_reflns_Laue_measured_fraction_full 1.000
_diffrn_reflns_Laue_measured_fraction_max 1.000
_diffrn_reflns_limit_h_max       12
_diffrn_reflns_limit_h_min       -12
_diffrn_reflns_limit_k_max       13
_diffrn_reflns_limit_k_min       -13
_diffrn_reflns_limit_l_max       13
_diffrn_reflns_limit_l_min       -13
_diffrn_reflns_number            10714
_diffrn_reflns_point_group_measured_fraction_full 1.000
_diffrn_reflns_point_group_measured_fraction_max 1.000
_diffrn_reflns_theta_full        25.242
_diffrn_reflns_theta_max         39.997
_diffrn_reflns_theta_min         4.294
_exptl_absorpt_coefficient_mu    6.159
_exptl_absorpt_correction_T_max  0.7482
_exptl_absorpt_correction_T_min  0.6455
_exptl_absorpt_correction_type   multi-scan
_exptl_absorpt_process_details
;
 SADABS 2016/2: Krause, L., Herbst-Irmer, R., Sheldrick G.M. & Stalke D.,
 J. Appl. Cryst. 48 (2015) 3-10
;
_exptl_crystal_density_diffrn    3.356
_exptl_crystal_F_000             344
_refine_diff_density_max         0.797
_refine_diff_density_min         -0.722
_refine_diff_density_rms         0.120
_refine_ls_extinction_coef       0.0206(13)
_refine_ls_extinction_expression Fc^*^=kFc[1+0.001xFc^2^\l^3^/sin(2\q)]^-1/4^
_refine_ls_extinction_method     'SHELXL-2017/1 (Sheldrick 2017)'
_refine_ls_goodness_of_fit_ref   1.118
_refine_ls_hydrogen_treatment    refall
_refine_ls_matrix_type           full
_refine_ls_number_parameters     40
_refine_ls_number_reflns         1063
_refine_ls_number_restraints     0
_refine_ls_restrained_S_all      1.118
_refine_ls_R_factor_all          0.0167
_refine_ls_R_factor_gt           0.0160
_refine_ls_shift/su_max          0.000
_refine_ls_shift/su_mean         0.000
_refine_ls_structure_factor_coef Fsqd
_refine_ls_weighting_details
'w=1/[\s^2^(Fo^2^)+(0.0210P)^2^+0.4700P] where P=(Fo^2^+2Fc^2^)/3'
_refine_ls_weighting_scheme      calc
_refine_ls_wR_factor_gt          0.0416
_refine_ls_wR_factor_ref         0.0420
_reflns_Friedel_coverage         0.000
_reflns_number_gt                1036
_reflns_number_total             1063
_reflns_threshold_expression     'I > 2\s(I)'
_cod_data_source_file            lt5044.cif
_cod_data_source_block           NiSO4H2O_N2_193K
_cod_depositor_comments
'Adding full bibliography for 1565934--1565967.cif.'
_cod_original_sg_symbol_H-M      'C 2/c'
_cod_database_code               1565964
_shelx_shelxl_version_number     2017/1
_shelx_space_group_comment
;
The symmetry employed for this shelxl refinement is uniquely defined
by the following loop, which should always be used as a source of
symmetry information in preference to the above space-group names.
They are only intended as comments.
;
_shelx_res_file
;
TITL 1991nikies 193K Apex in C2/c kieserite cell
    latt_corr_for_Nonius20C_nikies193K_0m.res
    created by SHELXL-2017/1 at 09:37:56 on 01-Dec-2018
REM meas. mon  6.7997(1) 7.6005(1) 7.3872(1) 90.0 116.9927(4) 90.0
REM trans. cryscomp 6.7997 7.6005 7.4303 90.0  117.638 90.0
REM meas.trcl 6.7996(1) 7.6004(1) 7.3873(1) 90.0282(5) 116.9927(4) 89.9608(5)
REM trans. cryscomp 6.7996 7.6004 7.4303 90.008 117.637 89.961
REM CELL 0.71073   6.7997 7.6005 7.4303 90.0  117.638 90.0
REM latt corr for Nonius20C +.0118 +.0117 +.0141   -.0088
CELL 0.71073   6.8115 7.6122 7.4444      90.0 117.629     90.0
ZERR    4.00   0.001   0.001   0.001   0.00   0.01   0.00
LATT  7
SYMM -X, Y, .5-Z
SFAC O H S NI
UNIT 20 8 4 4
SHEL 20 0.55285
REM DAMP 10000
L.S. 10
CONN 12 1.8 $O
EQIV $9 -x+1/2, y+1/2, -z+1/2
BOND $H
FMAP 2
PLAN 20
ACTA
HTAB O3 O2_$9
HTAB
WGHT    0.021000    0.470000
EXTI    0.020647
FVAR       0.69125
NI    4    0.000000    0.500000    0.000000    10.50000    0.00390    0.00468 =
         0.00412    0.00016    0.00173   -0.00014
S     3    0.000000    0.157274    0.250000    10.50000    0.00314    0.00423 =
         0.00453    0.00000    0.00159    0.00000
O1    1    0.172622    0.047323    0.404134    11.00000    0.00523    0.01000 =
         0.00939    0.00463    0.00281    0.00250
O2    1    0.104283    0.270595    0.155194    11.00000    0.00675    0.00658 =
         0.00938    0.00264    0.00512    0.00068
O3    1    0.000000    0.630770    0.250000    10.50000    0.00601    0.00698 =
         0.00609    0.00000    0.00294    0.00000
H     2    0.109084    0.694534    0.294021    11.00000    0.02042
HKLF 4 1  -1 0 0 0 -1 0 1 0 1




REM  1991nikies 193K Apex in C2/c kieserite cell
REM R1 =  0.0160 for    1036 Fo > 4sig(Fo)  and  0.0167 for all    1063 data
REM     40 parameters refined using      0 restraints

END

WGHT      0.0207      0.4833

REM Instructions for potential hydrogen bonds
EQIV $5 x+1/2, y+1/2, z
HTAB O3 S_$5
HTAB O3 O2_$9

REM Highest difference peak  0.797,  deepest hole -0.722,  1-sigma level  0.120
Q1    1  -0.0654  0.5593 -0.0034  11.00000  0.05    0.80
Q2    1   0.0572  0.5711  0.0104  11.00000  0.05    0.72
Q3    1   0.3217  0.1802  0.4961  11.00000  0.05    0.61
Q4    1   0.1237  0.6202  0.0005  11.00000  0.05    0.59
Q5    1   0.1777  0.6742  0.4995  11.00000  0.05    0.57
Q6    1  -0.1211  0.6220 -0.0003  11.00000  0.05    0.57
Q7    1   0.2500  0.2500  0.5000  10.50000  0.05    0.56
Q8    1   0.2500  0.7500  0.5000  10.50000  0.05    0.56
Q9    1   0.0648  0.2270  0.2289  11.00000  0.05    0.53
Q10   1   0.1618  0.3177  0.2467  11.00000  0.05    0.51
Q11   1   0.0987  0.1118  0.3555  11.00000  0.05    0.46
Q12   1   0.2376  0.3983  0.2566  11.00000  0.05    0.44
Q13   1   0.0749  0.4941  0.0961  11.00000  0.05    0.44
Q14   1   0.1416  0.0247  0.2521  11.00000  0.05    0.35
Q15   1   0.0457  0.3393  0.1366  11.00000  0.05    0.30
Q16   1  -0.0196  0.5665  0.1987  11.00000  0.05    0.29
Q17   1   0.0405  0.3028  0.0729  11.00000  0.05    0.23
Q18   1   0.1575  0.2185  0.1468  11.00000  0.05    0.23
Q19   1   0.1630  0.5083  0.0935  11.00000  0.05    0.21
Q20   1   0.0000  0.4582  0.2500  10.50000  0.05    0.21
;
_shelx_res_checksum              98255
_shelx_hkl_file
;
   2   0   0 70.5825 2.34389  12
   2   0   0 66.5399 2.76699   4
   2   0   0 66.4469 3.47065  10
  -2   0   0 75.6474 2.79334   1
  -2   0   0 60.2466 2.54450   5
  -2   0   0 66.6353 2.42725   8
  -2   0   0 67.5676 3.53825  10
  -2   0   0 60.0815 2.46826  16
  -4   0   0 9627.50 222.532   1
  -4   0   0 8818.30 225.399   5
   4   0   0 9999.99 220.457   2
   4   0   0 9263.77 225.223  12
   4   0   0 9013.05 228.731  14
   4   0   0 9360.51 241.426  10
   4   0   0 9279.88 227.875   4
  -4   0   0 9304.23 226.057  16
  -4   0   0 8867.31 221.541   8
  -4   0   0 9386.45 227.698  11
  -6   0   0 13.2964 2.20075  16
   6   0   0 12.3680 2.63941   4
  -6   0   0 15.4766 2.37139   8
  -6   0   0 11.8242 2.24627   5
  -6   0   0 13.0419 2.91948  11
  -6   0   0 13.8883 2.78878   1
   6   0   0 13.4747 2.51513  14
   6   0   0 9.50861 2.76733  10
   6   0   0 13.0086 2.04802  12
   8   0   0 1656.58 44.1513   4
   8   0   0 1586.76 44.2262  14
  -8   0   0 1698.91 44.7745   1
  -8   0   0 1604.29 45.9678  11
   8   0   0 1549.73 48.5798  10
   8   0   0 1630.79 42.3082  12
  -8   0   0 1634.32 42.6851   8
  10   0   0 19.4961 3.37504  12
  10   0   0 17.4740 4.39975  14
 -10   0   0 21.6530 4.74683   1
 -10   0   0 14.3935 5.46878  11
  10   0   0 18.0797 4.03685   4
  -1  -1   0 1508.45 37.0126  10
  -1  -1   0 1520.00 36.1832  16
   1  -1   0 1481.06 38.7841  10
   1   1   0 1534.27 38.8238  10
  -1   1   0 1439.17 35.6862  16
   1   1   0 1450.48 34.7182  14
  -1   1   0 1433.45 35.6555  10
  -1   1   0 1394.17 34.4102  13
  -3  -1   0 3.43437 1.12929  11
  -3  -1   0 3.85624 1.12865  10
   3  -1   0 2.61183 1.29526  10
   3  -1   0 4.31171 0.81048   2
  -3  -1   0 7.86296 1.39949   5
  -3  -1   0 4.68342 1.01073  16
   3  -1   0 4.78055 0.87247  12
   3  -1   0 3.84114 1.13222   4
  -3  -1   0 10.2617 1.35533   1
  -3   1   0 4.30780 1.09512   1
  -3   1   0 3.68862 0.73354  16
   3   1   0 3.70029 1.07258  14
  -3   1   0 5.78747 1.55005  10
   3   1   0 5.16283 0.85120  12
   3   1   0 4.06622 1.12237   4
   3   1   0 3.13628 1.22423  10
  -3   1   0 3.69456 0.78117   5
  -5  -1   0 865.186 23.3148   8
   5  -1   0 862.093 22.0516   2
  -5  -1   0 890.150 25.0604  11
  -5  -1   0 901.579 24.1469  16
   5  -1   0 893.650 27.8099  10
  -5  -1   0 892.837 24.2218   1
  -5  -1   0 872.796 24.3438   5
   5  -1   0 889.156 23.0530  12
   5  -1   0 884.754 24.2128   4
   5  -1   0 883.631 24.1797  14
   5   1   0 889.823 24.5485  14
  -5   1   0 870.661 23.2008   5
  -5   1   0 881.380 23.1811   8
  -5   1   0 924.222 25.2284  11
   5   1   0 858.343 26.2781  10
   5   1   0 879.144 23.0783  12
  -5   1   0 909.824 24.5053   1
  -5   1   0 889.256 23.0005  16
   5   1   0 904.950 24.2273   4
   7  -1   0 25.4802 4.04037   4
  -7  -1   0 20.9578 3.05870  16
   7  -1   0 24.8658 2.88618  12
  -7  -1   0 22.3614 3.41834   1
   7  -1   0 20.6940 4.32347  10
  -7  -1   0 28.6454 3.27053   8
  -7  -1   0 26.4642 4.41397  11
   7  -1   0 22.8296 3.46473  14
  -7  -1   0 23.1662 3.34829   5
  -7   1   0 20.2268 3.89604  11
   7   1   0 23.9054 2.84324  12
   7   1   0 16.7211 3.93196  10
  -7   1   0 23.8822 3.66914   1
  -7   1   0 26.7231 3.31433   8
   7   1   0 21.2168 3.49838  14
   7   1   0 22.5947 3.75267   4
   9  -1   0 109.103 7.74878  14
   9  -1   0 116.990 8.54891   4
  -9  -1   0 112.404 9.50707  11
  -9  -1   0 113.957 8.17809   1
   9  -1   0 98.6596 6.47007  12
   9   1   0 100.097 7.77730  14
   9   1   0 109.304 6.76474  12
  -9   1   0 116.614 7.18911   8
  -9   1   0 121.108 8.97969  11
   9   1   0 102.306 8.07977   4
  -9   1   0 102.849 8.32819   1
  11  -1   0 65.8426 7.27143   4
 -11  -1   0 67.0137 8.78012  11
 -11   1   0 59.6569 6.74004   1
 -11   1   0 60.5681 8.54773  11
  11   1   0 69.5913 7.86023   4
   0  -2   0 1884.69 50.2033  10
   0  -2   0 1873.77 44.7533   2
   0   2   0 1889.72 45.2971   3
   0   2   0 1928.34 49.4166  10
   0   2   0 1913.53 46.9227  13
   0   2   0 1907.95 46.8236  14
  -2  -2   0 683.711 17.8013   5
  -2  -2   0 703.544 17.4241  10
  -2  -2   0 673.917 17.0858   1
   2  -2   0 669.824 17.1849   2
   2  -2   0 676.339 16.7558  12
  -2  -2   0 694.738 17.4800  11
  -2  -2   0 688.474 17.6552  16
   2  -2   0 672.599 19.2686  10
   2   2   0 682.609 17.2259  10
  -2   2   0 657.492 16.6846   3
  -2   2   0 666.743 16.8667   7
  -2   2   0 633.150 16.7491  13
  -2   2   0 647.615 16.0418  16
   2   2   0 695.903 17.4676  14
  -2   2   0 666.328 19.1165  10
   2   2   0 659.962 16.8126   4
   2   2   0 687.846 16.7026  12
  -2   2   0 640.295 16.4249   8
   4  -2   0 1966.25 51.8684  10
   4  -2   0 1960.43 48.1047   4
   4  -2   0 1924.53 46.9646   2
   4  -2   0 1982.22 47.1442  12
  -4  -2   0 1951.43 48.8163  11
  -4  -2   0 1975.62 48.4931  16
  -4  -2   0 1901.10 47.8057   1
  -4  -2   0 1924.19 47.3116   8
  -4  -2   0 1943.07 48.7612   5
   4   2   0 1985.72 49.4765  10
  -4   2   0 1931.74 47.3062  13
   4   2   0 1947.40 48.4242  14
   4   2   0 1900.87 47.6499   4
  -4   2   0 1999.35 46.8213   5
  -4   2   0 1982.84 46.4153  16
  -4   2   0 1929.67 46.9492   8
  -4   2   0 1945.33 48.1545   1
   4   2   0 1948.24 47.0332  12
  -6  -2   0 1346.19 35.0259   8
   6  -2   0 1360.80 36.2050   4
  -6  -2   0 1305.23 33.9486   6
  -6  -2   0 1355.56 36.1131  16
  -6  -2   0 1338.78 36.6329   5
   6  -2   0 1354.51 40.9564  10
   6  -2   0 1359.01 34.7105  12
   6  -2   0 1359.21 35.9522  14
  -6  -2   0 1349.78 37.3705  11
  -6  -2   0 1355.40 35.8789   1
   6   2   0 1420.58 36.0644   4
   6   2   0 1390.12 36.7497  14
  -6   2   0 1353.95 37.2523  11
  -6   2   0 1362.71 34.7259   8
   6   2   0 1300.70 38.0672  10
  -6   2   0 1375.18 36.4692   1
   6   2   0 1346.25 34.6889  12
   8  -2   0 789.545 24.8909  14
   8  -2   0 823.458 25.6166   4
  -8  -2   0 837.064 27.3801  11
   8  -2   0 766.074 23.4062  12
  -8  -2   0 826.958 25.8350   5
  -8  -2   0 809.412 25.1142   1
  -8   2   0 805.831 25.7846   1
   8   2   0 824.580 24.9329   4
  -8   2   0 824.140 23.7617   8
   8   2   0 795.530 23.6471  12
   8   2   0 801.102 25.6668  14
  -8   2   0 827.375 26.9484  11
 -10  -2   0 735.495 24.9838   1
  10  -2   0 710.343 24.7870   4
 -10  -2   0 714.516 27.1819  11
 -10   2   0 730.190 27.1509  11
 -10   2   0 777.651 26.3450   1
  10   2   0 738.961 24.9532   4
  10   2   0 694.867 22.9769  12
   1  -3   0 131.567 5.57565  10
   1  -3   0 129.731 3.96165   6
   1  -3   0 124.487 4.66886   2
  -1  -3   0 129.539 4.81827   5
   1  -3   0 126.121 4.15032  12
  -1  -3   0 125.279 4.20136   2
  -1  -3   0 120.103 4.23263  11
  -1  -3   0 121.156 4.60681  16
   1   3   0 124.083 4.09747  13
  -1   3   0 125.430 3.92294   7
   1   3   0 123.848 3.83870   4
  -1   3   0 126.598 3.70020   8
  -1   3   0 150.279 4.33201  13
  -1   3   0 129.203 5.34705  10
   1   3   0 119.572 4.39836  14
   1   3   0 125.930 4.10334   3
   1   3   0 125.099 4.10083  12
  -1   3   0 125.166 4.07579   3
   3  -3   0 855.971 22.2517  12
  -3  -3   0 889.465 22.7990   1
  -3  -3   0 911.257 23.1288  10
   3  -3   0 885.738 26.0731  10
   3  -3   0 876.949 22.8128   4
   3  -3   0 862.329 22.8000   2
  -3  -3   0 896.802 23.8707   5
  -3  -3   0 912.351 23.3528  11
  -3  -3   0 934.704 23.7937  16
  -3   3   0 859.667 22.2347   3
  -3   3   0 858.029 21.8512   8
  -3   3   0 866.539 21.0922  16
  -3   3   0 862.929 22.3554  13
   3   3   0 904.290 22.2994  12
   3   3   0 870.196 22.3770   4
   3   3   0 920.427 23.4157  14
  -3   3   0 844.190 22.9735   1
  -3   3   0 861.956 22.3580   7
   5  -3   0 19.9890 2.24255  12
  -5  -3   0 18.7438 2.64350   1
   5  -3   0 26.3099 3.10279   4
   5  -3   0 18.4696 4.01151  10
  -5  -3   0 17.7512 2.95027  11
  -5  -3   0 16.2948 2.74712   5
  -5  -3   0 21.2562 3.13522  16
   5  -3   0 18.3245 2.26635   2
  -5   3   0 20.3751 2.26875   8
   5   3   0 19.0871 2.24789  12
  -5   3   0 17.2510 2.85465   1
   5   3   0 20.2857 3.08385  14
   5   3   0 20.4172 2.53735   4
   5   3   0 16.0056 2.59048  10
   7  -3   0 135.051 6.51510  12
  -7  -3   0 127.750 8.07048  11
  -7  -3   0 128.004 7.37902   1
   7  -3   0 121.876 6.90653  14
   7  -3   0 137.503 7.57822   4
   7  -3   0 127.231 9.84037  10
  -7  -3   0 126.337 8.15027   5
  -7   3   0 119.548 7.84469   1
   7   3   0 138.444 7.52773   4
  -7   3   0 127.649 7.93325  11
   7   3   0 129.023 7.82396  14
  -7   3   0 135.844 6.46015   8
   7   3   0 128.924 6.25546  12
   9  -3   0 2.03296 2.21339  14
  -9  -3   0 -0.7568 2.37709   5
   9  -3   0 2.78607 2.18230  12
  -9  -3   0 -1.5490 2.44482   1
   9  -3   0 10.7515 3.85334   4
  -9  -3   0 2.04516 3.64593  11
  -9   3   0 -2.5381 3.28720   1
  -9   3   0 0.94476 3.19636  11
   9   3   0 2.01595 2.74696  14
   9   3   0 0.86202 3.09368   4
  -9   3   0 -0.3905 1.43157   8
   9   3   0 1.83173 1.93986  12
 -11  -3   0 3.96273 5.04475  11
  11  -3   0 4.00879 3.84130   4
 -11   3   0 0.53796 3.04499   1
  11   3   0 1.23356 2.52855   4
   0  -4   0 2919.82 69.1240  12
   0  -4   0 2901.19 69.3354   6
   0  -4   0 2942.01 69.8334   2
   0  -4   0 2894.23 76.0064  10
   0   4   0 3030.00 69.1793  13
   0   4   0 2949.56 69.1589   3
   0   4   0 3036.04 68.8888   7
   0   4   0 2821.37 69.3898  14
   0   4   0 2945.18 69.1396  12
   2  -4   0 6388.79 149.151   6
   2  -4   0 6442.79 152.368   2
  -2  -4   0 6300.40 152.926   5
  -2  -4   0 6219.12 158.306  16
   2  -4   0 6107.99 150.880  12
  -2  -4   0 6173.85 154.462  11
  -2  -4   0 5894.27 149.418   2
   2  -4   0 6423.25 163.079  10
  -2   4   0 6393.56 151.632   7
   2   4   0 6283.29 154.972  14
   2   4   0 6600.72 153.508   3
  -2   4   0 6315.28 146.550   8
   2   4   0 6557.62 152.955   4
  -2   4   0 6376.97 152.109  13
   2   4   0 6514.68 154.747  12
  -2   4   0 6262.49 149.649   3
   4  -4   0 703.144 20.0546   4
   4  -4   0 703.150 20.1021   2
  -4  -4   0 759.358 21.3736  16
   4  -4   0 718.798 19.5840  12
  -4  -4   0 770.791 20.4031   1
  -4  -4   0 717.975 21.5190   5
  -4  -4   0 757.690 21.0056  11
   4  -4   0 733.677 24.5405  10
   4   4   0 772.360 19.6765  12
  -4   4   0 712.785 19.6843   7
   4   4   0 717.642 19.6665   4
   4   4   0 753.941 21.0801  14
  -4   4   0 701.909 18.9363   8
   4   4   0 729.818 19.3875   3
  -4   4   0 695.191 20.5210   1
  -4   4   0 720.078 19.6952  13
   6  -4   0 1674.90 50.8782  10
  -6  -4   0 1744.11 46.8474   5
  -6  -4   0 1665.05 44.4556   1
  -6  -4   0 1653.59 43.5608   6
  -6  -4   0 1664.98 45.6938  11
   6  -4   0 1729.75 45.0067   4
   6  -4   0 1771.09 43.7201   2
   6  -4   0 1754.75 43.8956  12
   6   4   0 1725.81 45.6848  14
   6   4   0 1734.57 44.2459   4
  -6   4   0 1711.56 45.8782  11
  -6   4   0 1724.55 45.5429   1
  -6   4   0 1740.41 43.1091   8
   6   4   0 1724.99 43.6490  12
  -8  -4   0 43.0924 4.93578   1
   8  -4   0 39.6307 5.36820   4
  -8  -4   0 33.8968 5.14499   5
   8  -4   0 41.4407 4.34427  12
   8  -4   0 38.0366 4.56198  14
  -8  -4   0 33.8091 5.50176  11
  -8   4   0 48.0063 6.30529   1
  -8   4   0 46.9930 6.35011  11
   8   4   0 32.9981 3.96540  12
   8   4   0 32.4637 4.64309   4
   8   4   0 37.7256 3.98352   3
   8   4   0 36.0769 4.93752  14
  -8   4   0 45.0900 4.35639   8
  10  -4   0 455.548 18.6422   4
 -10  -4   0 449.178 18.1090   1
 -10  -4   0 454.647 19.7143  11
 -10   4   0 468.444 20.5363  11
  10   4   0 456.962 18.1034   4
  10   4   0 434.815 16.7186  12
 -10   4   0 472.414 19.9494   1
  10   4   0 456.163 15.9610   3
  -1  -5   0 74.3800 3.62484  11
  -1  -5   0 77.9459 3.84501   2
   1  -5   0 76.6650 3.46070  12
   1  -5   0 74.7578 4.29527   2
  -1  -5   0 68.2054 3.69507   6
  -1  -5   0 76.7843 3.37945  10
   1  -5   0 70.8862 3.34427   6
   1  -5   0 78.1682 4.82956  10
  -1  -5   0 72.2419 4.02511   5
   1   5   0 76.7149 3.42213   3
  -1   5   0 76.6144 3.56708   3
   1   5   0 74.8405 3.34939  13
  -1   5   0 71.9592 3.13067   7
  -1   5   0 73.6104 3.47294  13
   1   5   0 66.1585 3.22873  12
  -1   5   0 72.7205 4.25795  10
  -1   5   0 73.5997 2.82930   8
  -1   5   0 77.7375 3.37446  12
   1   5   0 73.6551 3.78722  14
   3  -5   0 103.298 4.64134  12
   3  -5   0 109.466 7.26892  10
   3  -5   0 107.387 5.54018   2
  -3  -5   0 98.2046 5.03853  11
   3  -5   0 99.8702 3.53019   6
  -3  -5   0 100.695 3.92713   2
  -3  -5   0 100.944 5.97429   5
  -3  -5   0 102.904 3.87186  10
   3   5   0 98.0140 4.43202   3
  -3   5   0 114.628 4.06555   8
  -3   5   0 98.8584 3.33674  16
  -3   5   0 100.723 4.40748   7
   3   5   0 102.925 5.25105  14
   3   5   0 96.9123 4.44358  12
   3   5   0 97.3571 4.23895   4
  -3   5   0 104.856 4.60689   3
  -3   5   0 110.413 4.86074  13
   5  -5   0 16.8928 2.81365   2
  -5  -5   0 29.5370 4.38119   5
   5  -5   0 14.1304 3.62516  10
   5  -5   0 17.3819 2.34451  12
  -5  -5   0 14.0852 2.82740  11
   5  -5   0 15.5195 2.84376   4
  -5  -5   0 29.0846 3.34398   1
  -5  -5   0 13.4798 2.67166   6
  -5   5   0 12.5816 2.55017   1
  -5   5   0 13.5817 2.29069   7
  -5   5   0 18.5858 2.58721  13
   5   5   0 14.9923 2.17361   4
   5   5   0 18.5946 2.45426   3
  -5   5   0 15.8058 2.05471   8
   5   5   0 15.1138 2.31368  12
  -7  -5   0 108.975 6.64546   6
  -7  -5   0 106.610 7.11307   1
   7  -5   0 108.830 6.93516   4
  -7  -5   0 106.487 7.92190  11
  -7  -5   0 106.243 8.43349   5
   7  -5   0 118.772 6.49157   2
   7  -5   0 107.728 6.20154  12
  -7   5   0 102.615 7.86971   1
  -7   5   0 105.731 5.55257   8
  -7   5   0 116.044 8.11942  11
   7   5   0 114.938 6.96004   4
   7   5   0 110.767 6.18285   3
   7   5   0 105.333 6.21613  12
   7   5   0 114.949 7.51621  14
  -9  -5   0 19.6107 4.37603   1
  -9  -5   0 12.2358 4.64882  11
   9  -5   0 18.4612 3.92225   4
   9   5   0 15.6990 3.96052   4
   9   5   0 10.1786 2.84722  12
   9   5   0 8.85155 2.65587   3
  -9   5   0 10.3277 4.54622   1
  -9   5   0 16.7861 4.66626  11
   0  -6   0 2381.10 57.5770  10
   0  -6   0 2348.73 56.4656   6
   0  -6   0 2282.78 57.1255   2
   0  -6   0 2290.56 55.9622  12
   0   6   0 2274.87 56.0294  12
   0   6   0 2305.19 56.1052   3
   0   6   0 2352.30 55.6456   7
   0   6   0 2356.22 56.6337  14
   0   6   0 2333.39 56.0321  13
  -2  -6   0 179.116 7.09006  11
  -2  -6   0 180.359 6.75809   2
   2  -6   0 184.693 6.24081   6
  -2  -6   0 190.199 5.81523  10
   2  -6   0 186.682 9.31154  10
   2  -6   0 186.809 6.76681  12
  -2  -6   0 189.732 7.50116   6
  -2  -6   0 182.665 5.45019  10
  -2  -6   0 179.973 8.14959   5
   2  -6   0 180.113 7.69524   2
   2   6   0 190.795 6.75694   3
  -2   6   0 180.349 5.81379   8
   2   6   0 186.308 6.20331   4
   2   6   0 200.907 7.51445  14
   2   6   0 185.600 6.69701  13
  -2   6   0 181.334 6.80413  13
   2   6   0 182.674 6.71491  12
  -2   6   0 175.407 6.27362   7
  -2   6   0 187.214 6.87090   3
  -4  -6   0 2021.41 51.4029   6
   4  -6   0 1965.70 50.6078   4
   4  -6   0 2126.94 52.0518   2
   4  -6   0 1981.36 50.5311  12
  -4  -6   0 2072.79 53.6604   5
   4  -6   0 2093.24 57.1271  10
  -4  -6   0 1982.31 51.6283  11
   4   6   0 1996.48 50.1709   3
  -4   6   0 2071.78 52.1159   1
  -4   6   0 1994.01 49.1539   8
   4   6   0 1988.67 49.8831   4
   4   6   0 2025.75 52.0322  14
  -4   6   0 2073.71 50.6137  13
  -4   6   0 2089.78 50.2864   7
  -4   6   0 2033.48 50.3142   3
   4   6   0 2007.44 50.4932  12
  -6  -6   0 237.031 9.97880   6
   6  -6   0 197.861 9.53130   4
  -6  -6   0 234.875 11.6395   5
   6  -6   0 211.494 8.88890  12
  -6  -6   0 227.545 10.4407  11
   6  -6   0 209.689 9.69491   2
  -6   6   0 200.607 10.4318   1
  -6   6   0 208.137 9.06915  13
   6   6   0 214.318 10.4730  14
  -6   6   0 205.697 8.00292   8
   6   6   0 212.520 8.96828   4
   6   6   0 223.979 9.19332  12
   6   6   0 229.175 9.02100   3
  -8  -6   0 1204.97 34.2506   6
  -8  -6   0 1235.46 38.4773   5
  -8  -6   0 1213.52 36.9885  11
   8  -6   0 1227.50 35.7183   4
   8   6   0 1201.03 33.3299   3
   8   6   0 1209.01 34.4481   4
  -8   6   0 1230.58 37.2259   1
  -8   6   0 1209.82 37.2881  11
   8   6   0 1173.14 36.3256  14
   8   6   0 1193.79 34.0714  12
 -10  -6   0 151.729 10.6486  11
  10  -6   0 147.119 9.97668   4
 -10   6   0 158.338 11.6769   1
  10   6   0 142.117 8.22061   3
 -10   6   0 141.848 10.9197  11
  -1  -7   0 472.238 14.5559   6
   1  -7   0 468.496 13.9379   6
  -1  -7   0 460.934 14.5318   2
   1  -7   0 473.594 15.2799   2
   1  -7   0 482.006 16.3530  10
  -1  -7   0 466.763 13.6275  10
   1   7   0 476.034 13.8200  13
  -1   7   0 474.094 13.2996   7
   1   7   0 463.025 13.9162  12
  -1   7   0 487.360 14.1322   3
  -1   7   0 474.235 13.8930  13
   1   7   0 485.654 14.0943   3
   1   7   0 458.118 14.5430  14
   1   7   0 477.353 13.5054   7
  -1   7   0 455.418 12.6444   8
  -3  -7   0 656.112 19.9301  11
  -3  -7   0 690.360 20.4031   6
   3  -7   0 688.319 20.8913   2
   3  -7   0 701.791 24.1564  10
  -3  -7   0 721.152 22.1587   5
   3  -7   0 654.639 19.2935  12
  -3  -7   0 667.000 18.6623   2
  -3   7   0 684.743 18.8128   7
   3   7   0 669.828 20.3758  14
   3   7   0 648.083 19.2858  12
  -3   7   0 710.911 19.5335   3
   3   7   0 677.444 19.1653  13
  -3   7   0 695.806 19.5078  13
   3   7   0 706.912 19.4609   3
  -5  -7   0 127.130 8.44602   5
   5  -7   0 120.932 7.75986   2
   5  -7   0 131.022 10.0059  10
   5  -7   0 120.833 6.49814  12
  -5  -7   0 121.067 7.09618  11
  -5  -7   0 135.319 7.55777   6
   5  -7   0 128.838 6.90992   4
  -5   7   0 135.628 6.82351  13
   5   7   0 131.092 6.62686   3
   5   7   0 122.480 7.67268  14
   5   7   0 125.529 6.53139  12
  -5   7   0 142.091 6.50618   7
   5   7   0 128.811 6.42459  13
  -5   7   0 135.019 8.12509   1
   7  -7   0 290.199 12.6940   4
  -7  -7   0 322.881 14.2390  11
   7  -7   0 289.734 12.5569   2
  -7  -7   0 316.212 12.9056   6
  -7  -7   0 304.333 15.3605   5
  -7   7   0 295.067 13.8449  11
   7   7   0 285.381 11.7106  12
   7   7   0 307.747 14.0344  14
  -7   7   0 306.596 14.3523   1
   7   7   0 301.026 11.5627   3
  -9  -7   0 52.0350 6.65904  11
   9  -7   0 55.6755 6.58702   4
  -9   7   0 64.6853 8.45509   1
   9   7   0 51.7970 5.36219   3
  -9   7   0 60.8139 7.98895  11
   0  -8   0 1131.36 30.9989   2
   0  -8   0 1181.52 30.4266   6
   0   8   0 1139.99 29.9299   3
   0   8   0 1107.25 29.8649  12
   0   8   0 1135.87 29.0001   7
   0   8   0 1126.68 29.5777  13
   0   8   0 1098.38 30.1500  14
  -2  -8   0 1391.97 36.2712   6
  -2  -8   0 1301.10 35.1276   2
   2  -8   0 1357.00 34.3626   6
   2  -8   0 1364.29 36.8183   2
   2   8   0 1294.10 34.9741  12
   2   8   0 1329.77 34.6801  13
   2   8   0 1334.86 34.4672   7
  -2   8   0 1374.44 34.9726  13
   2   8   0 1334.53 35.9765  14
   2   8   0 1369.81 35.1120   3
  -2   8   0 1365.89 35.1159   3
  -4  -8   0 723.366 21.4593   6
   4  -8   0 655.272 25.1526  10
  -4  -8   0 647.393 20.6432  11
   4  -8   0 708.003 21.7228   2
  -4   8   0 676.664 19.9794   3
   4   8   0 653.888 19.4820  13
   4   8   0 631.566 20.8636  14
   4   8   0 634.961 19.4896   3
  -4   8   0 688.315 19.9808  13
   4   8   0 646.346 19.8070  12
   6  -8   0 521.100 17.9260   2
  -6  -8   0 489.001 17.5431   6
   6  -8   0 481.830 16.6509   4
  -6  -8   0 462.980 17.6542  11
   6   8   0 460.957 18.0443  14
   6   8   0 454.535 16.1211  12
  -6   8   0 492.627 16.5595  13
  -6   8   0 480.275 18.5440   1
   6   8   0 457.233 15.9520   3
   6   8   0 468.068 15.8409  13
  -8  -8   0 266.355 13.1082  11
  -8  -8   0 259.836 12.3497   6
   8  -8   0 231.729 11.7863   4
  -8   8   0 257.717 13.5397  11
  -8   8   0 252.101 14.3860   1
   8   8   0 263.232 11.3522   3
  -1  -9   0 77.4832 5.78431   6
   1  -9   0 72.7402 4.90421   6
   1  -9   0 71.5240 6.06204   2
  -1  -9   0 79.9489 5.34768   2
   1   9   0 86.1595 5.45586   3
   1   9   0 79.2362 5.53504  14
   1   9   0 78.7116 4.78946  13
  -1   9   0 77.8249 4.84053  13
  -1   9   0 76.0036 5.31834   3
  -3  -9   0 19.2375 3.19751  11
   3  -9   0 16.6205 3.99645  10
  -3  -9   0 18.0922 3.79978   6
   3  -9   0 20.4109 4.11501   2
   3   9   0 21.1955 2.92292  12
   3   9   0 21.7332 3.64066  14
   3   9   0 17.1998 2.70357   7
  -3   9   0 20.6690 3.03941  13
   3   9   0 20.3725 3.32631   3
   3   9   0 24.6863 3.00706  13
  -3   9   0 26.4039 3.62690   3
   5  -9   0 63.3703 6.66740   2
  -5  -9   0 60.9685 6.28596   6
  -5  -9   0 65.1460 5.88558  11
   5   9   0 68.5688 6.35119  14
   5   9   0 58.4701 5.12920  12
   5   9   0 66.2813 5.71075   3
   5   9   0 61.2600 4.56628  13
  -5   9   0 71.8879 6.13069   3
  -5   9   0 62.5304 6.65156   1
  -5   9   0 65.1253 4.99914  13
   7  -9   0 3.58522 2.56701   2
  -7  -9   0 0.60109 3.11548   6
  -7   9   0 7.11988 4.25771  11
   7   9   0 6.82489 3.04752   3
  -7   9   0 2.50630 4.03144   1
   0 -10   0 15.0781 2.92563   2
   0 -10   0 8.81291 2.39572   6
   0  10   0 7.18795 2.64658   3
   0  10   0 6.39833 2.01958  13
  -2 -10   0 1730.32 45.6611   2
   2 -10   0 1745.85 47.5407   2
  -2 -10   0 1772.69 46.8991   6
   2  10   0 1685.01 46.2752  14
  -2  10   0 1703.79 44.9461  13
  -2  10   0 1742.92 45.5375   3
   2  10   0 1756.07 45.4614   3
   4 -10   0 10.1526 4.13536   2
  -4 -10   0 11.0919 3.85156   6
  -4  10   0 16.0390 3.00404  13
   4  10   0 14.6979 3.34725   3
   4  10   0 9.94248 2.36756  13
  -4  10   0 21.5162 4.61657   1
   4  10   0 13.2109 3.61082  14
  -4  10   0 10.2459 3.14277   3
  -6 -10   0 1104.12 33.6963   6
   6 -10   0 1079.39 33.7250   2
   6  10   0 1058.07 31.3641   3
  -6  10   0 1103.90 34.9724   1
  -8 -10   0 34.3714 6.53716   6
   8  10   0 33.7177 5.49098   3
  -1 -11   0 212.543 10.5777   6
   1 -11   0 216.110 9.83649   6
   1 -11   0 221.115 11.4623   2
  -1 -11   0 217.033 10.5277   2
  -1  11   0 212.069 9.29347  13
   1  11   0 203.128 9.58333   3
  -1  11   0 204.438 9.57988   3
   1  11   0 214.738 9.08249  13
  -3 -11   0 169.472 10.2919   6
   3 -11   0 178.921 10.7922   2
  -3  11   0 177.303 8.62504  13
   3  11   0 166.757 9.51595  14
  -3  11   0 173.654 9.15165   3
   3  11   0 154.339 8.77058   3
  -5 -11   0 171.941 10.7981   6
   5 -11   0 180.845 11.4891   2
  -5  11   0 171.478 11.2178   1
   5  11   0 167.424 9.31267   3
  -7 -11   0 84.3919 8.57240   6
  -7  11   0 67.4878 8.55043   1
   7  11   0 76.3918 6.07821   3
   0 -12   0 400.790 15.7718   6
   0 -12   0 407.117 16.6862   2
   0  12   0 449.696 16.1555   3
   2 -12   0 358.589 15.8346   2
  -2 -12   0 318.165 14.6109   6
   2  12   0 342.146 13.9182   3
  -2  12   0 330.265 13.9813   3
  -2  12   0 340.918 13.0841  13
   4 -12   0 362.972 16.0671   2
  -4 -12   0 353.083 16.1345   6
  -4  12   0 328.212 14.2442   3
  -4  12   0 363.734 16.5242   1
   4  12   0 340.162 13.9511   3
   6  12   0 228.514 12.5961   3
  -1 -13   0 4.59908 2.74380   6
   1 -13   0 3.24816 2.40772   2
   1  13   0 8.91170 3.43906   3
  -1  13   0 4.51318 3.39515   3
  -3 -13   0 12.2191 4.79850   6
   3 -13   0 4.70720 3.83586   2
  -3  13   0 6.99830 3.71843   3
   3  13   0 7.43926 3.25918   3
   0 -14   0 329.268 14.9395   2
   0  14   0 335.343 14.6838   3
 -10   0   1 3.18282 2.77197   8
 -10   0   1 0.20240 2.24368   1
  10   0  -1 -1.6869 3.20243   4
 -10   0   1 2.45827 4.02678  11
  10   0  -1 0.57637 1.61569  14
   8   0  -1 3.44139 2.29944  10
   8   0  -1 -0.5276 1.71556  14
  -8   0   1 2.17684 2.28733   1
  -8   0   1 0.97448 1.65230   5
  -8   0   1 1.18986 2.03243  11
  -8   0   1 1.14329 2.00733   8
   8   0  -1 2.41163 1.63059  12
   8   0  -1 4.42562 2.19335   4
  -6   0   1 1.91273 1.51136   1
  -6   0   1 -0.1656 1.20232   5
  -6   0   1 0.02589 0.95861   8
   6   0  -1 1.06858 1.59807   4
  -6   0   1 0.36208 1.14686  16
   6   0  -1 2.95533 1.56543  14
   6   0  -1 4.50487 1.43187  12
   6   0  -1 4.13183 2.08004  10
  -6   0   1 1.06297 1.63913  11
   4   0  -1 0.10173 0.41589  12
   4   0  -1 0.49407 1.00345   4
  -4   0   1 -0.4444 0.74474  16
   4   0  -1 0.17193 0.58297  14
  -4   0   1 -0.2497 0.76456   5
  -4   0   1 -0.1436 0.79311   1
  -4   0   1 0.79121 0.99874  11
  -4   0   1 1.18343 0.70590   8
   4   0  -1 0.62925 1.29153  10
   2   0  -1 13.0265 1.24563   4
  -2   0  -1 0.07511 0.44395   5
  -2   0  -1 0.47511 0.67700   1
  -2   0  -1 0.88901 0.56132   8
   2   0   1 0.50805 0.28641  12
  -2   0  -1 0.84027 0.72795  11
  -2   0  -1 0.50229 0.59677   7
   2   0   1 0.95026 0.72108  10
  -4   0  -1 1.70858 0.97097   5
   4   0   1 1.36363 1.20565  14
  -4   0  -1 2.07388 0.89646   8
  -4   0  -1 1.78825 1.07679  11
   4   0   1 4.62737 1.59651   4
   4   0   1 -0.0348 0.64694  12
   4   0   1 7.12544 2.31456  10
   4   0   1 0.19906 0.41116   2
  -4   0  -1 0.55535 1.18975   1
  -6   0  -1 0.99648 1.48208   1
  -6   0  -1 2.70393 1.45304   5
  -6   0  -1 1.30692 1.52473   8
   6   0   1 1.72030 1.21762  12
   6   0   1 -1.7358 1.81895   4
   6   0   1 0.67835 1.59087  14
   6   0   1 -0.3407 1.92522  10
  -6   0  -1 5.71467 2.47198  11
  -8   0  -1 2.90098 3.10034  11
   8   0   1 1.94299 1.78012  12
  -8   0  -1 2.03410 2.92366   1
   8   0   1 7.66497 3.10454  14
   8   0   1 0.50991 2.89046   4
 -10   0  -1 -1.5663 2.38655   1
 -10   0  -1 0.06050 3.59121  11
  10   0   1 -0.1756 2.00195  12
  10   0   1 4.11603 3.74926   4
  11  -1  -1 270.068 13.5895   4
 -11  -1   1 298.341 16.3986  11
  11   1  -1 290.293 14.4608   4
 -11   1   1 273.930 13.5008   1
 -11   1   1 290.431 15.7158  11
  -9  -1   1 405.835 15.6096   1
   9  -1  -1 419.184 16.3485   4
   9  -1  -1 416.171 15.8810  14
   9  -1  -1 415.213 14.7849  12
  -9  -1   1 432.324 18.0276  11
  -9  -1   1 425.611 15.1331   8
  -9   1   1 425.824 15.0111   8
  -9   1   1 434.574 18.1135  11
   9   1  -1 407.715 14.7380  12
   9   1  -1 412.723 16.2771   4
  -9   1   1 417.643 16.2765   1
   9   1  -1 405.978 15.9293  14
   7  -1  -1 1186.79 38.0420  10
  -7  -1   1 1223.25 34.6833  11
   7  -1  -1 1203.46 33.1650  14
   7  -1  -1 1218.40 33.4766   4
   7  -1  -1 1192.88 32.1094  12
  -7  -1   1 1252.46 32.4732   8
  -7  -1   1 1230.22 33.1601   1
  -7  -1   1 1187.76 33.4388   5
  -7  -1   1 1253.47 33.3406  16
  -7   1   1 1229.57 34.7721  11
  -7   1   1 1235.91 32.2808   8
   7   1  -1 1193.28 32.0159  12
   7   1  -1 1224.36 33.7703  14
  -7   1   1 1242.61 33.4847   1
   7   1  -1 1187.06 36.5911  10
  -7   1   1 1245.54 32.2868  16
   7   1  -1 1253.96 33.6097   4
  -7   1   1 1206.98 32.4911   5
  -5  -1   1 1362.42 35.0702   1
   5  -1  -1 1414.49 35.6794   4
   5  -1  -1 1368.25 33.8094   2
  -5  -1   1 1390.76 35.6100  16
  -5  -1   1 1350.53 35.7797   5
   5  -1  -1 1356.47 34.6357  12
   5  -1  -1 1408.35 39.3887  10
  -5  -1   1 1440.33 36.4444  11
  -5  -1   1 1407.04 34.7906   8
   5  -1  -1 1392.87 35.3329  14
   5   1  -1 1378.14 34.6511  12
  -5   1   1 1397.29 36.2238  11
   5   1  -1 1388.11 38.2395  10
  -5   1   1 1400.35 35.4767   1
   5   1  -1 1385.25 35.6934  14
  -5   1   1 1384.62 35.0169   5
   5   1  -1 1408.44 35.5722   4
  -5   1   1 1418.04 34.8464  16
   5   1  -1 1366.28 33.7427   9
  -5   1   1 1391.82 34.6725   8
  -3  -1   1 5069.34 118.870   1
  -3  -1   1 4767.85 120.888  16
  -3  -1   1 4652.62 117.488  11
  -3  -1   1 4815.20 117.573   8
   3  -1  -1 4867.44 121.036   4
  -3  -1   1 4797.37 118.790   5
   3  -1  -1 5001.70 134.183  10
  -3  -1   1 4943.78 127.485  10
   3  -1  -1 4884.85 117.269  12
   3  -1  -1 4817.97 115.085   2
  -3   1   1 4929.28 116.294   8
   3   1  -1 4887.88 117.328   9
  -3   1   1 4771.10 123.714  10
  -3   1   1 4877.73 117.111   1
  -3   1   1 4781.26 118.626   5
  -3   1   1 4743.57 117.648  13
   3   1  -1 4789.97 117.597  14
   3   1  -1 4835.46 117.844   4
   3   1  -1 5020.21 118.669  12
  -3   1   1 4910.19 119.823  16
   3   1  -1 4987.51 126.892  10
  -1  -1   1 2416.45 60.9707  16
   1  -1  -1 2416.58 64.7213  10
   1   1  -1 2619.64 60.4482  14
  -1   1   1 2434.77 59.4244  13
  -1   1   1 2296.00 63.5006  10
  -1  -1  -1 7025.36 177.721   5
   1  -1   1 7165.19 174.973   2
   1  -1   1 6773.54 182.801  10
  -1  -1  -1 8292.70 177.447   1
  -1  -1  -1 8139.44 178.531  11
  -1  -1  -1 6941.05 173.710   6
   1  -1   1 6865.33 172.168  12
   1   1   1 8083.79 177.982  14
   1   1   1 7482.89 176.818   4
  -1   1  -1 7332.81 177.065   1
  -1   1  -1 7183.03 176.313  11
  -1   1  -1 6802.38 184.038  10
  -1   1  -1 7591.41 175.146   7
  -3  -1  -1 694.394 18.2710   8
  -3  -1  -1 678.399 18.9951   1
  -3  -1  -1 713.378 19.0858   5
   3  -1   1 758.098 21.7081  10
  -3  -1  -1 722.758 20.3889  10
  -3  -1  -1 690.062 17.7678   6
   3  -1   1 729.888 17.8292  12
  -3  -1  -1 681.989 19.4695  11
   3  -1   1 711.773 17.8588   2
   3  -1   1 724.870 18.9761   4
  -3   1  -1 714.894 19.3441  11
   3   1   1 721.983 17.7111  12
  -3   1  -1 707.566 18.7302   7
  -3   1  -1 703.707 18.0200   8
  -3   1  -1 693.642 17.8278   5
  -3   1  -1 694.343 19.0864   1
   3   1   1 719.420 18.7604   4
   3   1   1 700.906 19.0914  14
   3   1   1 727.390 20.3353  10
  -5  -1  -1 2768.16 67.2581   1
   5  -1   1 2744.71 65.2103  12
   5  -1   1 2706.40 66.9919  14
  -5  -1  -1 2693.79 65.8281   8
  -5  -1  -1 2619.33 66.7102   5
   5  -1   1 2752.96 66.9524   4
  -5  -1  -1 2527.96 64.3243   6
  -5  -1  -1 2760.35 68.2692  11
   5  -1   1 2728.51 70.9519  10
   5   1   1 2717.38 65.1663  12
   5   1   1 2817.49 66.8340   4
   5   1   1 2738.63 67.2699  14
   5   1   1 2700.57 69.4314  10
  -5   1  -1 2720.99 67.8998  11
  -5   1  -1 2728.03 67.2020   1
  -5   1  -1 2749.42 65.5855   8
  -7  -1  -1 157.204 7.99800   5
   7  -1   1 156.249 10.7752  10
   7  -1   1 166.134 8.89852   4
   7  -1   1 164.041 7.27664  12
   7  -1   1 156.000 8.26327  14
  -7  -1  -1 158.275 8.49068   1
  -7  -1  -1 150.576 9.49307  11
   7   1   1 180.586 9.07458  14
  -7   1  -1 161.043 9.14449   1
  -7   1  -1 160.726 7.47226   8
   7   1   1 162.024 7.16199  12
   7   1   1 146.990 9.74510  10
   7   1   1 157.458 8.37863   4
  -7   1  -1 158.619 9.15294  11
  -9  -1  -1 856.092 27.8264   1
   9  -1   1 800.903 24.8811  12
   9  -1   1 788.142 26.6831  14
   9  -1   1 851.392 27.1995   4
  -9  -1  -1 863.306 29.7641  11
   9   1   1 803.136 27.2496  14
   9   1   1 827.206 25.0945  12
  -9   1  -1 832.794 29.2898  11
   9   1   1 877.735 27.2299   4
  -9   1  -1 823.612 27.9181   1
 -10  -2   1 101.239 9.65228  11
 -10  -2   1 100.432 7.28155   1
  10  -2  -1 103.268 7.27407  14
  10  -2  -1 116.033 8.80973   4
 -10   2   1 113.295 8.90078   1
  10   2  -1 116.915 9.02010   4
  10   2  -1 109.758 8.39386  14
 -10   2   1 113.501 9.72803  11
 -10   2   1 122.223 7.29565   8
   8  -2  -1 324.826 12.7446  14
  -8  -2   1 340.315 13.8693   5
  -8  -2   1 333.589 12.4221   8
  -8  -2   1 342.676 13.1773  16
  -8  -2   1 331.559 14.5649  11
   8  -2  -1 342.749 13.6227   4
   8  -2  -1 330.476 12.0674  12
  -8  -2   1 328.314 12.9407   1
   8   2  -1 344.260 13.5034   4
  -8   2   1 353.852 13.5978   1
   8   2  -1 336.666 12.2091  12
  -8   2   1 335.080 12.2113   8
  -8   2   1 361.109 14.7808  11
   8   2  -1 317.351 15.3212  10
   8   2  -1 327.132 13.5454  14
   6  -2  -1 392.683 11.5548   2
  -6  -2   1 395.235 12.7510   1
   6  -2  -1 389.151 13.3237   4
   6  -2  -1 429.993 13.0471  14
  -6  -2   1 400.202 13.8305   5
  -6  -2   1 399.685 12.5279   8
   6  -2  -1 392.864 12.3347  12
  -6  -2   1 383.184 13.9132  11
  -6  -2   1 400.321 13.5496  16
   6  -2  -1 381.315 16.7543  10
  -6   2   1 404.508 14.1576  11
  -6   2   1 393.282 11.8846  16
   6   2  -1 414.607 13.3444   4
  -6   2   1 396.798 13.3330   1
   6   2  -1 381.436 15.0250  10
  -6   2   1 402.239 12.3393   8
   6   2  -1 402.319 12.4286  12
   6   2  -1 406.679 13.7094  14
  -6   2   1 372.884 11.9830   5
  -4  -2   1 1157.75 31.1962  10
   4  -2  -1 1188.35 33.1417  10
  -4  -2   1 1164.85 28.9213   8
  -4  -2   1 1153.23 29.9153  11
   4  -2  -1 1138.12 29.4008   4
  -4  -2   1 1121.04 30.1493   5
   4  -2  -1 1146.10 28.8628  12
  -4  -2   1 1161.46 29.1166   1
  -4  -2   1 1146.11 29.9893  16
   4  -2  -1 1157.83 28.8666   2
   4   2  -1 1180.56 29.9067  14
   4   2  -1 1142.49 28.8549  12
   4   2  -1 1179.40 29.4448   4
  -4   2   1 1165.11 28.7239   8
  -4   2   1 1186.87 28.9294  13
   4   2  -1 1124.08 30.9114  10
   4   2  -1 1149.34 27.7353   9
  -4   2   1 1183.80 29.5411   1
  -4   2   1 1150.95 28.6863   5
  -4   2   1 1196.50 28.6338  16
  -2  -2   1 2807.16 65.4686   8
   2  -2  -1 2762.87 65.6968  12
  -2  -2   1 2802.49 67.3533  11
   2  -2  -1 2751.39 66.8130   6
  -2  -2   1 2970.80 70.8625  10
   2  -2  -1 2695.12 66.9293   4
  -2  -2   1 2824.76 68.8702  16
   2  -2  -1 2733.81 66.0546   2
   2  -2  -1 2898.20 73.5953  10
  -2  -2   1 3019.83 68.0487   1
  -2  -2   1 2808.34 66.5961   5
   2   2  -1 2798.34 66.4071   3
  -2   2   1 2726.13 65.5391  12
   2   2  -1 2923.04 68.4499  14
   2   2  -1 2945.85 67.0581  12
  -2   2   1 2737.09 65.5134   8
   2   2  -1 2838.25 67.3915   4
  -2   2   1 2652.95 67.3629  13
  -2   2   1 2688.97 66.3811   3
  -2   2   1 2839.13 67.8164   7
  -2   2   1 2685.91 67.7622  10
   0  -2  -1 2551.00 62.8408   6
   0  -2   1 2634.33 64.1673  12
   0  -2   1 2698.65 70.2415  10
   0  -2   1 2666.25 63.2932   2
   0  -2  -1 2569.43 64.5435  11
   0  -2  -1 2493.69 62.4199   2
   0  -2   1 2613.04 63.0417  16
   0   2   1 2696.80 65.2058  14
   0   2  -1 2612.47 63.4866  13
   0   2   1 2766.15 61.4579  13
   0   2   1 2590.08 64.4213  10
   0   2  -1 2695.51 63.6864   7
   0   2   1 2658.37 64.0118  12
   0   2  -1 2528.23 62.1004   3
   0   2   1 2625.83 62.2338   3
  -2  -2  -1 3253.74 76.1077   5
   2  -2   1 3083.16 77.1964  12
  -2  -2  -1 3320.36 83.1670  10
   2  -2   1 3099.77 75.1546   2
   2  -2   1 3173.71 84.1155  10
  -2  -2  -1 3359.95 76.0058  11
  -2  -2  -1 3247.43 75.5753   1
  -2  -2  -1 3117.59 74.9329   6
  -2  -2  -1 3130.59 76.0077  15
  -2   2  -1 3119.66 77.8862  10
   2   2   1 3166.57 76.6719   4
   2   2   1 3238.27 77.4816  12
  -2   2  -1 3167.21 75.4054   8
   2   2   1 3292.61 75.7253  14
  -2   2  -1 3126.96 76.8831  13
   2   2   1 3366.76 82.8733  10
  -2   2  -1 3100.56 75.1815   7
  -2   2  -1 3079.27 75.4998   1
   4  -2   1 1020.05 30.4225  10
   4  -2   1 994.756 26.7330   4
   4  -2   1 1018.60 25.6062   2
  -4  -2  -1 970.195 26.7439   1
  -4  -2  -1 1021.55 27.4271   5
  -4  -2  -1 978.294 25.5329   6
   4  -2   1 1019.61 25.4949  12
  -4  -2  -1 1000.02 27.7583  11
   4   2   1 1025.64 25.4376  12
   4   2   1 1030.84 27.2634  14
  -4   2  -1 1011.90 27.4049  11
   4   2   1 1024.54 27.9266  10
  -4   2  -1 1024.97 26.4905   7
  -4   2  -1 990.469 27.1022   1
  -4   2  -1 1020.08 25.5674   8
   4   2   1 1010.64 26.4044   4
   6  -2   1 641.249 20.2768  14
  -6  -2  -1 678.390 21.9565  11
  -6  -2  -1 651.610 20.5726   1
  -6  -2  -1 652.521 20.8044   5
   6  -2   1 659.770 24.6783  10
   6  -2   1 651.114 18.7579  12
   6  -2   1 692.311 20.8025   4
  -6   2  -1 668.902 18.9850   8
  -6   2  -1 655.035 21.1110   1
  -6   2  -1 667.529 21.4875  11
   6   2   1 674.342 20.9587  14
   6   2   1 655.516 19.8898   4
   6   2   1 657.715 22.2424  10
   6   2   1 749.000 19.1573  12
  -8  -2  -1 411.665 16.4254   1
   8  -2   1 401.138 15.9986  14
   8  -2   1 430.660 16.3600   4
   8  -2   1 419.279 14.6042  12
  -8  -2  -1 434.993 18.1308  11
   8   2   1 425.224 16.5984  14
  -8   2  -1 407.049 14.5803   8
   8   2   1 431.224 14.7423  12
  -8   2  -1 430.428 17.9679  11
   8   2   1 434.717 16.1657   4
  -8   2  -1 444.661 17.5865   1
  10  -2   1 165.979 10.3192   4
  10  -2   1 151.272 8.59325  12
 -10  -2  -1 161.604 12.2229  11
 -10  -2  -1 158.848 10.0756   1
  10   2   1 162.957 10.4934   4
  10   2   1 156.362 8.52041  12
 -10   2  -1 168.137 12.1179  11
 -10   2  -1 172.272 11.7964   1
 -11  -3   1 90.6552 9.71527  11
  11  -3  -1 114.342 9.22262   4
 -11   3   1 75.4201 7.96735   1
 -11   3   1 93.1816 9.44236  11
  11   3  -1 106.604 9.03126   4
 -11   3   1 91.0424 6.49524   8
  -9  -3   1 1161.66 36.0104  11
   9  -3  -1 1124.15 32.6223  12
  -9  -3   1 1154.91 35.3567   5
   9  -3  -1 1082.30 32.9564  14
   9  -3  -1 1173.22 34.3751   4
   9   3  -1 1208.49 34.1770   4
  -9   3   1 1146.52 34.5822   1
  -9   3   1 1178.75 32.4141   8
  -9   3   1 1190.88 36.6087  11
   9   3  -1 1116.24 32.4075  12
   9   3  -1 1148.14 34.6996  14
  -7  -3   1 203.298 9.92763  11
   7  -3  -1 207.781 9.51929   4
  -7  -3   1 203.141 10.0803   5
  -7  -3   1 201.126 9.49915  16
  -7  -3   1 210.423 8.78785   8
  -7  -3   1 206.928 8.85702   1
   7  -3  -1 192.309 8.53731  14
   7  -3  -1 205.259 12.5601  10
   7  -3  -1 201.801 8.27345  12
  -7   3   1 219.386 10.4631  11
  -7   3   1 203.404 8.30637   8
   7   3  -1 212.111 9.35476   4
  -7   3   1 224.511 9.95802   1
   7   3  -1 198.373 8.29763  12
   7   3  -1 198.023 9.60598  14
  -5  -3   1 2381.03 59.0667  16
   5  -3  -1 2372.02 57.4095  12
  -5  -3   1 2299.99 59.3351   5
  -5  -3   1 2356.87 57.3744   8
  -5  -3   1 2362.25 57.6785   1
   5  -3  -1 2380.18 63.2536  10
   5  -3  -1 2391.49 57.4905   2
  -5  -3   1 2386.23 58.9338  11
   5  -3  -1 2354.38 58.1315   4
  -5   3   1 2334.10 56.4382  16
  -5   3   1 2374.67 57.1049   8
   5   3  -1 2349.98 57.3937  12
   5   3  -1 2322.81 57.9495   4
  -5   3   1 2332.64 57.3434  13
   5   3  -1 2406.93 58.9122  14
  -5   3   1 2404.63 58.4488   1
   3  -3  -1 951.454 27.1922  10
  -3  -3   1 956.070 23.6054   8
   3  -3  -1 942.116 23.9624   4
  -3  -3   1 966.198 24.9126  10
   3  -3  -1 956.687 23.8992  12
  -3  -3   1 962.997 23.8540   1
  -3  -3   1 983.326 25.1113  16
  -3  -3   1 993.843 24.4410  11
  -3  -3   1 969.113 25.2770   5
   3  -3  -1 931.402 24.3724   2
  -3  -3   1 930.181 23.0253   2
   3  -3  -1 967.292 22.9337   6
  -3   3   1 892.910 23.4025   8
   3   3  -1 984.174 24.8315  14
   3   3  -1 947.580 23.4496   3
   3   3  -1 949.287 24.0051   4
  -3   3   1 949.353 23.5720  12
  -3   3   1 922.782 23.8442  13
  -3   3   1 914.234 23.4138   7
  -3   3   1 916.552 23.4439   3
  -3   3   1 956.143 23.3781  16
   3   3  -1 964.740 23.8002  12
   1  -3  -1 3021.11 72.4521   2
  -1  -3   1 2987.24 73.1900  12
  -1  -3   1 3023.30 74.7883   5
  -1  -3   1 3059.06 75.0632  16
   1  -3  -1 3018.15 75.2425  10
  -1  -3   1 3052.50 72.2162   2
   1  -3  -1 3140.61 73.4959   6
   1   3  -1 3143.11 71.7511   3
  -1   3   1 2999.40 75.2115  14
   1   3  -1 3091.37 72.4322  14
  -1   3   1 3167.85 73.1800   3
  -1   3   1 3007.34 78.1471  10
   1   3  -1 3127.94 75.2451  13
   1   3  -1 3083.83 71.8742  12
   1   3  -1 3122.10 73.5910   4
  -1   3   1 3002.04 73.0848  12
  -1   3   1 3161.51 72.0697  13
  -1  -3  -1 2484.09 59.8268   5
  -1  -3  -1 2463.68 59.3428  11
  -1  -3  -1 2398.96 58.3205   2
   1  -3   1 2472.70 59.2991   2
   1  -3   1 2574.98 61.4307  10
  -1  -3  -1 2470.15 59.0317   6
  -1  -3  -1 2297.36 58.9127  15
   1  -3   1 2480.45 58.4790  12
  -1   3  -1 2489.12 58.6200   3
   1   3   1 2541.94 59.0659  14
  -1   3  -1 2567.21 58.8323   7
   1   3   1 2528.68 58.3874  12
  -1   3  -1 2492.78 60.9788  10
  -1   3  -1 2518.08 58.4747  13
   1   3   1 2498.40 58.5528   3
  -3  -3  -1 2989.97 73.0063   5
  -3  -3  -1 3158.99 72.8452  11
  -3  -3  -1 3052.59 71.6384  10
  -3  -3  -1 2936.60 71.3614   6
   3  -3   1 2932.85 70.9415  12
   3  -3   1 2913.91 71.6533   2
  -3  -3  -1 2981.72 70.0528  15
   3  -3   1 2923.31 75.7522  10
  -3  -3  -1 3001.84 72.0036   1
  -3   3  -1 2853.23 72.1035   1
  -3   3  -1 2895.86 70.4405   8
  -3   3  -1 2983.00 71.2671  13
   3   3   1 3182.86 70.8923  12
  -3   3  -1 2966.65 71.6149   7
   3   3   1 2996.71 73.8821  10
   3   3   1 2971.77 71.1384   4
   3   3   1 3201.06 72.5801  14
  -5  -3  -1 931.639 27.6687   5
   5  -3   1 960.852 25.4204   2
   5  -3   1 975.868 31.6598  10
  -5  -3  -1 933.389 25.5297   6
   5  -3   1 980.202 27.0081   4
  -5  -3  -1 975.026 26.9936   1
   5  -3   1 1000.36 25.6424  12
  -5  -3  -1 931.827 27.6872  11
   5   3   1 978.228 27.5063  14
   5   3   1 992.298 26.2717   4
   5   3   1 983.156 25.4556  12
   5   3   1 936.699 27.3159  10
  -5   3  -1 976.191 25.2589   8
  -5   3  -1 971.741 27.4769   1
  -5   3  -1 990.154 26.5345   7
  -5   3  -1 979.234 27.7405  11
  -7  -3  -1 1189.54 35.8536  11
  -7  -3  -1 1198.70 35.2343   5
   7  -3   1 1245.50 34.6330   4
   7  -3   1 1146.85 33.9252  14
   7  -3   1 1191.23 32.4314  12
  -7  -3  -1 1253.35 34.6812   1
   7   3   1 1186.78 32.4356  12
  -7   3  -1 1254.27 36.0934  11
  -7   3  -1 1233.40 35.4291   1
   7   3   1 1190.76 34.8406  14
  -7   3  -1 1222.56 32.2856   8
   7   3   1 1221.83 33.7664   4
  -9  -3  -1 275.737 12.8313   1
  -9  -3  -1 263.861 14.6510  11
   9  -3   1 251.540 12.2124  14
   9  -3   1 267.781 13.3168   4
   9  -3   1 246.066 10.9245  12
  -9   3  -1 285.253 14.0238   1
   9   3   1 268.728 13.3444  14
   9   3   1 266.453 11.1857  12
  -9   3  -1 287.801 14.9807  11
   9   3   1 253.648 12.4875   4
  10  -4  -1 67.6179 6.58320   4
 -10  -4   1 80.9665 7.92814   5
 -10  -4   1 62.8152 8.00091  11
 -10   4   1 58.8455 7.23104   1
 -10   4   1 68.2103 7.29546  11
  10   4  -1 64.5261 7.25782   4
  10   4  -1 58.6178 6.32765   3
 -10   4   1 58.1145 5.52191   8
  -8  -4   1 268.831 12.5791  11
  -8  -4   1 302.388 11.9481   1
  -8  -4   1 281.740 13.5525   5
   8  -4  -1 275.045 12.1334   4
   8  -4  -1 260.842 11.2047  14
   8  -4  -1 273.659 11.0984  12
  -8  -4   1 278.734 10.9657   6
  -8  -4   1 293.619 13.0150  16
   8   4  -1 274.104 10.2716   3
  -8   4   1 287.437 13.0663   1
  -8   4   1 294.926 13.6720  11
   8   4  -1 279.671 12.7342  14
  -8   4   1 281.230 10.8086   8
   8   4  -1 283.890 12.1928   4
   8   4  -1 267.056 10.8005  12
   6  -4  -1 85.3615 4.86928   2
   6  -4  -1 74.3370 7.11922  10
  -6  -4   1 79.0254 6.20702   5
   6  -4  -1 82.1697 4.70243  12
   6  -4  -1 77.9435 5.31720   4
  -6  -4   1 73.3416 5.46459  16
  -6  -4   1 79.3078 5.72095  11
  -6  -4   1 81.7568 4.96864   1
  -6   4   1 85.0635 4.75627  13
  -6   4   1 86.5334 5.45594   1
   6   4  -1 79.6362 5.09860   4
  -6   4   1 82.4133 4.55427   8
   6   4  -1 77.7855 4.52907  12
   6   4  -1 87.8493 4.48976   3
   6   4  -1 84.1088 5.79674  14
   4  -4  -1 273.551 9.09022   4
  -4  -4   1 256.209 10.3295  10
   4  -4  -1 263.561 7.43664   6
  -4  -4   1 304.687 10.5601  16
  -4  -4   1 278.439 10.5568   5
   4  -4  -1 268.743 8.85744  12
  -4  -4   1 263.637 8.80065   1
   4  -4  -1 285.101 9.52937   2
   4  -4  -1 275.432 12.4825  10
  -4  -4   1 287.630 9.55089  11
   4   4  -1 282.369 9.93698  14
  -4   4   1 279.387 8.99373  13
  -4   4   1 269.259 9.52284   1
   4   4  -1 273.929 9.01798   4
   4   4  -1 272.055 8.48015   3
  -4   4   1 274.245 8.43405   8
  -4   4   1 267.581 8.25457   5
   4   4  -1 296.150 9.06700  12
  -4   4   1 276.133 8.59386   7
  -4   4   1 270.117 8.42296   3
  -4   4   1 271.927 7.92684  16
   2  -4  -1 260.011 7.58347  12
   2  -4  -1 269.038 9.86481  10
  -2  -4   1 240.670 7.50911   2
  -2  -4   1 255.718 8.67887   5
   2  -4  -1 242.571 7.17363   6
   2  -4  -1 249.739 8.24422   2
  -2  -4   1 235.020 7.40880  11
   2  -4  -1 234.468 7.04352   4
  -2  -4   1 251.301 7.43959  12
  -2  -4   1 241.239 8.35938  16
   2   4  -1 244.521 7.12929  13
  -2   4   1 246.241 7.34404   3
   2   4  -1 238.624 7.33277   3
   2   4  -1 248.865 7.52068   4
   2   4  -1 243.277 7.48692  12
   2   4  -1 241.421 8.11601  14
  -2   4   1 250.746 9.36664  10
  -2   4   1 249.076 6.89727   7
  -2   4   1 251.088 7.44934  12
  -2   4   1 244.997 7.14772   8
  -2   4   1 257.811 7.67920  13
   0  -4  -1 1.36448 0.86488   6
   0  -4   1 1.04279 0.66658   5
   0  -4  -1 0.90998 0.63953   2
   0  -4  -1 2.01603 0.87429  11
   0  -4   1 1.94591 1.05293   2
   0  -4   1 2.87124 1.13095  10
   0  -4   1 0.71073 0.47063  12
   0   4   1 1.71867 0.66308  12
   0   4   1 1.29502 0.66822  14
   0   4   1 1.54133 0.75848   3
   0   4  -1 1.32551 0.61212  13
   0   4  -1 1.41232 0.78794  14
   0   4  -1 3.52580 0.87294   7
   2  -4   1 237.107 10.2068  10
   2  -4   1 241.242 7.37618  12
  -2  -4  -1 231.982 8.68921   5
   2  -4   1 240.529 8.29789   2
   2  -4   1 233.933 6.34014   6
  -2  -4  -1 217.276 8.05576  11
  -2  -4  -1 231.180 7.83340   6
  -2  -4  -1 226.869 6.72232   2
  -2  -4  -1 220.812 6.36999  15
   2   4   1 239.673 7.24744  12
   2   4   1 242.173 8.05099  14
  -2   4  -1 230.275 6.47276   8
   2   4   1 230.609 6.82523   4
  -2   4  -1 240.417 7.57472   7
  -2   4  -1 236.181 7.33911  13
  -2   4  -1 239.773 7.47624   3
   2   4   1 227.149 7.27626   3
   4  -4   1 13.8174 1.89432  12
   4  -4   1 9.12248 3.14091  10
  -4  -4  -1 6.28348 1.71335   6
   4  -4   1 0.34278 1.37696   2
  -4  -4  -1 1.29366 1.48753   1
  -4  -4  -1 4.88526 2.20940   5
  -4  -4  -1 -0.0946 1.37233  11
   4   4   1 -0.2741 1.46809  14
   4   4   1 5.52470 1.46204   4
  -4   4  -1 10.5708 2.38016   1
  -6  -4  -1 31.2041 3.63410   6
   6  -4   1 30.4693 3.28205   2
   6  -4   1 32.8898 5.71853  10
  -6  -4  -1 27.9034 4.15383  11
  -6  -4  -1 30.1747 4.33829   5
  -6  -4  -1 32.9682 4.33747   1
   6  -4   1 33.4119 3.49002  12
   6  -4   1 29.1878 3.86284   4
  -6   4  -1 31.5188 4.59494   1
   6   4   1 33.2958 3.40234  12
  -6   4  -1 32.0327 4.39584  11
  -6   4  -1 35.1432 3.27582   8
   6   4   1 33.7893 3.85515   4
   6   4   1 28.6786 3.97635  14
   8  -4   1 16.7508 3.10771  12
  -8  -4  -1 20.3138 4.94206  11
   8  -4   1 21.5556 4.70501   4
  -8  -4  -1 28.5029 4.44011   1
   8  -4   1 25.4938 3.94956  14
  -8   4  -1 19.4229 4.56227  11
   8   4   1 27.9513 4.45456   4
  -8   4  -1 18.1796 3.04526   8
   8   4   1 22.3571 4.45977  14
   8   4   1 23.3648 3.29600  12
  -8   4  -1 22.5358 4.97427   1
  10  -4   1 0.60012 3.30422   4
 -10  -4  -1 1.25534 2.76828  11
 -10  -4  -1 1.09409 3.50242   1
  10   4   1 1.12781 3.22556   4
  10   4   1 -2.0491 1.71206  12
 -10   4  -1 0.12814 3.41102  11
 -10   4  -1 1.03898 2.96293   1
  10   4   1 0.02231 2.03194   3
   9  -5  -1 214.164 11.2519   4
  -9  -5   1 194.822 11.2373  11
  -9  -5   1 195.125 12.2978   5
   9   5  -1 195.676 8.97117   3
   9   5  -1 225.941 11.9213  14
   9   5  -1 199.608 10.3141   4
  -9   5   1 218.628 9.63395   8
  -9   5   1 220.651 12.4318   1
  -9   5   1 224.310 12.7705  11
  -7  -5   1 1073.93 29.4388   1
   7  -5  -1 1026.37 28.8011  12
  -7  -5   1 1040.44 31.3739  16
  -7  -5   1 1012.44 30.5798  11
   7  -5  -1 1091.61 30.2941   4
   7  -5  -1 1022.78 28.7563   2
  -7  -5   1 1042.09 32.0706   5
  -7  -5   1 1015.18 28.9018   6
   7   5  -1 998.393 28.8258  12
   7   5  -1 1042.43 28.1333   3
   7   5  -1 1024.68 30.8193  14
  -7   5   1 1066.93 28.3106   8
   7   5  -1 1048.25 29.5488   4
  -7   5   1 1063.49 30.8068   1
   5  -5  -1 1055.14 33.7727  10
   5  -5  -1 999.244 28.1747   4
  -5  -5   1 1058.08 30.5306   5
  -5  -5   1 1090.26 29.0686  11
  -5  -5   1 1114.06 30.2526  16
   5  -5  -1 1012.58 27.8214  12
   5  -5  -1 1056.12 28.7829   2
   5   5  -1 1062.84 27.9907  12
   5   5  -1 1063.44 28.1922   4
  -5   5   1 1016.04 28.9672   1
  -5   5   1 1034.93 27.1523   8
   5   5  -1 1097.41 29.7056  14
  -5   5   1 1043.10 27.9797  13
   5   5  -1 1060.37 27.4502   3
  -3  -5   1 3275.24 81.3193   2
   3  -5  -1 3497.29 80.9262   6
  -3  -5   1 3453.45 83.5442  16
  -3  -5   1 3382.03 83.7744   5
   3  -5  -1 3501.97 83.0304   2
  -3  -5   1 3303.11 81.9933  11
   3  -5  -1 3358.15 81.4724   4
   3  -5  -1 3504.20 86.2827  10
   3  -5  -1 3439.48 81.9081  12
  -3  -5   1 3465.00 82.2469  10
  -3   5   1 3427.68 80.9738   7
  -3   5   1 3407.04 81.1363   8
  -3   5   1 3490.21 82.1132  13
   3   5  -1 3474.14 81.8010   4
   3   5  -1 3398.95 81.5128   3
   3   5  -1 3561.75 83.1752  14
   3   5  -1 3550.30 81.4704  13
  -3   5   1 3362.47 81.4576  12
  -3   5   1 3581.87 81.7235   3
   3   5  -1 3431.27 81.8869  12
   1  -5  -1 2026.33 49.3554  10
  -1  -5   1 1913.10 48.2764  16
   1  -5  -1 1969.13 47.7889   6
  -1  -5   1 1955.90 48.3025   2
  -1  -5   1 1984.57 48.6264   5
  -1  -5   1 1993.18 47.6539  12
  -1  -5   1 1979.77 48.8919  10
   1  -5  -1 1976.23 48.6065   2
  -1   5   1 1963.22 47.5728  12
  -1   5   1 1966.60 47.7732  13
   1   5  -1 2003.89 47.7142   7
  -1   5   1 1961.87 48.6858  10
   1   5  -1 1943.24 47.5574  12
   1   5  -1 2027.49 47.2586  13
  -1   5   1 1994.66 47.5622   3
  -1   5   1 1969.67 46.6613   7
   1   5  -1 1990.24 48.4905  14
   1   5  -1 1956.01 47.5940   3
  -1   5   1 1963.78 47.4471  14
   1  -5   1 3217.07 76.9118  12
   1  -5   1 3285.43 78.2103   2
  -1  -5  -1 3145.14 77.0211   2
  -1  -5  -1 3260.53 77.7017   6
   1  -5   1 3326.26 80.4029  10
   1  -5   1 3269.27 76.4566   6
  -1  -5  -1 3236.92 77.8408  11
  -1   5  -1 3225.66 76.8976   7
   1   5   1 3317.79 77.4604  14
  -1   5  -1 3182.20 76.6481  13
   1   5   1 3324.52 76.9490  12
  -1   5  -1 3243.11 76.9541   3
  -1   5  -1 3132.35 75.4562   8
   1   5   1 3232.79 76.8601   3
   1   5   1 3285.35 77.1762  13
  -3  -5  -1 649.818 19.7383  11
  -3  -5  -1 709.294 21.0465   5
   3  -5   1 697.445 19.7164   2
   3  -5   1 680.593 23.1439  10
  -3  -5  -1 654.508 19.2294   6
   3  -5   1 691.021 18.5926  12
  -3   5  -1 678.440 17.3278   8
   3   5   1 664.524 18.4287  12
  -3   5  -1 691.927 18.8584   7
  -3   5  -1 706.366 18.6723  13
  -3   5  -1 692.473 18.6489   3
   3   5   1 677.088 19.6932  14
   3   5   1 680.029 18.5016   3
  -3   5  -1 685.711 19.7030   1
   3   5   1 652.828 17.8196   4
   5  -5   1 1042.10 28.1702  12
  -5  -5  -1 1073.58 31.4868   5
  -5  -5  -1 1092.61 29.7209   1
   5  -5   1 1007.67 28.7124   2
   5  -5   1 995.064 34.6695  10
  -5  -5  -1 1125.75 30.7526  11
  -5  -5  -1 1111.58 29.1659   6
   5  -5   1 1048.01 29.4010   4
  -5   5  -1 1018.57 27.1056   8
  -5   5  -1 1020.51 30.0010   1
   5   5   1 1088.62 28.3036  12
   5   5   1 1073.04 30.2893  14
   5   5   1 1054.02 28.2040   4
  -5   5  -1 1030.02 29.9333  11
   5   5   1 1081.03 28.2583   3
  -5   5  -1 1038.22 28.7774   7
  -7  -5  -1 177.376 8.45713   6
  -7  -5  -1 144.980 8.92921   1
   7  -5   1 164.530 9.37409   4
  -7  -5  -1 154.859 9.46186  11
   7  -5   1 163.475 7.82285  12
   7   5   1 169.009 8.43852   4
   7   5   1 177.020 8.16986  12
   7   5   1 152.952 7.79068   3
   7   5   1 169.038 9.87554  14
  -7   5  -1 168.767 10.3750   1
  -7   5  -1 170.859 10.0560  11
   9  -5   1 382.009 15.2068  12
  -9  -5  -1 379.771 17.6856  11
   9  -5   1 398.120 17.0347   4
  -9  -5  -1 386.660 16.3186   1
   9   5   1 395.042 14.9911  12
  -9   5  -1 422.322 18.7095  11
   9   5   1 414.212 15.0502   3
  -9   5  -1 424.671 18.5420   1
  10  -6  -1 133.785 9.30887   4
 -10  -6   1 140.008 10.4666  11
 -10   6   1 132.885 10.6362  11
 -10   6   1 134.771 10.7651   1
  10   6  -1 131.439 9.08156   4
   8  -6  -1 21.0006 4.22925   4
  -8  -6   1 23.3561 4.84529   5
  -8  -6   1 31.5564 4.54249   6
  -8  -6   1 29.3110 4.99464  11
  -8   6   1 28.4867 4.81791   1
   8   6  -1 19.9861 4.05423   4
  -8   6   1 30.4376 3.76196   8
   8   6  -1 22.8009 4.64364  14
  -8   6   1 26.0038 4.88655  11
   8   6  -1 31.9302 3.93976   3
   8   6  -1 25.1780 3.63145  12
   6  -6  -1 248.230 11.2342  12
  -6  -6   1 280.296 11.2683  11
   6  -6  -1 253.135 10.4672   4
  -6  -6   1 285.969 12.4036  16
  -6  -6   1 287.452 13.1784   5
   6  -6  -1 269.071 11.0527   2
   6  -6  -1 258.976 14.8340  10
   6   6  -1 258.204 10.0393  12
  -6   6   1 288.471 11.9180   1
  -6   6   1 272.231 10.3326  13
   6   6  -1 248.765 10.1303   4
  -6   6   1 253.853 9.29779   8
   6   6  -1 263.963 9.81858   3
   6   6  -1 275.880 11.6905  14
  -4  -6   1 65.2984 5.58099   5
  -4  -6   1 66.6228 4.34012  11
  -4  -6   1 72.5956 5.46127  16
   4  -6  -1 72.0165 6.41495  10
   4  -6  -1 69.8114 4.14458  12
   4  -6  -1 70.4272 4.10660   4
   4  -6  -1 75.3244 5.31790   2
   4   6  -1 67.1478 3.69347  13
   4   6  -1 81.4676 4.39159  12
   4   6  -1 92.2717 5.36346  14
  -4   6   1 74.2049 3.73307   7
   4   6  -1 71.0953 3.93236   3
   4   6  -1 71.6596 4.11996   4
  -4   6   1 72.2810 3.66709   8
  -4   6   1 75.8836 4.27843   3
   2  -6  -1 29.2168 3.86247  12
  -2  -6   1 29.5764 2.81765   2
   2  -6  -1 32.9864 2.46645   6
  -2  -6   1 34.0995 3.25847   5
   2  -6  -1 32.0523 3.43274  10
   2  -6  -1 31.3280 3.49970   2
  -2  -6   1 30.9036 2.59862  10
  -2  -6   1 32.1416 2.44640  11
  -2   6   1 30.9918 2.42552   3
  -2   6   1 32.8935 1.96249   7
   2   6  -1 34.2961 2.33249  13
   2   6  -1 31.5609 2.58080   7
   2   6  -1 34.0749 2.50471   3
  -2   6   1 34.1920 2.20292   8
  -2   6   1 33.9050 2.44977  12
   2   6  -1 32.1956 2.49626  12
   2   6  -1 32.2138 2.88755  14
  -2   6   1 35.5882 2.66028  13
   0  -6  -1 211.584 7.93897   2
   0  -6   1 210.982 7.30004  12
   0  -6   1 215.473 9.03574  10
   0  -6   1 215.976 8.36588   2
   0  -6  -1 212.388 7.21271  10
   0  -6  -1 226.973 8.00345   6
   0   6   1 210.209 7.35639   3
   0   6   1 232.831 7.48646  12
   0   6  -1 209.563 7.12662  12
   0   6  -1 235.723 7.55059   3
   0   6  -1 208.972 7.78439  14
   0   6  -1 212.102 7.00365  13
   0   6   1 210.218 6.52080   7
   0   6   1 208.044 7.37440  13
   0   6   1 204.770 7.39935  14
   0   6  -1 216.828 7.27478   7
  -2  -6  -1 26.7557 2.99407   6
  -2  -6  -1 26.8147 2.94806  11
   2  -6   1 29.9141 2.03132   6
   2  -6   1 28.7362 2.52492  12
  -2  -6  -1 29.0415 2.34902   2
   2  -6   1 28.8607 3.86809  10
   2  -6   1 32.1831 3.64876   2
  -2   6  -1 30.4182 2.61582  13
  -2   6  -1 28.0744 2.50368   7
   2   6   1 32.0145 2.91397   3
   2   6   1 27.5690 2.43940  12
  -2   6  -1 26.0365 2.75905   3
   2   6   1 32.2971 3.16668  14
   2   6   1 33.7380 2.73205  13
   4  -6   1 64.7868 6.99105  10
   4  -6   1 68.2411 5.29163   2
   4  -6   1 68.1327 4.30297  12
  -4  -6  -1 67.3074 5.26466  11
  -4  -6  -1 69.0481 5.10561   6
  -4  -6  -1 81.9550 6.40014   5
   4   6   1 72.1001 4.51087   3
   4   6   1 70.8205 4.27499  12
  -4   6  -1 68.9761 5.43274   1
  -4   6  -1 63.4608 4.03027   7
  -4   6  -1 70.8947 4.43174  13
   4   6   1 58.2773 4.96461  14
   4   6   1 65.2160 3.72402   4
   6  -6   1 2.48141 2.32710   2
  -6  -6  -1 2.23610 2.22618   6
   6  -6   1 0.69706 2.38882   4
  -6  -6  -1 3.72912 2.25545  11
   6  -6   1 5.18247 2.08037  12
  -6   6  -1 1.48702 2.25920  11
   6   6   1 3.05588 2.17778  14
   6   6   1 1.38724 1.72320  12
  -6   6  -1 1.73427 2.12438   1
   6   6   1 2.70582 2.03461   4
   6   6   1 7.34256 2.46481   3
   8  -6   1 2.97830 3.19792   4
  -8  -6  -1 2.45040 2.85963  11
   8  -6   1 1.01055 1.49826  12
   8  -6   1 2.43808 2.57451  14
   8   6   1 2.80008 3.41657  14
  -8   6  -1 -0.7032 3.57979   1
  -8   6  -1 2.12575 2.95220  11
   8   6   1 1.23061 1.84874   3
   8   6   1 1.11868 2.06703  12
   9  -7  -1 192.642 10.3981   4
  -9  -7   1 189.121 12.6816   5
  -9  -7   1 183.352 11.2949  11
   9   7  -1 173.054 8.79184   3
  -9   7   1 189.109 12.0033  11
  -9   7   1 184.812 12.2328   1
   7  -7  -1 837.336 26.2265   2
   7  -7  -1 837.984 25.8000   4
  -7  -7   1 901.362 29.7543   5
  -7  -7   1 927.741 26.5655   6
  -7  -7   1 899.816 27.1944  11
  -7   7   1 827.752 27.4395   1
   7   7  -1 830.396 27.4034  14
  -7   7   1 840.049 25.4067  13
   7   7  -1 842.000 25.4630   4
   7   7  -1 840.068 24.5940   3
   7   7  -1 868.430 25.5536  12
  -5  -7   1 161.797 7.97509  11
   5  -7  -1 183.401 11.7756  10
  -5  -7   1 185.162 9.94984   5
  -5  -7   1 186.720 8.69996   6
   5  -7  -1 198.249 9.43353   2
   5  -7  -1 172.098 7.76709   4
  -5   7   1 181.024 7.82689  13
  -5   7   1 187.440 6.95438   8
   5   7  -1 169.664 7.21196  13
   5   7  -1 164.719 7.60881  12
  -5   7   1 190.480 9.31344   1
  -5   7   1 175.035 7.64453   3
   5   7  -1 179.124 7.60875   3
   5   7  -1 165.506 8.91781  14
   5   7  -1 176.480 7.58381   4
   3  -7  -1 1075.21 29.4414   2
  -3  -7   1 1012.66 27.5780  11
  -3  -7   1 1029.73 29.9204   5
   3  -7  -1 1080.71 32.1367  10
   3  -7  -1 1045.33 26.7448   6
  -3  -7   1 1039.86 27.5813   2
   3   7  -1 1026.97 28.8369  14
   3   7  -1 1030.38 27.6793  12
   3   7  -1 1035.35 27.4308   3
  -3   7   1 1076.57 27.6173   3
  -3   7   1 1050.03 27.8401  13
  -3   7   1 996.280 26.3539   8
   3   7  -1 1054.47 27.0762  13
   1  -7  -1 425.631 14.3259  10
  -1  -7   1 424.642 13.9068   2
   1  -7  -1 414.092 14.0075   2
   1  -7  -1 438.450 13.2681   6
  -1  -7   1 425.771 13.9716   5
  -1  -7   1 422.555 14.0918  10
  -1  -7   1 443.149 13.5180   6
   1   7  -1 419.880 12.8377   7
   1   7  -1 432.046 12.5687  13
  -1   7   1 424.152 13.0207   3
   1   7  -1 433.123 13.1062   3
  -1   7   1 439.580 13.2558  13
  -1   7   1 423.341 12.9577  12
   1   7  -1 516.008 15.1178  12
   1   7  -1 433.881 13.8369  14
  -1  -7  -1 1521.44 39.3498   6
   1  -7   1 1530.93 40.0154   2
   1  -7   1 1528.01 42.1662  10
  -1  -7  -1 1508.04 38.8602   2
   1  -7   1 1493.40 37.9107   6
   1  -7   1 1526.05 38.4286  12
   1   7   1 1524.94 37.4490   7
   1   7   1 1474.64 38.3627  12
  -1   7  -1 1529.16 38.1005  13
   1   7   1 1534.78 38.6280  13
  -1   7  -1 1549.73 38.5619   3
   1   7   1 1526.76 38.4237   3
   1   7   1 1513.87 38.9103  14
  -1   7  -1 1547.94 38.2033   7
   3  -7   1 787.521 23.0947   2
  -3  -7  -1 730.516 22.3834  11
   3  -7   1 752.349 26.3822  10
  -3  -7  -1 762.135 22.3665   6
   3  -7   1 742.860 21.3269  12
   3   7   1 734.614 21.2575  13
   3   7   1 755.722 22.3852  14
   3   7   1 715.665 21.0082  12
   3   7   1 781.753 21.3266   3
  -3   7  -1 773.049 21.2747   7
  -3   7  -1 775.940 21.4999   3
  -3   7  -1 773.805 21.2000  13
  -5  -7  -1 1253.90 36.4314  11
   5  -7   1 1321.31 35.9423   2
  -5  -7  -1 1278.78 35.5981   6
   5  -7   1 1257.28 34.3819  12
   5  -7   1 1259.36 35.1370   4
  -5   7  -1 1308.85 36.8580   1
   5   7   1 1291.35 34.3776   3
   5   7   1 1249.36 34.3332  12
  -5   7  -1 1291.03 34.5712   7
   5   7   1 1262.47 36.3367  14
  -5   7  -1 1326.84 34.6716  13
  -7  -7  -1 532.006 18.2388   6
   7  -7   1 483.937 17.4649   2
   7  -7   1 479.568 17.2869  12
  -7  -7  -1 544.857 20.5834  11
  -7   7  -1 485.691 19.3026  11
   7   7   1 509.542 17.3308  12
   7   7   1 510.702 19.4443  14
  -7   7  -1 508.516 20.2301   1
   7   7   1 531.704 17.5459   3
   9  -7   1 500.744 19.3081   4
  -9  -7  -1 470.066 20.6557  11
  -9   7  -1 497.224 21.2471   1
   9   7   1 449.286 17.1804  12
   9   7   1 485.532 17.2350   3
   8  -8  -1 13.4597 3.70676   2
  -8  -8   1 21.0769 4.18871   6
  -8  -8   1 24.0919 5.82462   5
   8   8  -1 16.6103 3.40911   3
  -8   8   1 22.6482 5.57367   1
  -8   8   1 14.6411 3.73707  11
  -6  -8   1 392.120 14.9507   6
  -6  -8   1 367.967 14.4149  11
  -6  -8   1 368.446 16.9175   5
   6  -8  -1 384.599 14.9792   2
  -6   8   1 393.136 13.9376  13
   6   8  -1 373.543 15.3298  14
  -6   8   1 355.749 14.9828   1
   6   8  -1 375.401 13.4295   3
  -4  -8   1 207.774 8.90660  11
   4  -8  -1 220.324 12.4399  10
   4  -8  -1 236.241 10.7835   2
  -4  -8   1 212.611 11.1847   5
  -4  -8   1 222.212 10.0135   6
   4   8  -1 226.283 10.2828  14
   4   8  -1 217.427 8.37539  13
   4   8  -1 219.120 9.00638  12
  -4   8   1 220.032 8.71324   3
  -4   8   1 237.242 9.44546  13
   4   8  -1 222.616 8.92576   3
   2  -8  -1 312.272 10.6270   6
   2  -8  -1 323.054 12.4871   2
   2  -8  -1 311.874 12.9876  10
  -2  -8   1 327.274 11.4921   2
  -2  -8   1 331.623 11.6804   6
  -2  -8   1 313.590 12.3250   5
   2   8  -1 304.672 10.7839   3
   2   8  -1 311.904 10.2604  13
  -2   8   1 315.420 10.7757   3
  -2   8   1 308.367 9.72000   8
  -2   8   1 315.354 10.9333  13
   2   8  -1 317.576 10.7262   7
   2   8  -1 311.427 11.7889  14
   0  -8  -1 904.412 25.4515   2
   0  -8  -1 892.985 24.9327   6
   0  -8   1 906.816 25.8958   2
   0  -8   1 900.694 24.4468   6
   0  -8   1 886.024 26.6352  10
   0   8   1 864.393 24.1736  12
   0   8  -1 894.334 23.7383  13
   0   8  -1 890.960 23.8353   7
   0   8   1 858.934 24.3632  14
   0   8   1 898.943 24.3393   3
   0   8  -1 873.682 24.2952   3
   0   8   1 893.196 24.3586  13
  -2  -8  -1 191.326 7.82670   2
  -2  -8  -1 203.829 8.76514  11
  -2  -8  -1 197.803 9.11777   6
   2  -8   1 197.135 11.0601  10
   2  -8   1 206.684 9.77641   2
   2  -8   1 181.689 7.83998  12
   2   8   1 205.239 8.13720  13
  -2   8  -1 206.698 8.00719  13
   2   8   1 190.286 8.00211  12
  -2   8  -1 204.523 7.82227   7
   2   8   1 189.247 7.28405   7
  -2   8  -1 205.646 8.27310   3
   2   8   1 201.172 8.54807  14
   2   8   1 200.862 8.24297   3
  -4  -8  -1 672.177 21.5249  11
   4  -8   1 636.085 19.7772  12
  -4  -8  -1 680.055 21.4841   6
   4  -8   1 658.865 26.0328  10
   4  -8   1 693.534 21.8575   2
   4  -8   1 632.272 19.9767   4
  -4   8  -1 685.194 19.9290  13
   4   8   1 642.360 19.7440  12
   4   8   1 639.854 21.1839  14
  -4   8  -1 670.305 20.0276   3
   4   8   1 664.049 19.8134   3
   4   8   1 647.591 19.7972  13
  -4   8  -1 658.120 19.5404   7
  -4   8  -1 653.633 21.7398   1
   6  -8   1 241.915 11.1966   4
  -6  -8  -1 240.888 11.6611   6
   6  -8   1 245.741 11.8281   2
  -6  -8  -1 240.905 12.4027  11
   6   8   1 244.719 10.2827   3
  -6   8  -1 207.718 12.2161  11
  -6   8  -1 243.048 12.6642   1
   6   8   1 249.520 10.6392  12
   6   8   1 253.165 12.4189  14
   6   8   1 241.385 10.5854  13
   8  -8   1 136.894 8.83205   4
  -8  -8  -1 174.182 11.5614  11
  -8   8  -1 147.303 11.6032   1
   8   8   1 141.637 8.49240  12
   8   8   1 164.600 8.91365   3
  -9  -9   1 481.470 18.2760   6
  -9   9   1 475.193 20.0382  11
  -9   9   1 434.226 23.2193   1
   7  -9  -1 150.710 9.57376   2
  -7  -9   1 113.085 8.51606   6
   7   9  -1 122.880 7.44792   3
  -7   9   1 127.200 9.89971   1
   7   9  -1 109.284 8.26702  14
  -7   9   1 122.813 7.67120  13
   5  -9  -1 1667.01 45.8868   2
  -5  -9   1 1641.62 45.2016   6
  -5  -9   1 1640.95 47.8906   5
  -5   9   1 1692.35 43.5771   3
  -5   9   1 1679.97 46.1466   1
   5   9  -1 1592.04 45.4850  14
   5   9  -1 1683.60 43.6049   3
  -5   9   1 1644.57 43.8060  13
   3  -9  -1 318.263 13.0854   2
  -3  -9   1 279.580 10.8016   2
  -3  -9   1 308.760 12.2566   6
   3   9  -1 298.477 11.0378   7
  -3   9   1 303.839 11.3412  13
   3   9  -1 284.600 10.2346  13
   3   9  -1 308.081 11.3054   3
  -3   9   1 289.276 10.8890   3
   3   9  -1 283.702 12.1138  14
   1  -9  -1 2726.19 69.1508   2
   1  -9  -1 2769.46 67.7542   6
  -1  -9   1 2749.80 68.1087   6
  -1  -9   1 2731.99 68.6659   2
  -1   9   1 2759.99 67.5173   3
   1   9  -1 2725.40 66.8860   7
  -1   9   1 2746.87 67.4564  13
  -1   9   1 2600.40 65.7228   8
   1   9  -1 2758.90 67.5511   3
   1   9  -1 2725.69 68.5177  14
   1  -9   1 95.1945 5.26093   6
  -1  -9  -1 87.2522 6.19340   6
   1  -9   1 97.8415 7.04943   2
  -1  -9  -1 89.8417 5.81763   2
  -1   9  -1 81.1524 4.93119  13
   1   9   1 80.0721 5.07545  12
   1   9   1 84.6992 5.59149   3
   1   9   1 87.8346 5.55654  14
   1   9   1 93.2669 5.45657  13
  -1   9  -1 90.5348 4.98100   7
  -1   9  -1 90.8361 5.71551   3
   3  -9   1 1584.33 43.6356   2
   3  -9   1 1477.02 47.2943  10
  -3  -9  -1 1630.66 43.5025   6
  -3  -9  -1 1547.01 42.6509  11
   3   9   1 1573.95 41.6142  12
   3   9   1 1586.80 41.5099  13
  -3   9  -1 1612.27 41.8719   3
   3   9   1 1625.82 41.6837   3
   3   9   1 1547.23 42.4720  14
  -3   9  -1 1616.47 41.2305  13
   5  -9   1 6.61016 2.99847   2
  -5  -9  -1 6.28923 3.29696   6
  -5  -9  -1 9.68402 2.93624  11
   5   9   1 11.1756 2.64525  12
  -5   9  -1 10.0694 2.71583  13
   5   9   1 10.6405 3.44360  14
   5   9   1 15.5121 3.52140   3
  -5   9  -1 13.3819 4.04666   1
   5   9   1 13.2991 2.80045  13
   7  -9   1 675.467 23.2038   2
  -7  -9  -1 674.627 23.3116   6
  -7  -9  -1 643.886 23.9680  11
   7   9   1 687.305 22.5197  12
   7   9   1 679.173 22.0851   3
  -7   9  -1 716.256 25.4539   1
  -8 -10   1 7.25477 3.72838   6
   8 -10  -1 8.24725 3.92062   2
  -8  10   1 5.86692 4.52849   1
   8  10  -1 5.00711 2.77954   3
  -6 -10   1 44.2476 5.88184   6
   6 -10  -1 55.5391 6.88133   2
  -6  10   1 49.0829 5.22683  13
   6  10  -1 45.5100 5.30134   7
   6  10  -1 46.3490 5.23233   3
  -6  10   1 52.6476 6.97015   1
   6  10  -1 54.0493 6.70984  14
  -4 -10   1 0.04950 3.08299   6
   4 -10  -1 2.02523 3.00668   2
   4  10  -1 3.88743 2.60172  14
  -4  10   1 0.37697 2.09806  13
   4  10  -1 1.12890 2.17562   3
  -4  10   1 0.53282 2.30931   3
   4  10  -1 0.29516 1.44309   7
   2 -10  -1 -0.6262 1.78136   6
   2 -10  -1 1.40241 1.89139   2
  -2 -10   1 0.60856 1.39963   2
  -2 -10   1 -0.4167 1.82736   6
   2  10  -1 0.88715 1.32647  13
   2  10  -1 0.59572 1.49574  14
  -2  10   1 5.31572 2.57460   3
  -2  10   1 2.23296 1.98375  13
   2  10  -1 0.31293 1.52840   3
   0 -10   1 73.3733 6.45791   2
   0 -10  -1 61.1677 5.68399   2
   0 -10  -1 67.0707 5.70930   6
   0 -10   1 74.2483 5.69526   6
   0  10   1 65.4184 4.96380  13
   0  10   1 59.6731 5.34867   3
   0  10  -1 69.3578 5.03864   3
   0  10  -1 68.7253 4.61134  13
   2 -10   1 37.8416 5.28630   2
  -2 -10  -1 33.2579 4.51594   6
  -2  10  -1 33.7222 3.99205   3
  -2  10  -1 35.0460 3.87698  13
   2  10   1 42.6650 4.22720  13
   2  10   1 31.4100 4.13888   3
   2  10   1 29.0722 3.96111  14
   2  10   1 31.6777 3.84980  12
  -4 -10  -1 39.7796 5.25544  11
   4 -10   1 36.4992 5.82374   2
  -4 -10  -1 36.5872 4.94703   6
   4  10   1 36.1854 5.04198  14
   4  10   1 31.2343 4.37974   3
  -4  10  -1 37.8135 5.69076   1
   4  10   1 38.7870 4.24005  12
  -4  10  -1 38.7200 4.40220   3
  -4  10  -1 36.2343 4.13311  13
   4  10   1 31.0651 3.85746  13
  -6 -10  -1 -0.1547 3.01985   6
   6 -10   1 1.27909 3.46570   2
  -6  10  -1 4.94806 3.76322   1
   6  10   1 -1.1643 2.42035   3
   7 -11  -1 294.538 14.3062   2
  -7 -11   1 295.221 14.5321   6
   7  11  -1 293.543 12.7617   3
  -7  11   1 301.419 15.8510   1
  -5 -11   1 156.252 10.3548   6
   5 -11  -1 160.996 10.7433   2
  -5  11   1 148.257 9.80555   1
  -5  11   1 146.153 8.53461   3
  -5  11   1 150.635 8.43382  13
   5  11  -1 140.961 8.37639   3
   3 -11  -1 201.180 11.3414   2
  -3 -11   1 209.357 11.2468   6
   3  11  -1 192.760 10.5898  14
   3  11  -1 213.679 10.0206   3
  -3  11   1 201.573 10.0026   3
  -3  11   1 213.352 9.81206  13
  -1 -11   1 303.752 13.2016   2
  -1 -11   1 328.456 13.2525   6
   1 -11  -1 314.933 12.6760   6
   1 -11  -1 306.805 13.5735   2
  -1  11   1 306.955 12.4039   3
   1  11  -1 283.100 12.0895   3
  -1  11   1 298.737 11.8403  13
  -1 -11  -1 276.996 12.0335   2
  -1 -11  -1 306.283 13.0544   6
   1 -11   1 284.840 13.1014   2
  -1  11  -1 278.806 11.9099   3
   1  11   1 283.604 11.4531  13
   1  11   1 304.802 12.2613   3
  -1  11  -1 264.704 10.8812  13
   3 -11   1 656.125 23.0322   2
  -3 -11  -1 624.691 22.1536   6
   3  11   1 608.968 19.7835  13
   3  11   1 611.916 21.2025  14
  -3  11  -1 628.380 22.4763   1
   3  11   1 630.016 20.6086   3
  -3  11  -1 617.561 20.4738   3
  -3  11  -1 601.182 19.4853  13
   5 -11   1 364.971 16.8778   2
  -5 -11  -1 376.959 16.4216   6
  -5  11  -1 387.908 17.4145   1
   5  11   1 374.548 14.9719   3
   6 -12  -1 6.47369 4.16190   2
  -6 -12   1 6.17936 3.92386   6
  -6  12   1 2.63495 4.44770   1
   6  12  -1 11.8344 3.33006   3
   4 -12  -1 106.648 9.02944   2
  -4 -12   1 103.772 9.22784   6
   4  12  -1 110.265 7.15227   3
  -4  12   1 108.467 7.79116   3
  -2 -12   1 130.195 9.17119   6
   2 -12  -1 114.396 8.97239   2
  -2  12   1 123.921 8.24567   3
   2  12  -1 134.980 8.24336   3
  -2  12   1 122.724 7.44526  13
   0 -12   1 26.3941 4.70047   2
   0 -12  -1 19.7474 4.02237   2
   0 -12   1 20.3884 4.02228   6
   0 -12  -1 21.4632 4.50103   6
   0  12   1 19.8636 4.11622   3
   0  12   1 17.6180 3.17036  13
   0  12  -1 19.2247 3.87152   3
  -2 -12  -1 241.718 12.6485   6
   2 -12   1 238.327 13.0295   2
   2  12   1 244.789 11.4778   3
  -2  12  -1 240.901 11.5059   3
   4 -12   1 18.7811 5.45592   2
  -4 -12  -1 16.4674 4.14994   6
  -4  12  -1 27.6567 5.38489   1
   4  12   1 23.0107 4.37307   3
  -4  12  -1 19.7458 4.38205   3
  -3 -13   1 954.872 30.6082   6
   3 -13  -1 963.543 31.5599   2
   3  13  -1 939.042 29.0293   3
  -3  13   1 928.602 28.9719   3
  -1 -13   1 178.230 10.4049   6
   1 -13  -1 184.467 10.9785   2
  -1 -13   1 177.992 10.3765   2
   1  13  -1 197.934 10.2303   3
  -1  13   1 170.392 10.0963   3
  -1 -13  -1 709.940 24.5104   6
   1 -13   1 685.804 24.7314   2
   1  13   1 688.889 23.2039   3
  -1  13  -1 698.660 23.3382   3
  -3 -13  -1 81.3711 8.62926   6
   3 -13   1 63.1944 7.39965   2
  -3  13  -1 79.2791 8.51623   1
  -3  13  -1 69.7389 7.00639   3
   3  13   1 58.1036 6.20020   3
  -2 -14   1 30.0794 7.18826   6
   0 -14   1 2.47744 2.82799   2
   0 -14  -1 0.63309 2.87374   6
   0  14  -1 3.58400 3.07751   3
   0  14   1 1.55761 2.48935   3
 -12   0   2 58.5108 8.89042  11
 -10   0   2 990.908 29.3171   8
 -10   0   2 989.330 32.5879  11
  10   0  -2 996.867 30.4059  14
 -10   0   2 1006.12 30.1996   1
  10   0  -2 996.624 30.8164   4
   8   0  -2 526.296 16.7462  12
   8   0  -2 518.893 17.6589  14
  -8   0   2 574.510 19.6478  11
  -8   0   2 546.110 17.4799  16
   8   0  -2 568.969 18.4388   4
  -8   0   2 553.139 18.0259   5
  -8   0   2 544.820 17.0580   8
  -8   0   2 526.315 17.2772   1
   8   0  -2 514.724 21.7407  10
  -6   0   2 4102.73 100.351   5
   6   0  -2 4195.86 99.3051  12
  -6   0   2 4146.27 99.2162   8
   6   0  -2 4013.78 98.7588   9
  -6   0   2 4228.65 100.132  16
   6   0  -2 4240.46 100.082  14
  -6   0   2 4228.00 101.139  11
   6   0  -2 4233.42 100.400   4
   6   0  -2 4132.89 104.319  10
  -6   0   2 4244.63 99.5831   1
   4   0  -2 2516.99 59.0215  12
  -4   0   2 2484.83 58.9789   8
   4   0  -2 2479.96 59.2406  14
  -4   0   2 2501.03 59.6406  16
  -4   0   2 2471.63 59.8091   5
  -4   0   2 2411.57 58.5897  12
  -4   0   2 2521.99 58.8468   1
   4   0  -2 2426.20 59.4728   4
   4   0  -2 2535.54 62.4752  10
   4   0  -2 2448.91 58.9821   9
  -2   0   2 8081.80 197.792   5
   2   0  -2 8244.03 196.236   4
   2   0  -2 8187.59 193.607  14
  -2   0   2 8560.00 205.491  10
  -2   0   2 8297.56 193.414   8
  -2   0   2 8266.96 192.502  13
  -2   0   2 7820.72 198.303  16
   2   0  -2 8357.50 197.079   9
  -2   0   2 7890.78 193.170  12
   0   0  -2 142.325 4.44678  15
   0   0  -2 146.892 4.30933   7
   0   0  -2 156.861 4.47812  11
   0   0  -2 143.179 4.46231   9
   0   0  -2 145.634 4.26938   6
   2   0   2 4263.94 102.157  12
  -2   0  -2 4428.45 101.693   7
  -2   0  -2 4291.78 107.377  10
  -2   0  -2 4176.38 103.173   6
  -2   0  -2 4487.66 102.218   1
   2   0   2 4468.69 102.516  12
   2   0   2 4261.65 116.322  10
   2   0   2 4364.54 104.103   2
  -2   0  -2 4175.64 103.467  15
  -2   0  -2 4377.49 102.327  11
   4   0   2 22.2444 3.53333  10
  -4   0  -2 21.9415 3.02801   1
   4   0   2 19.4071 1.75734  12
   4   0   2 30.2709 3.18660   4
   6   0   2 2031.34 51.4997   4
   6   0   2 1966.76 52.0483  14
  -6   0  -2 1993.71 52.3773   1
   6   0   2 1993.76 49.3793  12
   6   0   2 1945.73 55.4046  10
  -6   0  -2 2004.32 53.2718  11
   8   0   2 7.83458 2.64185  14
   8   0   2 4.60037 2.13440  12
   8   0   2 5.44112 3.50624   4
  -8   0  -2 7.60016 3.83834  11
  -8   0  -2 4.35762 2.72758   1
  10   0   2 1147.00 33.1709  12
  10   0   2 1120.77 35.1142   4
 -10   0  -2 1107.38 37.3738  11
 -10   0  -2 1160.32 36.6304   1
 -11  -1   2 117.304 10.4641  11
  11  -1  -2 120.732 9.44932   4
  11   1  -2 110.704 9.10305   4
 -11   1   2 116.396 7.85412   8
 -11   1   2 124.479 10.7670  11
  -9  -1   2 0.55973 2.14703   5
  -9  -1   2 0.64591 2.08416  11
  -9  -1   2 2.58270 2.08982  16
   9  -1  -2 -0.6459 1.75493  14
   9  -1  -2 0.70309 2.64778   4
  -9  -1   2 -0.3843 2.03966   8
  -9  -1   2 1.87222 2.29764   1
  -9   1   2 1.84335 3.16594  11
  -9   1   2 -0.7458 2.33003   1
   9   1  -2 1.86951 1.71126  12
   9   1  -2 -0.3202 1.25217  14
   9   1  -2 -0.3948 1.87901   4
  -9   1   2 0.86379 2.22830   8
  -7  -1   2 119.793 6.08634   1
   7  -1  -2 130.729 5.88907   9
  -7  -1   2 116.482 6.83471  11
   7  -1  -2 126.949 6.00989  12
  -7  -1   2 138.868 7.08236   5
   7  -1  -2 127.080 6.39093  14
   7  -1  -2 132.422 6.99130   4
  -7  -1   2 121.666 6.16975   8
   7  -1  -2 115.827 8.91751  10
  -7  -1   2 133.380 6.69830  16
  -7   1   2 152.788 7.99577  11
   7   1  -2 119.691 5.89962  12
   7   1  -2 123.803 6.61360  14
  -7   1   2 120.622 6.10578   8
  -7   1   2 119.516 6.24204   1
  -7   1   2 127.089 6.35476   5
   7   1  -2 123.304 8.28543  10
  -7   1   2 119.478 6.00254  16
   7   1  -2 121.631 6.83230   4
   5  -1  -2 209.791 10.1032  10
  -5  -1   2 200.272 7.96969   5
  -5  -1   2 215.196 7.98522  11
   5  -1  -2 207.597 7.62313   4
  -5  -1   2 206.333 7.03820   8
  -5  -1   2 189.976 6.73673   1
   5  -1  -2 206.923 7.18603  14
  -5  -1   2 209.007 7.86531  16
   5  -1  -2 200.730 6.94402  12
   5  -1  -2 200.733 6.63480   2
   5   1  -2 194.025 9.13338  10
   5   1  -2 198.160 6.96401  12
   5   1  -2 203.091 6.56424   9
  -5   1   2 200.170 6.91774   8
  -5   1   2 202.633 7.16818   1
  -5   1   2 202.241 7.19851  16
  -5   1   2 198.146 7.30893   5
  -5   1   2 201.761 6.77073  13
   5   1  -2 198.437 7.57381   4
   5   1  -2 201.375 7.51813  14
  -3  -1   2 234.006 7.67339   5
   3  -1  -2 238.094 9.04712  10
   3  -1  -2 237.289 7.07188   2
   3  -1  -2 238.934 7.11869   4
  -3  -1   2 240.231 6.67207   1
  -3  -1   2 229.411 8.56142  10
   3  -1  -2 246.157 6.70184   6
  -3  -1   2 242.237 7.60664  16
  -3  -1   2 241.441 6.83202   8
   3  -1  -2 235.614 6.59601  14
  -3  -1   2 232.685 6.76352  12
   3   1  -2 231.319 6.82160   9
  -3   1   2 245.980 6.81469  13
   3   1  -2 256.658 7.31923  14
  -3   1   2 234.394 7.34207   5
   3   1  -2 238.489 7.34654   4
  -3   1   2 226.932 8.82860  10
   3   1  -2 223.828 6.78003  12
  -3   1   2 239.418 6.74522  12
  -3   1   2 236.107 6.76239   1
  -3   1   2 242.751 6.89909   8
  -3   1   2 245.197 7.29523  16
  -1  -1   2 1981.71 47.5360  12
   1  -1  -2 1926.39 46.3930   9
  -1  -1   2 2038.41 45.7984  13
   1  -1  -2 1841.33 46.2579  15
  -1  -1   2 2026.32 46.5164   5
  -1  -1   2 2016.41 45.7929  13
  -1  -1   2 1946.81 49.1770  16
   1  -1  -2 1863.16 46.2674   6
   1   1  -2 2130.39 46.6238   4
   1   1  -2 1907.33 46.1051  15
   1   1  -2 2083.95 47.6263  14
  -1   1   2 1834.77 46.3775  12
  -1   1   2 1918.30 47.2738  13
   1   1  -2 2012.89 46.2964   7
   1   1  -2 1982.55 46.5392   9
  -1  -1  -2 202.321 5.96598   7
  -1  -1  -2 208.525 5.88425   6
   1  -1   2 197.247 4.79179  12
  -1  -1  -2 198.123 5.58244   9
  -1  -1  -2 205.822 6.42861   1
   1  -1   2 202.687 4.79828  12
   1  -1   2 205.864 7.69983  10
  -1  -1  -2 202.747 6.50308  11
  -1  -1  -2 204.202 5.96380  15
  -1   1  -2 201.244 6.13828   7
  -1   1  -2 190.003 6.11461  15
  -1   1  -2 194.018 6.28438   1
  -1   1  -2 191.816 6.13938   9
  -1   1  -2 190.117 6.10014  11
   1   1   2 214.879 6.78895  10
   3  -1   2 241.928 10.3416  10
   3  -1   2 244.049 7.15659   2
   3  -1   2 243.206 6.76735  12
  -3  -1  -2 228.754 8.66893  11
  -3  -1  -2 218.094 6.87049   6
  -3  -1  -2 227.720 8.28919   1
  -3  -1  -2 229.496 7.42573  15
   3   1   2 239.028 9.31496  10
   3   1   2 222.413 7.79778   4
  -3   1  -2 221.929 8.36607   1
  -3   1  -2 220.227 7.85921   7
  -3   1  -2 223.706 7.07057   8
  -3   1  -2 252.371 8.68947  11
   3   1   2 233.485 8.32899  14
   3   1   2 233.412 6.59696  12
   5  -1   2 261.252 8.51898  12
  -5  -1  -2 262.740 11.2007  11
  -5  -1  -2 255.350 10.4996   1
   5  -1   2 254.172 9.93404   4
   5  -1   2 257.171 12.6885  10
   5   1   2 255.732 11.6282  10
   5   1   2 258.047 9.78061   4
   5   1   2 249.058 10.1580  14
  -5   1  -2 251.069 10.5038   1
   5   1   2 258.534 8.42409  12
  -5   1  -2 246.779 10.6997  11
  -7  -1  -2 10.6717 3.13542  11
   7  -1   2 6.88069 2.09723  12
   7  -1   2 6.73542 2.82222  14
  -7  -1  -2 8.82952 3.34377   1
   7  -1   2 6.71338 4.09318  10
   7  -1   2 4.41527 3.05147   4
   7   1   2 9.52991 2.80205  14
  -7   1  -2 15.1756 3.91111  11
  -7   1  -2 10.5821 3.56391   1
   7   1   2 8.43844 2.58803   4
   7   1   2 8.33370 2.20696  12
   9  -1   2 178.676 8.85691  12
  -9  -1  -2 176.218 12.0076  11
   9  -1   2 178.294 10.9270   4
  -9  -1  -2 191.720 11.8202   1
   9   1   2 176.233 9.01333  12
   9   1   2 188.036 10.9961   4
  -9   1  -2 176.514 11.6108   1
  -9   1  -2 180.737 12.3247  11
  10  -2  -2 77.2574 7.55764   4
 -10  -2   2 67.1333 6.73957   5
 -10  -2   2 77.5365 8.58080  11
 -10   2   2 65.5923 6.81715   1
 -10   2   2 65.3061 7.76981  11
  10   2  -2 66.9909 6.84447   4
  10   2  -2 70.2942 6.68162  14
 -10   2   2 71.7042 5.66244   8
  -8  -2   2 1072.27 29.1548   8
   8  -2  -2 1062.51 30.4524   4
   8  -2  -2 1064.59 29.1195  12
   8  -2  -2 998.519 29.2789  14
  -8  -2   2 1053.60 29.2746   1
   8  -2  -2 1046.75 28.9835   9
  -8  -2   2 1048.61 30.5059  16
  -8  -2   2 1050.33 31.3739  11
  -8  -2   2 1036.12 30.9880   5
   8  -2  -2 1015.26 35.7444  10
  -8   2   2 1052.13 28.9211   8
  -8   2   2 1077.20 30.1671   1
   8   2  -2 1031.42 28.9799  12
  -8   2   2 1096.07 31.9548  11
   8   2  -2 1054.17 30.3642   4
   8   2  -2 1062.82 30.6505  14
  -6  -2   2 67.1990 4.82066  16
  -6  -2   2 67.2732 3.97194   1
   6  -2  -2 75.5745 4.18350  14
   6  -2  -2 69.2235 4.54482   4
   6  -2  -2 68.4161 6.32488  10
  -6  -2   2 67.2429 3.87350   8
  -6  -2   2 64.2462 4.50193  11
  -6  -2   2 59.5830 4.77590   5
   6  -2  -2 70.4533 3.97131  12
   6  -2  -2 56.8591 3.43751   2
   6   2  -2 69.2344 4.67019  14
  -6   2   2 67.1124 4.02629   5
  -6   2   2 74.0278 4.18511   8
   6   2  -2 72.2672 4.72539   4
  -6   2   2 68.4794 4.39264   1
   6   2  -2 64.1032 3.81091  12
  -6   2   2 71.9695 3.97041  16
  -4  -2   2 2816.82 69.3766   5
   4  -2  -2 2850.39 68.0802   2
  -4  -2   2 2848.41 68.5257  11
   4  -2  -2 2845.25 67.5199  14
   4  -2  -2 2887.76 67.9289  12
  -4  -2   2 2903.96 69.2306  16
   4  -2  -2 2836.77 68.2226   4
  -4  -2   2 2797.46 67.5681  12
  -4  -2   2 2857.86 67.7530   8
   4  -2  -2 2885.48 72.0429  10
  -4  -2   2 2820.10 67.4584   1
  -4   2   2 2914.76 67.8155  13
   4   2  -2 2907.65 67.3508   9
   4   2  -2 2875.67 68.7138  14
   4   2  -2 2848.70 67.9007  12
  -4   2   2 2848.04 67.6004  12
  -4   2   2 2894.42 68.0083  16
  -4   2   2 2879.65 68.1193   1
   4   2  -2 2892.12 68.5627   4
  -4   2   2 2828.46 67.7679   8
  -4   2   2 2821.91 68.1374   5
  -2  -2   2 715.825 17.7787   5
   2  -2  -2 645.483 16.4791   4
  -2  -2   2 689.917 16.7749  12
  -2  -2   2 703.052 16.4557   8
  -2  -2   2 692.694 17.5949  16
   2  -2  -2 664.032 18.7222  10
   2  -2  -2 661.345 16.8578   6
   2  -2  -2 651.961 17.2961   2
   2   2  -2 676.935 16.3534   3
   2   2  -2 696.751 17.3673  14
  -2   2   2 659.172 16.8474   8
   2   2  -2 679.198 17.0120   9
  -2   2   2 697.516 16.9553  13
  -2   2   2 648.446 16.3009   3
  -2   2   2 641.690 18.5297  10
  -2   2   2 669.129 16.7146  12
   2   2  -2 699.966 17.3215   4
   0  -2  -2 6828.83 175.955   6
   0  -2  -2 7358.48 175.938  15
   0  -2   2 7089.12 172.853  12
   0  -2  -2 7286.31 175.643   2
   0  -2  -2 7476.09 175.359   9
   0  -2  -2 7806.36 176.957   1
   0  -2   2 6912.94 173.739  16
   0  -2  -2 7513.03 180.697  11
   0   2  -2 7127.76 175.010   1
   0   2  -2 7343.62 173.673   3
   0   2  -2 6774.79 176.367   9
   0   2   2 7568.69 174.503   3
   0   2  -2 7268.79 172.838  13
   0   2  -2 7965.03 176.861   7
   0   2  -2 7174.83 174.505  15
   0   2   2 7678.66 175.276  14
  -2  -2  -2 3213.90 74.2645   1
   2  -2   2 2944.51 73.4016   2
   2  -2   2 2958.37 72.3476  16
  -2  -2  -2 3223.37 74.6916  11
  -2  -2  -2 3141.05 72.9974  15
   2  -2   2 3147.84 77.0554  10
  -2  -2  -2 3165.14 73.3574   6
   2  -2   2 3008.98 72.4634  12
   2  -2   2 2886.09 72.2232  16
  -2   2  -2 3002.51 73.8640  11
   2   2   2 3233.03 81.9198  10
  -2   2  -2 3076.40 72.5174   8
  -2   2  -2 2982.91 74.0580   1
   2   2   2 3327.52 74.2983  14
   2   2   2 3152.20 73.0284  12
  -2   2  -2 3102.97 73.8369   7
   2   2   2 3220.87 73.3260   4
  -4  -2  -2 3007.81 76.4787   6
   4  -2   2 3370.33 76.5051  12
   4  -2   2 3196.45 82.6200  10
   4  -2   2 3180.05 76.7693   2
  -4  -2  -2 3188.63 78.6651   1
  -4  -2  -2 3194.69 79.4787  11
   4  -2   2 3228.51 78.3578   4
   4   2   2 3355.48 76.3773  12
  -4   2  -2 3287.66 78.1507   7
   4   2   2 3205.88 77.6541   4
  -4   2  -2 3178.81 78.8818  11
   4   2   2 3243.50 78.7225  14
   4   2   2 3228.40 79.5482  10
  -4   2  -2 3262.37 78.9867   1
  -4   2  -2 3242.77 76.6706   8
  -6  -2  -2 942.063 27.9913   1
   6  -2   2 971.393 25.4905  12
   6  -2   2 945.866 27.5770   4
   6  -2   2 906.847 31.7521  10
  -6  -2  -2 925.205 28.9325  11
   6   2   2 924.021 27.7894  14
   6   2   2 926.655 25.2630  12
  -6   2  -2 965.327 28.8681  11
  -6   2  -2 916.689 28.1077   1
   6   2   2 967.990 27.0198   4
   8  -2   2 595.179 18.9702  12
  -8  -2  -2 595.140 21.5649   1
   8  -2   2 600.749 21.4055  14
   8  -2   2 586.755 20.9582   4
  -8  -2  -2 578.838 22.7049  11
   8   2   2 590.068 18.9505  12
  -8   2  -2 603.392 22.3785   1
   8   2   2 590.463 20.5111   4
  -8   2  -2 654.374 23.5548  11
   8   2   2 564.803 21.3231  14
  10  -2   2 181.190 9.40212  12
 -10  -2  -2 175.999 12.0396  11
 -10  -2  -2 174.085 11.4802   1
  10  -2   2 190.540 11.7806   4
 -10   2  -2 185.141 12.4170   1
  10   2   2 178.050 11.0139   4
  10   2   2 164.970 9.09217  12
 -10   2  -2 165.892 12.3733  11
  11  -3  -2 101.545 8.06981   4
 -11  -3   2 100.296 9.57510  11
 -11   3   2 101.233 6.85261   8
 -11   3   2 112.564 8.96878   1
 -11   3   2 101.167 9.76457  11
  11   3  -2 104.413 8.18015   4
   9  -3  -2 2.22410 2.81951   4
   9  -3  -2 1.35992 1.48260   9
  -9  -3   2 0.90394 2.34351  16
  -9  -3   2 0.82018 2.71969   5
  -9  -3   2 0.71049 2.95946  11
   9   3  -2 -1.7457 2.77827   4
  -9   3   2 0.02481 2.60978   1
  -9   3   2 -0.5797 1.50162   8
  -9   3   2 1.97457 3.20444  11
   9   3  -2 3.89039 2.65237  14
   9   3  -2 2.14332 1.61897   3
  -7  -3   2 91.1861 6.04051  11
  -7  -3   2 95.5157 5.53123   8
   7  -3  -2 89.7152 5.17049  12
  -7  -3   2 88.7564 6.60386   5
   7  -3  -2 102.614 6.21472   4
   7  -3  -2 94.7628 5.25754  14
   7  -3  -2 85.9306 4.81226   2
   7  -3  -2 95.0331 8.40849  10
  -7  -3   2 93.3447 6.37853  16
  -7  -3   2 96.5014 5.26580   1
  -7   3   2 96.6046 6.06854   1
   7   3  -2 91.9072 6.17899  14
  -7   3   2 98.0365 5.40737   8
   7   3  -2 90.4237 5.66089   4
   7   3  -2 96.9125 5.27493  12
   5  -3  -2 208.367 7.22123  14
   5  -3  -2 220.285 8.00286   4
   5  -3  -2 227.277 11.0370  10
  -5  -3   2 233.409 8.97340  16
  -5  -3   2 206.023 8.90052   5
   5  -3  -2 209.778 7.35957  12
  -5  -3   2 204.761 7.21259   1
  -5  -3   2 214.716 7.41488   8
   5  -3  -2 217.992 7.73632   2
  -5  -3   2 208.763 8.13931  11
   5   3  -2 206.501 8.00537   4
   5   3  -2 206.258 8.34547  14
  -5   3   2 211.714 7.23861   8
  -5   3   2 223.687 7.60338  13
  -5   3   2 221.199 8.01654   1
  -5   3   2 215.435 7.21996  12
   5   3  -2 192.844 6.65262   3
  -5   3   2 207.214 7.34522   5
  -5   3   2 212.357 7.19338  16
   5   3  -2 202.495 7.34870  12
  -3  -3   2 9.99372 1.20817   8
   3  -3  -2 9.98811 1.26272  12
   3  -3  -2 11.8240 2.17933  10
   3  -3  -2 7.94864 1.44628   2
   3  -3  -2 7.43902 1.17138   4
   3  -3  -2 11.7074 1.28584   6
  -3  -3   2 10.0883 1.28509  11
  -3  -3   2 10.4973 1.77866  16
  -3  -3   2 12.6741 2.05867   5
  -3  -3   2 11.0848 1.34538  12
  -3   3   2 8.88422 1.33137   8
   3   3  -2 11.8372 1.36917  12
   3   3  -2 10.4280 1.54627   4
  -3   3   2 9.26620 1.17826  12
   3   3  -2 9.34613 1.11331   9
   3   3  -2 10.7311 1.15057   3
   3   3  -2 8.90294 1.55747  14
  -3   3   2 8.37056 1.06789   3
  -3   3   2 10.4431 1.45374  13
  -1  -3   2 1490.85 35.9901  16
  -1  -3   2 1462.50 36.1391   2
   1  -3  -2 1505.97 35.9369   6
  -1  -3   2 1472.90 35.4919  12
   1  -3  -2 1489.51 36.1795   2
  -1  -3   2 1516.87 36.1198   5
   1  -3  -2 1497.68 36.4205  10
   1   3  -2 1463.35 34.7846  13
   1   3  -2 1475.92 35.9341   7
  -1   3   2 1462.44 34.9226  14
  -1   3   2 1487.28 35.8598  13
  -1   3   2 1483.48 35.3265   3
  -1   3   2 1487.29 35.3647  12
   1   3  -2 1481.25 35.4131   3
   1   3  -2 1489.29 36.1278   9
   1   3  -2 1525.45 36.3398  14
  -1   3   2 1453.27 36.4012  10
   1  -3   2 114.387 6.05615  10
  -1  -3  -2 102.004 4.38564   1
   1  -3   2 100.157 3.56457  12
  -1  -3  -2 100.279 4.19146   6
  -1  -3  -2 102.219 3.67635  15
  -1  -3  -2 104.185 4.63938  11
   1  -3   2 101.863 4.42574   2
  -1  -3  -2 99.6967 3.57235   2
   1   3   2 101.830 3.30254   4
   1   3   2 101.030 3.38384  12
  -1   3  -2 104.923 3.65393  13
  -1   3  -2 102.409 4.13820   7
  -1   3  -2 100.370 3.73626  11
   1   3   2 100.989 4.08336  14
  -1   3  -2 105.080 4.28667   1
  -1   3  -2 101.963 3.92316   3
   1   3   2 108.479 2.92560  10
   1   3   2 95.9000 3.70831   3
   3  -3   2 22.8193 2.48659   2
  -3  -3  -2 18.9203 2.43648   1
   3  -3   2 24.1229 4.03496  10
  -3  -3  -2 21.4175 1.62470  15
   3  -3   2 20.8254 1.86751  12
  -3  -3  -2 21.0242 2.91712  11
  -3   3  -2 26.0283 2.53359  11
   3   3   2 24.8605 2.25163   4
  -3   3  -2 20.3456 2.71046   1
  -3   3  -2 20.7082 2.35854   7
   3   3   2 22.8516 2.66889  14
   3   3   2 23.7242 2.23012  10
   3   3   2 20.4268 1.71576  12
  -3   3  -2 22.1506 1.63507   8
   5  -3   2 4.47015 2.22683   4
  -5  -3  -2 1.74473 1.25581   6
   5  -3   2 12.3787 2.18928   2
   5  -3   2 3.73257 2.94417  10
  -5  -3  -2 3.07326 2.27318  11
   5  -3   2 4.27408 1.49777  12
  -5  -3  -2 2.90987 2.03925   1
   5   3   2 4.36123 1.85708   4
   5   3   2 2.92814 1.29051  12
   5   3   2 4.58464 2.19252  14
  -5   3  -2 0.57002 2.03543   1
  -5   3  -2 3.76816 2.12700  11
  -5   3  -2 5.13104 1.48644   8
  -5   3  -2 6.13646 2.20419   7
   7  -3   2 57.1566 4.18741  12
   7  -3   2 57.2422 5.63235  14
   7  -3   2 64.5955 6.60320   4
  -7  -3  -2 57.7921 6.77958  11
  -7  -3  -2 62.7115 6.64963   1
  -7   3  -2 52.2160 6.21624   1
   7   3   2 62.1618 5.80943  14
  -7   3  -2 62.4888 6.51906  11
   7   3   2 58.6841 5.01005   4
   7   3   2 60.9664 4.62735  12
   9  -3   2 8.28406 2.80683  12
  -9  -3  -2 9.71561 4.99881  11
  -9  -3  -2 10.3922 4.35382   1
   9  -3   2 10.6127 3.41143   4
   9   3   2 11.9769 2.88732  12
  -9   3  -2 12.1337 4.46751  11
  -9   3  -2 3.69031 4.08256   1
   9   3   2 10.8205 3.88117   4
 -10  -4   2 77.8283 7.94375  11
 -10  -4   2 68.0543 7.83280   5
  10  -4  -2 72.9947 7.17800   4
  10   4  -2 70.6160 6.56887  14
 -10   4   2 68.1217 7.52503   1
  10   4  -2 68.4643 7.17949   4
 -10   4   2 77.3968 6.15678   8
 -10   4   2 75.5274 8.36672  11
  -8  -4   2 2209.03 59.1344  16
  -8  -4   2 2215.09 59.0094  11
   8  -4  -2 2202.68 57.6744   4
  -8  -4   2 2227.19 59.8980   5
  -8   4   2 2211.06 56.1612   8
   8   4  -2 2218.18 58.7068  14
   8   4  -2 2247.30 57.9751   4
  -8   4   2 2285.75 59.8216  11
  -8   4   2 2346.19 58.6983   1
   8   4  -2 2208.89 55.3057   3
   8   4  -2 2137.46 56.5014  12
  -6  -4   2 429.406 14.9190  16
   6  -4  -2 422.943 12.9383  14
   6  -4  -2 423.823 18.1032  10
  -6  -4   2 419.230 13.0216   1
  -6  -4   2 426.881 15.3425   5
  -6  -4   2 419.030 14.2903  11
   6  -4  -2 426.678 13.5837   2
   6  -4  -2 408.765 13.6661   4
   6  -4  -2 417.505 13.1788  12
  -6  -4   2 432.407 13.1153   8
   6   4  -2 430.835 14.0046   4
  -6   4   2 438.827 14.3384   1
   6   4  -2 417.023 12.4271   3
   6   4  -2 395.165 12.9813  12
   6   4  -2 405.770 14.4313  14
  -6   4   2 428.827 12.9462   8
  -6   4   2 428.258 13.2859  13
   4  -4  -2 5787.65 141.392  12
   4  -4  -2 6060.19 146.557  10
  -4  -4   2 6256.01 143.337  16
   4  -4  -2 5997.78 141.988   6
   4  -4  -2 5907.30 141.392   4
  -4  -4   2 6229.04 144.206  11
  -4  -4   2 6249.85 141.052   8
   4  -4  -2 5934.69 142.289   2
  -4  -4   2 5645.51 140.569   2
  -4  -4   2 6121.62 143.573   5
   4   4  -2 6094.55 143.049   3
  -4   4   2 5867.12 147.106  16
  -4   4   2 5742.51 141.091  12
  -4   4   2 5873.39 141.111   8
   4   4  -2 6080.43 144.232   9
  -4   4   2 6038.70 140.839   3
   4   4  -2 6490.41 147.989  14
   4   4  -2 6174.37 145.676   4
  -4   4   2 6037.70 141.639  13
   4   4  -2 6255.92 141.508  12
  -2  -4   2 559.760 15.2052   2
  -2  -4   2 563.174 14.7792  12
  -2  -4   2 547.103 15.5856  16
  -2  -4   2 556.666 15.7919   5
   2  -4  -2 556.984 15.5849   2
  -2  -4   2 533.827 14.0055  11
   2  -4  -2 562.852 14.8367   6
   2  -4  -2 586.398 16.9045  10
  -2   4   2 562.854 16.6566  10
   2   4  -2 564.590 13.9636  13
   2   4  -2 539.388 14.4667   3
  -2   4   2 570.644 15.0717  13
  -2   4   2 549.930 14.4338   3
  -2   4   2 552.477 14.6280   8
   2   4  -2 559.771 14.8442   9
  -2   4   2 569.009 14.7347  12
   2   4  -2 559.379 14.7038  12
   2   4  -2 560.612 15.1924   4
   2   4  -2 544.155 15.5700  14
   0  -4   2 4429.93 116.539  16
   0  -4   2 4776.29 117.005  12
   0  -4   2 4598.11 113.857   5
   0  -4   2 4799.14 112.668   2
   0  -4  -2 4776.70 116.502  11
   0  -4  -2 4706.44 112.256   6
   0  -4  -2 4752.15 112.043   2
   0  -4   2 4942.79 125.435  10
   0   4   2 4890.26 114.888  13
   0   4  -2 5024.38 117.151   7
   0   4   2 4969.72 116.541  12
   0   4   2 4887.93 118.229  14
   0   4  -2 4749.89 115.947  13
   0   4   2 4911.00 113.538   3
   0   4   2 4680.71 113.989  10
   0   4  -2 4603.80 111.588   3
   2  -4   2 79.2091 3.49879  12
  -2  -4  -2 68.2861 4.17322  11
   2  -4   2 79.8625 2.51986   6
  -2  -4  -2 69.5886 4.14118   1
  -2  -4  -2 69.5544 2.95851  15
  -2  -4  -2 69.4663 3.98069   6
   2  -4   2 72.2433 4.29182   2
   2   4   2 72.9640 3.61465   3
  -2   4  -2 72.1303 3.50608   3
  -2   4  -2 69.6819 4.09169   1
   2   4   2 69.4328 2.95804   4
  -2   4  -2 66.1680 3.73122   7
  -2   4  -2 70.2450 3.27447  13
   2   4   2 69.4405 3.16587  12
   2   4   2 71.1140 3.90219  14
   4  -4   2 1782.86 44.1960  12
  -4  -4  -2 1812.57 45.0644   6
  -4  -4  -2 1865.81 46.2222   1
   4  -4   2 1744.86 45.0531   2
  -4  -4  -2 1840.56 46.9060  11
   4  -4   2 1767.49 50.9153  10
   4   4   2 1761.82 44.3269   4
   4   4   2 1843.05 44.0805  12
  -4   4  -2 1768.39 45.3276   7
  -4   4  -2 1711.26 43.3093   8
   4   4   2 1867.32 46.4005  14
  -4   4  -2 1730.31 46.2548   1
  -4   4  -2 1746.35 46.0301  11
  -6  -4  -2 55.5417 5.69346  11
  -6  -4  -2 54.5660 4.27587   6
   6  -4   2 62.6205 5.91395   4
  -6  -4  -2 53.5583 5.83355   1
   6  -4   2 50.4720 3.83460  12
  -6   4  -2 57.4209 3.86668   8
   6   4   2 58.8104 4.21279  12
   6   4   2 62.7003 4.99648   4
  -6   4  -2 56.5652 5.53174   1
  -6   4  -2 73.9704 6.14609  11
   6   4   2 49.5924 5.56526  14
   8  -4   2 694.338 24.4696  14
   8  -4   2 758.424 23.1845  12
  -8  -4  -2 724.120 26.7160  11
  -8  -4  -2 794.540 26.0224   1
   8  -4   2 782.796 25.7721   4
  -8   4  -2 782.455 26.9345   1
   8   4   2 771.486 24.2062   4
   8   4   2 728.958 25.5897  14
  -8   4  -2 819.088 27.6978  11
   8   4   2 766.372 23.2859  12
 -11  -5   2 47.1592 6.51252  11
 -11  -5   2 49.2956 6.92813   5
  11  -5  -2 56.9412 7.00194   4
 -11   5   2 54.5837 6.74089   1
 -11   5   2 46.3130 5.32818   8
 -11   5   2 62.7959 8.39158  11
  11   5  -2 51.8453 6.82255   4
  -9  -5   2 369.559 15.9116  11
  -9  -5   2 374.861 17.2157   5
   9  -5  -2 373.003 15.2247   4
  -9  -5   2 388.900 16.4708  16
  -9   5   2 370.130 13.7287   8
  -9   5   2 378.946 16.2162   1
  -9   5   2 389.158 17.1795  11
   9   5  -2 363.896 15.9048  14
   9   5  -2 365.777 15.2595   4
   7  -5  -2 306.989 11.5713   2
  -7  -5   2 299.174 13.1746  16
  -7  -5   2 288.573 12.0007  11
   7  -5  -2 310.479 11.7907   4
   7  -5  -2 290.318 15.8149  10
  -7  -5   2 309.852 13.6870   5
   7   5  -2 282.882 10.1560   3
  -7   5   2 304.902 10.7784   8
  -7   5   2 313.461 12.5664   1
   7   5  -2 291.897 11.0603  12
  -7   5   2 305.574 11.4053  13
   7   5  -2 310.655 12.8511  14
   7   5  -2 286.476 11.7132   4
  -5  -5   2 385.300 13.9269   5
   5  -5  -2 358.087 11.8237   4
  -5  -5   2 382.642 12.2572  11
   5  -5  -2 378.766 12.6441   2
  -5  -5   2 390.793 13.6801  16
   5  -5  -2 369.034 16.2435  10
  -5   5   2 358.702 10.9362  16
   5   5  -2 373.672 13.1667  14
  -5   5   2 376.047 11.9611  13
   5   5  -2 381.728 11.3406   3
   5   5  -2 363.330 11.7516  12
  -5   5   2 371.227 12.6898   1
  -5   5   2 364.320 11.2640   3
  -5   5   2 361.925 11.3814   8
   5   5  -2 370.518 12.2507   4
   3  -5  -2 1141.77 28.5495   6
  -3  -5   2 1124.53 30.2803  16
  -3  -5   2 1163.20 30.7524   5
   3  -5  -2 1106.83 28.1022   4
  -3  -5   2 1110.33 28.4787  11
  -3  -5   2 1143.47 28.9051  12
   3  -5  -2 1141.11 30.1358   2
  -3  -5   2 1109.88 28.9722   2
   3  -5  -2 1185.73 32.7496  10
  -3   5   2 1164.44 28.6140   3
   3   5  -2 1138.55 28.5732   3
   3   5  -2 1117.87 28.9029  12
   3   5  -2 1156.76 30.1812  14
  -3   5   2 1167.02 28.6789   8
   3   5  -2 1139.33 28.0424  13
  -3   5   2 1149.26 28.8784  12
   3   5  -2 1142.07 29.3702   4
  -3   5   2 1200.95 29.3470  13
   1  -5  -2 71.1161 3.68524  10
   1  -5  -2 64.5536 3.72215   2
  -1  -5   2 65.2355 4.29569  10
  -1  -5   2 68.2352 3.55876  16
  -1  -5   2 67.1720 3.96950   2
   1  -5  -2 62.1877 3.50042   6
  -1  -5   2 62.7745 3.57575   5
  -1   5   2 65.9853 2.91702  14
  -1   5   2 65.3888 3.44964  10
  -1   5   2 61.0829 3.08583  12
   1   5  -2 60.0530 3.23858   7
  -1   5   2 65.1628 3.22041   3
   1   5  -2 62.7471 2.71078  13
  -1   5   2 63.7432 3.37078  13
   1   5  -2 62.7016 3.74393  14
   1   5  -2 66.2598 3.17816   3
  -1  -5  -2 739.667 19.5939   2
   1  -5   2 725.652 19.5656  12
  -1  -5  -2 759.095 20.5777   6
  -1  -5  -2 753.737 21.0516  11
  -1  -5  -2 712.783 18.5939   9
   1  -5   2 774.985 21.0079   2
   1  -5   2 775.018 23.5508  10
  -1  -5  -2 712.798 19.0298  15
  -1   5  -2 768.679 20.1865   7
   1   5   2 754.647 20.1959  13
   1   5   2 745.074 19.4851  12
   1   5   2 751.658 19.6939   3
  -1   5  -2 755.026 19.8835   3
   1   5   2 745.733 20.0985  14
  -1   5  -2 779.830 19.4236  13
  -3  -5  -2 114.989 6.64237  11
   3  -5   2 133.565 5.55061  12
   3  -5   2 134.784 6.64935   2
   3  -5   2 132.702 8.93901  10
  -3  -5  -2 132.738 6.33398   6
  -3   5  -2 153.650 5.91443  13
  -3   5  -2 126.036 6.58322   1
   3   5   2 121.885 4.87904   4
   3   5   2 120.889 6.35897  14
   3   5   2 126.005 5.33907  12
   3   5   2 130.439 5.64800   3
  -3   5  -2 125.964 5.96006  11
  -3   5  -2 131.067 6.10619   7
  -5  -5  -2 49.8394 5.03742  11
   5  -5   2 50.1339 3.97053  12
   5  -5   2 49.6992 4.42107   4
   5  -5   2 44.3105 6.05761  10
  -5  -5  -2 52.8508 4.43661   6
  -5  -5  -2 58.8737 4.87264   1
   5  -5   2 47.3815 4.38138   2
  -5   5  -2 49.5757 4.63867   7
  -5   5  -2 51.1492 4.83567   1
   5   5   2 52.1680 3.86133   4
   5   5   2 50.9628 5.41250  14
   5   5   2 50.3141 3.86727   3
  -5   5  -2 47.0169 4.77200  11
   5   5   2 50.8069 3.77314  12
  -7  -5  -2 132.210 9.84664  11
   7  -5   2 131.222 8.86529   4
   7  -5   2 143.640 7.60589  12
  -7  -5  -2 125.575 8.76037   1
   7   5   2 128.299 8.93354  14
   7   5   2 124.087 6.96626  12
   7   5   2 124.575 6.95143   3
   7   5   2 122.077 7.39936   4
  -7   5  -2 141.902 9.37699  11
  -7   5  -2 131.856 9.03474   1
   9  -5   2 -3.1380 3.07768   4
  -9  -5  -2 4.81630 3.90243   1
   9  -5   2 4.91142 2.54282  12
  -9  -5  -2 0.43320 4.18566  11
  -9   5  -2 -1.2090 3.96325   1
   9   5   2 3.97318 2.08416   3
   9   5   2 4.72832 2.34083  12
  -9   5  -2 2.56880 3.46625  11
 -10  -6   2 722.051 27.5099   5
  10  -6  -2 725.567 24.9309   9
  10  -6  -2 735.714 24.7952   4
 -10   6   2 750.022 27.5414  11
 -10   6   2 768.484 26.7181   1
   8  -6  -2 15.4098 3.37817   2
  -8  -6   2 19.1661 4.36194   5
   8  -6  -2 13.6732 3.24865   4
  -8  -6   2 22.3484 3.99065   6
  -8  -6   2 16.3868 3.63118  11
  -8  -6   2 17.5692 3.88912  16
   8   6  -2 14.9743 3.71340   4
   8   6  -2 19.8715 3.01728   3
   8   6  -2 14.0338 3.68943  14
  -8   6   2 18.0444 3.12438   8
  -8   6   2 27.2890 4.43986   1
  -6  -6   2 1573.27 40.6663  11
  -6  -6   2 1573.17 43.4650   5
   6  -6  -2 1462.42 46.6270  10
  -6  -6   2 1594.33 42.8513  16
   6  -6  -2 1447.10 39.8637   4
   6  -6  -2 1567.51 41.3764   2
   6   6  -2 1565.66 40.6722   4
   6   6  -2 1526.58 40.0645  12
  -6   6   2 1550.26 40.1664  13
   6   6  -2 1512.24 39.1059   3
  -6   6   2 1569.63 41.4940   1
  -6   6   2 1527.23 39.2944   8
   6   6  -2 1567.61 42.1754  14
  -4  -6   2 76.9264 5.47848  16
   4  -6  -2 76.4576 3.64465   6
   4  -6  -2 66.6874 3.69100   4
  -4  -6   2 72.9659 3.88301   2
   4  -6  -2 66.9023 4.93207   2
  -4  -6   2 64.4673 3.78901  11
  -4  -6   2 67.8720 5.54836   5
   4  -6  -2 70.9977 6.30908  10
   4   6  -2 63.8556 3.83942  12
   4   6  -2 67.0810 4.20625   4
  -4   6   2 60.6075 3.60164   8
  -4   6   2 78.6023 4.56587  13
   4   6  -2 62.4348 3.26913  13
  -4   6   2 59.5401 3.69701  12
  -4   6   2 68.5689 3.72923  16
  -4   6   2 69.8819 3.94896   3
   4   6  -2 69.9871 3.95266   3
   4   6  -2 72.5773 4.97857  14
  -2  -6   2 3236.92 78.8643   2
  -2  -6   2 3202.14 78.1299  12
  -2  -6   2 3198.79 79.4495   5
  -2  -6   2 3170.00 79.1133  16
   2  -6  -2 3335.31 80.6142  10
   2  -6  -2 3289.02 79.5966   2
   2  -6  -2 3317.68 78.3202   6
  -2  -6   2 3170.73 79.8062  10
  -2   6   2 3337.57 78.5367  13
   2   6  -2 3340.27 78.6185   7
   2   6  -2 3361.97 79.5390  14
   2   6  -2 3268.62 77.1626  13
  -2   6   2 3323.88 78.1599  12
   2   6  -2 3206.02 77.9185   3
  -2   6   2 3346.35 77.9899   3
   0  -6   2 423.260 15.1727  10
   0  -6   2 448.317 13.9235   2
   0  -6   2 423.441 12.5503  12
   0  -6   2 413.982 12.2825   5
   0  -6  -2 436.648 13.3903   6
   0  -6  -2 434.951 13.1765   2
   0   6  -2 425.983 12.8540   7
   0   6  -2 428.105 12.6779   3
   0   6   2 421.198 12.4551  14
   0   6   2 428.383 11.3625   7
   0   6  -2 444.364 12.0726  13
   0   6   2 422.455 12.4656   3
   0   6   2 432.336 12.5720  12
   0   6   2 444.551 13.0584  13
  -2  -6  -2 3644.94 89.1398   6
  -2  -6  -2 3496.39 86.6322  15
   2  -6   2 3733.86 88.0512  12
  -2  -6  -2 3536.30 87.1367   2
   2  -6   2 3775.03 89.8869   2
  -2  -6  -2 3679.69 89.8465  11
   2  -6   2 3705.10 93.8352  10
  -2   6  -2 3630.78 89.3194   1
   2   6   2 3691.51 87.8519  12
  -2   6  -2 3764.81 88.5243   7
  -2   6  -2 3744.47 87.7361  13
  -2   6  -2 3723.31 88.3087   3
   2   6   2 3739.49 88.0837   3
   2   6   2 3706.96 88.9431  14
   2   6   2 3722.94 88.6177  13
  -4  -6  -2 347.133 12.7094   6
   4  -6   2 357.454 11.7466  12
   4  -6   2 345.902 16.9361  10
   4  -6   2 373.977 13.4037   2
  -4  -6  -2 346.899 13.7626  11
  -4   6  -2 357.802 12.4154   7
   4   6   2 336.637 13.0178  14
   4   6   2 333.041 11.5253  12
   4   6   2 360.705 12.0448   3
  -4   6  -2 334.363 13.3172   1
  -4   6  -2 354.618 11.9046  13
  -4   6  -2 343.210 12.6819  11
   6  -6   2 1647.32 44.7634  12
  -6  -6  -2 1866.16 49.1712  11
   6  -6   2 1663.19 46.4987   4
  -6  -6  -2 1778.49 45.8035   6
  -6   6  -2 1660.01 47.8114   1
   6   6   2 1743.11 44.8691  12
  -6   6  -2 1670.45 45.8083   7
  -6   6  -2 1678.63 47.3791  11
   6   6   2 1720.33 44.8770   3
   6   6   2 1721.51 47.3872  14
   8  -6   2 103.399 8.39624   4
   8  -6   2 80.6049 6.27442  12
  -8  -6  -2 89.3436 9.20971  11
  -8   6  -2 92.9744 7.88741  11
  -8   6  -2 76.7695 8.58084   1
   8   6   2 90.0833 6.74607   3
   8   6   2 93.2856 6.58584  12
  -9  -7   2 31.7338 6.68374   5
  -9  -7   2 36.2520 5.13002   6
  -9   7   2 46.6531 6.65150   1
   9   7  -2 42.2447 5.59611   4
  -9   7   2 37.7242 6.31667  11
   7  -7  -2 12.9473 3.53641   2
   7  -7  -2 9.40636 3.09549   4
  -7  -7   2 14.5385 3.97037  16
  -7  -7   2 11.8905 4.28745   5
  -7  -7   2 11.5568 3.06084  11
  -7   7   2 11.5913 2.59485   8
   7   7  -2 8.47366 2.76242  14
   7   7  -2 11.5252 2.19456   3
   7   7  -2 18.6681 3.40537   4
  -7   7   2 8.46281 2.62923  13
  -7   7   2 13.4533 3.90390   1
  -5  -7   2 12.3759 2.94288  16
  -5  -7   2 16.0549 3.45956   5
   5  -7  -2 14.3621 3.85598  10
   5  -7  -2 11.7947 3.15402   2
  -5   7   2 10.7371 2.07995   8
  -5   7   2 15.9926 2.76431  13
   5   7  -2 14.1158 2.49885   4
  -5   7   2 14.7028 2.28648   3
   5   7  -2 11.2727 2.01197   3
   5   7  -2 13.1168 3.07505  14
   5   7  -2 11.6941 1.78153  13
  -3  -7   2 161.697 7.47508  10
   3  -7  -2 168.639 9.13731  10
   3  -7  -2 179.882 8.33674   2
  -3  -7   2 177.357 8.47618   5
  -3  -7   2 172.410 8.09023  16
  -3  -7   2 168.099 7.25010   2
   3  -7  -2 174.699 6.73756   6
  -3   7   2 168.418 6.79780   3
   3   7  -2 164.009 6.02974  13
  -3   7   2 167.385 7.02800  13
   3   7  -2 164.922 7.67156  14
  -3   7   2 162.836 6.65303  12
   3   7  -2 168.043 7.19827   7
   3   7  -2 173.878 6.90392   3
  -3   7   2 169.312 6.38538   8
  -1  -7   2 5.88135 1.77155   5
   1  -7  -2 6.85182 1.49626  10
  -1  -7   2 7.81771 2.11206  10
  -1  -7   2 7.73024 2.21803   2
   1  -7  -2 6.43369 1.90129   6
  -1  -7   2 6.79080 1.43391  12
   1  -7  -2 6.51287 2.06486   2
  -1   7   2 10.9446 1.84677  12
   1   7  -2 7.13948 1.35376  13
   1   7  -2 8.24018 2.08875  14
   1   7  -2 7.38399 1.73188   7
  -1   7   2 8.15266 1.60363   3
   1   7  -2 7.36166 1.79300   3
  -1   7   2 6.82973 1.47086  14
  -1   7   2 5.83170 1.54354  13
  -1  -7  -2 250.733 8.32505  15
   1  -7   2 266.967 9.33390  12
   1  -7   2 257.068 8.64447   6
   1  -7   2 281.104 12.6031  10
  -1  -7  -2 263.712 10.2060   6
  -1  -7  -2 278.295 10.5196  11
   1  -7   2 275.123 10.9094   2
  -1  -7  -2 265.599 9.48330   2
   1   7   2 281.477 9.54917   3
   1   7   2 255.622 9.43469  14
  -1   7  -2 283.614 9.06198  13
  -1   7  -2 284.848 9.73047   3
   1   7   2 269.897 9.68601  13
   1   7   2 265.237 9.26190  12
  -1   7  -2 283.974 9.72079   7
  -3  -7  -2 105.495 6.49973  11
   3  -7   2 125.948 5.95005  12
   3  -7   2 93.7770 6.63954   2
  -3  -7  -2 97.6158 6.26427   6
   3  -7   2 101.157 8.61123  10
   3   7   2 96.7499 5.34852   3
  -3   7  -2 105.035 5.76397   3
   3   7   2 94.9035 5.65915  13
   3   7   2 94.8370 5.24212  12
  -3   7  -2 108.605 5.90010   7
   3   7   2 102.300 6.20917  14
  -3   7  -2 102.118 5.16832  13
  -3   7  -2 102.107 6.59821   1
  -5  -7  -2 108.345 7.19409   6
   5  -7   2 114.724 6.54890  12
   5  -7   2 110.201 7.54963   2
  -5  -7  -2 113.349 7.77576  11
   5  -7   2 125.587 7.57111   4
  -5   7  -2 116.806 7.09007   7
  -5   7  -2 113.946 7.09901  11
   5   7   2 111.687 7.33602  14
   5   7   2 114.813 6.38512  12
   5   7   2 119.067 6.86577   3
  -5   7  -2 115.496 8.13786   1
  -7  -7  -2 182.622 11.2847  11
   7  -7   2 183.638 9.29852  12
   7  -7   2 166.830 10.2596   4
  -7  -7  -2 186.777 9.76087   6
   7   7   2 182.295 10.5555  14
   7   7   2 189.899 9.14866   3
  -7   7  -2 175.802 11.8722   1
   7   7   2 185.500 9.11602  12
  10  -8  -2 518.384 22.8786   9
 -10   8   2 430.176 23.1849   1
 -10   8   2 532.220 22.0983  11
  -8  -8   2 278.417 15.1413   5
  -8  -8   2 282.364 12.6066   6
   8  -8  -2 257.467 12.3310   2
   8   8  -2 247.135 12.6833  14
   8   8  -2 253.627 10.6904   3
  -8   8   2 254.224 11.4613  13
  -8   8   2 234.803 13.1345   1
   6  -8  -2 1199.98 34.3115   2
  -6  -8   2 1188.37 36.1503   5
   6   8  -2 1136.30 34.2386  14
   6   8  -2 1136.37 31.4227   3
   6   8  -2 1143.05 32.2271   4
  -6   8   2 1128.64 30.8159   8
  -6   8   2 1158.86 32.2952  13
  -6   8   2 1209.40 34.3617   1
  -4  -8   2 516.458 18.6953   5
   4  -8  -2 545.682 18.1092   2
   4  -8  -2 499.618 19.8335  10
  -4   8   2 508.490 15.0770   8
   4   8  -2 497.835 15.7392   3
  -4   8   2 543.862 16.6478  13
   4   8  -2 518.934 16.6104   7
  -4   8   2 509.641 15.8216   3
   4   8  -2 493.820 17.4988  14
  -2  -8   2 1526.07 39.8427   2
   2  -8  -2 1524.52 38.8993   6
   2  -8  -2 1556.90 40.5351   2
  -2  -8   2 1539.52 40.3559   5
   2   8  -2 1494.41 38.5970   3
   2   8  -2 1532.93 40.2784  14
   2   8  -2 1483.21 37.4464  13
  -2   8   2 1440.47 38.3552  12
  -2   8   2 1439.09 37.7045   8
  -2   8   2 1529.67 39.0703  13
  -2   8   2 1520.19 38.6332   3
   2   8  -2 1486.85 38.8428   7
   0  -8   2 497.010 15.0703   6
   0  -8   2 506.633 16.9469   2
   0  -8  -2 495.392 15.8832   2
   0  -8   2 490.427 15.1393  12
   0  -8   2 490.710 18.1389  10
   0  -8  -2 504.936 16.1367   6
   0   8  -2 517.785 14.5705  13
   0   8  -2 499.116 15.3857   3
   0   8   2 480.054 15.4333  13
   0   8   2 502.415 15.2992   3
   0   8  -2 488.325 15.2639   7
   0   8   2 478.220 14.9417  14
   0   8   2 504.929 15.1867  12
   2  -8   2 802.037 22.8263  12
  -2  -8  -2 783.435 24.3667  11
  -2  -8  -2 808.245 24.2300   6
   2  -8   2 815.485 28.2879  10
   2  -8   2 826.326 24.8638   2
   2   8   2 828.085 23.0646   3
  -2   8  -2 818.223 22.3957  13
  -2   8  -2 814.563 23.1188   3
   2   8   2 789.019 23.3738  14
   2   8   2 791.407 22.7625  12
   2   8   2 809.380 23.3784  13
  -2   8  -2 825.643 23.0747   7
  -4  -8  -2 280.629 12.8302  11
   4  -8   2 285.659 12.3484   2
  -4  -8  -2 284.755 12.3052   6
   4  -8   2 288.129 11.1536  12
   4   8   2 264.571 11.9493  14
  -4   8  -2 281.016 10.7071  13
   4   8   2 298.985 11.0005  12
  -4   8  -2 297.651 11.4684   7
   4   8   2 274.277 11.1633  13
   4   8   2 292.144 11.2361   3
  -4   8  -2 267.264 12.5708   1
   6  -8   2 345.056 14.4931   2
  -6  -8  -2 328.330 14.1356   6
   6  -8   2 317.510 13.0513  12
  -6  -8  -2 334.926 15.6302  11
   6  -8   2 337.098 14.1917   4
  -6   8  -2 317.970 15.0569   1
   6   8   2 345.569 13.2108  12
   6   8   2 329.691 14.7912  14
   6   8   2 343.302 13.4927  13
   6   8   2 320.930 12.8970   3
  -6   8  -2 356.191 13.9400   7
  -8  -8  -2 237.775 13.8931  11
   8  -8   2 217.854 11.6063   4
   8   8   2 227.851 10.9679   3
   8   8   2 204.791 10.4687  12
  -8   8  -2 217.452 13.1668   1
  -9  -9   2 5.46111 3.18237   6
  -9   9   2 0.64085 4.11234   1
  -9   9   2 3.00892 3.06684  11
   7  -9  -2 2.77631 3.29815   2
  -7  -9   2 -0.8941 3.86731   5
  -7  -9   2 1.43667 3.19031   6
   7   9  -2 -1.1890 2.85872  14
  -7   9   2 1.91575 1.71348  13
  -7   9   2 0.21188 3.57729   1
   7   9  -2 2.64333 2.29414   3
  -5  -9   2 5.77988 2.93828   5
   5  -9  -2 6.88011 2.78238   2
  -5  -9   2 10.8346 3.55865   6
   5   9  -2 4.55699 2.92592  14
   5   9  -2 7.27290 2.76677   7
  -5   9   2 8.63597 2.59575   3
  -5   9   2 7.76189 2.20733  13
   5   9  -2 7.16357 2.06365   3
   3  -9  -2 2.94315 2.43043   2
  -3  -9   2 1.04699 1.75951   6
   3  -9  -2 1.97208 1.64060   6
  -3  -9   2 12.3298 2.92679   2
  -3  -9   2 4.46362 2.74914   5
  -3   9   2 3.24126 2.03959  13
  -3   9   2 3.59410 2.08339   3
  -3   9   2 1.49635 1.30061   8
   3   9  -2 10.1647 2.54650   7
   3   9  -2 3.69470 2.03674   3
   3   9  -2 7.67558 2.65651  14
  -1  -9   2 44.2729 4.42489   6
   1  -9  -2 44.5880 4.72086   6
   1  -9  -2 35.7705 4.28426   2
  -1  -9   2 33.8932 4.46568   2
  -1   9   2 43.4610 4.20338   3
   1   9  -2 46.4912 4.32839   3
   1   9  -2 39.1089 3.76054   7
  -1   9   2 36.5563 3.72381  12
  -1   9   2 45.5837 4.39390  13
   1   9  -2 40.8730 3.14274  13
   1  -9   2 0.85815 2.71679   2
  -1  -9  -2 2.58061 2.41947   6
  -1  -9  -2 6.93879 2.13465   2
   1  -9   2 0.02983 1.74949  10
   1   9   2 -0.6484 1.97977   3
   1   9   2 1.78019 1.74320  13
  -1   9  -2 3.40585 1.55092  13
   1   9   2 4.93000 1.93853  14
  -1   9  -2 -1.2102 1.35787   7
   1   9   2 0.98588 1.15789  12
   3  -9   2 28.5403 3.71476  12
  -3  -9  -2 27.4218 4.61906   6
  -3  -9  -2 34.2259 4.65780  11
   3  -9   2 38.1066 5.38283   2
  -3   9  -2 32.8392 4.59047   1
   3   9   2 34.4007 4.01142  13
  -3   9  -2 23.8765 3.41727   3
   3   9   2 31.1721 4.22036  14
   3   9   2 30.0416 3.65877  12
  -3   9  -2 28.7037 3.37748  13
  -3   9  -2 32.2574 4.05305   7
   3   9   2 25.7301 3.79622   3
  -5  -9  -2 24.4829 4.91850  11
   5  -9   2 31.7387 5.44659   2
  -5  -9  -2 25.8396 4.86574   6
   5  -9   2 21.4092 3.99980   4
   5   9   2 18.6450 3.44755  13
   5   9   2 29.3487 4.86255  14
   5   9   2 26.2499 3.56588  12
  -5   9  -2 27.9433 5.45454   1
   5   9   2 26.1333 4.15272   3
   7  -9   2 0.62175 2.64523   4
  -7  -9  -2 2.99796 2.98840   6
  -7  -9  -2 -1.2800 3.50387  11
   7   9   2 3.88573 3.01577   3
  -7   9  -2 4.19405 3.98445   1
   7   9   2 -1.8623 1.81803  12
  -8 -10   2 369.196 16.5605   6
   8 -10  -2 429.169 17.7696   2
   8  10  -2 401.642 16.7283   7
  -8  10   2 453.177 19.2567   1
   6 -10  -2 137.683 9.84029   2
  -6 -10   2 147.448 11.3171   5
  -6 -10   2 145.992 9.53990   6
   6  10  -2 134.164 8.43880   7
   6  10  -2 127.199 9.24566  14
   6  10  -2 139.081 7.98056   3
  -6  10   2 143.941 10.0475   1
  -6  10   2 134.539 7.73076  13
  -4 -10   2 830.365 25.7980   6
   4 -10  -2 831.541 26.3945   2
  -4  10   2 837.672 24.2354   3
   4  10  -2 809.102 23.9908   3
  -4  10   2 774.269 24.1876  13
   4  10  -2 811.403 24.3873   7
   4  10  -2 780.480 25.8343  14
  -2 -10   2 187.691 9.37850   6
   2 -10  -2 185.976 9.99315   2
  -2 -10   2 179.543 9.27444   2
   2 -10  -2 174.726 8.57475   6
   2  10  -2 174.027 9.31859  14
  -2  10   2 172.073 8.43679  13
   2  10  -2 163.052 7.89669   7
  -2  10   2 169.261 8.35584   3
   2  10  -2 190.835 8.50415   3
   0 -10  -2 1244.50 34.9038   6
   0 -10   2 1238.63 33.4782   6
   0 -10  -2 1183.01 34.5250   2
   0 -10   2 1203.16 35.6275   2
   0  10   2 1224.63 33.8231  12
   0  10  -2 1249.75 33.5046   7
   0  10  -2 1248.69 33.8738   3
   0  10   2 1244.72 34.0642  13
   0  10   2 1264.34 33.9833   3
  -2 -10  -2 145.961 8.96167   6
   2 -10   2 142.289 9.30819   2
   2  10   2 132.157 7.20507  13
  -2  10  -2 138.181 6.82325  13
   2  10   2 135.887 7.81896  14
   2  10   2 123.335 7.15702  12
   2  10   2 140.876 7.89374   3
  -2  10  -2 139.084 7.78303   3
  -4 -10  -2 1057.82 32.7980  11
  -4 -10  -2 1065.04 32.6486   6
   4 -10   2 1079.73 33.2011   2
   4  10   2 1077.32 30.7726   3
  -4  10  -2 1061.80 33.3193   1
   4  10   2 1031.58 30.6584  12
  -4  10  -2 1062.81 30.0934  13
  -6 -10  -2 65.1346 7.29126   6
   6 -10   2 60.1877 7.05934   2
  -6 -10  -2 70.9877 8.01285  11
   6  10   2 63.6736 5.73064  12
  -6  10  -2 55.6047 7.59989   1
   6  10   2 70.1319 6.65246   3
   7 -11  -2 101.651 9.24818   2
  -7 -11   2 92.0501 8.28808   6
   7  11  -2 83.5505 6.46518   3
  -7  11   2 89.2432 9.48360   1
   7  11  -2 85.5410 8.60536   7
  -5 -11   2 131.772 9.78908   6
   5 -11  -2 134.899 9.89464   2
   5  11  -2 119.546 7.88318   7
  -5  11   2 131.447 7.53953   3
  -5  11   2 129.390 7.93811  13
   5  11  -2 147.145 8.26493   3
   5  11  -2 109.723 8.17964  14
   3 -11  -2 135.691 9.29724   2
  -3 -11   2 141.663 9.28773   6
   3  11  -2 146.960 7.80678   3
  -3  11   2 134.675 8.03432   3
  -3  11   2 138.971 8.03562  13
   3  11  -2 131.761 8.77308  14
  -1 -11   2 182.313 9.51780   6
   1 -11  -2 197.561 10.5266   2
   1 -11  -2 196.951 9.92296   6
  -1 -11   2 185.461 10.2994   2
  -1  11   2 178.926 8.77255  13
  -1  11   2 176.507 9.21949   3
   1  11  -2 189.887 9.05379   3
  -1 -11  -2 136.144 9.09008   6
   1 -11   2 137.770 9.47231   2
  -1  11  -2 140.932 7.80049   3
   1  11   2 126.655 7.25935  13
   1  11   2 134.624 7.67709   3
  -3 -11  -2 140.863 9.91118   6
   3 -11   2 148.410 10.5716   2
  -3  11  -2 146.241 9.95131   1
  -3  11  -2 150.596 8.90609   3
   3  11   2 215.268 14.2088  12
   3  11   2 151.361 8.44402   3
   5 -11   2 84.5897 8.66660   2
  -5 -11  -2 92.4935 8.62999   6
   5  11   2 86.4717 7.13847   3
  -5  11  -2 93.7075 8.93830   1
  -6 -12   2 609.354 22.3915   6
   6 -12  -2 593.949 22.8093   2
   6  12  -2 580.627 20.2113   3
  -6  12   2 603.443 23.4488   1
  -4 -12   2 79.2518 8.23439   6
   4 -12  -2 93.4215 7.75144   2
  -4  12   2 92.7959 6.51138   3
   4  12  -2 97.5661 7.18575   3
   2 -12  -2 725.252 24.7866   2
  -2 -12   2 691.189 23.5584   2
  -2 -12   2 740.193 24.0450   6
  -2  12   2 717.208 22.9859   3
  -2  12   2 687.305 22.5919  13
   2  12  -2 724.076 22.8514   3
   0 -12   2 149.909 10.0115   2
   0 -12  -2 141.524 8.50204   2
   0 -12  -2 149.510 9.48547   6
   0  12  -2 149.571 8.73438   3
   0  12   2 149.783 8.40187  13
   0  12   2 161.761 9.18580   3
  -2 -12  -2 562.986 21.3082   6
   2 -12   2 562.359 21.6892   2
   2  12   2 562.392 19.4152   3
  -2  12  -2 572.793 21.3013   1
  -2  12  -2 531.236 19.1854   3
  -4 -12  -2 152.686 10.6889   6
   4 -12   2 165.846 10.7592   2
  -4  12  -2 164.154 10.6399   1
   4  12   2 157.369 9.51919   3
   5 -13  -2 50.3292 7.57161   2
   5  13  -2 44.6710 5.10841   3
  -5  13   2 49.7874 6.77045   3
   3 -13  -2 56.6195 6.56767   2
  -3 -13   2 47.9997 5.92673   6
   3  13  -2 60.5983 6.09334   3
  -3  13   2 57.1062 5.78733   3
   1 -13  -2 33.9861 5.26118   6
   1 -13  -2 47.9562 6.23511   2
  -1 -13   2 37.4754 5.43527   2
  -1  13   2 45.7394 5.33201   3
   1  13  -2 44.5717 5.10162   3
   1 -13   2 45.9915 6.37462   2
  -1 -13  -2 38.7652 5.98561   6
   1  13   2 39.0451 5.55246   3
  -1  13  -2 38.6489 4.82416   3
  -3 -13  -2 31.8933 6.03799   6
   3 -13   2 31.5194 6.05514   2
  -3  13  -2 32.5016 5.07758   3
  -3  13  -2 28.0528 4.85930   1
   3  13   2 25.0892 4.78264   3
   0 -14  -2 98.8162 10.2273   6
 -12   0   3 3.49961 2.28684   8
 -12   0   3 1.12651 3.14594  11
  12   0  -3 2.45341 3.53080   4
 -10   0   3 0.13777 2.41870  11
  10   0  -3 -0.8830 2.80083   4
 -10   0   3 -2.3202 2.29714   8
  10   0  -3 -0.5361 1.78870  14
  -8   0   3 3.16877 1.91231  16
   8   0  -3 10.0436 2.00090   9
  -8   0   3 -0.0699 1.35834   5
  -8   0   3 1.14310 1.81073   8
  -8   0   3 0.56450 1.62353  11
   8   0  -3 4.56741 3.04643  10
  -8   0   3 1.33294 1.57807   1
   8   0  -3 0.09844 1.33150  14
   8   0  -3 1.26878 1.62045   4
  -6   0   3 -0.9083 1.21326   8
  -6   0   3 1.26620 1.00870   1
  -6   0   3 3.12308 1.69386   5
  -6   0   3 1.07239 1.45161  16
   6   0  -3 0.54814 0.92361   9
   6   0  -3 0.92077 1.38832  10
   6   0  -3 -0.2746 0.53636  12
   6   0  -3 0.47726 1.04183  14
   6   0  -3 1.54376 1.17388   4
  -4   0   3 0.97206 0.77270  16
  -4   0   3 3.55710 0.73510  12
   4   0  -3 1.56408 0.97350   4
  -4   0   3 4.37223 0.93629   8
  -4   0   3 0.89138 0.79694   5
   4   0  -3 1.24578 0.77382   9
  -2   0   3 8.85067 1.22753  16
   2   0  -3 7.79154 1.13821   9
  -2   0   3 10.5031 0.79690  12
  -2   0  -3 -0.4453 0.87629   7
  -2   0  -3 -0.2808 0.71152  15
  -2   0  -3 2.82113 0.67398   6
   2   0   3 0.15792 1.13359  10
  -2   0  -3 -0.5543 0.56860  11
  -2   0  -3 -0.6430 0.92549   1
   4   0   3 2.27881 0.85848  12
   4   0   3 2.97731 1.71144   4
   4   0   3 0.26004 1.75744  10
  -4   0  -3 0.55512 1.60516   1
  -4   0  -3 -0.0620 1.10751  11
   6   0   3 0.24952 1.16916  12
  -6   0  -3 -0.2208 2.47071   1
  -6   0  -3 1.72832 1.94043  11
   6   0   3 -0.4354 1.38134  14
   6   0   3 1.36752 1.77625  10
   6   0   3 0.62191 2.34462   4
   8   0   3 -1.8584 1.75807  12
  -8   0  -3 3.19481 3.31001  11
  -8   0  -3 -3.0823 3.16519   1
   8   0   3 0.75153 3.42080   4
   8   0   3 -0.1174 2.53716  14
 -11  -1   3 365.260 17.4396  11
  11  -1  -3 337.734 15.3443   4
 -11  -1   3 365.441 14.5417   8
 -11   1   3 338.028 13.8179   8
  11   1  -3 347.012 16.0572   4
 -11   1   3 337.614 17.0827  11
  -9  -1   3 634.142 21.4927   5
   9  -1  -3 663.054 21.5666   4
  -9  -1   3 622.250 22.0358  11
   9  -1  -3 634.436 20.3805  14
  -9  -1   3 615.171 19.7484   8
  -9  -1   3 633.451 21.0732  16
  -9   1   3 660.794 20.1380   8
  -9   1   3 663.050 22.8091  11
  -9   1   3 637.125 20.4141   1
   9   1  -3 645.325 21.6004   4
   9   1  -3 632.277 20.8693  14
  -7  -1   3 1348.90 35.3222  16
   7  -1  -3 1189.63 33.3519  12
   7  -1  -3 1302.73 34.0068  14
  -7  -1   3 1323.75 33.8528   8
  -7  -1   3 1333.05 35.6744   5
   7  -1  -3 1317.80 34.9564   4
   7  -1  -3 1262.94 39.6697  10
   7  -1  -3 1330.42 34.1481   9
  -7  -1   3 1308.06 35.5183  11
  -7  -1   3 1325.43 33.5550   1
  -7   1   3 1326.59 33.8528   8
   7   1  -3 1227.81 33.5416  12
  -7   1   3 1237.77 34.6276   5
   7   1  -3 1304.61 34.6895  14
   7   1  -3 1295.45 33.1402   9
   7   1  -3 1330.14 35.2074   4
  -7   1   3 1317.09 34.5914  16
  -7   1   3 1339.67 34.1049   1
  -5  -1   3 1248.92 31.0509   8
   5  -1  -3 1256.51 31.7756   4
  -5  -1   3 1241.47 32.2787  16
   5  -1  -3 1230.09 30.8292  14
   5  -1  -3 1222.20 31.0514  12
   5  -1  -3 1277.02 31.7251   9
  -5  -1   3 1225.39 32.4985   5
   5  -1  -3 1262.43 35.7334  10
  -5  -1   3 1257.56 30.4686   1
  -5  -1   3 1229.01 31.8471  11
  -5  -1   3 1220.69 30.7985  12
  -5   1   3 1239.54 30.8678   1
  -5   1   3 1269.83 31.8631  16
   5   1  -3 1214.53 31.0117  12
  -5   1   3 1230.55 30.8025  12
   5   1  -3 1260.12 31.1477   9
  -5   1   3 1259.49 31.1373   8
  -5   1   3 1220.23 30.6246  13
  -5   1   3 1240.11 31.9951   5
   5   1  -3 1230.23 31.9476   4
   5   1  -3 1235.34 31.5863  14
   3  -1  -3 4658.19 115.016   9
  -3  -1   3 4674.22 113.953   5
  -3  -1   3 4606.59 111.962   8
   3  -1  -3 4652.90 112.243  14
   3  -1  -3 4817.69 113.560   6
  -3  -1   3 4426.90 113.097  16
   3  -1  -3 4648.70 113.320   4
  -3   1   3 4785.36 112.766  10
  -3   1   3 4621.09 113.364  12
  -3   1   3 4872.45 113.200   8
   3   1  -3 4810.66 114.088  15
  -3   1   3 4644.51 113.723   5
   3   1  -3 4700.58 112.288   9
   3   1  -3 4709.33 116.388  14
   3   1  -3 4854.55 112.513   4
  -3   1   3 4713.79 116.003  16
  -3   1   3 4754.52 113.452  13
   1  -1  -3 1089.30 27.4409  15
  -1  -1   3 1154.16 26.9045  12
  -1  -1   3 1169.05 27.5592  16
  -1  -1   3 1213.69 26.5702   8
   1  -1  -3 1093.24 27.5743  11
  -1  -1   3 1190.34 27.6935   5
   1  -1  -3 1101.94 27.0031   1
   1  -1  -3 1077.76 27.3901   6
   1  -1  -3 1094.64 27.5051   9
   1  -1  -3 1053.58 26.6597   7
  -1   1   3 1088.52 26.9771  13
   1   1  -3 1110.00 27.7516   9
   1   1  -3 1173.14 27.4160   7
   1   1  -3 1110.53 27.3515  15
   1  -1   3 3835.40 102.445  10
  -1  -1  -3 4127.28 97.9293  11
  -1  -1  -3 4114.42 94.2615  15
  -1  -1  -3 4055.49 94.0275   7
  -1  -1  -3 4134.93 93.7803   9
  -1  -1  -3 3980.94 94.6228   1
  -1  -1  -3 4133.65 95.8876   6
  -1   1  -3 3868.56 97.1739  15
  -1   1  -3 3973.54 94.4740   9
   1   1   3 4313.98 106.321  10
  -1   1  -3 3863.59 96.7243  11
  -1   1  -3 3828.24 94.1497   6
  -1   1  -3 3957.36 94.3629   7
  -1   1  -3 3959.20 94.6200   1
  -3  -1  -3 1145.21 29.5764  15
  -3  -1  -3 1172.38 30.9773   1
   3  -1   3 1173.24 28.9510   2
   3  -1   3 1188.51 28.0736  12
   3  -1   3 1174.13 33.5362  10
  -3  -1  -3 1106.19 28.6740   6
  -3  -1  -3 1140.47 31.1165  11
   3   1   3 1165.43 30.6727  14
   3   1   3 1163.19 32.1166  10
   3   1   3 1167.58 29.8716   4
  -3   1  -3 1173.09 30.2484   7
  -3   1  -3 1141.81 30.8269  11
  -3   1  -3 1163.58 30.9094   1
   3   1   3 1162.46 27.8597  12
   5  -1   3 885.875 23.4097  12
  -5  -1  -3 901.653 27.3533  11
  -5  -1  -3 901.793 26.6987   1
   5  -1   3 901.377 25.8851   4
   5  -1   3 885.718 29.5281  10
   5   1   3 899.130 26.4231  14
  -5   1  -3 867.499 26.6492   1
   5   1   3 915.097 25.4941   4
   5   1   3 856.607 27.8695  10
   5   1   3 891.463 23.4077  12
  -5   1  -3 928.055 27.2638  11
  -7  -1  -3 612.381 21.6737   1
  -7  -1  -3 582.555 21.9911  11
   7  -1   3 596.303 20.4552   4
   7  -1   3 613.152 18.4568  12
   7  -1   3 619.509 21.3883  14
  -7   1  -3 603.291 22.4973  11
  -7   1  -3 595.590 21.7788   1
   7   1   3 584.135 21.0800  14
   7   1   3 587.694 20.2216   4
   7   1   3 608.235 18.3739  12
  -9  -1  -3 251.740 14.8200  11
   9  -1   3 243.237 11.0344  12
  -9  -1  -3 251.791 14.0003   1
   9  -1   3 267.225 13.5326   4
  -9   1  -3 269.489 14.6275   1
  -9   1  -3 260.769 14.8046  11
   9   1   3 257.713 13.1273   4
   9   1   3 242.417 11.0475  12
 -12  -2   3 73.2066 8.06340  11
  12  -2  -3 87.6255 7.54026   4
  12   2  -3 71.2931 8.08538   4
 -12   2   3 68.5715 8.19455  11
 -12   2   3 59.7894 6.17685   8
 -10  -2   3 167.825 10.9090  11
  10  -2  -3 178.231 10.2796   4
 -10  -2   3 170.066 9.83224  16
 -10  -2   3 169.534 10.4046   5
 -10  -2   3 161.038 9.05058   8
 -10   2   3 169.357 11.4335  11
  10   2  -3 167.963 10.3773   4
 -10   2   3 164.113 8.59598   8
   8  -2  -3 237.361 9.66981  14
   8  -2  -3 258.611 10.9803   4
  -8  -2   3 263.523 9.99944   8
   8  -2  -3 239.790 14.0663  10
   8  -2  -3 251.308 10.1150   9
  -8  -2   3 254.397 11.1627  16
  -8  -2   3 253.382 11.4162  11
  -8  -2   3 268.938 11.8047   5
  -8   2   3 253.635 10.0415  16
  -8   2   3 253.196 10.3905   5
   8   2  -3 266.050 11.3926   4
  -8   2   3 260.728 10.5435   1
   8   2  -3 257.398 10.9554  14
  -8   2   3 269.154 10.2878   8
  -8   2   3 260.143 11.9820  11
   6  -2  -3 246.127 11.9422  10
  -6  -2   3 231.887 7.91195   8
  -6  -2   3 224.212 9.07960  16
  -6  -2   3 214.196 7.32984   1
   6  -2  -3 207.052 7.47277  14
  -6  -2   3 223.000 9.29632   5
   6  -2  -3 217.019 8.43490   4
  -6  -2   3 209.382 8.64323  11
   6  -2  -3 221.242 8.08370  12
   6  -2  -3 211.836 8.23097   9
   6   2  -3 218.312 8.63631  14
  -6   2   3 218.864 8.03664   1
  -6   2   3 227.876 7.77070  13
  -6   2   3 208.790 8.19146   5
  -6   2   3 210.651 8.03711  16
  -6   2   3 212.384 7.92325   8
   6   2  -3 202.492 7.70150  12
   6   2  -3 219.590 8.77679   4
   6   2  -3 216.069 7.32886   9
   4  -2  -3 625.392 17.0049   9
   4  -2  -3 640.227 16.0834   6
  -4  -2   3 622.001 15.9777   8
   4  -2  -3 620.184 19.8290  10
  -4  -2   3 589.693 16.3244  11
  -4  -2   3 609.207 16.0429  12
  -4  -2   3 621.081 17.4151  16
   4  -2  -3 597.650 15.2857  14
   4  -2  -3 619.790 16.7871   2
   4  -2  -3 622.985 16.4212   4
  -4  -2   3 609.807 17.5626   5
  -4  -2   3 608.001 15.1918   1
  -4   2   3 629.693 16.1666  13
   4   2  -3 616.841 16.9478   4
   4   2  -3 586.822 15.1320   3
  -4   2   3 618.515 16.2795   8
   4   2  -3 613.489 16.8507  14
   4   2  -3 574.488 15.0797  15
  -4   2   3 629.771 16.0986  12
  -4   2   3 642.585 16.9390  16
   4   2  -3 608.886 16.2750   9
  -4   2   3 613.127 17.0346   5
   4   2  -3 588.989 16.0669  12
   2  -2  -3 317.383 8.58584   4
   2  -2  -3 328.497 9.68914   2
  -2  -2   3 332.016 9.65851  16
  -2  -2   3 336.304 9.79501   5
  -2  -2   3 342.081 8.43838   8
   2  -2  -3 309.468 9.47307   9
  -2  -2   3 326.880 8.79402  12
   2  -2  -3 321.135 9.31369   6
   2   2  -3 339.814 9.68605   4
  -2   2   3 329.518 8.69211  12
   2   2  -3 353.719 8.46869   3
   2   2  -3 332.535 8.85801  15
   2   2  -3 338.213 9.45086   7
  -2   2   3 313.316 8.29870   3
  -2   2   3 315.509 10.6442  10
  -2   2   3 321.279 9.10103   8
   2   2  -3 335.339 9.60032   9
   2   2  -3 342.614 9.53794  14
  -2   2   3 324.021 9.05884  13
   0  -2  -3 581.759 15.1785   6
   0  -2   3 559.270 14.4133   5
   0  -2  -3 570.314 15.5977  11
   0  -2  -3 565.892 14.9934  15
   0  -2  -3 571.043 14.2863   7
   0  -2  -3 584.882 14.7386   9
   0  -2   3 589.477 13.8277  12
   0  -2  -3 555.997 15.1620   1
   0  -2   3 570.049 14.3823  16
   0   2  -3 562.762 15.4509   9
   0   2  -3 581.546 15.1896  15
   0   2  -3 571.092 15.1916   7
   0   2   3 556.728 14.6308  14
   0   2  -3 567.303 14.8949   1
   2  -2   3 554.262 18.6667  10
   2  -2   3 567.902 14.0984  12
   2  -2   3 543.633 15.4036   2
  -2  -2  -3 565.568 14.3201   9
  -2  -2  -3 554.328 15.2170   6
  -2  -2  -3 562.637 16.2327   1
  -2  -2  -3 560.651 15.1571  15
  -2  -2  -3 563.456 16.4736  11
   2  -2   3 538.492 13.7349  16
  -2   2  -3 544.748 16.1713   1
   2   2   3 569.282 15.1639   4
   2   2   3 575.652 13.6462  12
   2   2   3 581.669 16.3859  10
   2   2   3 583.630 13.6146  12
  -2   2  -3 538.563 15.7633  11
  -2   2  -3 541.371 15.8048   7
   2   2   3 579.733 16.0556  14
  -4  -2  -3 206.269 9.59288  11
   4  -2   3 214.502 7.07466  12
   4  -2   3 217.729 7.63173   2
   4  -2   3 225.246 11.6136  10
  -4  -2  -3 223.760 9.41020   1
  -4  -2  -3 201.002 7.29964   6
   4   2   3 222.820 6.95739  12
   4   2   3 210.679 8.21700   4
   4   2   3 200.111 8.74925  14
  -4   2  -3 203.964 9.18723   1
  -4   2  -3 209.767 8.53501   7
  -4   2  -3 215.635 9.26363  11
   4   2   3 207.634 9.41512  10
  -6  -2  -3 291.930 13.6167  11
  -6  -2  -3 285.391 12.8617   1
   6  -2   3 297.372 10.4666  12
   6  -2   3 324.001 12.9714   4
   6  -2   3 264.099 15.4407  10
  -6   2  -3 302.871 13.2021   1
   6   2   3 278.799 10.0299  12
  -6   2  -3 302.051 13.4101  11
   6   2   3 283.566 12.6270  14
   6   2   3 318.498 12.1285   4
   8  -2   3 107.068 8.74119   4
  -8  -2  -3 113.426 9.55802  11
   8  -2   3 108.499 8.33144  14
   8  -2   3 107.898 6.63788  12
  -8  -2  -3 96.6913 8.77151   1
   8   2   3 96.2497 7.73818  14
   8   2   3 108.673 6.64725  12
  -8   2  -3 116.416 9.62890  11
   8   2   3 111.350 8.26624   4
  -8   2  -3 110.048 9.50357   1
  11  -3  -3 646.513 23.1922   4
 -11  -3   3 642.403 24.4624  11
 -11  -3   3 614.711 23.5502   5
 -11   3   3 644.468 21.2152   8
  11   3  -3 654.843 23.5342   4
 -11   3   3 631.384 24.6583  11
   9  -3  -3 47.5363 4.82265   9
  -9  -3   3 39.3488 5.46333  11
  -9  -3   3 59.4494 5.91207   5
  -9  -3   3 50.8032 5.34491   8
   9  -3  -3 54.5065 5.79331   4
  -9  -3   3 54.3200 5.38939  16
  -9   3   3 48.8416 5.33518   1
  -9   3   3 55.9220 5.14252   8
   9   3  -3 51.9501 5.40457  14
   9   3  -3 51.2793 5.64628   4
  -9   3   3 48.1041 5.93572  11
   7  -3  -3 2028.89 58.0116  10
   7  -3  -3 2049.49 51.6152   4
  -7  -3   3 2052.94 50.5347   8
  -7  -3   3 2049.39 52.7572  16
  -7  -3   3 2004.23 53.1390   5
   7  -3  -3 2030.56 50.1782  14
   7  -3  -3 2026.86 50.5847   2
  -7  -3   3 2022.30 52.0515  11
   7   3  -3 2049.24 51.9591   4
  -7   3   3 2063.53 50.6297   8
   7   3  -3 1908.73 50.3904  12
  -7   3   3 2094.00 51.4514   1
   7   3  -3 2022.74 52.0721  14
   7   3  -3 1922.34 48.9711   3
  -7   3   3 1966.61 50.7423   5
  -7   3   3 2007.52 50.3756  13
  -5  -3   3 217.008 7.95244  11
   5  -3  -3 243.866 11.6211  10
   5  -3  -3 228.535 7.99551   4
  -5  -3   3 232.745 7.52623   8
  -5  -3   3 225.784 7.49377  12
   5  -3  -3 228.328 6.96370  14
  -5  -3   3 237.556 9.21421  16
  -5  -3   3 222.289 6.95057   1
  -5  -3   3 213.838 9.15506   5
   5  -3  -3 229.938 8.29107   2
   5  -3  -3 226.170 7.07822   6
   5   3  -3 228.827 7.27077   9
   5   3  -3 215.287 8.23258   4
  -5   3   3 215.315 8.03072   5
  -5   3   3 226.198 7.89152   1
  -5   3   3 228.550 7.70161  13
  -5   3   3 225.042 7.92834  16
   5   3  -3 229.014 8.59445  14
  -5   3   3 224.107 7.44929  12
   5   3  -3 210.124 6.73534   3
  -5   3   3 233.500 7.83719   8
   5   3  -3 208.319 7.55168  12
  -3  -3   3 5892.15 146.750  12
  -3  -3   3 6296.85 152.016  16
   3  -3  -3 6035.17 148.657   4
   3  -3  -3 5879.57 147.628   2
   3  -3  -3 6160.01 147.624   6
  -3  -3   3 6231.58 149.041   5
  -3  -3   3 6334.68 145.197  11
  -3  -3   3 6121.61 145.874   8
   3  -3  -3 6331.51 162.837  10
  -3   3   3 5881.03 145.139   3
  -3   3   3 6052.41 148.118  13
   3   3  -3 6379.96 150.831  14
   3   3  -3 6480.79 146.845   3
   3   3  -3 5857.24 146.678  15
  -3   3   3 5906.63 147.601   8
  -3   3   3 6041.72 148.348  12
   3   3  -3 6505.18 145.431   9
   3   3  -3 6396.87 147.327   4
   1  -3  -3 878.366 22.3715   9
  -1  -3   3 893.656 22.3425  16
  -1  -3   3 872.917 21.7929  12
   1  -3  -3 886.082 23.2419  11
   1  -3  -3 863.859 22.4381  15
  -1  -3   3 905.784 22.4725   5
   1  -3  -3 888.246 22.7344   2
   1  -3  -3 882.604 22.7024   6
  -1   3   3 897.694 21.5939  12
   1   3  -3 905.568 22.7425   7
   1   3  -3 884.474 22.2365  15
   1   3  -3 897.124 20.9875  13
   1   3  -3 893.795 21.8788   3
  -1   3   3 879.447 21.7549   3
  -1   3   3 866.849 21.3499  14
   1   3  -3 889.296 22.9478   9
  -1   3   3 887.254 23.0222  10
  -1   3   3 907.708 22.5131  13
   1  -3   3 5323.35 132.431  16
   1  -3   3 5633.19 135.031  12
   1  -3   3 5600.22 142.333  10
   1  -3   3 5610.04 131.618   2
  -1  -3  -3 5553.33 132.539   9
  -1  -3  -3 5664.68 131.471   6
  -1  -3  -3 5622.39 136.415  11
  -1  -3  -3 5681.16 135.724   1
  -1  -3  -3 5700.54 138.071  15
   1   3   3 5645.78 136.664  14
   1   3   3 5503.73 137.920  10
   1   3   3 5635.79 134.290  12
  -1   3  -3 5555.54 136.116  11
   1   3   3 5458.66 130.753   4
   1   3   3 5577.79 131.294  12
  -1   3  -3 5613.36 131.526   1
  -1   3  -3 5821.57 131.579   7
  -3  -3  -3 458.904 13.1738  15
  -3  -3  -3 469.777 13.7842   6
   3  -3   3 456.508 13.9251   2
   3  -3   3 457.058 17.7421  10
  -3  -3  -3 457.843 14.8379   1
  -3  -3  -3 495.953 15.6142  11
   3  -3   3 459.673 12.7815  12
   3   3   3 480.996 14.8039  14
  -3   3  -3 453.559 14.9365   1
  -3   3  -3 477.094 14.5353   7
   3   3   3 469.887 12.4684  12
   3   3   3 464.544 14.1819  10
  -3   3  -3 463.412 14.5511  11
   3   3   3 451.950 13.4279   4
   5  -3   3 1898.21 49.0575   4
   5  -3   3 1840.60 46.4816  12
   5  -3   3 1844.67 54.4309  10
  -5  -3  -3 1870.42 49.5700   1
  -5  -3  -3 1834.81 50.5886  11
   5   3   3 1874.60 47.7773   4
   5   3   3 1904.48 49.5873  14
  -5   3  -3 1895.57 49.9372  11
  -5   3  -3 1858.41 49.9832   1
  -5   3  -3 1917.89 48.7671   7
   5   3   3 1862.82 46.3315  12
   7  -3   3 75.1165 6.79051  14
  -7  -3  -3 92.0020 7.87714  11
   7  -3   3 86.4049 5.51801  12
  -7  -3  -3 99.8261 8.12391   1
   7  -3   3 89.2157 7.67629   4
   7   3   3 92.2205 7.75723  14
   7   3   3 107.744 6.74487   4
   7   3   3 80.2450 5.43705  12
  -7   3  -3 90.3532 7.84065  11
  -7   3  -3 95.8550 7.79885   1
  -9  -3  -3 466.440 19.7603   1
   9  -3   3 486.674 19.6163   4
   9  -3   3 479.921 17.0015  12
  -9  -3  -3 455.271 20.7887  11
  -9   3  -3 468.743 20.4323   1
   9   3   3 475.728 16.8772  12
  -9   3  -3 485.458 21.1678  11
   9   3   3 469.186 18.1215   4
 -10  -4   3 179.809 11.1172  11
 -10  -4   3 183.628 10.4191  16
 -10  -4   3 176.729 10.9698   5
  10  -4  -3 190.819 9.70485   9
  10  -4  -3 166.988 10.1429   4
 -10   4   3 160.079 9.88962   1
 -10   4   3 191.490 12.0881  11
  10   4  -3 175.405 10.1312  14
  10   4  -3 176.349 10.7733   4
 -10   4   3 185.018 9.37637   8
   8  -4  -3 323.279 12.6596   4
  -8  -4   3 345.663 12.1911   8
  -8  -4   3 321.930 13.1636  11
  -8  -4   3 344.978 14.1291  16
   8  -4  -3 336.889 12.1264   2
  -8  -4   3 321.269 14.4150   5
   8   4  -3 317.767 10.6761   3
   8   4  -3 325.359 13.3087   4
  -8   4   3 339.135 12.1313   8
  -8   4   3 321.966 12.9729   1
   8   4  -3 317.961 13.4622  14
   6  -4  -3 298.373 10.5198   4
  -6  -4   3 313.569 12.5157   5
  -6  -4   3 306.177 12.0509  16
   6  -4  -3 321.686 15.2201  10
  -6  -4   3 293.533 10.7790  11
  -6  -4   3 313.504 10.1264   8
   6  -4  -3 326.705 11.1475   2
  -6   4   3 296.527 10.0354  16
   6   4  -3 299.420 11.3212  14
  -6   4   3 319.027 10.9997   1
   6   4  -3 277.364 9.16475   3
   6   4  -3 280.060 10.0938  12
   6   4  -3 304.602 11.0934   4
  -6   4   3 309.917 10.3783  13
  -6   4   3 317.395 10.2363   8
  -6   4   3 287.101 10.1967   5
  -4  -4   3 1404.20 36.4285   5
  -4  -4   3 1384.75 33.7630   8
  -4  -4   3 1449.24 36.2465  16
  -4  -4   3 1404.96 34.4319  12
   4  -4  -3 1335.09 34.0020   4
   4  -4  -3 1381.00 38.8616  10
   4  -4  -3 1385.21 34.1675   6
  -4  -4   3 1364.35 34.2858   2
   4  -4  -3 1343.08 35.4929   2
  -4  -4   3 1387.83 34.0648  11
  -4   4   3 1410.25 34.7536  13
  -4   4   3 1294.16 34.2195  12
   4   4  -3 1417.98 35.3748   4
   4   4  -3 1436.95 35.7500  14
   4   4  -3 1409.70 33.7139   3
   4   4  -3 1382.44 34.1135   9
  -4   4   3 1349.88 33.5916   3
  -4   4   3 1334.11 34.3727   8
   4   4  -3 1394.19 34.3925  12
  -4   4   3 1390.31 35.0754  16
  -2  -4   3 816.960 20.7047  12
  -2  -4   3 797.678 21.3774   2
   2  -4  -3 828.666 21.1629   6
  -2  -4   3 780.224 21.4148  16
  -2  -4   3 792.838 21.6001   5
   2  -4  -3 817.269 21.7017   2
   2   4  -3 829.771 19.3177  13
  -2   4   3 797.843 22.4294  10
   2   4  -3 790.874 21.6065  14
  -2   4   3 828.241 21.1048  13
   2   4  -3 822.988 21.3418   9
  -2   4   3 826.766 20.6053  12
   2   4  -3 789.672 20.3511   3
  -2   4   3 821.481 20.2974   3
   2   4  -3 803.975 21.3102   7
   0  -4   3 1315.93 35.1315  10
   0  -4  -3 1288.25 32.8846  11
   0  -4   3 1250.28 30.8080   5
   0  -4  -3 1268.35 32.2451   6
   0  -4  -3 1239.39 31.4506  15
   0  -4   3 1267.86 31.0965  12
   0  -4   3 1327.21 32.6998   2
   0  -4  -3 1243.08 31.6488   2
   0  -4  -3 1231.24 31.0043   9
   0   4  -3 1325.45 32.2214   7
   0   4   3 1274.70 31.2463   3
   0   4   3 1267.67 31.2480  14
   0   4   3 1295.78 31.9491  13
   0   4   3 1289.42 30.8340  12
   0   4  -3 1247.56 31.7261   1
   0   4  -3 1263.11 30.5429  13
   0   4   3 1225.89 30.4133  10
   0   4  -3 1268.90 31.3796   3
   2  -4   3 909.551 28.1728  10
  -2  -4  -3 866.584 22.7864  15
  -2  -4  -3 874.333 23.9530   6
  -2  -4  -3 899.070 25.2643  11
   2  -4   3 915.474 22.7964  12
  -2  -4  -3 879.425 24.5003   1
   2  -4   3 896.153 24.3153   2
  -2   4  -3 904.724 24.5886   1
   2   4   3 905.544 24.2017  14
   2   4   3 891.512 22.4495  12
   2   4   3 875.706 23.2085   3
   2   4   3 881.196 22.4003   4
  -2   4  -3 907.805 23.6759  11
  -2   4  -3 888.635 24.0548   7
   2   4   3 890.686 21.3303  10
  -4  -4  -3 261.979 10.6129   1
  -4  -4  -3 268.835 9.76891   6
   4  -4   3 253.257 9.76987   2
   4  -4   3 240.328 13.3465  10
   4  -4   3 256.905 8.87957  12
  -4  -4  -3 277.898 11.5457  11
   4   4   3 257.540 8.62910  12
  -4   4  -3 256.491 10.4524  11
   4   4   3 269.010 10.8174  14
  -4   4  -3 259.362 11.0297   1
   4   4   3 250.739 9.01910   4
  -4   4  -3 267.089 10.1772   7
   6  -4   3 301.306 11.0643  12
  -6  -4  -3 302.417 13.3878   1
  -6  -4  -3 286.875 13.6812  11
   6  -4   3 301.201 12.8270   4
  -6   4  -3 312.224 13.9168   1
   6   4   3 307.046 10.9235  12
  -6   4  -3 311.536 13.4851  11
   6   4   3 279.593 12.7015  14
   6   4   3 299.424 11.6111   4
   8  -4   3 72.0956 5.62718  12
   8  -4   3 75.2194 7.75078   4
  -8  -4  -3 72.9064 7.59468   1
  -8  -4  -3 76.1796 8.75995  11
   8   4   3 73.7833 6.67040   4
  -8   4  -3 72.2058 7.71861  11
   8   4   3 74.9856 5.69097  12
  -8   4  -3 62.5543 7.75266   1
  11  -5  -3 270.728 13.2034   4
 -11  -5   3 246.106 14.3338   5
  11   5  -3 263.237 13.5922   4
 -11   5   3 268.586 14.7357  11
 -11   5   3 271.260 11.6554   8
  -9  -5   3 865.511 29.1563  16
  -9  -5   3 930.266 30.5398   5
   9  -5  -3 912.265 28.2469   9
   9  -5  -3 896.247 27.6573   4
  -9  -5   3 850.624 27.9782  11
  -9   5   3 953.352 28.7706   1
  -9   5   3 922.851 26.6461   8
   9   5  -3 867.472 28.6837  14
  -9   5   3 946.682 30.3074  11
   9   5  -3 927.849 28.5425   4
  -7  -5   3 683.679 22.8131   5
   7  -5  -3 638.156 19.9047   4
   7  -5  -3 645.393 25.9301  10
  -7  -5   3 668.622 22.0581  16
   7  -5  -3 664.680 20.4178   2
  -7  -5   3 632.880 20.1519  11
   7   5  -3 662.794 20.7992   4
  -7   5   3 707.525 21.1391   1
  -7   5   3 682.221 19.5682   8
   7   5  -3 668.151 21.6023  14
  -7   5   3 670.051 19.8540  13
   7   5  -3 632.962 18.4413   3
   5  -5  -3 1766.90 46.0286   4
  -5  -5   3 1957.25 49.4520   5
   5  -5  -3 1850.47 45.5612   6
  -5  -5   3 1999.32 49.0996  16
   5  -5  -3 1895.53 52.5977  10
  -5  -5   3 1854.83 45.8107   2
   5  -5  -3 1884.65 47.9182   2
  -5  -5   3 1925.20 46.4200  11
   5   5  -3 1869.90 45.6539   3
   5   5  -3 1902.28 47.5238   4
  -5   5   3 1804.51 45.5170   3
  -5   5   3 1795.45 46.1702  12
  -5   5   3 1842.87 46.4505  16
  -5   5   3 1837.66 46.2807   8
  -5   5   3 1841.02 46.7243  13
   5   5  -3 1924.79 48.2474  14
  -3  -5   3 815.318 21.8543   2
   3  -5  -3 826.113 24.3461  10
  -3  -5   3 785.548 22.4811  16
   3  -5  -3 816.766 21.3613   6
  -3  -5   3 816.398 22.8937   5
   3  -5  -3 803.983 22.4588   2
  -3  -5   3 772.807 21.1821  12
   3   5  -3 819.453 22.5329  14
   3   5  -3 797.608 21.3120   9
   3   5  -3 801.184 20.7962   3
  -3   5   3 812.611 20.7218   3
  -3   5   3 836.753 21.7234  13
   3   5  -3 801.707 19.7951  13
   3   5  -3 819.451 22.1383   4
  -3   5   3 805.747 21.2381   8
   3   5  -3 803.936 21.9421   7
  -3   5   3 807.034 21.2345  12
   1  -5  -3 1760.71 43.6109   6
  -1  -5   3 1764.88 44.0416   2
  -1  -5   3 1760.06 46.1223  10
  -1  -5   3 1719.22 42.9299  16
  -1  -5   3 1743.38 43.1101   5
   1  -5  -3 1752.42 43.7090   2
  -1  -5   3 1754.46 42.7473  12
   1  -5  -3 1713.93 42.9468   9
   1   5  -3 1778.64 41.6475  13
  -1   5   3 1770.74 43.3436  13
   1   5  -3 1741.30 43.4499   7
  -1   5   3 1757.74 42.5376   3
  -1   5   3 1737.00 41.9643  14
  -1   5   3 1781.72 42.6048  12
   1   5  -3 1751.17 42.7032   3
  -1   5   3 1760.98 42.9028  10
  -1  -5  -3 470.167 14.2909   9
   1  -5   3 564.266 15.3078  12
  -1  -5  -3 537.239 15.0926  15
  -1  -5  -3 540.419 15.2655   2
  -1  -5  -3 586.421 16.5891   6
  -1  -5  -3 569.420 17.1798  11
   1  -5   3 581.682 16.9796   2
   1  -5   3 565.992 19.6739  10
   1   5   3 556.972 15.0246  12
  -1   5  -3 564.042 15.7153   3
   1   5   3 571.190 16.2121  13
  -1   5  -3 563.028 16.3136   1
  -1   5  -3 552.929 16.1758   7
  -1   5  -3 561.301 14.9464  13
   1   5   3 582.491 15.6175   3
   1   5   3 541.444 15.7210  14
   3  -5   3 1120.49 28.8272  12
  -3  -5  -3 1100.27 30.1285   6
  -3  -5  -3 1076.26 30.5134   1
   3  -5   3 1140.89 30.5339   2
   3  -5   3 1118.96 35.5281  10
  -3  -5  -3 1095.36 31.6027  11
  -3   5  -3 1125.46 31.0308   1
  -3   5  -3 1136.04 30.0699  11
  -3   5  -3 1142.32 30.3726   7
   3   5   3 1136.96 29.4201   3
   3   5   3 1093.32 30.4046  14
   3   5   3 1101.17 28.4821  12
  -5  -5  -3 383.257 14.8012   1
   5  -5   3 369.439 14.6149   4
  -5  -5  -3 392.738 13.7632   6
  -5  -5  -3 416.099 16.3943  11
   5  -5   3 370.548 12.8655  12
   5  -5   3 378.609 13.6760   2
  -5   5  -3 379.776 14.1563   7
   5   5   3 403.327 12.8509  12
  -5   5  -3 390.910 15.5925   1
  -5   5  -3 396.391 15.0543  11
   5   5   3 414.205 15.3622  14
   5   5   3 397.395 13.4626   3
  -7  -5  -3 708.057 24.2612   1
  -7  -5  -3 686.903 25.8477  11
   7  -5   3 733.880 24.3689   4
   7  -5   3 693.306 21.9229  12
   7   5   3 696.346 21.5596  12
  -7   5  -3 735.729 25.5604   1
   7   5   3 682.321 24.3612  14
  -7   5  -3 717.586 25.0041  11
   7   5   3 707.716 22.0105   3
  -9  -5  -3 256.530 15.8257   1
   9  -5   3 207.621 13.8367   4
  -9  -5  -3 221.044 16.5534  11
   9  -5   3 228.559 10.8731  12
   9   5   3 224.105 10.6861  12
  -9   5  -3 217.238 15.4579   1
  10  -6  -3 71.5471 7.24968   9
  10  -6  -3 71.2453 6.76179   4
 -10  -6   3 67.5414 7.93363   5
 -10   6   3 55.9629 6.68891   1
 -10   6   3 70.3519 5.94644   8
 -10   6   3 74.7596 8.80100  11
  10   6  -3 69.0342 7.51141   4
  -8  -6   3 133.465 9.26950  16
   8  -6  -3 137.559 8.07187   2
   8  -6  -3 127.802 7.52828   4
  -8  -6   3 144.772 10.0722   5
   8   6  -3 101.928 6.25325   3
  -8   6   3 136.575 6.92703   8
  -8   6   3 139.835 8.83525   1
   8   6  -3 135.490 8.78708  14
  -8   6   3 133.584 7.63350  13
   8   6  -3 139.134 8.57204   4
  -6  -6   3 609.146 20.1414  16
   6  -6  -3 582.755 18.8881   2
   6  -6  -3 541.802 16.9756   4
   6  -6  -3 571.119 23.2261  10
  -6  -6   3 609.060 20.6957   5
   6   6  -3 585.236 16.6572   3
   6   6  -3 589.090 18.4082   4
  -6   6   3 581.685 18.6571   1
   6   6  -3 581.957 19.1710  14
  -6   6   3 564.801 17.0888   8
  -6   6   3 555.958 17.5511  13
  -4  -6   3 205.809 7.89237   2
  -4  -6   3 203.475 9.25763   5
   4  -6  -3 226.250 9.09704   2
  -4  -6   3 231.449 8.50466  12
  -4  -6   3 205.111 8.99722  16
   4  -6  -3 219.601 10.9986  10
   4  -6  -3 213.471 7.60824   6
  -4   6   3 199.697 7.60787  12
   4   6  -3 208.854 9.04157  14
   4   6  -3 213.095 7.49969   3
  -4   6   3 224.436 8.42717  13
   4   6  -3 205.829 8.34528   4
  -4   6   3 208.637 7.36725   3
  -4   6   3 209.885 7.59675   8
   4   6  -3 203.325 6.53049  13
   2  -6  -3 1012.50 27.3793   2
  -2  -6   3 983.141 26.8566  16
  -2  -6   3 1030.10 27.2965   5
  -2  -6   3 1025.64 27.2934   2
  -2  -6   3 1008.84 26.2528  12
   2  -6  -3 1000.96 26.6842   6
   2   6  -3 1017.54 24.7741  13
   2   6  -3 1005.40 26.8389   7
  -2   6   3 1014.25 25.8594   3
   2   6  -3 968.069 25.8860   3
   2   6  -3 1029.38 27.6354  14
  -2   6   3 992.349 26.0630  12
  -2   6   3 1017.89 26.6447  13
   0  -6  -3 475.085 13.7607   9
   0  -6   3 507.626 14.3793  12
   0  -6  -3 503.077 15.8617  11
   0  -6  -3 503.062 15.2923   6
   0  -6   3 498.055 15.6734   2
   0  -6  -3 470.806 14.5524   2
   0  -6  -3 468.459 13.9934  15
   0  -6   3 506.124 18.0235  10
   0   6  -3 488.973 14.9478   7
   0   6   3 517.757 14.3872   3
   0   6   3 497.132 14.9046  13
   0   6  -3 508.098 13.5083  13
   0   6  -3 510.804 14.5293   3
   0   6   3 507.471 14.1930  12
   0   6   3 480.744 13.9859  14
   2  -6   3 256.447 10.2799   2
   2  -6   3 264.908 13.2808  10
   2  -6   3 259.902 9.04638  12
  -2  -6  -3 251.019 10.5727  11
  -2  -6  -3 254.109 10.0736   6
  -2  -6  -3 242.550 8.09725  15
  -2   6  -3 270.902 9.32352   3
  -2   6  -3 268.525 9.76481   7
   2   6   3 257.455 8.78939  12
   2   6   3 255.712 9.74977  13
  -2   6  -3 271.567 8.86216  13
   2   6   3 255.775 9.24253   3
   2   6   3 255.675 9.68876  14
  -2   6  -3 262.590 10.2750   1
   4  -6   3 442.099 14.2401  12
   4  -6   3 418.261 19.7109  10
  -4  -6  -3 427.476 15.2479   6
  -4  -6  -3 458.784 17.0491  11
   4  -6   3 471.276 15.8397   2
   4   6   3 437.675 13.9712  12
  -4   6  -3 456.385 16.5427   1
   4   6   3 439.479 14.5768   3
   4   6   3 438.159 15.8021  14
  -4   6  -3 439.706 15.2704   7
   6  -6   3 30.7435 4.90290   4
  -6  -6  -3 36.3910 5.56972  11
  -6  -6  -3 42.0068 5.00777   6
   6  -6   3 35.1482 4.20050  12
  -6   6  -3 42.0045 5.28157   7
   6   6   3 35.5485 3.90949  12
  -6   6  -3 40.0750 6.02839   1
   6   6   3 45.0825 5.01874   3
   6   6   3 32.7232 5.17396  14
   8  -6   3 113.147 9.06240   4
  -8  -6  -3 113.424 10.6483  11
   8  -6   3 111.244 7.23386  12
   8   6   3 109.688 7.19095  12
  -8   6  -3 119.146 9.57910   1
   8   6   3 110.346 7.71460   3
  -9  -7   3 482.701 17.4661   6
   9  -7  -3 481.365 18.4979   2
  -9  -7   3 486.735 21.1945   5
   9   7  -3 485.768 18.3499   4
  -9   7   3 484.055 16.5805   8
   9   7  -3 488.224 22.1018  14
  -9   7   3 495.647 19.2870   1
   7  -7  -3 63.9578 6.13410   2
  -7  -7   3 60.9532 6.57359   5
  -7  -7   3 74.1654 6.46473  16
   7   7  -3 65.6349 5.81187   4
   7   7  -3 67.8568 4.63374   3
  -7   7   3 66.1344 5.79634   1
   7   7  -3 69.6680 6.24366  14
  -7   7   3 66.6446 5.01984  13
  -7   7   3 64.5215 4.86649   8
  -5  -7   3 1512.66 41.6568  16
  -5  -7   3 1501.88 42.2021   5
   5  -7  -3 1547.98 41.0588   2
  -5   7   3 1531.71 38.6009   8
   5   7  -3 1533.10 41.1722  14
   5   7  -3 1475.18 39.7519   4
   5   7  -3 1470.93 38.3178   3
  -5   7   3 1470.35 38.2163   3
  -5   7   3 1526.90 39.5080  13
   3  -7  -3 459.580 15.4768   2
   3  -7  -3 457.749 13.9406   6
  -3  -7   3 441.868 15.0264  16
  -3  -7   3 442.194 14.4668   2
  -3  -7   3 450.528 15.3722   5
   3  -7  -3 441.806 16.0552  10
  -3  -7   3 435.235 13.7233  12
   3   7  -3 446.311 13.5661   3
  -3   7   3 447.348 13.4092   3
  -3   7   3 445.280 13.5068   8
   3   7  -3 462.231 14.5644   7
   3   7  -3 457.908 15.2854  14
  -3   7   3 464.849 14.2709  13
  -3   7   3 444.532 13.7568  12
  -1  -7   3 2930.23 72.3542   5
   1  -7  -3 2961.51 73.2406   2
  -1  -7   3 2891.29 72.0763  12
  -1  -7   3 2939.23 76.0474  10
  -1  -7   3 2943.60 73.6447   2
   1  -7  -3 2938.98 72.9631   6
   1   7  -3 3032.53 72.8468   7
   1   7  -3 3025.80 70.7885  13
  -1   7   3 2911.23 71.1336  14
   1   7  -3 2963.16 72.0893   3
  -1   7   3 3052.79 71.9875   3
  -1   7   3 3093.83 72.8961  13
  -1   7   3 3084.55 72.2076  12
  -1  -7  -3 614.234 17.7805   2
   1  -7   3 614.240 19.5495   2
  -1  -7  -3 630.037 19.6866  11
   1  -7   3 599.456 22.1791  10
  -1  -7  -3 613.462 18.9520   6
   1  -7   3 614.589 17.6824  12
   1   7   3 603.609 17.5706  12
   1   7   3 634.646 18.5868  13
   1   7   3 589.543 17.7785  14
  -1   7  -3 595.167 18.6923   1
   1   7   3 626.478 17.8405   3
  -1   7  -3 612.174 17.8550   3
  -1   7  -3 612.660 18.2898   7
  -1   7  -3 621.056 17.0259  13
  -3  -7  -3 1850.04 48.8341   6
   3  -7   3 1812.11 54.6519  10
   3  -7   3 1935.56 49.5413   2
  -3  -7  -3 1829.47 50.0123  11
   3  -7   3 1819.39 47.0886  12
   3   7   3 1840.05 48.4380  14
   3   7   3 1858.42 47.0083  12
  -3   7  -3 1875.51 49.5035   1
   3   7   3 1873.98 47.4668   3
   3   7   3 1808.08 47.9918  13
  -3   7  -3 1939.62 48.4537   7
   5  -7   3 166.280 8.85157   2
   5  -7   3 167.356 8.15851  12
  -5  -7  -3 151.515 9.80803  11
  -5  -7  -3 154.802 8.85620   6
   5  -7   3 162.334 9.25609   4
  -5   7  -3 163.551 9.00742   7
   5   7   3 165.390 7.87818  12
  -5   7  -3 185.774 10.6073   1
   5   7   3 154.804 8.19131   3
   5   7   3 156.210 9.33068  14
   7  -7   3 498.152 19.5766   4
  -7  -7  -3 578.738 22.6923  11
   7  -7   3 511.976 18.2122  12
  -7   7  -3 549.276 22.0208   1
   7   7   3 516.156 17.9570  12
   7   7   3 538.687 18.5958   3
 -10  -8   3 34.1117 5.27669   6
 -10  -8   3 36.7128 7.08493   5
  10  -8  -3 37.3183 5.46592   9
 -10   8   3 31.2859 5.83338  11
 -10   8   3 30.8855 5.92874   1
  -8  -8   3 59.1165 8.27049   5
  -8  -8   3 68.2520 6.86331   6
   8  -8  -3 60.1397 6.69691   2
   8   8  -3 52.3442 5.89563   4
  -8   8   3 58.1877 4.53788   8
  -8   8   3 63.1826 5.83222  13
   8   8  -3 59.5163 6.14734  14
  -6  -8   3 238.336 12.2134  16
   6  -8  -3 243.510 11.9489   2
  -6  -8   3 252.009 13.1397   5
  -6   8   3 259.077 9.76170   8
   6   8  -3 248.240 10.7812   4
  -6   8   3 272.989 12.0684   1
  -6   8   3 241.557 10.2529  13
  -6   8   3 247.503 9.62500   3
   6   8  -3 239.969 9.48918   3
   6   8  -3 243.539 11.6421  14
   4  -8  -3 13.3611 2.37835   6
  -4  -8   3 17.8066 3.52359  16
   4  -8  -3 13.4958 3.78434  10
  -4  -8   3 15.4189 2.78241   2
   4  -8  -3 15.2734 3.33471   2
  -4  -8   3 14.9334 3.62391   5
   4   8  -3 17.9918 3.41138  14
   4   8  -3 16.6931 2.71058   3
  -4   8   3 20.0383 2.72181   8
  -4   8   3 14.9224 2.60101  13
   4   8  -3 17.9152 3.17694   7
  -4   8   3 16.1350 2.63322   3
  -2  -8   3 298.654 11.3318   5
  -2  -8   3 298.266 11.4970   2
   2  -8  -3 286.524 10.8649   6
  -2  -8   3 281.384 12.4274  10
   2  -8  -3 309.437 11.9426   2
  -2   8   3 308.227 11.0867  13
   2   8  -3 310.054 11.1935   7
   2   8  -3 286.223 11.6038  14
  -2   8   3 282.315 10.3413  12
  -2   8   3 283.000 9.90152   8
   2   8  -3 296.470 10.4714   3
  -2   8   3 310.903 10.5052   3
   0  -8  -3 118.069 6.15204   2
   0  -8  -3 107.034 5.08427  15
   0  -8   3 104.114 5.58176  12
   0  -8  -3 124.992 6.97505   6
   0  -8   3 106.869 7.88379  10
   0  -8   3 110.572 7.15673   2
   0   8   3 109.108 5.66115  12
   0   8   3 102.039 5.39045  14
   0   8  -3 112.348 4.91491  13
   0   8  -3 112.445 6.09668   7
   0   8   3 106.893 5.82380   3
   0   8   3 100.460 5.93863  13
   0   8  -3 112.382 5.74467   3
   2  -8   3 67.9266 4.71237  12
  -2  -8  -3 69.6146 6.12314  11
  -2  -8  -3 68.4412 5.77511   6
   2  -8   3 61.8197 6.75293  10
   2  -8   3 74.5575 6.60106   2
  -2   8  -3 68.5667 5.20177   7
   2   8   3 63.9938 5.08296   3
  -2   8  -3 64.3383 4.99608   3
  -2   8  -3 73.9354 5.86001   1
   2   8   3 70.9289 4.77862  12
   2   8   3 64.4400 4.96472  14
  -2   8  -3 79.2453 4.51724  13
   2   8   3 70.6408 5.22178  13
   4  -8   3 283.342 11.0787  12
  -4  -8  -3 273.182 12.9636  11
  -4  -8  -3 271.137 12.3202   6
   4  -8   3 274.101 12.6203   2
  -4   8  -3 269.335 12.9224   1
   4   8   3 260.057 11.8401  14
   4   8   3 256.838 10.5816  12
  -4   8  -3 285.623 11.8468   7
   4   8   3 267.532 11.4962  13
   4   8   3 261.103 11.1271   3
   6  -8   3 25.2464 4.77545   4
  -6  -8  -3 22.1493 5.42477  11
   6  -8   3 32.9216 4.51058  12
  -6  -8  -3 26.4666 4.54419   6
   6  -8   3 24.8284 4.63687   2
   6   8   3 19.3924 4.89957  14
  -6   8  -3 25.2157 5.27703   1
   6   8   3 22.2956 4.13551   3
  -6   8  -3 34.0308 4.93740   7
   6   8   3 20.4268 3.17400  12
   9  -9  -3 264.645 13.3998   2
  -9  -9   3 282.415 13.2437   6
   9  -9  -3 263.791 14.2372   9
  -9  -9   3 288.724 16.2798   5
  -9   9   3 259.974 14.3043   1
  -7  -9   3 951.076 29.6960   6
   7  -9  -3 958.433 30.5475   2
  -7  -9   3 992.854 33.2208   5
   7   9  -3 944.005 27.5270   3
   7   9  -3 961.740 31.0860  14
  -7   9   3 982.782 28.9002  13
  -7   9   3 984.956 30.8654   1
   5  -9  -3 283.989 13.1594   2
  -5  -9   3 302.826 13.9513   5
  -5   9   3 281.215 10.8554   3
   5   9  -3 289.261 13.1223  14
  -5   9   3 282.498 10.5440   8
   5   9  -3 296.616 12.0106   7
   5   9  -3 289.644 10.8697   3
  -5   9   3 299.940 11.8968  13
   3  -9  -3 908.865 25.6470   6
  -3  -9   3 891.235 26.4888   2
  -3  -9   3 863.217 27.2638   5
   3  -9  -3 883.695 27.3801   2
   3   9  -3 924.372 26.2719   7
   3   9  -3 867.162 26.9896  14
  -3   9   3 940.396 25.4415   3
   3   9  -3 926.327 25.4387   3
  -3   9   3 884.275 25.7820  13
  -3   9   3 919.908 24.8442   8
  -1  -9   3 144.393 8.08000   2
   1  -9  -3 138.048 7.75671   6
   1  -9  -3 132.792 7.64714   2
   1   9  -3 139.492 7.30937   7
  -1   9   3 129.347 6.90005   3
  -1   9   3 143.543 7.41144  13
   1   9  -3 155.397 7.08856   3
  -1   9   3 133.562 6.85801  12
   1  -9   3 631.221 19.1650  12
   1  -9   3 586.907 23.6983  10
   1  -9   3 643.587 21.4309   2
  -1  -9  -3 616.579 20.5676   6
  -1  -9  -3 613.725 19.0857   2
   1   9   3 624.609 19.1352   3
   1   9   3 638.872 19.7415  13
  -1   9  -3 628.783 19.5182   7
   1   9   3 624.195 19.1583  12
  -1   9  -3 619.527 19.1621   3
  -3  -9  -3 90.1019 7.62932  11
   3  -9   3 99.9340 8.18362   2
   3  -9   3 95.7038 5.98181  12
  -3  -9  -3 109.444 7.79683   6
   3   9   3 88.5069 5.94158  12
  -3   9  -3 96.8726 6.66865   7
  -3   9  -3 98.0904 5.55441  13
   3   9   3 95.2741 6.47742  13
   3   9   3 99.1984 6.70506   3
  -3   9  -3 93.8777 7.54547   1
   3   9   3 84.9266 6.35570  14
  -5  -9  -3 590.120 22.9389  11
   5  -9   3 621.261 21.0134   4
   5  -9   3 605.291 20.0915  12
   5  -9   3 638.387 22.0826   2
  -5  -9  -3 611.379 22.0526   6
  -5   9  -3 633.053 23.2631   1
   5   9   3 625.446 20.2364  12
   5   9   3 583.188 21.4042  14
   5   9   3 591.277 20.4821  13
   5   9   3 604.216 20.3145   3
   7  -9   3 130.900 9.19249   4
  -7  -9  -3 134.687 10.9887  11
   7   9   3 145.640 8.33626  12
  -7   9  -3 127.816 12.2564   1
   7   9   3 121.908 9.06935   3
  -8 -10   3 5.22365 3.52525   6
  -8 -10   3 2.78066 4.78168   5
   8 -10  -3 -2.4759 3.34353   2
   8  10  -3 -0.9473 2.12661   7
  -8  10   3 -0.2801 2.68908   1
   6 -10  -3 74.6712 7.85876   2
  -6 -10   3 80.5040 8.92415   5
  -6 -10   3 74.7613 7.48457   6
  -6  10   3 67.2413 7.28391   1
   6  10  -3 68.9138 6.50163   7
  -6  10   3 69.3958 5.16646   3
   6  10  -3 67.3928 5.45597   3
  -6  10   3 76.6715 6.15682  13
   6  10  -3 71.4092 7.36860  14
   4 -10  -3 12.8678 3.78016   2
  -4 -10   3 10.1932 3.84449   5
  -4 -10   3 13.7939 3.95443   6
  -4  10   3 21.5208 3.49077   3
   4  10  -3 19.3605 3.79413  14
   4  10  -3 11.4515 2.36665   3
  -4  10   3 12.5084 3.02980  13
  -4  10   3 14.2909 3.06305   8
   4  10  -3 16.0571 2.97468   7
   2 -10  -3 78.8474 6.74353   2
  -2 -10   3 85.5917 6.68818   6
   2 -10  -3 88.3113 6.53966   6
  -2 -10   3 95.3556 7.08736   2
   2  10  -3 88.6111 5.65110   3
  -2  10   3 94.7340 6.34407  13
   2  10  -3 84.5789 5.76473   7
  -2  10   3 82.5671 5.21591   8
  -2  10   3 84.0232 6.01969   3
   0 -10  -3 5.66190 2.51837   6
   0 -10  -3 3.56244 2.29868   2
   0 -10   3 3.44759 2.43943   2
   0  10  -3 3.17010 2.35561   7
   0  10   3 3.51754 1.95882  12
   0  10  -3 3.31860 1.91315   3
   0  10   3 3.57743 1.84217  13
   0  10   3 2.77320 1.89593   3
   2 -10   3 -0.4324 2.32096   2
  -2 -10  -3 1.20807 3.01586   6
  -2  10  -3 -0.8388 2.46922   1
   2  10   3 0.91192 1.97376  13
   2  10   3 3.64764 2.08831   3
  -2  10  -3 -0.7825 1.96055   7
  -2  10  -3 5.97512 2.76480   3
   2  10   3 1.85490 1.92712  12
  -4 -10  -3 60.1448 6.91260   6
  -4 -10  -3 50.1879 6.51249  11
   4 -10   3 60.7563 7.30428   2
   4  10   3 56.2000 5.14327  13
   4  10   3 48.1519 5.03627  12
   4  10   3 56.8362 5.60449   3
  -4  10  -3 55.2169 7.15458   1
   6 -10   3 23.2384 5.11479   2
  -6 -10  -3 17.2022 4.31624   6
  -6  10  -3 13.3287 3.98162   1
   6  10   3 18.9417 3.77076  12
   6  10   3 14.8087 3.79544   3
   7 -11  -3 58.9430 7.50655   2
  -7 -11   3 56.7732 6.89527   6
   7  11  -3 49.9699 6.46786   3
   7  11  -3 53.8812 6.17215   7
  -5 -11   3 575.258 21.0808   6
   5 -11  -3 578.548 21.7198   2
  -5  11   3 589.644 19.1126   3
   5  11  -3 527.430 21.1559  14
  -5  11   3 570.246 19.8797  13
   5  11  -3 577.210 19.0818   3
   5  11  -3 584.762 19.9700   7
  -3 -11   3 221.674 11.0773   2
   3 -11  -3 243.800 12.4425   2
   3 -11  -3 239.859 10.8148   6
  -3 -11   3 247.851 11.8977   6
  -3  11   3 236.427 10.6587   3
  -3  11   3 247.651 11.1587  13
   3  11  -3 244.765 10.4649   3
   1 -11  -3 1115.50 33.0636   6
  -1 -11   3 1115.57 31.9078   6
   1 -11  -3 1158.14 33.6813   2
  -1 -11   3 1109.38 33.9898   2
   1  11  -3 1136.63 32.0898   3
  -1  11   3 1091.87 31.6972   3
   1  11  -3 1160.04 32.4014   7
  -1  11   3 1106.11 32.2697  13
   1 -11   3 367.961 15.9058   2
  -1 -11  -3 428.572 16.0848   6
   1  11   3 368.999 14.3653  13
   1  11   3 355.687 13.9411  12
  -1  11  -3 345.518 14.1922   3
  -1  11  -3 358.829 15.0840   1
   1  11   3 375.024 14.4000   3
   3 -11   3 814.080 27.1369   2
  -3 -11  -3 750.653 26.3426   6
   3  11   3 761.695 24.5366   3
   3  11   3 772.838 24.3999  12
  -3  11  -3 757.132 26.5165   1
  -5 -11  -3 158.409 11.0541  11
  -5 -11  -3 164.614 10.7449   6
   5 -11   3 148.657 10.8675   2
   5  11   3 156.155 9.48317   3
  -5  11  -3 166.776 11.2883   1
   5  11   3 172.692 9.36917  12
  -6 -12   3 5.05857 3.40266   6
   6 -12  -3 3.43895 4.03422   2
  -6  12   3 1.46666 2.13031   3
   6  12  -3 3.97336 1.94491   3
  -6  12   3 6.09816 3.35470   1
   4 -12  -3 126.310 9.78483   2
  -4 -12   3 145.031 10.1994   6
   4  12  -3 140.356 8.26308   3
  -4  12   3 130.117 8.22874   3
  -2 -12   3 0.85679 3.13980   6
   2 -12  -3 -0.1606 2.88995   6
  -2 -12   3 2.77798 3.04028   2
   2 -12  -3 -2.0809 2.66060   2
  -2  12   3 4.88244 2.06876  13
  -2  12   3 4.74879 3.15342   3
   2  12  -3 2.19378 2.60226   3
   0 -12  -3 58.4729 6.95221   6
   0 -12   3 49.9395 6.58480   2
   0  12  -3 55.9756 5.75418   3
   0  12   3 51.0029 6.22069  13
   0  12   3 52.3103 5.84306   3
   2 -12   3 62.2161 7.09856   2
  -2 -12  -3 60.2445 7.36027   6
   2  12   3 66.3716 6.12230   3
  -2  12  -3 69.4270 7.59645   1
  -2  12  -3 72.2203 6.75680   3
   4 -12   3 -3.4482 3.83286   2
  -4 -12  -3 0.30788 2.29345   6
   4  12   3 0.28916 3.18287   3
  -4  12  -3 3.89555 2.89163   1
   5 -13  -3 837.773 31.9626   2
   5 -13  -3 807.097 27.1135   9
  -5  13   3 781.426 27.8573   3
   5  13  -3 736.626 26.7987   3
  -3 -13   3 15.6866 4.76748   6
   3 -13  -3 4.71555 3.43566   2
  -3  13   3 4.31239 3.43946   3
   3  13  -3 6.12817 2.94779   3
   1 -13  -3 661.425 23.1514   6
  -1 -13   3 654.470 23.5578   2
  -1  13   3 654.511 21.9601   3
   1  13  -3 619.314 21.7960   3
   1 -13   3 8.43379 3.43661   2
  -1 -13  -3 7.36994 4.29564   6
   1  13   3 5.58934 2.84720   3
  -1  13  -3 2.59706 2.73401   3
  -1  13  -3 14.3655 3.87677   1
  12   0  -4 1404.07 42.2382   4
 -12   0   4 1384.13 43.8501  11
 -12   0   4 1431.33 40.1716   8
 -10   0   4 80.7920 6.52691   8
 -10   0   4 84.6711 6.50294  16
  10   0  -4 82.1536 6.78640   4
 -10   0   4 85.5549 6.99270   5
 -10   0   4 79.4409 7.15084  11
  -8   0   4 2730.91 68.2494  11
  -8   0   4 2649.81 65.9197   8
  -8   0   4 2699.11 67.3697  16
  -8   0   4 2630.46 67.7107   5
   8   0  -4 2662.89 67.3556   4
   8   0  -4 2669.53 65.8453   9
   8   0  -4 2605.62 66.0803  14
   6   0  -4 67.9350 3.82184  14
  -6   0   4 77.6790 5.07255   5
   6   0  -4 74.6461 4.69907   4
   6   0  -4 83.4527 4.41359   9
  -6   0   4 76.1423 3.80016  12
  -6   0   4 75.0382 3.52266   1
  -6   0   4 79.7419 4.95708  16
  -6   0   4 73.6496 4.00496   8
  -4   0   4 2899.18 68.8978  13
   4   0  -4 3001.10 69.4572  14
   4   0  -4 2931.10 69.8089  15
   4   0  -4 2972.62 70.6805   9
   4   0  -4 2881.10 70.3955   4
  -4   0   4 2964.04 71.2957   5
  -4   0   4 2918.63 69.5604  12
  -4   0   4 2964.72 69.7651   8
  -4   0   4 2988.89 71.0726  16
  -2   0   4 49.5255 2.83771  16
   2   0  -4 49.9738 2.37847   7
  -2   0   4 53.6819 1.98374  13
   2   0  -4 46.3049 2.51406  15
  -2   0   4 49.9828 1.80568  12
  -2   0   4 52.9526 2.33802   8
   2   0  -4 49.3053 2.65341   6
   2   0  -4 48.6731 2.77093   9
   0   0  -4 3131.60 74.6486   9
   0   0  -4 3187.76 74.1566   6
   0   0  -4 3207.30 74.5990  11
   0   0  -4 3143.88 74.4687   1
   0   0  -4 3098.34 74.2598   7
   0   0  -4 3077.65 74.6442  15
  -2   0  -4 504.040 15.3765   1
   2   0   4 539.367 17.5511  10
  -2   0  -4 500.026 13.5524   6
  -2   0  -4 508.964 14.7284   7
  -2   0  -4 491.683 15.2705  11
  -2   0  -4 487.075 14.6785  15
  -4   0  -4 2300.86 58.6022   1
   4   0   4 2345.17 54.5076  12
   4   0   4 2217.28 60.7278  10
  -4   0  -4 2208.14 58.5218  11
   4   0   4 2312.31 57.2715   4
  -6   0  -4 401.677 16.5485  11
   6   0   4 382.340 15.4155  14
  -6   0  -4 376.179 15.6789   1
   6   0   4 382.281 12.5756  12
   6   0   4 393.499 15.0961   4
   8   0   4 992.563 28.8672  12
  -8   0  -4 1016.30 34.1613  11
   8   0   4 996.492 31.3469   4
  -8   0  -4 1031.12 33.5291   1
 -11  -1   4 93.4822 9.11812  11
  11  -1  -4 96.9847 7.89182   4
 -11  -1   4 104.135 7.68474   8
 -11   1   4 97.1414 9.25442  11
  11   1  -4 104.667 8.60845   4
 -11   1   4 110.662 7.64831   8
  -9  -1   4 7.68311 2.69731  11
  -9  -1   4 7.96558 2.82396   8
  -9  -1   4 11.2162 3.27856   5
   9  -1  -4 8.34774 3.11939   4
  -9  -1   4 8.42149 2.79997  16
   9  -1  -4 6.29597 1.88169   9
  -9   1   4 10.7806 3.02796   5
   9   1  -4 8.24901 2.38388  14
  -9   1   4 10.4209 3.03667  11
  -9   1   4 6.40248 2.41837  16
  -9   1   4 4.09853 2.55774   8
   9   1  -4 6.81818 2.50211   4
  -7  -1   4 498.445 16.1561  16
  -7  -1   4 462.786 15.6102  11
   7  -1  -4 473.394 15.4327   4
   7  -1  -4 461.720 14.1703  14
  -7  -1   4 473.622 14.5625   8
  -7  -1   4 479.220 16.3212   5
   7  -1  -4 471.962 14.9133   9
   7   1  -4 473.661 14.9336  14
  -7   1   4 470.341 15.7426   5
  -7   1   4 490.341 14.6565   8
  -7   1   4 471.433 15.3741  16
  -7   1   4 463.929 14.0917   1
   7   1  -4 478.527 14.4733   9
   7   1  -4 480.810 15.7753   4
   5  -1  -4 -0.2278 0.65377   4
  -5  -1   4 -0.6364 0.95149   8
   5  -1  -4 -0.4363 0.84518   9
  -5  -1   4 1.67713 0.70493  12
  -5  -1   4 1.05554 1.47154   5
  -5  -1   4 0.57276 1.31965  16
   5  -1  -4 1.14151 0.71254  14
   5   1  -4 1.83992 0.94127  14
  -5   1   4 -0.0096 1.10758   5
  -5   1   4 0.54200 0.75642  13
  -5   1   4 3.98607 1.04485  12
  -5   1   4 2.67503 1.30791  16
   5   1  -4 -0.0178 0.49505  15
   5   1  -4 1.99883 1.31999   4
   5   1  -4 3.39545 1.15753   9
  -5   1   4 3.36311 1.30865   8
  -3  -1   4 228.428 7.86528   5
  -3  -1   4 219.233 6.43950  12
  -3  -1   4 227.337 6.54301   8
   3  -1  -4 228.021 6.99156   4
   3  -1  -4 213.520 7.06113  15
   3  -1  -4 217.746 7.11415   6
   3  -1  -4 210.289 7.39487   9
  -3  -1   4 215.454 5.57386  13
   3  -1  -4 216.088 6.33037   7
  -3  -1   4 224.377 7.67394  16
   3   1  -4 218.390 6.98520   7
  -3   1   4 238.160 7.84212  16
   3   1  -4 218.526 6.77902  15
  -3   1   4 217.612 6.39716  12
   3   1  -4 217.460 7.39453   4
  -3   1   4 227.416 6.44922  13
  -3   1   4 224.590 6.86409   8
   3   1  -4 221.218 7.46542   9
   3   1  -4 230.078 6.89442  14
   1  -1  -4 326.184 9.83300  11
   1  -1  -4 326.237 9.31730   1
   1  -1  -4 316.744 9.02224   7
   1  -1  -4 315.438 9.67468   6
   1  -1  -4 316.389 9.73484  15
  -1  -1   4 354.808 9.88940  16
   1  -1  -4 329.902 9.88777   9
   1   1  -4 332.607 9.05546   1
   1   1  -4 340.515 9.67833   7
   1   1  -4 368.541 10.2835   9
   1   1  -4 336.131 9.78022  15
   1   1  -4 338.674 9.45615   6
  -1   1   4 338.109 9.27112  13
   1   1  -4 341.645 9.03603  11
  -1  -1  -4 75.3578 3.92551   1
  -1  -1  -4 74.4190 3.41609   9
   1  -1   4 67.2820 4.86440  10
  -1  -1  -4 74.6141 3.71412  15
  -1  -1  -4 75.8102 3.48216   6
  -1  -1  -4 70.9317 3.89073  11
  -1  -1  -4 71.9921 3.51383   7
  -1   1  -4 64.2620 3.48010  11
  -1   1  -4 64.5236 3.64523   7
  -1   1  -4 71.9685 3.71969  15
  -1   1  -4 64.7554 3.65585   1
  -1   1  -4 68.8900 3.75668   9
  -1   1  -4 70.3859 3.01139   6
   1   1   4 77.4355 4.64776  10
   3  -1   4 375.119 9.84025  12
  -3  -1  -4 360.022 12.8434   1
   3  -1   4 375.477 11.1133   2
  -3  -1  -4 352.683 10.7430   6
  -3  -1  -4 362.219 11.7822  15
  -3  -1  -4 361.098 13.0809  11
   3  -1   4 370.510 15.0746  10
  -3   1  -4 369.157 12.9166  11
   3   1   4 365.174 11.9273   4
   3   1   4 355.160 9.56242  12
   3   1   4 365.260 13.9411  10
  -3   1  -4 390.399 13.2979   1
  -3   1  -4 376.265 12.3634   7
   3   1   4 368.668 12.6824  14
  -5  -1  -4 1.00053 2.31139  11
   5  -1   4 3.15274 1.27492  12
   5  -1   4 -2.2769 2.11259   4
  -5  -1  -4 3.30804 2.40502   1
   5  -1   4 10.0401 3.14073  10
   5   1   4 0.77050 3.54663  10
  -5   1  -4 2.41697 1.82384  11
  -5   1  -4 7.30135 2.37500   1
   5   1   4 -0.7550 2.15142   4
   5   1   4 0.07804 1.08446  12
   5   1   4 2.46304 2.33593  14
   7  -1   4 43.8000 5.94138  14
   7  -1   4 42.9155 4.37045  12
  -7  -1  -4 35.7003 5.91224  11
  -7  -1  -4 45.1855 6.05147   1
   7  -1   4 38.1227 5.46856   4
   7   1   4 32.5330 5.28724  14
  -7   1  -4 39.2144 5.80062  11
  -7   1  -4 40.6369 6.38947   1
   7   1   4 38.6548 4.99030   4
   7   1   4 42.5564 4.25817  12
  -9  -1  -4 34.1316 6.55170   1
  -9  -1  -4 36.1538 6.07451  11
   9  -1   4 40.0262 6.37458   4
   9  -1   4 36.9015 4.47652  12
  -9   1  -4 36.3247 6.87757   1
   9   1   4 37.7738 6.07764   4
   9   1   4 30.7352 4.01608  12
 -12  -2   4 79.0429 9.19157  11
  12  -2  -4 88.2453 8.41111   4
 -12   2   4 96.4657 7.47200   8
  12   2  -4 96.5362 9.01103   4
 -12   2   4 92.0883 8.91468  11
 -10  -2   4 373.358 15.9265   5
 -10  -2   4 363.262 15.3859  16
 -10  -2   4 388.006 16.0302  11
  10  -2  -4 331.743 14.2604   9
 -10  -2   4 370.826 13.8809   8
  10  -2  -4 368.501 15.4279   4
 -10   2   4 364.122 14.1232   8
  10   2  -4 381.186 15.5245   4
  10   2  -4 367.326 14.8613  14
 -10   2   4 369.793 16.4511  11
   8  -2  -4 369.737 18.1591  10
  -8  -2   4 420.330 13.4713   8
  -8  -2   4 396.825 14.6887  16
   8  -2  -4 390.051 13.7340   9
  -8  -2   4 392.294 15.1043   5
  -8  -2   4 384.805 14.4245  11
   8  -2  -4 386.966 14.1844   4
  -8   2   4 379.448 13.9575   5
  -8   2   4 384.496 13.3173   8
  -8   2   4 387.985 13.1868   1
  -8   2   4 400.259 13.7859  16
   8   2  -4 397.429 14.1320  14
   8   2  -4 374.727 14.3763   4
   6  -2  -4 2483.21 60.8126   9
  -6  -2   4 2412.02 60.2311  11
  -6  -2   4 2532.24 61.6732  16
   6  -2  -4 2471.08 65.8530  10
   6  -2  -4 2400.04 58.5222  14
  -6  -2   4 2400.89 59.2949   8
  -6  -2   4 2416.95 61.7686   5
   6  -2  -4 2451.45 60.2848   4
  -6  -2   4 2401.56 59.2044  12
  -6   2   4 2506.20 59.6765   8
   6   2  -4 2430.69 60.3319  14
  -6   2   4 2450.34 59.2872  12
  -6   2   4 2458.53 59.1686  13
   6   2  -4 2416.13 60.7865   4
  -6   2   4 2416.21 60.7735   5
  -6   2   4 2501.04 60.5425  16
  -6   2   4 2468.00 59.3155   1
   6   2  -4 2433.35 59.5158   9
   4  -2  -4 2008.59 48.8902   4
  -4  -2   4 1984.27 48.3545   8
  -4  -2   4 1970.07 48.6202  12
   4  -2  -4 1995.91 49.8656   9
  -4  -2   4 1997.87 50.4584   5
   4  -2  -4 2016.27 48.2012  14
   4  -2  -4 2056.79 49.0446   6
  -4  -2   4 2052.75 50.3578  16
   4   2  -4 2013.67 49.4244   9
   4   2  -4 2004.93 49.3450  14
  -4   2   4 2097.48 48.7326  12
  -4   2   4 2069.98 49.0511   8
   4   2  -4 1994.13 48.1277  15
  -4   2   4 2067.60 48.6939  13
  -4   2   4 2040.19 50.3206   5
  -4   2   4 2070.55 50.1104  16
   4   2  -4 1979.80 49.7515   4
  -2  -2   4 7601.51 183.421  12
  -2  -2   4 7871.57 187.845  16
   2  -2  -4 7221.24 179.619   9
   2  -2  -4 7710.68 183.841  15
  -2  -2   4 7833.38 187.267   5
   2  -2  -4 7117.02 182.727   6
  -2  -2   4 8127.47 180.878   8
  -2   2   4 7443.33 178.128  14
  -2   2   4 7534.12 193.136  10
   2   2  -4 8222.37 186.898   7
  -2   2   4 7532.49 180.292   3
   2   2  -4 7674.42 188.388   9
  -2   2   4 7667.37 184.360  13
   2   2  -4 7931.55 181.214   3
  -2   2   4 7291.42 180.538  12
   2   2  -4 7464.13 182.769  15
   0  -2  -4 1433.15 35.2419   6
   0  -2   4 1435.38 34.4606  16
   0  -2   4 1454.53 33.2878  12
   0  -2  -4 1406.33 35.3283   1
   0  -2   4 1460.47 33.2725  12
   0  -2  -4 1335.23 35.6656  11
   0  -2  -4 1403.31 34.8296   9
   0  -2   4 1421.08 34.5404   5
   0  -2  -4 1414.02 35.1933  15
   0  -2  -4 1433.30 34.3202   7
   0   2  -4 1436.97 35.7753   9
   0   2  -4 1471.77 35.5145   7
   0   2  -4 1417.97 35.3676  15
   0   2  -4 1376.46 34.9845   1
   0   2  -4 1385.49 34.1996  11
   0   2   4 1435.82 34.8147  14
  -2  -2  -4 3653.93 85.4876   9
  -2  -2  -4 3686.46 86.3896   6
   2  -2   4 3579.97 86.5827   2
  -2  -2  -4 3801.02 88.4704  11
   2  -2   4 3595.34 91.4659  10
   2  -2   4 3441.46 84.7846  16
  -2  -2  -4 3704.68 87.8080   1
  -2  -2  -4 3693.07 86.6005  15
  -2   2  -4 3553.82 87.6911   1
   2   2   4 3631.59 88.1149  10
   2   2   4 3707.75 86.3534   4
   2   2   4 3692.99 85.1724  12
  -2   2  -4 3433.38 86.9752  11
   2   2   4 3721.36 87.2676  14
   2   2   4 3584.58 85.4846  12
  -2   2  -4 3624.02 87.2893   7
  -4  -2  -4 137.699 7.66640   1
   4  -2   4 137.971 9.63223  10
  -4  -2  -4 148.947 8.41035  11
   4  -2   4 138.897 5.41514  12
   4   2   4 139.481 7.57922  14
   4   2   4 135.762 5.21767  12
  -4   2  -4 138.426 7.82013   1
   4   2   4 154.889 6.82428   4
  -4   2  -4 139.687 7.08016   7
  -4   2  -4 136.586 7.64609  11
   4   2   4 148.830 8.93999  10
   6  -2   4 739.122 24.5155  14
  -6  -2  -4 758.722 25.9206  11
   6  -2   4 744.886 21.3490  12
  -6  -2  -4 709.625 24.5516   1
   6  -2   4 759.555 24.2970   4
  -6   2  -4 775.778 25.7028   1
  -6   2  -4 759.096 25.4931  11
   6   2   4 726.499 20.9387  12
   6   2   4 718.543 24.2388  14
   6   2   4 754.498 23.2550   4
  -8  -2  -4 24.2263 5.61700  11
   8  -2   4 24.3868 5.60707   4
   8  -2   4 23.1848 3.54486  12
  -8  -2  -4 22.1315 4.74940   1
   8   2   4 28.9749 4.93012   4
   8   2   4 24.7298 3.55069  12
  -8   2  -4 23.3597 5.79163   1
  -8   2  -4 24.2264 4.61101  11
 -11  -3   4 -1.7494 2.83856   5
 -11  -3   4 1.14519 3.52099  11
 -11  -3   4 2.52087 3.05551   8
  11  -3  -4 3.23205 3.08416   4
  11   3  -4 4.62089 3.77692   4
 -11   3   4 6.83691 4.45223  11
 -11   3   4 0.49835 2.63181   8
   9  -3  -4 59.6023 5.50288   9
  -9  -3   4 60.2162 6.08927  11
  -9  -3   4 62.6415 6.19586  16
  -9  -3   4 63.3288 5.57805   8
   9  -3  -4 63.7686 5.96899   4
  -9  -3   4 50.9515 6.29040   5
  -9   3   4 53.9171 4.65459   8
  -9   3   4 59.7759 6.92567  11
   9   3  -4 64.5321 6.35147   4
  -9   3   4 61.9940 5.42389   1
   9   3  -4 58.5063 5.52880  14
  -7  -3   4 92.9734 5.66845  11
   7  -3  -4 95.8342 8.36442  10
   7  -3  -4 98.2613 5.80581   9
  -7  -3   4 94.8805 6.48655  16
   7  -3  -4 99.3638 5.53256   4
  -7  -3   4 95.0753 6.89666   5
  -7  -3   4 101.947 5.36814   8
  -7   3   4 104.511 5.50738   1
  -7   3   4 95.9673 5.55656   8
   7   3  -4 99.3682 6.37176   4
  -7   3   4 101.416 5.58781  16
  -7   3   4 96.8264 5.15268  13
   7   3  -4 107.061 6.17477  14
  -7   3   4 93.1166 5.64009   5
   5  -3  -4 43.3053 4.92936  10
   5  -3  -4 35.2306 2.58571   6
  -5  -3   4 28.4948 3.17380  16
  -5  -3   4 31.0178 2.23604   8
  -5  -3   4 31.1675 2.31637  12
   5  -3  -4 29.9700 3.20532   2
  -5  -3   4 34.2004 3.46204   5
  -5  -3   4 31.3182 2.43158  11
   5  -3  -4 30.9523 2.60350   4
   5  -3  -4 36.6477 3.31811   9
   5   3  -4 34.9740 2.60604   9
  -5   3   4 32.2506 2.96277  16
   5   3  -4 36.7426 2.98292  14
  -5   3   4 32.0293 2.45365  12
  -5   3   4 33.2773 3.16393   5
  -5   3   4 32.5270 3.02643   8
  -5   3   4 34.8968 2.78633  13
   5   3  -4 28.3429 1.82913   3
   5   3  -4 33.1777 3.54006   4
   3  -3  -4 169.039 6.60295   2
  -3  -3   4 170.418 4.97587   8
   3  -3  -4 160.294 5.11135   4
  -3  -3   4 166.465 6.64013  16
  -3  -3   4 175.072 6.87715   5
  -3  -3   4 159.800 5.52129  12
   3  -3  -4 154.907 6.34562   9
   3  -3  -4 161.842 6.04207   6
  -3   3   4 153.404 4.78401   3
   3   3  -4 168.434 6.56692   4
  -3   3   4 159.756 5.73715  13
   3   3  -4 167.699 6.37778  14
  -3   3   4 158.878 5.44349  12
   3   3  -4 159.463 6.17773   7
   3   3  -4 177.950 5.04082   3
   3   3  -4 159.511 5.21608  15
  -3   3   4 164.183 5.82864   8
   3   3  -4 161.699 6.19679   9
   1  -3  -4 355.574 11.2193  11
   1  -3  -4 345.203 10.3567   9
   1  -3  -4 341.271 10.4559  15
  -1  -3   4 356.685 9.51206  12
  -1  -3   4 391.038 10.4751   5
   1  -3  -4 358.139 10.7974   6
  -1   3   4 349.336 9.63044   3
   1   3  -4 349.823 10.6899   7
  -1   3   4 334.678 9.33104  12
   1   3  -4 354.787 9.78349   3
  -1   3   4 359.504 9.18740  12
  -1   3   4 362.833 10.4604  13
   1   3  -4 337.754 10.9566   9
  -1   3   4 338.417 10.9817  10
  -1   3   4 357.707 9.43586  14
   1   3  -4 347.506 9.86980   1
   1   3  -4 346.890 10.3514  15
   1  -3   4 7.10127 0.86496  16
  -1  -3  -4 4.70552 1.22409  15
  -1  -3  -4 18.1685 2.29513   6
  -1  -3  -4 5.43754 1.75087  11
  -1  -3  -4 5.22214 1.63312   1
  -1  -3  -4 5.94667 1.02762   9
   1  -3   4 6.52521 0.97057  12
   1  -3   4 4.33894 1.52315   2
   1  -3   4 5.43869 2.32570  10
   1   3   4 6.44294 1.49196  14
  -1   3  -4 5.93472 1.21362  11
   1   3   4 6.05410 1.11106   4
   1   3   4 4.55092 1.22951  10
   1   3   4 4.92481 0.61411  12
   1   3   4 6.50415 0.69483  12
  -1   3  -4 12.5693 2.04877   1
  -1   3  -4 7.41244 1.74747   7
  -3  -3  -4 291.296 9.71461  15
  -3  -3  -4 304.408 11.9186  11
   3  -3   4 293.738 8.87859  12
  -3  -3  -4 303.676 10.1344   6
   3  -3   4 284.974 13.7835  10
   3  -3   4 296.337 10.2652   2
  -3  -3  -4 287.626 11.1563   1
  -3   3  -4 285.718 10.8487   7
  -3   3  -4 273.488 10.5332  11
   3   3   4 287.868 9.73492   4
   3   3   4 303.401 11.0374  14
   3   3   4 296.749 8.52763  12
  -3   3  -4 288.739 11.3873   1
   5  -3   4 0.62026 1.29091  12
  -5  -3  -4 0.34133 1.89576  11
   5  -3   4 3.00437 2.11022   4
  -5  -3  -4 0.91902 1.96355   1
  -5   3  -4 3.86715 2.27585   1
   5   3   4 0.05083 1.12552  12
  -5   3  -4 -0.5600 1.48499   7
   5   3   4 0.63931 2.33152  14
   5   3   4 5.48790 2.25104   4
  -5   3  -4 1.22778 1.53458  11
   7  -3   4 24.4298 3.37476  12
  -7  -3  -4 19.9529 5.10190  11
   7  -3   4 32.7119 5.29254  14
  -7  -3  -4 27.9537 5.43434   1
   7  -3   4 29.3459 5.34936   4
   7   3   4 27.2011 3.56219  12
  -7   3  -4 31.4354 5.58390  11
   7   3   4 21.1567 4.14355   4
  -7   3  -4 26.7799 5.52794   1
   7   3   4 26.7701 5.18681  14
 -12  -4   4 208.566 13.7885   5
  12  -4  -4 149.182 11.4296   4
 -12   4   4 182.637 9.66640   8
  12   4  -4 165.204 12.3296   4
 -10  -4   4 1229.41 38.2431   5
  10  -4  -4 1213.92 35.9169   4
 -10  -4   4 1181.75 36.3561  11
 -10  -4   4 1200.74 37.0870  16
  10  -4  -4 1262.87 36.0162   9
  10   4  -4 1219.60 36.7105   4
 -10   4   4 1211.84 34.5098   8
 -10   4   4 1257.35 38.5420  11
   8  -4  -4 172.411 8.89627   9
  -8  -4   4 170.619 9.56162  16
  -8  -4   4 158.034 8.38261  11
  -8  -4   4 160.484 7.64612   8
  -8  -4   4 165.934 9.98891   5
   8  -4  -4 151.145 8.02334   4
  -8   4   4 182.054 8.03656  13
   8   4  -4 160.756 8.77826  14
   8   4  -4 160.106 8.90877   4
  -8   4   4 188.890 8.39940   8
  -8   4   4 168.422 8.40302   1
  -6  -4   4 2097.99 53.3721  11
   6  -4  -4 2166.40 60.1683  10
   6  -4  -4 2193.64 52.4673   6
   6  -4  -4 2202.67 55.0936   9
  -6  -4   4 2142.42 55.5665  16
  -6  -4   4 2138.83 52.7958   8
   6  -4  -4 2185.59 54.6001   2
   6  -4  -4 2113.64 53.3644   4
  -6  -4   4 2193.98 56.2000   5
  -6   4   4 2062.45 54.0054   5
   6   4  -4 2155.67 52.6334   9
  -6   4   4 2209.59 53.8120   1
   6   4  -4 2180.77 54.8722  14
  -6   4   4 2183.47 53.4039  13
   6   4  -4 2240.10 55.0182   4
  -6   4   4 2192.30 53.9372  16
   6   4  -4 2036.74 51.7342   3
  -6   4   4 2144.10 53.0867  12
  -6   4   4 2204.61 53.5022   8
   4  -4  -4 37.3530 4.26639  10
  -4  -4   4 45.1857 3.98380  16
   4  -4  -4 41.3704 3.52600   2
  -4  -4   4 42.1130 2.79399  12
  -4  -4   4 43.3913 2.36128   8
   4  -4  -4 40.5259 3.38228   9
   4  -4  -4 38.9605 2.88191   6
  -4  -4   4 42.0224 4.02039   5
   4   4  -4 44.0454 2.96804   9
   4   4  -4 44.1680 3.48349   4
   4   4  -4 39.3536 3.39920  14
  -4   4   4 39.9488 3.06352   8
  -4   4   4 42.8125 2.64573  12
  -4   4   4 43.6732 2.88658  13
   4   4  -4 47.7619 2.40009   3
  -4   4   4 36.9005 2.12117   3
  -4   4   4 42.2396 3.32264  16
   2  -4  -4 2955.78 71.2482   6
   2  -4  -4 2940.32 71.2354   9
  -2  -4   4 2979.51 71.4437   5
  -2  -4   4 2961.20 70.2788  12
   2  -4  -4 2943.86 71.1970  15
   2  -4  -4 2889.62 71.5954   2
  -2  -4   4 2952.11 71.2641  16
   2   4  -4 3017.69 71.4466   7
   2   4  -4 2965.26 71.5955  14
  -2   4   4 3108.88 70.1342  12
  -2   4   4 2868.17 72.2352  10
  -2   4   4 3074.88 71.0213  13
   2   4  -4 2909.89 71.5111   9
  -2   4   4 2979.23 69.8282   3
   2   4  -4 2941.88 70.0032   3
   2   4  -4 2943.22 70.3292  15
   0  -4  -4 37.0765 3.10782   6
   0  -4   4 37.9140 2.26330   5
   0  -4   4 37.1984 4.00246  10
   0  -4   4 38.7075 2.20846  16
   0  -4   4 44.1143 3.48774   2
   0  -4   4 41.2398 2.38023  12
   0  -4  -4 37.9143 2.34795   9
   0  -4  -4 41.5249 2.71683  15
   0  -4  -4 39.4832 3.27450  11
   0   4   4 39.3753 2.05647  12
   0   4  -4 39.8307 3.18079   7
   0   4   4 35.5215 2.93365  13
   0   4  -4 37.3234 2.75338   1
   0   4   4 38.2568 2.46948  14
   0   4   4 38.1902 2.55823   3
   0   4   4 37.5409 2.31947  10
   0   4  -4 39.8716 2.57188   3
  -2  -4  -4 2858.77 71.4527   6
   2  -4   4 2938.18 69.7429  12
  -2  -4  -4 2903.88 72.2007   1
  -2  -4  -4 2966.16 73.1879  11
  -2  -4  -4 2900.02 70.4716  15
   2  -4   4 2934.24 76.9254  10
   2  -4   4 2947.57 71.7933   2
  -2   4  -4 2901.26 72.1874   1
   2   4   4 3019.92 71.7618  14
  -2   4  -4 3013.82 72.0014   7
  -2   4  -4 2881.09 70.8398  11
   2   4   4 2921.98 69.2890  12
   4  -4   4 151.744 7.44494   2
   4  -4   4 139.098 10.7326  10
   4  -4   4 152.892 6.50312  12
  -4  -4  -4 163.249 8.81121   1
  -4  -4  -4 168.935 9.12205  11
  -4  -4  -4 170.174 7.51118   6
  -4   4  -4 149.433 7.92426  11
   4   4   4 160.969 8.46113  14
   4   4   4 163.971 6.35568  12
  -4   4  -4 166.061 8.31059   7
  -4   4  -4 165.578 8.94251   1
   4   4   4 161.533 6.90169   4
  -6  -4  -4 1604.44 46.1314   1
   6  -4   4 1641.83 45.6865   4
   6  -4   4 1647.02 42.6607  12
  -6  -4  -4 1574.41 47.2065  11
  -6   4  -4 1660.41 47.0261   1
   6   4   4 1636.82 45.9522  14
  -6   4  -4 1649.21 46.5767  11
   6   4   4 1676.17 42.4161  12
  -8  -4  -4 139.708 9.89492   1
   8  -4   4 140.276 9.37942   4
   8  -4   4 116.859 7.32091  12
  -8  -4  -4 130.715 10.2822  11
  -8   4  -4 131.255 9.81490   1
   8   4   4 118.217 7.24043  12
   8   4   4 123.723 7.91005   3
  -8   4  -4 115.527 9.58246  11
  11  -5  -4 9.92873 3.48832   4
 -11  -5   4 10.0731 3.67425   5
  11  -5  -4 8.19141 3.58702   9
  11   5  -4 9.40679 3.52452   4
 -11   5   4 12.1393 4.75852  11
 -11   5   4 7.95463 3.07704   8
   9  -5  -4 176.770 9.22555   4
  -9  -5   4 165.098 11.1377   5
   9  -5  -4 187.132 9.81213   9
  -9  -5   4 178.141 10.6515  16
   9   5  -4 167.284 9.60392  14
  -9   5   4 159.871 8.62071   8
  -9   5   4 177.070 9.66234   1
   9   5  -4 167.791 10.0194   4
   7  -5  -4 22.2587 3.70393   9
   7  -5  -4 19.2167 3.47745   2
  -7  -5   4 26.9873 4.60245   5
  -7  -5   4 22.8078 2.98794   8
   7  -5  -4 26.7278 5.33952  10
   7  -5  -4 20.1672 2.94176   4
  -7  -5   4 24.8108 4.14999  16
  -7   5   4 25.6007 3.69719   1
   7   5  -4 29.1586 4.15671   4
   7   5  -4 27.1958 3.97225  14
  -7   5   4 24.7721 3.10382  13
  -7   5   4 25.1011 3.34227   8
   5  -5  -4 527.863 16.8505   2
   5  -5  -4 502.020 19.5646  10
   5  -5  -4 514.842 14.9978   6
  -5  -5   4 520.233 14.4017   8
   5  -5  -4 529.196 14.9917   4
  -5  -5   4 515.607 15.2176   2
  -5  -5   4 546.252 17.3834  16
  -5  -5   4 531.850 15.3164  12
  -5  -5   4 527.548 17.6043   5
   5   5  -4 533.880 16.6068   4
  -5   5   4 509.118 14.2100   3
  -5   5   4 500.537 15.1343  12
  -5   5   4 523.268 15.3988   8
   5   5  -4 548.667 16.9493  14
   5   5  -4 519.891 14.9842   9
  -5   5   4 504.202 15.7939  16
  -5   5   4 515.578 15.5801  13
   5   5  -4 523.567 14.3887   3
  -3  -5   4 315.390 10.9647   5
  -3  -5   4 305.922 9.70777  12
   3  -5  -4 306.593 10.1543   6
   3  -5  -4 297.335 10.4340   9
  -3  -5   4 306.323 10.4321   2
  -3  -5   4 307.390 10.6325  16
   3  -5  -4 300.626 10.8102   2
  -3   5   4 322.276 10.1791  13
   3   5  -4 304.848 10.1975   9
   3   5  -4 287.227 10.3293   7
  -3   5   4 316.845 9.10415   3
   3   5  -4 314.861 9.31336   3
  -3   5   4 306.794 9.84550   8
  -3   5   4 300.051 9.47051  12
   3   5  -4 302.811 10.8332  14
  -1  -5   4 332.109 11.2131   2
  -1  -5   4 307.852 9.79577  16
   1  -5  -4 308.375 10.2148  15
  -1  -5   4 326.567 9.84407  12
   1  -5  -4 320.063 10.6559   2
   1  -5  -4 311.164 10.0193   9
  -1  -5   4 310.430 9.89187   5
   1  -5  -4 330.888 10.9514   6
  -1  -5   4 315.197 13.0473  10
  -1   5   4 324.621 10.5159  13
   1   5  -4 328.117 10.0474   1
   1   5  -4 320.188 10.7701   7
   1   5  -4 339.106 8.60813  13
  -1   5   4 324.726 9.71036   3
  -1   5   4 306.333 9.02600  14
   1   5  -4 329.746 9.92945   3
  -1   5   4 336.696 9.66517  12
  -1  -5  -4 907.822 25.0723   6
   1  -5   4 914.018 25.4358   2
   1  -5   4 915.814 23.5248  12
  -1  -5  -4 880.896 23.7711  15
  -1  -5  -4 881.719 25.9267  11
   1  -5   4 921.302 29.2264  10
   1   5   4 921.927 23.1598  12
  -1   5  -4 876.374 24.8224   1
   1   5   4 934.001 24.9697  13
   1   5   4 888.715 24.1688  14
   1   5   4 895.966 23.8273   3
  -1   5  -4 900.069 24.1174   3
  -1   5  -4 913.379 25.0031   7
   3  -5   4 149.659 7.61697   2
  -3  -5  -4 142.863 7.24491   6
  -3  -5  -4 149.825 6.80164  15
   3  -5   4 154.705 6.26048  12
   3  -5   4 153.316 10.5868  10
  -3  -5  -4 138.243 7.68783   1
  -3  -5  -4 135.054 7.98478  11
   3   5   4 146.907 7.53306  14
   3   5   4 143.382 5.85224  12
  -3   5  -4 138.340 7.47844   7
   3   5   4 136.146 6.66497   3
  -3   5  -4 145.216 7.74726   1
  -5  -5  -4 475.052 17.8290   1
   5  -5   4 441.999 16.0044   2
   5  -5   4 451.091 14.8493  12
  -5  -5  -4 462.478 15.7897   6
   5  -5   4 460.935 17.0628   4
  -5  -5  -4 508.472 19.4041  11
   5   5   4 480.034 15.7610   3
   5   5   4 486.156 14.7813  12
  -5   5  -4 442.099 16.6966   7
  -5   5  -4 478.702 18.3364   1
  -5   5  -4 395.452 18.3669  11
   5   5   4 469.458 17.3915  14
   7  -5   4 111.535 7.09960  12
   7  -5   4 114.890 8.99253   4
  -7  -5  -4 111.338 9.53358   1
  -7  -5  -4 120.537 10.6184  11
   7   5   4 115.613 6.82375  12
  -7   5  -4 118.200 9.73739   1
   7   5   4 116.570 7.70438   3
 -10  -6   4 28.4199 6.12265   5
  10  -6  -4 35.1288 5.15653   9
 -10   6   4 32.4710 5.54230  11
 -10   6   4 36.2524 5.74433   1
 -10   6   4 38.8707 4.98624   8
  10   6  -4 35.3087 5.27436   4
  -8  -6   4 1185.79 36.0463  16
   8  -6  -4 1170.43 34.9345   9
  -8  -6   4 1209.33 37.1062   5
   8  -6  -4 1219.06 34.4449   2
   8   6  -4 1209.54 34.7456   4
  -8   6   4 1170.61 32.5042   8
  -8   6   4 1154.36 32.8710  13
  -8   6   4 1240.41 34.4736   1
   8   6  -4 1160.20 34.9559  14
  -6  -6   4 253.945 11.2150  16
   6  -6  -4 231.116 10.5027   2
   6  -6  -4 226.183 13.0205  10
  -6  -6   4 261.442 11.7019   5
  -6   6   4 227.447 9.04198   8
   6   6  -4 234.860 8.22583   3
   6   6  -4 225.746 10.1309   4
  -6   6   4 230.820 9.30058  13
  -6   6   4 222.167 8.02780   3
   6   6  -4 250.632 10.5765  14
  -6   6   4 227.333 8.96722  16
  -6   6   4 213.060 9.09761   5
  -4  -6   4 3140.67 79.0269  16
   4  -6  -4 3195.85 81.6937  10
  -4  -6   4 3162.53 79.4498   5
   4  -6  -4 3170.70 79.1329   2
   4  -6  -4 3211.86 77.3695   6
  -4  -6   4 3105.42 77.1739  12
  -4  -6   4 3230.00 77.9977   2
  -4   6   4 3247.19 77.2911   8
   4   6  -4 3235.88 79.1646  14
   4   6  -4 3148.85 76.5524   3
  -4   6   4 3245.45 77.2945  12
   4   6  -4 3279.37 78.4790   7
   4   6  -4 3274.10 77.4168   9
  -4   6   4 3241.60 77.7012  13
  -4   6   4 3161.05 76.2518   3
  -2  -6   4 560.454 16.8553  16
   2  -6  -4 568.277 17.6918   2
   2  -6  -4 564.404 16.9258   9
  -2  -6   4 589.826 16.5061  12
  -2  -6   4 601.882 17.8277   2
  -2  -6   4 564.416 17.1220   5
   2  -6  -4 579.252 17.2306   6
  -2   6   4 607.692 16.5197  12
  -2   6   4 594.184 17.1185  13
  -2   6   4 578.915 16.0289   3
   2   6  -4 581.981 16.2295   3
   2   6  -4 565.717 17.2886   7
   0  -6   4 3276.16 79.7704  12
   0  -6  -4 3224.66 79.9301  15
   0  -6  -4 3175.93 79.1586   9
   0  -6   4 3394.04 81.9443   2
   0  -6  -4 3411.85 82.4880  11
   0  -6   4 3334.09 85.7480  10
   0  -6  -4 3367.06 81.5147   6
   0  -6  -4 3341.28 80.6117   2
   0   6  -4 3365.47 81.0977   7
   0   6   4 3397.03 79.8877   3
   0   6   4 3465.06 79.6301  12
   0   6  -4 3171.98 80.5181   1
   0   6  -4 3292.29 80.0735   3
   0   6   4 3450.13 81.0977  13
   2  -6   4 192.289 11.3689  10
   2  -6   4 171.141 6.95615  12
   2  -6   4 177.002 8.72833   2
  -2  -6  -4 167.731 9.05529  11
  -2  -6  -4 169.665 6.58134  15
  -2  -6  -4 165.790 7.89260   6
  -2   6  -4 178.987 8.18678   7
  -2   6  -4 175.156 8.43299   1
   2   6   4 168.770 7.41747   3
   2   6   4 170.000 6.71960  12
   2   6   4 159.659 7.56841  14
   2   6   4 178.334 8.07676  13
  -4  -6  -4 1303.61 36.8514   6
  -4  -6  -4 1310.81 39.3042  11
   4  -6   4 1365.50 35.5472  12
   4  -6   4 1357.31 37.2548   2
   4   6   4 1316.23 35.9609   3
  -4   6  -4 1363.52 37.1689   7
   4   6   4 1375.03 35.2123  12
  -4   6  -4 1362.59 38.7902   1
   4   6   4 1312.03 37.3527  14
   6  -6   4 17.1244 4.50356   4
   6  -6   4 21.1215 3.45346  12
  -6  -6  -4 28.9480 5.86374  11
  -6   6  -4 24.5264 4.70571   7
  -6   6  -4 18.9510 4.84941   1
   6   6   4 17.1662 3.78744   3
   6   6   4 16.7128 3.00745  12
   6   6   4 16.2875 4.24524  14
  -8  -6  -4 445.153 22.9831  11
   8  -6   4 432.938 16.8201  12
   8  -6   4 515.033 22.1221   4
   8   6   4 490.387 18.8091  12
   9  -7  -4 172.230 10.1435   9
  -9  -7   4 157.556 11.4417   5
  -9  -7   4 153.762 10.6103  16
  -9   7   4 176.476 10.4970   1
   9   7  -4 162.214 10.0274   4
  -9   7   4 145.544 8.40256  13
   9   7  -4 153.508 10.0310  14
  -9   7   4 153.489 8.38855   8
   7  -7  -4 28.7133 4.64050   2
  -7  -7   4 30.6529 5.56442   5
  -7  -7   4 27.8545 4.92316  16
  -7   7   4 25.9837 3.80772  13
  -7   7   4 30.8817 3.70803   8
   7   7  -4 28.4056 4.56892  14
  -7   7   4 26.6192 3.98121   1
   7   7  -4 29.5974 4.44089   4
   5  -7  -4 183.751 7.55273   6
   5  -7  -4 196.802 9.65675   2
   5  -7  -4 189.288 11.1658  10
  -5  -7   4 178.417 7.91479   2
  -5  -7   4 185.682 9.70256   5
  -5  -7   4 176.802 9.17963  16
  -5   7   4 187.934 7.93605   8
  -5   7   4 200.962 8.51279  16
  -5   7   4 192.243 8.49832  13
  -5   7   4 193.529 7.33248   3
   5   7  -4 198.678 9.14701   4
  -5   7   4 182.955 7.77745  12
   5   7  -4 190.030 9.26693  14
   5   7  -4 194.203 7.53647   3
   5   7  -4 201.200 8.90277   7
   3  -7  -4 58.4893 4.37507   6
   3  -7  -4 61.8482 5.02259   2
  -3  -7   4 62.8287 4.95501   5
  -3  -7   4 59.0943 4.43544   2
   3  -7  -4 63.4268 4.72389   9
  -3  -7   4 58.0956 4.03955  12
  -3  -7   4 54.2448 4.50517  16
  -3   7   4 58.4376 3.91225  12
  -3   7   4 63.4333 3.87220   3
  -3   7   4 57.6748 4.49467  13
   3   7  -4 62.7311 3.96514   3
  -3   7   4 57.0973 4.06860   8
   3   7  -4 58.7034 4.60761   7
   3   7  -4 57.7081 4.57475  14
   1  -7  -4 20.9052 2.91542   6
  -1  -7   4 22.0585 3.85776  10
   1  -7  -4 22.5145 3.12978   2
  -1  -7   4 23.2337 2.50909  16
   1  -7  -4 17.6270 2.26498   9
  -1  -7   4 19.7387 3.45258   2
  -1  -7   4 16.7772 2.42161  12
   1  -7  -4 20.3901 2.59638  15
  -1   7   4 18.1849 2.37980  12
  -1   7   4 16.1870 2.23688   3
   1   7  -4 18.0962 2.90109   7
  -1   7   4 19.6317 2.69711  13
   1   7  -4 25.9022 2.95450   3
   1  -7   4 95.0606 6.87646   2
  -1  -7  -4 110.390 6.56935   6
  -1  -7  -4 95.8574 4.79123  15
   1  -7   4 99.9141 8.05521  10
  -1  -7  -4 106.534 6.82836  11
   1  -7   4 98.4110 5.25701  12
   1   7   4 106.407 5.29827  12
  -1   7  -4 102.713 6.16333   1
   1   7   4 92.7783 5.22515  14
  -1   7  -4 97.0692 6.05156   7
  -1   7  -4 99.9262 5.38912   3
   1   7   4 104.510 5.70554   3
   1   7   4 100.504 5.93795  13
  -3  -7  -4 2.68100 1.81380   6
  -3  -7  -4 6.26305 2.70604  11
   3  -7   4 3.61411 2.89755   2
   3  -7   4 0.48406 1.63768  12
   3   7   4 2.56926 2.34678  14
   3   7   4 -0.6252 1.30662  12
  -3   7  -4 1.64833 2.20181   1
  -3   7  -4 6.58998 2.70631   7
   3   7   4 1.43080 2.25697   3
   3   7   4 -0.6534 1.23867  13
   5  -7   4 39.5492 5.15505   2
  -5  -7  -4 42.6350 6.74693  11
  -5  -7  -4 46.2457 5.35447   6
   5  -7   4 41.2874 4.40377  12
   5  -7   4 36.1387 5.46271   4
   5   7   4 42.5816 5.05614  13
   5   7   4 35.6543 3.91830  12
   5   7   4 43.2333 5.18998   3
   5   7   4 41.9440 5.65251  14
  -5   7  -4 42.9092 6.29595   1
  -5   7  -4 41.7846 5.65514   7
  -7  -7  -4 4.73041 3.45355  11
   7  -7   4 3.77268 3.64363   4
   7  -7   4 7.30365 2.76315  12
  -7   7  -4 6.91342 3.34785   1
   7   7   4 6.30633 2.43404  12
   7   7   4 7.25955 3.12511   3
 -10  -8   4 310.613 14.0272   6
  10  -8  -4 306.270 15.3754   9
 -10  -8   4 317.188 16.7086   5
 -10   8   4 314.762 15.3547   1
 -10   8   4 320.302 16.3454  11
  10   8  -4 302.866 14.4950   4
   8  -8  -4 503.468 19.8975   9
  -8  -8   4 551.371 21.6616   5
  -8  -8   4 532.469 20.4017  16
   8  -8  -4 504.789 19.3955   2
   8   8  -4 516.231 19.1167   4
  -8   8   4 491.844 16.7341   8
  -8   8   4 487.544 17.7364  13
   8   8  -4 506.471 19.9090  14
  -8   8   4 531.246 19.6008   1
  -6  -8   4 336.299 14.7189  16
  -6  -8   4 335.890 15.3398   5
   6  -8  -4 350.589 14.7589   2
   6   8  -4 336.233 14.3473  14
  -6   8   4 342.381 13.1164  13
   6   8  -4 335.363 13.4182   7
  -6   8   4 348.181 12.2631   8
  -6   8   4 330.613 11.5180   3
   6   8  -4 339.932 11.7544   3
  -4  -8   4 772.025 24.3874   5
   4  -8  -4 790.372 22.4166   6
  -4  -8   4 729.473 23.5693  16
   4  -8  -4 754.294 23.9391   2
  -4  -8   4 765.576 22.8751   2
   4   8  -4 783.462 23.2528   7
   4   8  -4 783.431 24.3002  14
   4   8  -4 753.481 21.6633   3
  -4   8   4 799.464 21.6211   3
  -4   8   4 762.644 22.1522  12
  -4   8   4 776.045 22.7452  13
  -4   8   4 758.559 21.8130   8
   2  -8  -4 285.867 11.7180   2
  -2  -8   4 286.651 11.7699   2
   2  -8  -4 283.869 10.7273   9
  -2  -8   4 274.041 13.0706  10
  -2  -8   4 277.673 10.7652   5
  -2  -8   4 295.296 10.5487  12
   2  -8  -4 295.800 11.2912   6
  -2   8   4 283.339 10.2987  12
   2   8  -4 279.267 11.0865   7
  -2   8   4 286.790 11.0435  13
  -2   8   4 274.178 10.2641   8
  -2   8   4 291.353 10.2556   3
   2   8  -4 283.775 10.1550   3
   0  -8   4 886.830 25.0620  12
   0  -8  -4 904.332 25.8670   2
   0  -8   4 909.506 27.4503   2
   0  -8   4 862.166 30.1121  10
   0  -8  -4 919.890 26.9163   6
   0   8  -4 937.785 26.3474   7
   0   8   4 887.968 25.9638  13
   0   8  -4 904.678 26.1632   1
   0   8  -4 903.857 25.2569   3
   0   8   4 922.350 25.1723  12
   0   8   4 924.586 25.2342   3
  -2  -8  -4 232.940 11.8369  11
  -2  -8  -4 233.208 11.0384   6
   2  -8   4 234.937 11.7032   2
   2  -8   4 251.565 9.88526  12
   2   8   4 246.746 10.1277   3
  -2   8  -4 244.580 10.7083   7
   2   8   4 254.259 10.7952  13
  -2   8  -4 246.009 11.2805   1
   2   8   4 249.048 9.73771  12
   2   8   4 235.102 10.1560  14
   4  -8   4 755.505 22.9498  12
  -4  -8  -4 759.712 24.8931   6
  -4  -8  -4 761.284 26.4568  11
   4  -8   4 813.823 25.5834   2
   4   8   4 757.328 23.4898   3
   4   8   4 726.732 24.1619  14
   4   8   4 751.102 24.2321  13
  -4   8  -4 772.823 24.1947   7
  -4   8  -4 767.502 25.9875   1
   4   8   4 774.190 22.9400  12
   6  -8   4 195.327 11.3717   4
   6  -8   4 181.134 9.51387  12
  -6  -8  -4 190.337 13.0193  11
   6   8   4 187.191 9.40004  12
  -6   8  -4 198.159 12.5142   1
  -6   8  -4 202.963 11.1662   7
   6   8   4 199.107 9.80028   3
   9  -9  -4 -1.2646 2.05311   2
  -9  -9   4 13.7150 5.67123   5
   9  -9  -4 1.73794 3.61394   9
  -9  -9   4 1.78471 3.40524   6
  -9   9   4 5.92911 4.13773   1
   9   9  -4 1.94894 3.58929   7
  -7  -9   4 31.3586 5.71197  16
   7  -9  -4 31.7536 5.65927   2
  -7  -9   4 27.8920 6.16818   5
  -7   9   4 27.0199 4.22726  13
   7   9  -4 26.5376 4.97492  14
  -7   9   4 28.8255 3.75199   8
   7   9  -4 33.2089 5.27156   7
  -7   9   4 28.9276 5.30181   1
   5  -9  -4 2.96334 3.10358   2
  -5  -9   4 0.41751 2.48661  16
  -5  -9   4 3.27015 2.60159   5
  -5   9   4 -2.6082 1.95479  13
   5   9  -4 -1.7185 2.26933  14
  -5   9   4 7.90223 2.39528   8
   5   9  -4 -0.7162 2.34358   7
  -5   9   4 -0.8571 1.77053   3
   5   9  -4 -1.5776 1.44825   3
  -3  -9   4 8.76417 2.93939   2
  -3  -9   4 5.10858 2.67856   5
   3  -9  -4 7.02301 2.89975   2
   3  -9  -4 8.54450 2.26763   9
   3  -9  -4 6.39274 2.60961   6
  -3   9   4 8.80573 2.30358  13
   3   9  -4 5.79169 2.63645   7
   3   9  -4 9.29275 2.30801   3
  -3   9   4 9.63839 2.48090   8
  -3   9   4 7.86660 2.41391   3
  -3   9   4 6.20507 1.81119  12
  -1  -9   4 1.58765 2.15936   2
   1  -9  -4 10.5453 2.89050   2
  -1  -9   4 6.23215 2.48602  10
  -1  -9   4 4.14365 1.62427  12
   1  -9  -4 0.49032 2.36566   6
   1  -9  -4 4.33102 1.70889  15
  -1   9   4 3.27639 2.22564   3
  -1   9   4 4.47013 1.93245  12
  -1   9   4 4.63504 2.36431  13
   1   9  -4 2.22436 1.99644   3
   1   9  -4 1.91323 2.24370   7
   1  -9   4 3.00670 1.99061  12
   1  -9   4 1.26857 2.17936   2
  -1  -9  -4 2.72062 2.15279   6
  -1   9  -4 4.36946 2.36719   1
   1   9   4 1.82877 1.71902  12
  -1   9  -4 3.26497 2.48924   7
   1   9   4 12.8914 2.91693  13
  -1   9  -4 6.86968 2.43728   3
   1   9   4 8.45401 2.89401   3
  -3  -9  -4 14.3489 3.82276   6
  -3  -9  -4 11.2359 3.58204  11
   3  -9   4 3.79956 3.71087   2
   3  -9   4 12.2593 2.87190  12
   3   9   4 12.8099 2.82103  12
  -3   9  -4 10.3875 3.28451   7
   3   9   4 12.6220 3.12589  13
  -3   9  -4 12.2666 3.43995   1
   3   9   4 6.82625 3.22577   3
  -5  -9  -4 4.92040 4.13987  11
   5  -9   4 2.62822 2.82362   4
  -5  -9  -4 8.01972 3.48426   6
   5  -9   4 5.81505 2.08187  12
   5  -9   4 2.88831 3.54400   2
   5   9   4 5.35893 2.42541  12
   5   9   4 8.82205 2.86881   3
  -5   9  -4 5.33781 2.53308   7
  -5   9  -4 10.2198 4.22113   1
   8 -10  -4 53.8123 7.22612   2
  -8 -10   4 51.5918 7.98052   5
   8 -10  -4 44.6194 6.30225   9
  -8 -10   4 48.4124 6.05817   6
   8  10  -4 49.8915 6.19476   7
  -8  10   4 52.7844 7.27773   1
   6 -10  -4 983.337 31.0599   2
  -6 -10   4 944.534 31.6101   5
   6  10  -4 933.288 28.9853   7
  -6  10   4 924.235 28.2904  13
   6  10  -4 909.555 26.7955   3
  -6  10   4 953.219 30.0752   8
   6  10  -4 889.410 30.0041  14
   4 -10  -4 168.227 8.54856   6
  -4 -10   4 155.789 9.82925   5
  -4 -10   4 158.101 8.90773   2
   4 -10  -4 161.216 9.21472   9
   4 -10  -4 159.137 9.92251   2
  -4  10   4 164.074 7.81916   8
  -4  10   4 155.935 7.64072   3
   4  10  -4 146.011 9.42128  14
  -4  10   4 166.882 8.91189  13
   4  10  -4 170.648 8.15716   3
   4  10  -4 177.720 9.55920   7
   2 -10  -4 1104.65 32.2204   6
  -2 -10   4 1113.28 33.2014   2
   2 -10  -4 1126.03 33.2132   2
   2 -10  -4 1122.57 31.2794  15
   2  10  -4 1082.12 31.6826   7
  -2  10   4 1138.72 30.9218   3
  -2  10   4 1120.13 31.9626  13
  -2  10   4 1083.52 30.9298  12
   2  10  -4 1109.84 31.1223   3
   0 -10  -4 227.609 11.5854   6
   0 -10  -4 245.199 10.8128   2
   0 -10   4 228.853 12.1911   2
   0  10  -4 229.504 10.7181   7
   0  10  -4 240.739 10.5157   3
   0  10   4 225.006 10.0067  12
   0  10  -4 247.694 11.1842   1
   0  10   4 232.967 10.6537  13
   0  10   4 232.819 10.3791   3
   2 -10   4 718.213 22.8151  12
  -2 -10  -4 732.625 25.0588   6
   2 -10   4 757.319 25.9935   2
   2  10   4 730.797 23.5824  13
   2  10   4 703.266 22.7561   3
   2  10   4 752.485 23.0730  12
  -2  10  -4 752.768 23.5403   7
  -2  10  -4 762.477 23.7025   3
  -2  10  -4 761.151 25.0654   1
  -4 -10  -4 151.819 10.3407  11
   4 -10   4 143.941 10.1644   2
  -4 -10  -4 142.553 9.88554   6
   4  10   4 148.492 9.06192   3
  -4  10  -4 148.286 8.69942   7
   4  10   4 149.599 8.41734  12
  -4  10  -4 149.814 10.4226   1
  -7 -11   4 126.831 9.62489   6
   7 -11  -4 126.888 9.51104   9
  -7 -11   4 131.426 11.4305   5
   7 -11  -4 143.998 10.7869   2
   7  11  -4 129.223 9.13159   7
  -7  11   4 142.741 9.78572   1
  -5 -11   4 144.610 10.2834   5
  -5 -11   4 122.885 9.45932   6
   5 -11  -4 125.868 9.70819   2
   5 -11  -4 135.950 8.73912   9
   5  11  -4 126.150 7.45650   3
   5  11  -4 126.685 8.27483   7
  -5  11   4 124.139 7.04980   3
   3 -11  -4 175.989 10.5944   2
  -3 -11   4 175.357 10.0009   2
   3 -11  -4 165.034 9.25644   6
   3 -11  -4 159.181 8.90385   9
  -3 -11   4 170.850 9.94370   6
  -3  11   4 153.225 8.84313  13
   3  11  -4 166.350 9.42747   7
  -3  11   4 170.137 8.09752   8
   3  11  -4 181.806 8.99611   3
  -3  11   4 171.010 8.85064   3
   1 -11  -4 173.952 9.77077   2
  -1 -11   4 173.729 10.1893   2
   1 -11  -4 170.778 10.2335   6
   1  11  -4 174.986 9.19024   3
  -1  11   4 163.689 9.15073  13
  -1  11   4 169.724 8.75360  12
   1  11  -4 170.615 9.29725   7
  -1  11   4 173.032 9.12105   3
   1 -11   4 138.710 10.1369   2
  -1 -11  -4 130.843 9.61614   6
  -1  11  -4 118.383 7.85976   3
   1  11   4 128.923 7.47077  12
  -1  11  -4 133.482 8.82392   1
   1  11   4 126.095 8.03008  13
  -1  11  -4 124.995 8.06766   7
   1  11   4 124.970 8.23900   3
   3 -11   4 131.631 10.3270   2
  -3 -11  -4 139.443 9.98076   6
   3  11   4 117.347 7.40819  12
  -3  11  -4 123.787 8.88072   1
   3  11   4 113.457 7.64525   3
  -6 -12   4 140.140 10.5259   6
   6 -12  -4 129.816 9.80986   2
   6 -12  -4 141.073 9.74809   9
   6  12  -4 128.320 9.19072   7
  -4 -12   4 606.340 21.4556   6
   4 -12  -4 608.517 22.8676   2
   4 -12  -4 570.081 21.1776   9
   4  12  -4 608.899 21.0041   7
   4  12  -4 616.409 20.3075   3
  -4  12   4 640.230 20.5755   3
   2 -12  -4 97.2157 8.02140   2
  -2 -12   4 89.0471 7.52889   6
   2 -12  -4 103.300 8.10054   6
  -2 -12   4 113.220 8.84503   2
  -2  12   4 96.5393 7.33253   3
   2  12  -4 103.513 7.33946   3
   0 -12   4 661.056 24.0294   2
   0 -12  -4 646.685 23.4673   6
   0  12  -4 625.756 21.5964   3
   0  12   4 667.196 21.5461   3
   0  12  -4 655.454 27.3783   1
   2 -12   4 48.8590 6.95748   2
  -2 -12  -4 54.5701 7.39236   6
   2  12   4 52.1171 5.64388  12
  -2  12  -4 46.2867 6.08463   1
   2  12   4 67.3883 6.20027   3
   3 -13  -4 36.3551 5.70060   2
  -3 -13   4 37.6166 5.79044   6
  -3  13   4 39.1635 5.39517   3
   3  13  -4 36.5533 4.46365   3
  -1 -13   4 34.8468 5.69770   2
   1 -13  -4 30.9849 5.47201   6
   1  13  -4 37.5976 5.12997   3
  -1  13   4 37.7066 5.33098   3
  -1 -13  -4 41.9277 6.64554   6
   1 -13   4 59.6000 7.31239   2
   1  13   4 56.4410 6.27088   3
  -1  13  -4 60.6786 6.18594   3
  12   0  -5 3.06961 3.29146   4
 -12   0   5 4.32086 3.52116   8
 -12   0   5 0.21520 3.84509  11
 -10   0   5 5.48475 2.72720  16
  10   0  -5 2.36817 2.83889   4
 -10   0   5 1.40868 2.03566   8
 -10   0   5 0.82889 1.90725   5
 -10   0   5 4.85623 2.83115  11
  -8   0   5 1.91737 2.34967   5
   8   0  -5 2.18671 1.55679   9
  -8   0   5 1.25014 1.46247   8
   8   0  -5 0.99573 1.15749  14
  -8   0   5 0.06603 1.99354  16
  -8   0   5 3.35874 2.36041  11
   8   0  -5 -0.4443 1.86437   4
  -6   0   5 2.21752 1.17307   8
   6   0  -5 0.82319 0.83603   9
  -6   0   5 1.35325 0.76335  13
   6   0  -5 1.30290 0.88580  15
   6   0  -5 -0.0847 0.70120  14
   6   0  -5 0.12757 1.30839   4
  -6   0   5 0.73888 1.31550   5
  -6   0   5 4.35221 1.57212  16
  -4   0   5 0.09259 0.83093   5
  -4   0   5 0.27956 0.82476  16
   4   0  -5 1.40867 1.06978   9
   4   0  -5 1.26585 0.53981  14
  -4   0   5 0.97058 1.01103   8
   4   0  -5 0.64132 0.72739   7
   4   0  -5 0.64824 0.53953  15
   4   0  -5 3.69665 1.13244   4
  -4   0   5 0.44428 0.57825  12
  -4   0   5 1.00286 0.57359  13
   2   0  -5 1.17589 0.53272   1
  -2   0   5 3.36094 0.86524   8
  -2   0   5 1.29582 0.50240  13
   2   0  -5 0.49953 0.69045   7
  -2   0   5 1.94309 0.41481  12
  -2   0   5 2.32025 0.43262  12
  -2   0   5 0.21829 0.65843  16
   2   0  -5 0.82054 0.94643   6
   2   0  -5 3.60643 1.06401  15
   0   0  -5 13.3545 1.82345   7
  -2   0  -5 -0.3603 0.69126   6
  -2   0  -5 -0.3578 1.13689  15
   2   0   5 0.71813 1.72457  10
  -2   0  -5 2.30022 1.47507  11
  -2   0  -5 -0.8551 1.34941   1
  -2   0  -5 0.97460 1.41348   7
   4   0   5 0.98331 2.09388   4
  -4   0  -5 -0.3703 1.65694  11
   4   0   5 0.54572 2.03067  14
  -4   0  -5 -0.2769 1.50133   1
   4   0   5 -0.0077 0.79793  12
   4   0   5 -2.1028 1.87965  10
   6   0   5 -0.1185 2.89491  14
  -6   0  -5 3.93162 2.55197   1
   6   0   5 -1.8408 1.31221  12
   6   0   5 -1.4810 2.79064   4
  -6   0  -5 3.15497 3.02308  11
   8   0   5 1.24829 3.49619   4
   8   0   5 8.02390 2.59313  12
  -8   0  -5 -3.8723 3.38352   1
  -8   0  -5 2.17979 3.05057  11
 -11  -1   5 812.744 28.1623   5
 -11  -1   5 838.542 26.2210   8
 -11  -1   5 807.089 27.2405  16
  11  -1  -5 873.901 28.2774   4
 -11  -1   5 848.676 28.8683  11
  11   1  -5 890.267 28.7180   4
 -11   1   5 856.161 26.3214   8
 -11   1   5 861.025 29.4126  11
  -9  -1   5 147.925 7.70712   8
   9  -1  -5 136.905 8.29581   4
  -9  -1   5 140.217 8.24780  11
   9  -1  -5 151.671 7.82803   9
  -9  -1   5 140.974 8.58431  16
  -9  -1   5 149.050 8.78604   5
  -9   1   5 152.706 7.80115   8
  -9   1   5 138.256 8.07341  16
   9   1  -5 143.543 8.65336   4
  -9   1   5 133.571 8.77027  11
   9   1  -5 130.577 7.33345  14
  -9   1   5 142.223 8.57409   5
   7  -1  -5 1930.27 49.6136   4
  -7  -1   5 1947.13 48.4304   8
  -7  -1   5 1952.38 50.9282   5
  -7  -1   5 1931.83 49.5529  11
   7  -1  -5 1961.59 49.6371   9
  -7  -1   5 1916.47 48.1471  12
  -7  -1   5 1956.41 50.4608  16
  -7   1   5 1927.13 50.3095   5
  -7   1   5 1873.49 47.4313  13
   7   1  -5 1954.89 50.0683   4
   7   1  -5 1951.50 49.0698   9
   7   1  -5 1903.48 48.6997  14
  -7   1   5 1955.73 50.0081  16
  -7   1   5 2011.18 48.8013   8
   5  -1  -5 514.774 14.9676  15
  -5  -1   5 541.032 16.2029  16
  -5  -1   5 502.009 14.3387   8
  -5  -1   5 531.052 16.4883   5
   5  -1  -5 539.226 15.8558   9
  -5  -1   5 521.089 14.4117  12
   5  -1  -5 509.069 15.1524   4
   5  -1  -5 521.885 13.4874  14
  -5   1   5 523.779 14.4020  12
   5   1  -5 509.474 14.3182  15
  -5   1   5 532.406 13.9948  13
  -5   1   5 510.817 16.1642   5
   5   1  -5 505.023 15.5310   4
   5   1  -5 538.525 14.7708  14
  -5   1   5 528.001 16.0117  16
   5   1  -5 515.697 15.4802   9
  -5   1   5 521.758 14.7604   8
  -3  -1   5 3239.76 74.7979  12
   3  -1  -5 3080.29 76.5871   9
  -3  -1   5 3091.60 74.7237  13
  -3  -1   5 3187.16 77.0026   5
   3  -1  -5 3215.99 76.1309  15
   3  -1  -5 3198.00 76.1490   6
   3  -1  -5 3125.39 74.9151   7
  -3  -1   5 3250.98 76.8382  16
  -3  -1   5 3165.83 74.9488   8
   3  -1  -5 3242.06 75.8486   4
   3   1  -5 3179.64 76.5282   4
  -3   1   5 3297.41 76.3452  12
  -3   1   5 3218.99 75.5193   8
  -3   1   5 3191.61 77.0021  16
   3   1  -5 3054.80 75.6845   7
   3   1  -5 3237.14 76.7645   9
   3   1  -5 3199.20 75.8118  15
  -3   1   5 3252.91 74.9147  13
  -1  -1   5 1329.96 32.2364  16
   1  -1  -5 1226.56 31.2241   7
   1  -1  -5 1216.96 32.1724  11
   1  -1  -5 1237.30 32.2292  15
   1  -1  -5 1240.11 32.0247   6
   1  -1  -5 1251.85 32.3022   9
   1  -1  -5 1258.07 31.5819   1
   1   1  -5 1282.65 32.6583   9
   1   1  -5 1303.51 31.3777   1
  -1   1   5 1277.18 31.4032  13
   1   1  -5 1286.89 32.2735  15
   1   1  -5 1318.03 31.3057  11
   1   1  -5 1304.78 32.0363   7
   1   1  -5 1319.42 31.7264   6
  -1  -1  -5 2191.80 53.0977  15
  -1  -1  -5 2272.87 54.0357  11
  -1  -1  -5 2193.42 53.4741   1
  -1  -1  -5 2297.83 52.6246   6
  -1  -1  -5 2168.42 52.5324   7
  -1  -1  -5 2131.48 52.3682   9
   1  -1   5 2138.37 56.5988  10
  -1   1  -5 1988.44 52.6748  11
  -1   1  -5 2142.46 53.0921   7
   1   1   5 2264.01 55.5256  10
  -1   1  -5 2120.20 53.3708   1
  -1   1  -5 2041.09 51.5764   6
  -1   1  -5 2088.92 53.1587  15
  -1   1  -5 2088.23 53.1123   9
   3  -1   5 875.350 27.4458  10
  -3  -1  -5 829.878 22.9550  15
  -3  -1  -5 759.558 23.8268   1
   3  -1   5 803.491 19.9314  12
  -3  -1  -5 771.293 24.0442  11
   3  -1   5 818.457 21.7846   2
  -3  -1  -5 773.863 22.7454   6
   3   1   5 799.216 19.6426  12
  -3   1  -5 783.414 23.8525   1
  -3   1  -5 773.905 23.5847  11
   3   1   5 806.896 22.7856   4
   3   1   5 778.192 23.5237  14
   3   1   5 792.112 25.4461  10
  -3   1  -5 853.599 23.5597   7
  -5  -1  -5 699.277 23.3441   1
   5  -1   5 693.157 22.2808   4
  -5  -1  -5 677.382 23.5283  11
   5  -1   5 672.576 22.8393  14
   5  -1   5 684.705 18.9563  12
  -5   1  -5 681.485 23.3233   1
   5   1   5 677.527 22.8302  14
   5   1   5 686.330 21.5163   4
   5   1   5 688.750 18.9410  12
  -5   1  -5 678.234 23.1920  11
   7  -1   5 342.521 15.2965   4
  -7  -1  -5 340.125 16.1294   1
   7  -1   5 340.849 12.6728  12
  -7  -1  -5 349.712 16.7517  11
  -7   1  -5 340.943 16.1146  11
   7   1   5 342.094 12.3306  12
   7   1   5 343.905 14.5009   4
  -7   1  -5 361.973 16.6654   1
 -12  -2   5 159.287 11.8818   5
 -12  -2   5 179.225 10.3288   8
  12  -2  -5 177.631 11.1007   4
 -12  -2   5 200.399 11.7887  11
 -12   2   5 166.659 9.36448   8
  12   2  -5 181.067 11.8711   4
 -12   2   5 190.045 12.8109  11
 -10  -2   5 429.170 17.2027  11
 -10  -2   5 420.631 16.9600  16
 -10  -2   5 425.775 17.6060   5
 -10  -2   5 427.932 15.3444   8
  10  -2  -5 444.170 16.8610   4
  10  -2  -5 425.893 15.9591   9
 -10   2   5 433.799 17.9602  11
  10   2  -5 448.819 17.5724   4
 -10   2   5 447.463 15.6738   8
  -8  -2   5 474.180 16.2581  11
  -8  -2   5 468.231 15.1879   8
   8  -2  -5 472.807 16.2862   4
  -8  -2   5 485.155 17.6968   5
  -8  -2   5 474.200 17.0707  16
   8  -2  -5 498.251 16.5345   9
   8   2  -5 484.422 16.9469   4
  -8   2   5 480.494 15.5895   8
   8   2  -5 471.061 15.0593   9
  -8   2   5 482.702 16.1903  16
   8   2  -5 476.032 15.9688  14
  -8   2   5 466.525 16.5811   5
  -6  -2   5 781.283 21.2431  12
  -6  -2   5 806.564 23.7204   5
   6  -2  -5 774.502 21.9371   4
  -6  -2   5 792.216 21.0991   8
  -6  -2   5 809.744 23.3481  16
   6  -2  -5 817.495 22.9873   9
  -6  -2   5 763.075 21.6309  11
   6   2  -5 792.383 22.8254   4
  -6   2   5 784.839 20.7197   1
   6   2  -5 795.209 22.0407   9
  -6   2   5 795.215 22.7296  16
  -6   2   5 782.556 23.0309   5
  -6   2   5 821.149 21.7065   8
   6   2  -5 779.829 21.9514  14
  -6   2   5 773.268 20.8353  13
  -6   2   5 776.139 21.1727  12
   4  -2  -5 1051.60 26.6466   7
  -4  -2   5 1099.99 29.5670   5
  -4  -2   5 1066.47 29.1298  16
   4  -2  -5 1133.61 28.4157   6
  -4  -2   5 1114.35 27.5508  12
  -4  -2   5 1100.63 27.1969   8
   4  -2  -5 1080.49 27.8011   4
   4  -2  -5 1072.91 28.9723   9
   4  -2  -5 1138.65 28.6966  15
  -4   2   5 1125.45 29.3374  16
  -4   2   5 1079.91 27.3771  12
  -4   2   5 1107.04 27.4449  13
   4   2  -5 1118.66 29.0383   4
   4   2  -5 1116.60 28.8808   9
  -4   2   5 1129.18 28.0264   8
   4   2  -5 1087.37 27.4711  15
   4   2  -5 1108.97 28.2751  14
   4   2  -5 1078.18 28.3352   7
   2  -2  -5 817.321 21.7515   6
   2  -2  -5 755.176 19.9468   7
  -2  -2   5 836.473 19.0065  13
   2  -2  -5 794.054 21.7754   9
  -2  -2   5 854.576 19.9263   8
  -2  -2   5 839.580 20.0840  12
  -2  -2   5 878.346 22.0798   5
   2  -2  -5 790.287 21.6532  15
  -2  -2   5 849.489 21.7984  16
  -2   2   5 800.729 19.7469  12
  -2   2   5 797.557 20.8642  13
   2   2  -5 809.383 22.1239   9
   2   2  -5 838.920 21.6358   7
  -2   2   5 797.111 19.7756  12
   2   2  -5 810.288 21.3583  15
  -2   2   5 784.804 19.8586   3
   0  -2  -5 967.532 25.4131   6
   0  -2  -5 981.884 25.1124   9
   0  -2   5 990.474 22.8815  12
   0  -2   5 948.179 24.6465   5
   0  -2  -5 944.658 25.4300   1
   0  -2  -5 954.536 24.3811   7
   0  -2   5 992.142 29.0043  10
   0  -2   5 987.562 22.9005  12
   0  -2   5 969.159 24.5984  16
   0  -2  -5 951.165 25.3952  15
   0  -2  -5 977.659 26.1933  11
   0   2  -5 972.219 25.6355  15
   0   2  -5 963.204 25.9572   9
   0   2  -5 967.505 25.5395   7
   0   2  -5 940.370 25.1261   1
   0   2  -5 954.664 24.3809  11
  -2  -2  -5 430.364 14.7427  11
   2  -2   5 422.713 17.1562  10
   2  -2   5 424.301 10.9728  12
   2  -2   5 403.741 13.0079   2
  -2  -2  -5 420.654 12.9201   6
  -2  -2  -5 416.879 13.0812  15
  -2  -2  -5 433.751 14.1950   1
  -2  -2  -5 428.087 12.2894   9
   2   2   5 431.610 10.0914  12
   2   2   5 416.430 13.5752  14
   2   2   5 440.350 10.0885  12
  -2   2  -5 392.595 13.2607  11
  -2   2  -5 397.798 13.6311   7
   2   2   5 427.996 14.7635  10
  -2   2  -5 401.365 13.9417   1
  -4  -2  -5 283.056 12.3136   1
   4  -2   5 287.190 14.9506  10
  -4  -2  -5 290.868 12.8987  11
   4  -2   5 310.422 9.57169  12
  -4   2  -5 296.142 12.1516  11
  -4   2  -5 309.346 13.1270   1
   4   2   5 300.304 11.3356   4
  -4   2  -5 306.651 12.2185   7
   4   2   5 291.222 12.3384  14
   4   2   5 308.492 9.21275  12
  -6  -2  -5 176.144 11.2525  11
   6  -2   5 180.003 10.5155   4
   6  -2   5 182.616 7.94455  12
   6  -2   5 172.832 10.4128  14
  -6  -2  -5 160.157 9.98467   1
   6   2   5 170.935 7.52102  12
  -6   2  -5 165.207 10.0567  11
   6   2   5 164.319 10.2233  14
   6   2   5 189.174 9.74591   4
  -6   2  -5 173.035 10.8697   1
  -8  -2  -5 65.7573 8.55766   1
   8  -2   5 57.0307 5.25479  12
   8  -2   5 66.3507 7.32392   4
  -8  -2  -5 59.5461 7.66154  11
   8   2   5 66.8084 5.33895  12
  -8   2  -5 58.1045 7.70212  11
  -8   2  -5 79.2789 8.93734   1
 -11  -3   5 184.020 11.1394  11
  11  -3  -5 184.570 10.8445   4
 -11  -3   5 194.410 12.1164   5
 -11  -3   5 178.480 9.87179   8
 -11   3   5 182.994 9.55430   8
 -11   3   5 200.429 12.8471  11
  11   3  -5 187.512 11.5984   4
  -9  -3   5 930.710 28.9084  16
   9  -3  -5 937.879 27.8978   4
  -9  -3   5 931.193 26.4768   8
   9  -3  -5 920.821 27.7650   9
  -9  -3   5 909.550 29.4374   5
  -9  -3   5 921.261 27.9009  11
   9   3  -5 919.627 28.4759   4
  -9   3   5 946.443 26.9172   8
   9   3  -5 927.139 27.9094  14
  -9   3   5 884.858 27.3662   5
  -7  -3   5 637.326 20.4728  16
  -7  -3   5 630.676 17.9889   8
  -7  -3   5 623.365 20.9566   5
  -7  -3   5 627.344 18.6867  11
   7  -3  -5 625.125 18.8864   4
   7  -3  -5 640.818 19.8885   9
  -7   3   5 616.623 17.8675  13
  -7   3   5 632.175 19.2727  16
   7   3  -5 635.874 18.1786   9
   7   3  -5 599.977 19.6575   4
  -7   3   5 608.266 17.9524  12
  -7   3   5 631.035 18.5461   8
  -7   3   5 621.127 19.5490   5
   7   3  -5 618.155 19.1036  14
  -5  -3   5 2350.20 60.4085  11
  -5  -3   5 2521.07 62.9928  16
   5  -3  -5 2582.95 61.3649   6
   5  -3  -5 2506.41 61.0246   4
  -5  -3   5 2548.42 61.0322  12
  -5  -3   5 2501.46 63.3085   5
  -5  -3   5 2514.38 60.3630   8
   5  -3  -5 2524.01 62.6657   9
   5   3  -5 2565.66 62.1021  14
  -5   3   5 2478.85 62.8466   5
  -5   3   5 2545.84 60.9619  13
   5   3  -5 2519.94 61.7838   9
  -5   3   5 2564.73 62.6223  16
   5   3  -5 2475.08 62.4779   4
  -5   3   5 2559.43 60.9855  12
   5   3  -5 2564.88 60.2562  15
  -5   3   5 2577.06 61.4139   8
  -3  -3   5 1198.78 29.5785  12
   3  -3  -5 1139.61 30.6947  15
   3  -3  -5 1164.17 31.0108   9
   3  -3  -5 1195.51 30.7593   6
  -3  -3   5 1247.11 31.4262   5
  -3  -3   5 1218.98 31.1748  16
  -3   3   5 1158.17 29.9382  13
   3   3  -5 1252.49 30.9465   7
   3   3  -5 1225.73 28.8257   3
  -3   3   5 1164.11 29.3353  12
   3   3  -5 1191.25 31.1307   9
  -3   3   5 1159.42 28.6168   3
  -3   3   5 1187.03 30.3055   8
   3   3  -5 1258.36 30.9507  14
   3   3  -5 1163.00 29.7232  15
   1  -3  -5 2745.22 67.3383   7
   1  -3  -5 2846.70 69.0443   9
  -1  -3   5 2905.06 67.5086  12
  -1  -3   5 2853.06 68.7312   5
  -1  -3   5 2837.18 68.5600  16
   1  -3  -5 2895.67 69.5867   6
   1  -3  -5 2837.97 69.2750  15
   1  -3  -5 2910.02 70.2428  11
  -1   3   5 2894.78 68.8902  13
  -1   3   5 2838.90 66.8744  12
   1   3  -5 2852.88 69.9997   9
   1   3  -5 2932.65 69.6137   7
   1   3  -5 2896.44 69.2411  15
  -1   3   5 2926.40 66.9439  12
   1   3  -5 2853.13 68.4286   1
  -1   3   5 2841.03 67.7892  14
  -1   3   5 2953.49 67.9513   3
  -1  -3  -5 389.992 13.5940  11
   1  -3   5 400.134 12.7608   2
  -1  -3  -5 380.403 12.1699  15
  -1  -3  -5 373.866 12.3690   6
   1  -3   5 395.654 10.4964  12
   1  -3   5 393.755 15.9815  10
  -1  -3  -5 377.478 11.2899   9
  -1  -3  -5 397.021 13.0568   1
   1   3   5 384.190 9.60621  12
   1   3   5 387.655 11.2364   4
   1   3   5 422.829 12.5263  14
   1   3   5 396.232 12.7783  10
  -1   3  -5 374.288 12.6647   1
   1   3   5 399.609 9.60208  12
  -1   3  -5 404.586 12.8457   7
  -1   3  -5 351.764 12.0964  11
  -3  -3  -5 1617.66 42.1914   1
   3  -3   5 1505.95 40.0940   2
   3  -3   5 1575.74 38.2913  12
  -3  -3  -5 1568.99 40.1067   6
  -3  -3  -5 1675.55 43.3532  11
   3  -3   5 1448.57 45.8476  10
  -3  -3  -5 1606.18 40.1017  15
   3   3   5 1515.11 39.5690   4
  -3   3  -5 1518.38 41.1668   7
   3   3   5 1629.15 41.6193  14
   3   3   5 1635.84 37.7622  12
  -3   3  -5 1504.91 41.8527   1
  -3   3  -5 1429.99 40.4710  11
   5  -3   5 68.2767 4.46797  12
  -5  -3  -5 67.0317 7.09873  11
  -5  -3  -5 65.3507 6.84755   1
   5  -3   5 73.8204 6.13853   4
   5   3   5 65.8309 6.46679  14
  -5   3  -5 81.9411 6.80535   7
   5   3   5 72.4447 4.46652  12
  -5   3  -5 76.8785 7.20375   1
  -5   3  -5 71.0906 6.20661  11
   5   3   5 68.5204 5.49695   4
   7  -3   5 677.519 23.9134   4
  -7  -3  -5 637.575 24.2459   1
   7  -3   5 667.350 20.5598  12
  -7  -3  -5 641.374 25.4692  11
   7   3   5 670.133 20.2028  12
  -7   3  -5 660.934 24.9341   1
  12  -4  -5 -1.2817 2.42679   4
 -12  -4   5 0.07885 3.27195   5
  12   4  -5 -1.2316 3.63135   4
 -12   4   5 0.00814 2.69352   8
 -12   4   5 2.40294 4.48902  11
 -10  -4   5 51.7574 7.23566   5
  10  -4  -5 43.3645 5.49797   4
  10  -4  -5 41.7841 5.47165   9
 -10  -4   5 42.1300 4.64730   8
 -10  -4   5 60.6847 7.15793  16
  10   4  -5 49.0122 5.76374  14
  10   4  -5 35.4503 5.68696   4
 -10   4   5 53.2282 7.24727  11
 -10   4   5 45.4465 4.83027   8
  -8  -4   5 4.08345 2.71071  16
   8  -4  -5 3.58522 2.07246   4
   8  -4  -5 1.33755 2.29687   9
  -8  -4   5 3.72438 2.11508   8
  -8  -4   5 9.73650 3.61933   5
   8   4  -5 3.84846 2.70143   4
  -8   4   5 1.83539 2.27549   8
  -8   4   5 5.21569 2.05669  13
  -8   4   5 1.80827 1.90814   1
  -8   4   5 -0.0485 1.79520   5
  -8   4   5 3.26932 1.89628  16
   8   4  -5 1.40419 1.93770  14
   6  -4  -5 48.1518 3.55287   6
   6  -4  -5 73.0751 5.06483   9
  -6  -4   5 52.9946 5.15691  16
  -6  -4   5 52.0951 3.63332  12
  -6  -4   5 57.2865 5.55902   5
  -6  -4   5 48.5399 3.29594   8
   6  -4  -5 62.1040 3.80079   4
   6   4  -5 52.4531 3.61073   9
  -6   4   5 56.5090 4.57145   5
  -6   4   5 55.6922 3.68488  12
  -6   4   5 45.6907 4.01154  16
  -6   4   5 50.4939 3.85611  13
   6   4  -5 45.8470 4.10844   4
   6   4  -5 54.8254 4.44560  14
  -6   4   5 56.1931 3.91188   8
  -4  -4   5 126.891 6.34145  16
  -4  -4   5 129.234 6.52203   5
   4  -4  -5 130.304 5.75715   6
   4  -4  -5 127.890 6.29548   9
  -4  -4   5 127.628 5.26584  12
  -4  -4   5 126.427 4.34382   8
  -4   4   5 124.978 5.50710  13
  -4   4   5 110.981 4.12389   3
   4   4  -5 123.643 6.31402   4
   4   4  -5 126.257 6.11452  14
  -4   4   5 121.717 5.11848  12
   4   4  -5 128.612 4.45517   3
   4   4  -5 118.828 4.46060  15
   4   4  -5 116.252 5.70747   7
  -4   4   5 130.902 5.56040   8
   4   4  -5 118.307 5.67709   9
   2  -4  -5 23.6674 2.83108   6
   2  -4  -5 25.8389 2.62527  15
   2  -4  -5 21.4946 2.46123   9
  -2  -4   5 23.8426 2.74691   5
  -2  -4   5 23.5792 1.88299  12
  -2  -4   5 22.7339 2.43900  16
   2   4  -5 18.7743 2.58574   7
  -2   4   5 27.6233 2.05110  12
   2   4  -5 25.5579 2.27998  15
  -2   4   5 21.3354 1.78817   3
   2   4  -5 22.8390 2.89703   9
  -2   4   5 29.3933 2.83734  13
   2   4  -5 22.8505 2.02962   3
   0  -4   5 363.063 10.1501  12
   0  -4  -5 348.946 11.3612  15
   0  -4  -5 351.355 10.7438   9
   0  -4   5 368.501 12.2144   2
   0  -4  -5 351.819 11.8129   6
   0  -4   5 357.735 14.9850  10
   0  -4   5 339.718 10.0068  16
   0  -4  -5 346.023 12.5551  11
   0   4   5 357.715 11.0299  10
   0   4  -5 348.243 11.3237   1
   0   4   5 354.781 11.4789  13
   0   4   5 356.712 9.62645  12
   0   4   5 364.981 10.7609   3
   0   4   5 342.605 10.6746  14
   0   4  -5 349.112 11.9060   7
  -2  -4  -5 116.894 5.63489  15
   2  -4   5 124.116 9.25754  10
  -2  -4  -5 116.486 6.78129   1
  -2  -4  -5 115.649 6.24200   6
   2  -4   5 116.697 6.21316   2
   2  -4   5 132.134 5.06040  12
  -2  -4  -5 123.215 7.24942  11
   2   4   5 119.972 4.54146  12
   2   4   5 123.172 6.44819  14
  -2   4  -5 114.452 6.59075   7
  -2   4  -5 137.148 7.05656   1
   4  -4   5 162.710 6.82500  12
  -4  -4  -5 179.245 9.66201   1
  -4  -4  -5 167.341 7.75418   6
  -4  -4  -5 163.136 9.66174  11
   4  -4   5 150.482 7.83500   2
   4   4   5 160.196 6.39271  12
  -4   4  -5 153.390 8.35317   7
   4   4   5 162.758 8.97642  14
  -4   4  -5 157.655 9.29062   1
  -6  -4  -5 171.050 11.2040   1
  -6  -4  -5 185.249 12.1144  11
   6  -4   5 173.864 8.14461  12
   6  -4   5 172.529 10.1676   4
   6   4   5 173.424 10.6084  14
   6   4   5 171.402 7.93709  12
  -6   4  -5 180.898 11.0515   1
 -11  -5   5 498.128 21.7307   5
  11  -5  -5 553.468 20.4564   9
 -11   5   5 496.956 18.3286   8
 -11   5   5 516.234 22.1180  11
  11   5  -5 535.197 20.6121   4
   9  -5  -5 234.122 11.7076   9
  -9  -5   5 213.644 12.0381   5
   9  -5  -5 198.980 9.81506   4
  -9  -5   5 195.443 9.08243   8
  -9  -5   5 206.697 11.4038  16
   9   5  -5 211.023 10.9760   4
   9   5  -5 211.566 10.6176  14
  -9   5   5 210.612 9.34509  13
  -9   5   5 202.593 9.73614   8
   7  -5  -5 826.599 24.9653   9
  -7  -5   5 813.546 25.8132   5
  -7  -5   5 773.999 24.9517  16
  -7  -5   5 790.785 21.9010   8
  -7   5   5 776.600 22.7754   8
   7   5  -5 777.309 24.3843   4
   7   5  -5 811.357 24.3981  14
  -7   5   5 778.515 23.1297  16
  -7   5   5 818.731 23.2098   1
  -7   5   5 767.111 23.4898   5
  -7   5   5 772.381 22.4961  13
   5  -5  -5 324.374 12.3683   2
  -5  -5   5 328.368 9.82635   8
  -5  -5   5 333.157 10.9975  12
  -5  -5   5 345.394 12.6786  16
   5  -5  -5 324.888 12.3289   9
  -5  -5   5 346.951 12.9709   5
  -5  -5   5 321.004 11.2178   2
   5  -5  -5 329.688 11.1228   6
   5   5  -5 329.343 11.1531   9
  -5   5   5 338.793 11.3975   8
  -5   5   5 340.431 12.1338  16
   5   5  -5 344.785 12.3561   4
   5   5  -5 343.175 12.1718   7
  -5   5   5 327.927 11.2736  13
  -5   5   5 326.199 10.8372  12
   5   5  -5 360.355 12.6193  14
   3  -5  -5 1465.61 39.2961   2
  -3  -5   5 1471.42 37.5666  12
  -3  -5   5 1503.92 38.9170   2
  -3  -5   5 1510.12 39.2626   5
   3  -5  -5 1489.49 38.8479   9
   3  -5  -5 1524.90 38.8916  15
  -3  -5   5 1505.05 38.9186  16
   3  -5  -5 1564.97 38.8107   6
   3   5  -5 1475.47 38.7786   7
   3   5  -5 1501.13 38.8389   9
  -3   5   5 1484.81 36.6365   3
   3   5  -5 1522.66 39.2517  14
  -3   5   5 1504.43 37.3315  12
  -3   5   5 1509.41 38.0754   8
  -3   5   5 1505.86 38.1140  13
   3   5  -5 1489.53 36.9332   3
  -1  -5   5 770.305 21.3661   2
  -1  -5   5 722.170 19.1277  12
   1  -5  -5 703.116 20.6463   6
   1  -5  -5 715.678 20.1353  15
  -1  -5   5 711.353 24.0391  10
  -1  -5   5 718.682 19.4249   5
  -1  -5   5 694.290 19.2052  16
   1  -5  -5 671.818 19.4530   9
   1   5  -5 709.373 20.6649   7
  -1   5   5 714.195 19.0488   3
   1   5  -5 726.987 19.3663   3
  -1   5   5 739.445 20.3929  13
  -1   5   5 739.683 18.8662  12
   1   5  -5 686.137 19.4232   1
  -1  -5  -5 1487.02 39.3020  15
   1  -5   5 1598.39 38.6700  12
   1  -5   5 1595.04 41.2113   2
  -1  -5  -5 1546.54 40.8095   6
  -1  -5  -5 1584.84 42.1551  11
   1  -5   5 1489.10 45.4415  10
   1   5   5 1568.16 40.4836  13
  -1   5  -5 1499.88 40.4382   1
   1   5   5 1543.11 39.6368  14
   1   5   5 1580.63 39.2942   3
  -1   5  -5 1590.68 40.9173   7
   1   5   5 1550.79 38.0558  12
  -3  -5  -5 636.882 21.1729   1
   3  -5   5 674.638 20.9052   2
  -3  -5  -5 668.589 22.8197  11
  -3  -5  -5 632.588 20.4022   6
   3  -5   5 660.816 18.7433  12
   3   5   5 677.437 18.3886  12
   3   5   5 650.892 20.7132  14
  -3   5  -5 637.069 21.5885   1
  -3   5  -5 697.168 21.3060   7
   3   5   5 688.991 19.8100   3
  -5  -5  -5 839.479 27.5872   1
   5  -5   5 824.410 27.1246   4
   5  -5   5 821.835 24.1479  12
  -5  -5  -5 876.793 29.3440  11
  -5   5  -5 847.959 26.9160   7
   5   5   5 823.201 25.0866   3
   5   5   5 897.537 24.0351  12
   5   5   5 824.357 26.8922  14
  -5   5  -5 839.636 28.1431   1
   7  -5   5 241.468 10.6778  12
  -7  -5  -5 247.246 14.8236  11
  -7  -5  -5 246.718 13.8621   1
   7  -5   5 261.141 13.6049   4
   7   5   5 243.151 10.4185  12
   7   5   5 236.826 11.4717   3
  -7   5  -5 234.577 14.0332   1
 -10  -6   5 18.6149 4.63795   5
  10  -6  -5 11.9279 3.57566   9
  10   6  -5 10.1560 3.42314   4
 -10   6   5 10.8166 2.82527   8
  -8  -6   5 33.3194 5.61825  16
  -8  -6   5 41.2397 6.34344   5
   8  -6  -5 49.0337 5.87871   9
   8   6  -5 34.5967 5.00790  14
  -8   6   5 33.1003 4.24771   8
   8   6  -5 30.9569 4.93546   4
  -8   6   5 32.9657 4.22888  13
  -8   6   5 35.1939 4.61822   1
   6  -6  -5 11.2687 2.58523   9
   6  -6  -5 6.67447 1.89455   6
   6  -6  -5 5.65622 2.68111   2
  -6  -6   5 13.0499 3.42686  16
  -6  -6   5 7.36369 1.96001   2
  -6  -6   5 5.38392 3.19701   5
   6   6  -5 7.07474 2.68979   7
  -6   6   5 18.7237 2.79930  13
  -6   6   5 7.19369 2.38596   5
   6   6  -5 11.0250 2.95012  14
  -6   6   5 3.56457 1.81129  16
   6   6  -5 4.44617 2.56999   4
  -6   6   5 6.81719 1.99301   8
  -6   6   5 6.75173 1.84864  12
  -4  -6   5 5.89890 1.99388  16
   4  -6  -5 6.23555 2.19511   9
   4  -6  -5 9.10416 2.54377   2
  -4  -6   5 15.3866 2.85460   5
  -4  -6   5 6.86610 1.80872  12
  -4  -6   5 3.18658 1.50940   2
   4  -6  -5 8.56715 2.14198   6
  -4   6   5 12.6210 2.44495   8
  -4   6   5 6.22575 1.41087   3
   4   6  -5 7.93379 2.33238  14
  -4   6   5 7.50793 1.59725  12
   4   6  -5 6.64370 2.22969   7
  -4   6   5 6.35389 2.08044  13
   4   6  -5 2.40091 1.54245   9
   4   6  -5 4.31105 1.30263   3
  -2  -6   5 193.692 10.5659  10
  -2  -6   5 209.817 9.13603   2
   2  -6  -5 193.318 8.03997   9
  -2  -6   5 226.718 8.38265   5
  -2  -6   5 227.049 8.22527  16
   2  -6  -5 203.193 8.72921   6
   2  -6  -5 208.631 8.29254  15
  -2  -6   5 198.750 7.60370  12
   2  -6  -5 199.324 8.79803   2
  -2   6   5 200.048 7.38514  12
  -2   6   5 198.570 7.21471   3
   2   6  -5 185.805 7.25325   3
  -2   6   5 209.024 8.25749  13
   2   6  -5 208.242 8.60825   7
   0  -6  -5 8.49640 1.92612  15
   0  -6  -5 10.0791 2.50050  11
   0  -6   5 8.71966 2.63296   2
   0  -6   5 7.76115 2.70159  10
   0  -6  -5 19.4587 3.20058   6
   0  -6   5 9.06891 1.83270  12
   0   6   5 10.8202 2.08065   3
   0   6   5 10.6976 2.22512  13
   0   6  -5 8.78053 2.04231   1
   0   6  -5 8.27711 1.94507   3
   0   6  -5 12.3192 2.74001   7
   0   6   5 9.13403 1.67159  12
  -2  -6  -5 211.132 10.7684  11
   2  -6   5 185.285 12.4124  10
  -2  -6  -5 196.410 9.40498   6
   2  -6   5 197.189 9.80578   2
   2  -6   5 207.480 7.97990  12
  -2  -6  -5 199.248 7.87519  15
   2   6   5 205.404 8.87592  14
   2   6   5 201.498 7.62001  12
  -2   6  -5 201.073 9.50290   7
  -2   6  -5 204.594 9.72535   1
   2   6   5 214.125 8.71582   3
   2   6   5 201.959 9.24223  13
  -4  -6  -5 94.2288 8.39594  11
   4  -6   5 81.8629 6.87257   2
  -4  -6  -5 93.2401 6.81806   6
   4  -6   5 96.2341 5.77708  12
  -4   6  -5 90.3650 7.09681   7
  -4   6  -5 95.7512 7.82152   1
   4   6   5 83.0158 6.81639  14
   4   6   5 80.6347 6.29030   3
   4   6   5 79.1774 5.14568  12
   6  -6   5 69.9472 7.79879   4
  -6  -6  -5 57.9652 8.30044  11
   6  -6   5 54.2960 5.12285  12
  -6   6  -5 66.7637 7.63414   1
   6   6   5 49.0597 5.54132   3
   6   6   5 54.5892 5.06809  12
 -11  -7   5 277.948 17.8942   5
 -11   7   5 311.925 13.2123   8
 -11   7   5 331.206 19.1129  11
  -9  -7   5 326.013 16.7312   5
  -9  -7   5 256.598 16.0928  16
   9  -7  -5 338.077 15.4581   9
  -9   7   5 319.425 12.6865   8
   9   7  -5 319.834 14.7930  14
  -9   7   5 333.943 13.9134   1
  -9   7   5 304.705 12.8121  13
   9   7  -5 330.310 14.9021   4
   7  -7  -5 1088.02 33.3818   2
   7  -7  -5 1113.15 33.5976   9
  -7  -7   5 1140.21 34.2337  16
  -7  -7   5 1167.17 35.2439   5
   7   7  -5 1164.72 33.7310  14
  -7   7   5 1078.66 30.8553   8
   7   7  -5 1162.66 33.1836   7
  -7   7   5 1098.91 31.4162  13
  -7   7   5 1105.00 32.2383   1
   7   7  -5 1124.11 32.9578   4
   5  -7  -5 788.023 24.0860   9
  -5  -7   5 755.143 24.2442  16
  -5  -7   5 760.095 22.7889   2
   5  -7  -5 793.547 22.4695   6
   5  -7  -5 781.115 24.3797   2
  -5  -7   5 789.388 24.8226   5
  -5   7   5 773.385 22.2238  12
  -5   7   5 816.436 23.7450  16
  -5   7   5 802.378 22.5106   8
  -5   7   5 721.572 21.6776   3
   5   7  -5 756.143 21.2217   3
   5   7  -5 750.267 24.0083  14
  -5   7   5 780.844 22.8320  13
   5   7  -5 775.896 23.5723   7
  -3  -7   5 1497.55 41.2145  16
  -3  -7   5 1566.94 41.7322   5
   3  -7  -5 1595.87 41.5734   6
  -3  -7   5 1581.29 41.9915   2
  -3  -7   5 1525.69 40.3325  12
   3  -7  -5 1617.45 41.8549   9
   3  -7  -5 1599.88 42.5438   2
   3   7  -5 1621.64 42.0050   7
   3   7  -5 1562.60 39.8749   3
  -3   7   5 1578.41 39.5519   3
  -3   7   5 1564.69 41.1072  13
  -3   7   5 1629.25 40.8819   8
  -3   7   5 1571.27 40.1714  12
  -1  -7   5 482.773 19.6691  10
  -1  -7   5 501.727 17.1384   2
   1  -7  -5 499.402 16.6352   6
   1  -7  -5 473.486 14.9383   9
   1  -7  -5 481.687 15.3839  15
  -1  -7   5 507.204 15.2858  12
   1   7  -5 540.047 16.9149   7
  -1   7   5 478.489 14.8040  12
  -1   7   5 500.398 16.0845  13
  -1   7   5 494.471 14.9059   3
   1   7  -5 487.865 15.4146   1
   1   7  -5 499.161 15.1897   3
   1  -7   5 856.160 23.9761  12
  -1  -7  -5 858.567 26.1421   6
  -1  -7  -5 876.735 27.3684  11
   1  -7   5 850.809 30.7956  10
   1  -7   5 887.062 26.6991   2
  -1  -7  -5 869.367 24.0263  15
  -1   7  -5 898.955 26.0487   7
   1   7   5 845.916 23.8087  12
  -1   7  -5 860.250 25.7617   1
   1   7   5 882.719 25.6590  13
   1   7   5 885.225 24.4500   3
   3  -7   5 103.408 7.90361   2
   3  -7   5 90.7461 5.65559  12
  -3  -7  -5 98.6092 7.84976  11
  -3  -7  -5 105.523 7.38472   6
  -3   7  -5 105.910 7.35116   1
   3   7   5 100.135 6.85783  14
   3   7   5 93.5612 6.50189   3
   3   7   5 91.8312 5.45759  12
  -3   7  -5 106.293 7.53797   7
   3   7   5 100.744 6.91614  13
  -5  -7  -5 377.110 15.5174   6
   5  -7   5 403.672 16.8521   4
  -5  -7  -5 367.684 18.1378  11
   5  -7   5 390.796 14.5128  12
   5   7   5 372.945 16.0856  14
   5   7   5 431.679 15.7360   3
  -5   7  -5 419.168 18.0110   1
   5   7   5 411.476 14.3515  12
  -5   7  -5 418.491 16.3974   7
  10  -8  -5 84.6288 8.61072   9
 -10  -8   5 72.2477 8.65905   5
  10   8  -5 59.1316 6.89511   4
 -10   8   5 77.5902 5.86028   8
  -8  -8   5 426.018 19.1373   5
  -8  -8   5 420.785 17.9415  16
   8  -8  -5 429.325 17.8545   9
   8  -8  -5 431.551 17.6833   2
  -8   8   5 411.710 14.9903   8
   8   8  -5 407.962 17.4135  14
  -8   8   5 386.637 15.2491  13
   8   8  -5 466.162 17.6207   7
   8   8  -5 419.517 17.0710   4
  -8   8   5 413.386 16.5962   1
   6  -8  -5 297.012 13.1402   9
  -6  -8   5 276.215 13.1971  16
  -6  -8   5 277.995 13.9823   5
   6  -8  -5 289.066 13.1288   2
  -6   8   5 284.434 11.7087  13
   6   8  -5 294.755 12.7022   7
   6   8  -5 279.468 12.8335  14
  -6   8   5 278.468 10.9549   8
   4  -8  -5 224.792 9.70491   6
  -4  -8   5 212.469 10.0474   2
  -4  -8   5 215.245 10.6935   5
   4  -8  -5 241.593 10.5944   9
   4  -8  -5 216.284 10.8344   2
  -4  -8   5 212.287 10.2014  16
   4   8  -5 232.939 10.8315  14
   4   8  -5 230.552 10.4259   7
  -4   8   5 223.772 8.51436   3
  -4   8   5 220.219 9.07333  12
  -4   8   5 214.297 9.39660  13
   4   8  -5 217.352 8.64159   3
  -4   8   5 231.680 9.39788   8
   2  -8  -5 578.411 19.2397   6
  -2  -8   5 560.335 22.0893  10
   2  -8  -5 581.097 18.4979  15
  -2  -8   5 607.764 19.9705   2
   2  -8  -5 609.107 19.6549   2
   2  -8  -5 578.321 18.2725   9
  -2  -8   5 604.388 18.2478  12
  -2   8   5 594.620 17.9334  12
  -2   8   5 596.887 17.5780   3
   2   8  -5 603.966 17.9999   3
   2   8  -5 591.485 19.1684   7
  -2   8   5 612.272 18.9732  13
   0  -8  -5 73.7977 6.38405   6
   0  -8  -5 74.0548 4.80458  15
   0  -8   5 81.0584 6.33778   2
   0  -8   5 76.5480 7.90038  10
   0  -8   5 93.0091 5.44761  12
   0   8  -5 77.1003 5.53492   1
   0   8   5 77.5023 5.74963  13
   0   8   5 84.3633 5.07391  12
   0   8   5 73.7730 5.27727   3
   0   8  -5 85.2068 5.46586   3
   0   8  -5 74.1773 6.04240   7
   2  -8   5 264.777 10.5645  12
  -2  -8  -5 281.082 12.5558   6
  -2  -8  -5 256.428 12.9101  11
   2  -8   5 275.777 12.9474   2
   2   8   5 264.262 10.9701   3
   2   8   5 268.390 11.7038  13
   2   8   5 265.270 10.4009  12
  -2   8  -5 251.587 11.6732   7
  -2   8  -5 271.630 12.3379   1
   4  -8   5 100.901 6.23867  12
  -4  -8  -5 104.744 8.00858   6
   4  -8   5 96.9966 8.39037   2
  -4  -8  -5 102.252 8.61960  11
   4   8   5 89.9519 6.92587  13
  -4   8  -5 109.469 8.87622   1
   4   8   5 99.9224 7.42916   3
  -4   8  -5 106.024 7.95759   7
   4   8   5 92.9786 6.11813  12
  -6  -8  -5 15.3760 5.44321  11
   6  -8   5 12.9941 3.08261  12
   6  -8   5 14.8962 4.55782   4
  -6   8  -5 21.2159 5.34652   1
   6   8   5 18.1279 4.32729   3
   6   8   5 18.8901 3.50504  12
  -9  -9   5 906.199 32.2829   5
   9  -9  -5 879.475 30.0760   9
  -9   9   5 832.220 28.3796   1
  -9   9   5 821.487 25.9246   8
   9   9  -5 884.567 28.9923   7
   7  -9  -5 14.3672 4.50314   2
   7  -9  -5 10.6313 3.11269   9
  -7  -9   5 1.91801 3.98911   5
  -7  -9   5 6.15235 3.52126  16
   7   9  -5 2.75934 2.82475  14
  -7   9   5 10.1044 2.88686   8
   7   9  -5 7.24370 3.58682   7
  -7   9   5 9.78020 2.72115  13
  -7   9   5 -0.2108 3.09942   1
   5  -9  -5 1052.58 31.3400   9
  -5  -9   5 973.518 30.8326  16
   5  -9  -5 1061.84 32.2605   2
   5  -9  -5 1025.13 29.2851   6
  -5  -9   5 1054.60 32.2390   5
  -5   9   5 1061.46 29.2157   8
   5   9  -5 1022.69 30.6994   7
   5   9  -5 1013.49 28.3625   3
   5   9  -5 999.300 31.4855  14
  -5   9   5 1056.60 30.1093  13
   3  -9  -5 12.9963 3.25745   6
   3  -9  -5 10.2809 3.41490   2
   3  -9  -5 8.65034 2.56718  15
  -3  -9   5 3.59001 3.02139   2
   3  -9  -5 13.3618 3.01236   9
   3   9  -5 8.85740 2.31635   3
  -3   9   5 9.33724 2.50231   3
  -3   9   5 12.0557 2.29154  12
   3   9  -5 9.90529 3.10024   7
  -3   9   5 8.49378 2.23990   8
  -3   9   5 12.4210 3.10942  13
  -1  -9   5 1387.19 39.5728   2
   1  -9  -5 1426.40 38.5590   2
   1  -9  -5 1406.05 38.9210   6
  -1  -9   5 1312.26 36.6875  12
   1  -9  -5 1351.66 36.6948  15
  -1   9   5 1383.86 37.9504  13
   1   9  -5 1397.39 37.0482   3
  -1   9   5 1342.43 36.5841  12
   1   9  -5 1369.61 38.2344   7
  -1   9   5 1373.80 36.6054   3
  -1  -9  -5 152.385 9.28539   6
   1  -9   5 157.923 9.53809   2
   1  -9   5 140.258 7.56211  12
  -1   9  -5 140.452 8.47817   1
   1   9   5 143.543 8.34092  13
   1   9   5 143.114 7.88077   3
   1   9   5 135.605 7.25115  12
  -1   9  -5 135.285 8.38435   7
   3  -9   5 1125.82 34.9341   2
   3  -9   5 1116.49 32.5297  12
  -3  -9  -5 1133.95 34.9832   6
  -3  -9  -5 1194.97 37.1374  11
   3   9   5 1162.56 33.0971   3
  -3   9  -5 1197.13 35.9127   1
   3   9   5 1144.21 32.4986  12
   3   9   5 1146.19 34.1973  13
  -3   9  -5 1179.75 34.4834   7
   5  -9   5 190.280 9.56207  12
  -5  -9  -5 183.417 12.8478  11
   5  -9   5 169.252 10.5641   2
  -5  -9  -5 179.205 10.7352   6
   5  -9   5 188.730 11.0865   4
   5   9   5 152.309 9.05479   3
   5   9   5 163.241 8.90773  12
  -5   9  -5 179.723 11.8129   1
  -5   9  -5 201.918 11.1998   7
  -8 -10   5 23.8349 6.17276   5
   8 -10  -5 29.2672 4.95661   9
   8 -10  -5 26.6223 5.76985   2
  -8  10   5 27.6136 4.90802   1
   8  10  -5 22.9744 5.05020   7
  -6 -10   5 -0.2844 3.46741   5
   6 -10  -5 -1.1693 2.47753   9
   6 -10  -5 0.84440 3.41546   2
  -6  10   5 0.74034 2.20921   8
  -6  10   5 0.16121 1.89513  13
   6  10  -5 -0.6314 2.81484   7
   6  10  -5 0.23589 1.83886  14
   4 -10  -5 -1.2622 2.55580   2
   4 -10  -5 0.62269 2.44782   6
  -4 -10   5 4.33663 2.77472   2
   4 -10  -5 0.76854 2.13724   9
   4  10  -5 -0.8217 2.64561   7
   4  10  -5 4.77523 2.26546   3
  -4  10   5 2.08805 1.80898  13
  -4  10   5 1.62825 2.12417   3
  -4  10   5 -2.1051 1.80996   8
   2 -10  -5 67.2358 5.36809  15
  -2 -10   5 92.9659 8.04804   2
   2 -10  -5 77.0200 6.31270   2
   2 -10  -5 65.2775 6.61001   6
  -2  10   5 64.4532 5.87243  13
   2  10  -5 72.7061 5.65942   3
  -2  10   5 77.5723 5.78447   8
  -2  10   5 76.8487 5.83387   3
   2  10  -5 72.3111 6.00302   7
  -2  10   5 75.6663 5.56893  12
   0 -10   5 4.82760 2.42092  12
   0 -10   5 4.20561 2.86828   2
   0 -10  -5 6.79873 3.02247   6
   0  10   5 11.4364 3.32941   3
   0  10   5 11.0839 2.81666  12
   0  10  -5 9.82492 3.44513   7
   0  10   5 7.37698 2.53048  13
   0  10  -5 8.00846 2.88848   3
   2 -10   5 38.5258 6.35002   2
   2 -10   5 56.8141 5.16198  12
  -2 -10  -5 52.7708 6.74667   6
   2  10   5 45.6701 4.89467  12
  -2  10  -5 54.6620 6.14021   1
  -2  10  -5 50.6287 5.67874   7
   2  10   5 51.0981 6.40628  13
   2  10   5 50.1441 5.70491   3
   4 -10   5 1.86039 2.79520   4
  -4 -10  -5 2.72035 2.39062   6
   4 -10   5 4.93473 3.95287   2
  -4 -10  -5 2.71180 4.05806  11
   4 -10   5 2.93895 2.42783  12
   4  10   5 4.51995 2.62142   3
  -4  10  -5 5.34566 3.44567   1
   4  10   5 5.18988 2.47545  12
  -4  10  -5 7.41022 3.49729   7
   7 -11  -5 359.367 16.4771   9
   7 -11  -5 383.269 17.7946   2
  -7 -11   5 353.164 15.6753   6
  -7 -11   5 343.604 17.6357   5
  -7  11   5 399.557 17.2875   1
   7  11  -5 375.652 16.1827   7
   5 -11  -5 693.601 23.7300   9
   5 -11  -5 678.891 24.5101   2
   5  11  -5 621.129 22.3214   7
  -5  11   5 655.448 20.8286   8
  -3 -11   5 511.966 19.1767   2
   3 -11  -5 540.037 20.0857   2
   3 -11  -5 492.092 18.5717   6
   3 -11  -5 496.355 17.8027  15
  -3 -11   5 507.297 18.1807   6
  -3  11   5 512.310 17.0199   3
  -3  11   5 505.373 17.1097   8
  -3  11   5 470.291 17.9028  13
   3  11  -5 521.185 17.5709   3
   3  11  -5 502.111 18.6170   7
   1 -11  -5 388.341 16.2982   6
  -1 -11   5 400.998 17.2143   2
  -1  11   5 379.524 14.5057  12
   1  11  -5 387.101 14.7590   3
  -1  11   5 373.393 14.2125   8
  -1  11   5 369.467 14.3932   3
   1  11  -5 379.777 15.5389   7
  -1  11   5 383.610 15.3556  13
  -1 -11  -5 295.351 14.1595   6
   1 -11   5 272.789 14.6388   2
   1  11   5 274.621 12.0470  12
   1  11   5 296.886 12.7963   3
  -1  11  -5 279.055 12.9705   7
   3 -11   5 77.5828 8.12673   2
  -3 -11  -5 77.8847 7.98427   6
  -3  11  -5 104.155 11.8935   7
   3  11   5 92.3828 7.71637   3
  -3  11  -5 81.8180 7.86106   1
   3  11   5 78.5816 6.30920  12
   6 -12  -5 93.6290 7.77903   9
   6 -12  -5 101.774 9.15241   2
  -6 -12   5 80.0291 8.27904   6
   6  12  -5 76.3107 7.88891   7
  -4 -12   5 130.267 9.44999   6
   4 -12  -5 152.201 10.5281   2
   4 -12  -5 138.794 8.57022  15
   4  12  -5 137.221 9.16066   7
   4  12  -5 136.524 7.98138   3
   2 -12  -5 17.0044 4.10432   2
   2 -12  -5 14.1878 4.53363   6
  -2 -12   5 9.81371 4.16875   2
   2  12  -5 10.1156 3.60529   7
  -2  12   5 13.1538 3.62243   3
  -2  12   5 14.5120 3.27101   8
   2  12  -5 13.2636 2.91298   3
   0 -12  -5 207.192 12.2219   6
   0 -12   5 190.932 12.3846   2
   0  12   5 193.953 10.4783   3
   0  12  -5 191.853 10.0942   3
   0  12   5 199.518 10.0291  12
  -2 -12  -5 14.8044 4.59023   6
   2 -12   5 13.3291 4.18036   2
   2  12   5 15.5032 4.28473   3
   2  12   5 14.4605 3.31990  12
  -3 -13   5 394.523 16.7763   2
   3 -13  -5 390.050 17.3319   2
  -3  13   5 389.271 15.2651   3
   3  13  -5 389.448 15.0270   3
  -1 -13   5 44.0277 6.51312   2
   1 -13  -5 35.6623 6.00052   6
   1  13  -5 33.8758 4.73666   3
  12   0  -6 11.5032 4.25178   4
 -12   0   6 7.32096 3.74585   8
 -12   0   6 13.1080 4.84108  11
 -10   0   6 1310.22 38.9951  16
 -10   0   6 1363.02 39.6503  11
 -10   0   6 1362.20 40.1060   5
  10   0  -6 1356.27 39.3436   4
 -10   0   6 1368.48 37.2625   8
  -8   0   6 107.972 5.79103  12
  -8   0   6 117.458 6.14152   8
   8   0  -6 111.949 5.49825  15
   8   0  -6 125.518 6.75572   9
   8   0  -6 132.462 7.46468   4
  -8   0   6 110.587 7.29034   5
  -8   0   6 125.285 7.34203  16
   6   0  -6 3638.23 87.2331  15
  -6   0   6 3530.18 85.5094  13
  -6   0   6 3668.51 87.1197   8
   6   0  -6 3718.30 88.7915   9
   6   0  -6 3632.79 88.4904   4
   6   0  -6 3578.23 86.2492  14
  -6   0   6 3657.54 86.9498  12
  -6   0   6 3699.49 89.8488   5
  -6   0   6 3669.56 89.2536  16
   4   0  -6 18.4308 2.24312  15
  -4   0   6 21.7110 3.15886   5
   4   0  -6 17.9403 2.44552   9
  -4   0   6 20.0169 2.85163  16
  -4   0   6 20.6090 1.39267  13
   4   0  -6 20.2818 2.10809   7
  -4   0   6 20.4819 1.86038  12
   4   0  -6 29.6446 2.76628   4
  -4   0   6 23.3834 1.96912   8
   2   0  -6 7438.05 175.694  15
   2   0  -6 7264.43 172.507   9
  -2   0   6 6916.23 169.493   8
  -2   0   6 7055.94 167.939  12
   2   0  -6 7020.33 168.660   7
  -2   0   6 7270.01 176.473  16
   2   0  -6 7043.20 168.044   1
  -2   0   6 6961.34 167.727  13
  -2   0   6 7201.17 167.563  12
   2   0  -6 7182.64 167.156   6
   0   0  -6 191.001 7.03781  11
   0   0  -6 148.553 6.34369   1
   0   0   6 163.603 8.54698  10
   0   0  -6 160.319 6.29469   6
   0   0  -6 152.201 6.69275  15
   0   0  -6 155.632 6.43114   7
   0   0  -6 145.728 6.58851   9
  -2   0  -6 4339.02 106.902  11
  -2   0  -6 4457.01 106.314  15
   2   0   6 4395.16 110.350  10
  -2   0  -6 4477.75 106.091   7
  -2   0  -6 4354.77 106.838   1
   4   0   6 64.9002 3.44320  12
   4   0   6 59.6289 5.93890  14
  -4   0  -6 58.1066 5.81693  11
  -4   0  -6 55.0496 5.36032   1
   4   0   6 61.0985 5.70594   4
   6   0   6 1236.58 32.4781  12
   6   0   6 1228.29 36.0059   4
  -6   0  -6 1186.48 37.6685   1
 -11  -1   6 10.3284 3.66635   8
  11  -1  -6 13.3709 3.49497   4
 -11  -1   6 13.9375 3.85275  16
 -11  -1   6 16.3206 3.87303   5
 -11  -1   6 11.8790 4.18621  11
  11   1  -6 13.0454 4.18520   4
 -11   1   6 14.2465 3.82939   5
 -11   1   6 11.8419 3.85215   8
 -11   1   6 19.7333 5.13883  11
   9  -1  -6 163.445 8.88446   4
  -9  -1   6 147.083 9.42616   5
  -9  -1   6 149.185 8.60668  11
   9  -1  -6 149.451 8.11337   9
   9  -1  -6 133.856 7.53599  15
  -9  -1   6 144.657 8.93816  16
  -9  -1   6 155.072 7.78509   8
  -9   1   6 137.961 8.82531   5
   9   1  -6 141.668 7.35101   9
  -9   1   6 140.615 8.14141  16
   9   1  -6 133.329 8.15959   4
  -9   1   6 151.255 7.57353   8
   7  -1  -6 306.800 10.8165  15
  -7  -1   6 321.298 10.8551   8
   7  -1  -6 313.713 11.6372   4
  -7  -1   6 323.260 12.5188  16
  -7  -1   6 309.169 12.7178   5
   7  -1  -6 317.916 12.0846   9
  -7  -1   6 313.186 10.6800  12
  -7   1   6 302.525 10.5780  12
  -7   1   6 327.987 12.5925   5
   7   1  -6 317.252 10.7521  14
  -7   1   6 321.615 9.94300  13
  -7   1   6 332.106 12.3646  16
   7   1  -6 318.524 10.2124  15
  -7   1   6 337.408 11.0695   8
   7   1  -6 314.685 11.6560   9
   7   1  -6 322.986 12.3405   4
   5  -1  -6 20.6454 1.90175   7
  -5  -1   6 19.9964 3.02219  16
  -5  -1   6 20.0454 3.27000   5
   5  -1  -6 22.2497 2.99051   9
   5  -1  -6 20.7101 2.46025  15
  -5  -1   6 19.5258 2.22959   8
   5  -1  -6 19.2148 2.44919   4
   5   1  -6 19.3821 2.79020   9
   5   1  -6 23.5476 2.57955   7
  -5   1   6 25.0178 2.68752   8
   5   1  -6 22.7304 2.83759   4
  -5   1   6 20.7842 2.15031  12
   5   1  -6 20.3774 1.99845  14
  -5   1   6 20.0950 2.84757  16
   5   1  -6 21.8026 2.14024  15
  -5   1   6 18.3131 2.86735   5
  -5   1   6 21.6562 1.79138  13
  -3  -1   6 907.893 22.8497   8
  -3  -1   6 904.799 22.4515  12
   3  -1  -6 862.472 22.8656   7
  -3  -1   6 934.182 24.9062  16
  -3  -1   6 863.105 21.6088  13
   3  -1  -6 908.417 24.8712   9
  -3  -1   6 916.139 25.0796   5
   3  -1  -6 905.242 24.3406  15
   3  -1  -6 931.353 24.3416   6
  -3   1   6 906.424 22.7644  13
   3   1  -6 889.059 23.7479   7
  -3   1   6 943.557 22.4135  12
  -3   1   6 929.581 23.5007   8
   3   1  -6 899.579 23.9825  15
  -3   1   6 949.568 25.3185  16
   3   1  -6 907.014 24.9338   9
   1  -1  -6 39.5214 2.78645   1
  -1  -1   6 51.3040 3.42388  16
   1  -1  -6 41.5640 3.23723   6
   1  -1  -6 44.5027 3.26740  11
   1  -1  -6 40.8856 3.22922   9
   1  -1  -6 46.2003 2.84528   7
   1  -1  -6 41.9500 3.14924  15
   1   1  -6 47.4618 3.25797   7
   1   1  -6 44.1389 2.67628  11
   1   1  -6 41.1949 3.43646   9
   1   1  -6 47.3597 2.90219   6
   1   1  -6 46.4462 2.75154   1
  -1   1   6 43.3901 2.65699  13
   1   1  -6 44.1447 3.33406  15
  -1  -1  -6 231.792 9.11128  11
  -1  -1  -6 223.921 8.05867   6
  -1  -1  -6 222.538 8.75886   1
  -1  -1  -6 218.379 8.02285   9
  -1  -1  -6 205.842 7.97639   7
   1  -1   6 214.343 11.1226  10
  -1   1  -6 215.356 8.70466  15
  -1   1  -6 206.187 8.62366   1
  -1   1  -6 187.208 7.06405   6
  -1   1  -6 221.410 8.65914   9
  -1   1  -6 217.453 8.63836   7
  -1   1  -6 206.761 8.29392  11
   3  -1   6 215.990 6.57662  12
   3  -1   6 215.023 12.3291  10
  -3  -1  -6 206.702 10.0838   1
  -3  -1  -6 206.445 10.2846  11
  -3  -1  -6 225.412 9.52760  15
  -3   1  -6 225.452 10.4919   1
   3   1   6 223.339 6.36451  12
   3   1   6 217.358 10.1184  14
   3   1   6 218.599 9.37924   4
  -3   1  -6 225.429 9.86206   7
  -3   1  -6 206.921 9.70522  11
   3   1   6 200.691 12.5647  10
   5  -1   6 11.3880 3.79075  14
   5  -1   6 4.59208 3.39777   4
   5  -1   6 6.50195 1.85638  12
  -5  -1  -6 6.35499 3.37623  11
  -5  -1  -6 5.37410 3.25981   1
   5   1   6 7.71042 3.34446  14
   5   1   6 6.51749 1.89894  12
   5   1   6 3.94027 2.82955   4
  -5   1  -6 2.44140 2.93418   1
  -5   1  -6 8.73831 2.74902  11
  -7  -1  -6 114.208 9.59773   1
   7  -1   6 113.953 9.32218   4
  -7  -1  -6 112.192 9.80633  11
   7  -1   6 118.390 6.80474  12
   7   1   6 119.033 6.57086  12
  -7   1  -6 107.018 9.07256  11
   7   1   6 114.304 8.73037   4
  -7   1  -6 117.648 9.71592   1
 -12  -2   6 391.149 15.9050   8
 -12  -2   6 410.535 18.4685   5
  12  -2  -6 419.161 17.7254   4
 -12   2   6 420.860 19.4012  11
 -12   2   6 420.155 16.1069   8
  12   2  -6 436.048 18.6749   4
  10  -2  -6 698.637 22.8173   9
 -10  -2   6 712.293 24.8638   5
 -10  -2   6 662.190 23.0116  11
  10  -2  -6 687.540 23.0397   4
 -10  -2   6 686.335 23.8531  16
 -10  -2   6 676.381 21.5112   8
  10   2  -6 703.870 23.8305   4
 -10   2   6 688.739 23.3885   5
 -10   2   6 707.728 24.5382  11
 -10   2   6 674.589 22.6955  16
 -10   2   6 660.915 21.5045   8
   8  -2  -6 1182.26 32.8277   4
  -8  -2   6 1185.02 34.7779   5
  -8  -2   6 1191.15 34.2753  16
  -8  -2   6 1216.99 31.5894   8
   8  -2  -6 1240.52 33.6538   9
  -8  -2   6 1164.42 32.3922  11
   8   2  -6 1151.08 32.1116  14
  -8   2   6 1129.03 30.5446  13
  -8   2   6 1173.85 33.2842  16
  -8   2   6 1165.75 31.8801   8
  -8   2   6 1167.18 33.6796   5
   8   2  -6 1182.69 33.8159   4
  -8   2   6 1097.73 32.7396  12
   8   2  -6 1204.48 32.2739   9
   6  -2  -6 1702.56 43.5660   4
  -6  -2   6 1716.02 42.4632   8
  -6  -2   6 1689.53 45.4622   5
  -6  -2   6 1732.01 45.1577  16
   6  -2  -6 1741.07 43.8644  15
  -6  -2   6 1642.53 42.6377  11
  -6  -2   6 1723.75 42.8032  12
   6  -2  -6 1764.87 44.9224   9
  -6   2   6 1745.67 44.8427  16
  -6   2   6 1666.13 42.1260  13
  -6   2   6 1707.29 45.1286   5
   6   2  -6 1775.38 43.5976  14
  -6   2   6 1673.24 42.6300  12
   6   2  -6 1697.42 42.1292  15
   6   2  -6 1664.83 44.4875   4
   6   2  -6 1725.25 44.1105   9
  -6   2   6 1760.17 43.2414   8
  -4  -2   6 1373.48 35.3919  16
   4  -2  -6 1347.33 34.7388  15
   4  -2  -6 1351.82 34.5230   6
  -4  -2   6 1336.32 35.6086   5
   4  -2  -6 1329.48 35.2290   9
  -4  -2   6 1339.48 33.1924  12
  -4  -2   6 1318.48 32.8244   8
   4  -2  -6 1309.51 33.7258   4
   4   2  -6 1335.65 35.1365   9
  -4   2   6 1360.09 33.2318  13
  -4   2   6 1355.08 35.5702  16
  -4   2   6 1395.13 33.1807  12
   4   2  -6 1352.48 33.8131  15
   4   2  -6 1291.48 35.0949   4
   4   2  -6 1317.81 34.3301   7
  -4   2   6 1346.31 33.8530   8
  -2  -2   6 1323.37 30.9995  12
   2  -2  -6 1264.15 33.4415   9
  -2  -2   6 1333.37 31.0366   8
   2  -2  -6 1261.62 33.2521  15
   2  -2  -6 1266.41 33.2114   6
  -2  -2   6 1334.41 33.2587  16
  -2  -2   6 1354.90 33.5331   5
   2  -2  -6 1204.42 31.2939   7
  -2   2   6 1272.97 30.6184  12
  -2   2   6 1267.30 32.1841  13
  -2   2   6 1263.29 30.5686  12
   2   2  -6 1346.24 33.2111   7
  -2   2   6 1243.18 31.0409   3
   2   2  -6 1311.57 33.9882   9
   2   2  -6 1277.18 32.9784  15
   0  -2  -6 624.275 18.7813  11
   0  -2   6 619.226 14.9688  12
   0  -2  -6 613.208 17.8889   6
   0  -2  -6 592.186 16.7797   7
   0  -2   6 626.108 21.6879  10
   0  -2  -6 595.945 17.4259   9
   0  -2  -6 620.532 18.0400  15
   0  -2   6 597.871 16.9654  16
   0  -2  -6 628.364 18.0338   1
   0  -2   6 596.609 17.1128   5
   0  -2   6 617.597 14.9375  12
   0   2  -6 616.253 17.7847   1
   0   2  -6 614.075 18.4681   9
   0   2   6 634.993 19.6148  10
   0   2  -6 625.958 18.3002  15
   0   2  -6 641.417 18.2289   7
  -2  -2  -6 393.697 13.3545  15
   2  -2   6 397.803 17.5816  10
  -2  -2  -6 386.781 12.7571   6
  -2  -2  -6 396.899 14.1561   1
   2  -2   6 393.657 13.0944   2
  -2  -2  -6 432.981 15.0210  11
   2  -2   6 414.386 10.6311  12
  -2   2  -6 390.340 14.2532   1
  -2   2  -6 351.085 12.9372  11
  -2   2  -6 369.148 13.6723   7
   2   2   6 392.125 9.79860  12
   2   2   6 407.261 13.7302  14
   2   2   6 401.539 9.56139  12
   4  -2   6 459.606 13.2826  12
  -4  -2  -6 447.874 17.2370   1
  -4  -2  -6 466.814 18.1292  11
   4   2   6 453.729 12.8381  12
  -4   2  -6 467.992 16.7462   7
   4   2   6 431.419 15.3799   4
   4   2   6 430.102 16.3998  14
  -4   2  -6 449.402 17.2413   1
  -4   2  -6 440.348 16.5663  11
   6  -2   6 220.852 9.14793  12
  -6  -2  -6 236.197 12.8290   1
  -6  -2  -6 227.854 13.4958  11
   6  -2   6 231.931 12.4973   4
   6   2   6 238.047 11.4054   4
   6   2   6 221.769 8.93976  12
  -6   2  -6 227.343 12.5391   1
 -11  -3   6 57.2739 5.52988   8
 -11  -3   6 63.5084 7.44733   5
  11  -3  -6 61.8520 6.71844   4
  11  -3  -6 62.3857 5.93062   9
  11   3  -6 70.2532 8.26783   4
 -11   3   6 54.7039 7.07223  11
 -11   3   6 56.5807 5.67361   8
   9  -3  -6 12.4830 3.06178   4
   9  -3  -6 13.3853 3.42318   9
  -9  -3   6 13.5426 3.82186  16
  -9  -3   6 19.0211 4.52852   5
  -9  -3   6 20.2033 3.53790   8
  -9   3   6 12.9385 2.77244  16
  -9   3   6 14.1135 3.21114   5
   9   3  -6 21.3737 4.00501   4
   9   3  -6 10.6282 2.73848  14
  -9   3   6 14.8111 3.40306   8
  -7  -3   6 14.0475 3.80319   5
  -7  -3   6 9.49961 2.01713  12
   7  -3  -6 9.83054 2.68710   9
   7  -3  -6 8.24497 2.11003   4
  -7  -3   6 15.0945 2.33784   8
  -7  -3   6 11.3586 3.34381  16
   7   3  -6 7.39246 2.05986   9
  -7   3   6 11.2271 2.42827  16
   7   3  -6 8.22914 2.68025   4
   7   3  -6 10.1422 2.33019  14
  -7   3   6 8.17412 2.54132   8
  -7   3   6 10.3874 1.80399  13
  -7   3   6 12.2292 2.71003   5
  -7   3   6 8.70368 1.93596  12
  -5  -3   6 290.743 11.5281   5
   5  -3  -6 282.219 10.9541   9
  -5  -3   6 292.631 11.3044  16
   5  -3  -6 286.346 10.1005   6
  -5  -3   6 306.805 9.57953  12
  -5  -3   6 279.905 8.79486   8
   5  -3  -6 289.203 10.5189  15
   5  -3  -6 286.354 9.45026   4
  -5   3   6 295.325 9.44542  12
  -5   3   6 294.474 10.0713   8
   5   3  -6 282.873 10.4990   9
  -5   3   6 297.264 11.1703  16
   5   3  -6 279.896 10.7951   4
   5   3  -6 276.664 10.3398   7
   5   3  -6 283.275 8.92070  15
   5   3  -6 297.419 10.4408  14
  -5   3   6 290.567 9.44755  13
   3  -3  -6 12.2450 2.10931   9
   3  -3  -6 9.07403 1.88479  15
  -3  -3   6 17.1578 2.67094   5
   3  -3  -6 16.6798 2.52647   6
  -3  -3   6 9.47777 1.40924  12
  -3  -3   6 11.9347 2.25412  16
  -3   3   6 13.8812 1.51544  12
   3   3  -6 15.0187 2.02317  15
   3   3  -6 12.4311 2.22626   7
   3   3  -6 13.3508 2.39090   9
  -3   3   6 13.9507 2.14367   8
  -3   3   6 13.4064 1.76799  13
  -1  -3   6 226.379 8.08483   5
   1  -3  -6 230.213 9.19651  11
  -1  -3   6 221.436 7.86910  16
   1  -3  -6 230.055 8.44037   9
   1  -3  -6 234.569 8.73410  15
  -1  -3   6 233.040 6.82865  12
   1  -3  -6 223.621 8.67427   6
   1   3  -6 228.130 8.55900  15
   1   3  -6 229.406 9.14982   9
  -1   3   6 235.731 6.21248  12
  -1   3   6 230.037 8.19818  13
  -1   3   6 228.287 7.38996  14
  -1   3   6 224.837 6.12809  12
   1   3  -6 229.877 8.70475   7
  -1   3   6 222.925 7.27360   3
   1  -3   6 30.1981 5.07692  10
   1  -3   6 32.4316 3.66277   2
  -1  -3  -6 30.3755 3.99886  11
  -1  -3  -6 33.8291 3.43978   6
  -1  -3  -6 30.9450 3.16380  15
  -1  -3  -6 35.4673 4.05991   1
   1  -3   6 32.0203 1.98102  12
  -1  -3  -6 25.3172 2.37670   9
   1   3   6 28.6360 1.27005  12
  -1   3  -6 31.4977 3.57654   7
   1   3   6 29.4881 3.28860  14
  -1   3  -6 29.0994 3.56521   1
   1   3   6 34.5177 1.34588  12
   3  -3   6 1.29407 1.84138   2
   3  -3   6 3.17655 2.89565  10
  -3  -3  -6 0.73659 1.50251   6
  -3  -3  -6 2.00268 1.61824  15
  -3  -3  -6 9.08620 3.16278  11
   3  -3   6 1.87478 1.10490  12
  -3  -3  -6 -0.3679 1.96734   1
   3   3   6 1.68141 0.95924  12
  -3   3  -6 -3.2667 1.60410   1
   3   3   6 1.23929 2.12618  14
  -3   3  -6 1.46189 2.22431   7
  -5  -3  -6 55.4354 6.66337   1
   5  -3   6 75.5349 7.27783   4
  -5  -3  -6 66.6645 7.79297  11
   5  -3   6 70.2874 4.96186  12
   5   3   6 66.1493 6.84253  14
  -5   3  -6 71.4453 6.80430   7
   5   3   6 68.1011 4.35070  12
  -5   3  -6 66.6593 7.47008   1
  -7  -3  -6 8.87014 3.38990   1
  -7  -3  -6 16.5293 5.15941  11
   7  -3   6 19.6639 5.16920   4
   7  -3   6 20.1864 3.34002  12
   7   3   6 19.8714 3.40670  12
  -7   3  -6 16.9297 4.86611   1
 -12  -4   6 497.678 21.2948   5
 -12   4   6 477.599 17.8977   8
  12   4  -6 468.861 20.0764   4
 -12   4   6 446.291 20.7084  11
  10  -4  -6 34.7955 4.59496   4
 -10  -4   6 32.2110 5.03863  16
  10  -4  -6 31.8662 4.70911   9
 -10  -4   6 35.7512 4.53052   8
 -10  -4   6 42.8916 6.07102   5
 -10   4   6 39.2072 5.04215   8
  10   4  -6 39.3917 5.93661   4
  -8  -4   6 780.411 22.9147   8
  -8  -4   6 821.905 26.3763  16
   8  -4  -6 802.472 24.0147   4
  -8  -4   6 827.668 27.0574   5
   8  -4  -6 836.368 25.9763   9
  -8   4   6 815.866 23.3138  13
  -8   4   6 807.530 25.2915   5
   8   4  -6 851.958 26.1628   4
  -8   4   6 827.553 24.0512   8
  -8   4   6 829.310 24.8311  16
   8   4  -6 822.721 25.1525  14
  -6  -4   6 134.601 8.13559   5
   6  -4  -6 137.620 6.42628   6
   6  -4  -6 129.361 7.48758   9
  -6  -4   6 128.987 7.67559  16
  -6  -4   6 136.158 6.05558  12
  -6  -4   6 119.770 5.27392   8
   6   4  -6 147.110 7.30226   7
   6   4  -6 137.855 7.08281  14
   6   4  -6 128.760 7.44685   4
  -6   4   6 132.649 7.46825   5
   6   4  -6 122.241 6.30005   9
  -6   4   6 142.191 7.36616  16
  -6   4   6 131.596 5.92881  12
  -6   4   6 133.983 6.15813  13
  -6   4   6 134.093 6.38986   8
  -4  -4   6 2265.01 55.3171  16
   4  -4  -6 2150.29 54.7751  15
   4  -4  -6 2155.41 54.4039   6
   4  -4  -6 2112.52 55.0702   9
  -4  -4   6 2165.92 53.2580  12
  -4  -4   6 2222.88 55.5665   5
  -4   4   6 2152.46 53.9037   8
  -4   4   6 2198.71 53.1624  12
  -4   4   6 2154.71 53.5530  13
   4   4  -6 2191.10 52.9220  15
   4   4  -6 2171.08 54.8200   9
   4   4  -6 2250.68 54.8965   7
   2  -4  -6 621.513 18.5290   6
   2  -4  -6 606.861 18.1870  15
  -2  -4   6 617.237 17.9559   5
  -2  -4   6 602.991 17.6908  16
   2  -4  -6 612.580 18.1358   9
  -2  -4   6 627.032 16.7001  12
  -2   4   6 629.315 16.2924  12
   2   4  -6 618.483 18.4497   7
  -2   4   6 627.996 17.7888  13
  -2   4   6 612.238 16.3146   3
   2   4  -6 638.515 19.0050   9
   2   4  -6 622.734 17.7411  15
   0  -4   6 2819.51 69.4824   2
   0  -4  -6 2676.28 67.5352   9
   0  -4   6 2784.33 74.5750  10
   0  -4  -6 2765.39 68.5754  15
   0  -4  -6 2793.37 69.2532   6
   0  -4   6 2844.80 66.5294  12
   0  -4  -6 2807.47 70.4195  11
   0   4   6 2912.12 67.5284   3
   0   4   6 2824.75 68.6934  13
   0   4  -6 2830.06 69.2767   7
   0   4  -6 2700.45 68.4196   1
   0   4   6 2763.02 67.5408  14
   0   4   6 2821.67 65.7687  12
  -2  -4  -6 444.793 15.8927   1
   2  -4   6 447.009 15.2718   2
  -2  -4  -6 417.543 14.1395  15
  -2  -4  -6 415.870 16.3327  11
   2  -4   6 429.504 19.6117  10
  -2  -4  -6 454.243 15.0825   6
   2  -4   6 444.971 12.8045  12
   2   4   6 439.854 14.8419  14
  -2   4  -6 427.018 15.4837   1
  -2   4  -6 459.953 15.6490   7
   2   4   6 446.590 12.1490  12
  -4  -4  -6 1549.78 43.7224  11
  -4  -4  -6 1492.80 42.3094   1
   4  -4   6 1443.48 37.7616  12
  -4   4  -6 1423.67 41.2039   7
   4   4   6 1476.42 41.2570  14
   4   4   6 1512.71 37.2889  12
  -4   4  -6 1390.55 42.0680   1
  -6  -4  -6 72.5606 7.90959   1
  -6  -4  -6 78.4574 8.66155  11
   6  -4   6 84.3639 8.30636   4
   6  -4   6 79.9839 5.61151  12
   6   4   6 79.2363 5.62993  12
  -6   4  -6 77.4707 8.27412   1
  11  -5  -6 53.3371 6.74568   9
 -11  -5   6 48.1313 7.63249   5
  11   5  -6 41.8125 6.02558   4
 -11   5   6 53.5180 7.07027  11
 -11   5   6 60.3224 6.40543   8
  -9  -5   6 9.60637 3.14016  16
  -9  -5   6 9.37018 2.24180   8
  -9  -5   6 6.28063 3.10772   5
   9  -5  -6 17.0154 3.68093   9
   9   5  -6 10.0739 3.03214  14
  -9   5   6 6.99629 3.15986   8
   9   5  -6 8.48247 3.66544   4
  -9   5   6 11.1213 2.82929  13
   7  -5  -6 -0.1839 1.60487   9
  -7  -5   6 8.45180 3.03210   5
  -7  -5   6 3.03486 1.52239   8
  -7  -5   6 0.12595 1.48850   2
   7  -5  -6 -1.9828 1.38491   6
   7   5  -6 0.88659 1.37118  14
  -7   5   6 2.91865 1.54399  16
  -7   5   6 -0.0747 1.66144   1
  -7   5   6 0.64974 1.40782   5
  -7   5   6 0.30447 1.40924  12
   7   5  -6 0.23872 2.29653   4
  -7   5   6 1.12856 2.16403   8
  -7   5   6 -1.3768 1.13377  13
  -5  -5   6 102.790 6.36055  16
   5  -5  -6 98.9189 6.14054   9
  -5  -5   6 105.125 6.71464   5
   5  -5  -6 99.3481 5.67276   6
  -5  -5   6 99.0440 5.07256  12
  -5   5   6 95.4174 5.29455   8
   5   5  -6 116.156 6.55157   7
  -5   5   6 103.242 5.27891  12
   5   5  -6 106.856 5.81301   9
   5   5  -6 112.842 6.47170  14
  -5   5   6 100.485 6.35127  16
  -5   5   6 91.1929 5.28636  13
   3  -5  -6 27.6774 3.22277  15
   3  -5  -6 31.3767 3.66653   6
  -3  -5   6 31.3799 3.68320   2
  -3  -5   6 28.9426 3.63175   5
  -3  -5   6 30.3587 3.55319  16
   3  -5  -6 31.7675 3.15628   9
  -3  -5   6 37.4526 2.94763  12
   3   5  -6 31.2976 2.38213   3
  -3   5   6 32.9228 2.65398  12
  -3   5   6 30.2791 3.28170  13
   3   5  -6 31.7799 3.30284   9
  -3   5   6 33.6399 2.46089   3
   3   5  -6 34.1130 3.68808   7
  -3   5   6 29.5227 3.31773   8
   1  -5  -6 79.2835 5.41968   6
  -1  -5   6 77.4587 3.96234  12
  -1  -5   6 73.1477 5.10053   2
   1  -5  -6 75.1142 4.67167  15
   1  -5  -6 73.5632 4.36057   9
  -1  -5   6 75.7194 6.93149  10
   1   5  -6 79.4865 5.07239   7
  -1   5   6 75.5850 3.91170   3
  -1   5   6 78.1246 3.77135  12
  -1   5   6 78.9548 5.00463  13
   1  -5   6 5.84063 2.62602   2
   1  -5   6 9.60418 3.53781  10
  -1  -5  -6 10.4740 2.76740  11
   1  -5   6 11.0788 1.88777  12
  -1  -5  -6 12.5049 2.72999   6
  -1  -5  -6 9.22697 1.92808  15
  -1   5  -6 8.39943 2.72544   7
   1   5   6 11.8284 2.69063  13
   1   5   6 10.8419 2.37069   3
   1   5   6 10.9086 1.56463  12
  -1   5  -6 11.2920 2.55335   1
   1   5   6 9.00207 2.12664  14
   3  -5   6 16.8178 3.52349   2
  -3  -5  -6 10.5315 3.14976  11
   3  -5   6 10.3202 2.09441  12
  -3  -5  -6 8.13142 2.70803   6
  -3   5  -6 12.6032 3.60871   7
  -3   5  -6 10.4835 3.23417   1
   3   5   6 10.2410 1.85308  12
   3   5   6 10.1903 2.83581   3
   3   5   6 3.41606 2.46689  14
   5  -5   6 78.3932 7.49593   4
   5  -5   6 80.4621 5.51971  12
  -5  -5  -6 88.0806 8.84859  11
  -5  -5  -6 82.5639 7.14376   1
   5   5   6 80.2146 5.17889  12
   5   5   6 72.3844 7.15608  14
  -5   5  -6 86.2468 8.29336   1
   5   5   6 78.9685 6.63815   3
  -5   5  -6 82.9290 7.59971   7
 -10  -6   6 1007.19 34.0723   5
  10  -6  -6 1015.41 32.5062   9
 -10   6   6 1017.56 30.1498   8
  10   6  -6 1020.01 32.8047   4
  -8  -6   6 243.499 13.2206   5
  -8  -6   6 214.184 12.0535  16
   8  -6  -6 248.190 12.3394   9
  -8   6   6 248.087 10.6488   8
   8   6  -6 241.936 12.1964   4
  -8   6   6 229.436 10.0540  13
   8   6  -6 233.186 11.5461  14
  -6  -6   6 2027.23 53.2846   5
   6  -6  -6 2001.59 52.6392   9
   6  -6  -6 1972.10 50.1268   6
  -6  -6   6 2001.88 52.6598  16
  -6  -6   6 1920.28 50.2976   2
  -6  -6   6 1964.09 49.9829  12
   6   6  -6 1942.69 50.0451   9
  -6   6   6 1881.60 50.0881  13
   6   6  -6 1990.72 52.4669   4
  -6   6   6 1953.36 51.6151  16
  -6   6   6 1935.98 50.2482   8
   6   6  -6 2053.39 52.3667  14
   6   6  -6 1994.03 51.7323   7
  -6   6   6 1920.92 49.8206  12
   4  -6  -6 243.040 10.2320  15
   4  -6  -6 256.235 10.6245   9
  -4  -6   6 232.664 10.2335   5
   4  -6  -6 241.063 9.96253   6
  -4  -6   6 230.431 9.89892  16
  -4  -6   6 244.518 10.2204   2
  -4  -6   6 240.283 9.00959  12
   4   6  -6 248.267 10.2850   7
  -4   6   6 251.735 9.57579  13
  -4   6   6 240.693 8.90935  12
  -4   6   6 250.811 9.68107   8
   4   6  -6 250.344 10.0637   9
  -2  -6   6 1628.48 41.3549  12
  -2  -6   6 1702.76 43.9024   2
   2  -6  -6 1631.88 42.5433  15
   2  -6  -6 1684.28 43.4616   6
   2  -6  -6 1621.80 42.3456   9
  -2  -6   6 1549.44 47.1223  10
  -2   6   6 1682.83 41.0317  12
  -2   6   6 1626.77 40.6848   3
  -2   6   6 1652.55 42.4241  13
   2   6  -6 1618.71 41.0676   3
   2   6  -6 1620.61 43.0437   7
   0  -6   6 74.0379 5.72787   2
   0  -6  -6 74.7656 6.26627  11
   0  -6   6 72.7289 4.33927  12
   0  -6  -6 75.4799 5.44765   6
   0  -6   6 69.3452 7.37076  10
   0  -6  -6 86.9536 4.97975  15
   0   6   6 69.6561 4.97718  13
   0   6  -6 68.2048 5.57801   7
   0   6   6 76.1137 4.07534  12
   0   6  -6 74.4403 4.99015   1
   0   6   6 76.3296 4.77609   3
  -2  -6  -6 896.278 29.0094  11
   2  -6   6 899.469 24.7269  12
   2  -6   6 910.764 27.3404   2
  -2  -6  -6 887.347 27.0653   6
  -2  -6  -6 881.663 25.1690  15
   2   6   6 914.918 24.3014  12
   2   6   6 924.304 25.7404   3
  -2   6  -6 925.144 27.4939   7
  -2   6  -6 876.891 27.3572   1
   2   6   6 877.389 26.6540  13
  -4  -6  -6 55.6163 6.90682  11
  -4  -6  -6 44.8212 5.05751   6
   4  -6   6 44.9007 5.54288   2
   4  -6   6 54.0999 4.61962  12
  -4   6  -6 44.2627 5.72295   7
   4   6   6 51.4339 4.11184  12
   4   6   6 39.6025 5.18631  13
  -4   6  -6 43.5515 5.91544   1
   4   6   6 49.1234 4.97599   3
   4   6   6 45.5208 5.69469  14
  -6  -6  -6 638.363 24.9433  11
   6  -6   6 582.138 22.1227   4
  -6   6  -6 563.764 23.2542   1
   6   6   6 567.356 20.2229   3
   6   6   6 576.938 18.6526  12
  11  -7  -6 130.138 11.2714   9
  -9  -7   6 154.791 11.6930   5
   9  -7  -6 153.430 10.3654   9
   9   7  -6 125.340 9.57127   4
  -9   7   6 132.037 8.31802   8
  -9   7   6 138.752 8.23812  13
   9   7  -6 131.024 8.82773   7
   9   7  -6 131.722 9.45247  14
  -7  -7   6 204.065 11.9724   5
  -7  -7   6 198.410 11.2307  16
   7  -7  -6 205.640 11.0263   9
  -7   7   6 188.517 9.05332  13
   7   7  -6 213.645 10.8467  14
  -7   7   6 184.838 8.86375   8
   7   7  -6 215.895 10.7690   7
  -7   7   6 196.749 9.91345   5
   5  -7  -6 508.386 17.8513   9
   5  -7  -6 528.027 16.6950   6
  -5  -7   6 482.978 18.0201   5
  -5  -7   6 484.076 17.3517  16
  -5  -7   6 512.833 17.1139   2
  -5  -7   6 505.786 16.0632  12
  -5   7   6 501.070 16.1758   8
   5   7  -6 486.321 17.3386   7
  -5   7   6 504.288 15.8762  12
  -5   7   6 475.470 16.1478  13
   5   7  -6 473.736 17.3723  14
  -5   7   6 515.178 17.6850  16
  -3  -7   6 187.030 8.60023   5
   3  -7  -6 181.727 8.46846   9
   3  -7  -6 184.642 9.00616   6
  -3  -7   6 188.281 9.36835   2
   3  -7  -6 189.857 8.76892  15
  -3  -7   6 185.367 7.84938  12
  -3  -7   6 168.208 8.03298  16
  -3  -7   6 174.718 10.7683  10
   3   7  -6 168.067 8.80198   7
   3   7  -6 174.000 7.19751   3
  -3   7   6 177.506 8.38238  13
  -3   7   6 183.024 7.55355  12
  -3   7   6 176.268 8.18716   8
  -3   7   6 169.108 6.93604   3
  -1  -7   6 436.987 14.1958  12
  -1  -7   6 453.233 19.7562  10
  -1  -7   6 458.969 16.3887   2
   1  -7  -6 467.637 16.4091   6
   1  -7  -6 446.942 14.9002  15
  -1   7   6 456.772 14.0053  12
   1   7  -6 441.931 15.8633   7
   1   7  -6 449.037 14.3671   3
  -1   7   6 433.766 13.8740   3
  -1   7   6 442.660 15.2153  13
  -1  -7  -6 185.734 10.7330  11
   1  -7   6 197.162 10.4276   2
  -1  -7  -6 173.586 9.49911   6
   1  -7   6 187.400 7.98616  12
  -1  -7  -6 182.045 8.00941  15
  -1   7  -6 186.863 9.38087   1
   1   7   6 181.276 7.67237  12
  -1   7  -6 188.118 9.40079   7
   1   7   6 189.514 9.34756  13
   1   7   6 185.349 8.47913   3
   3  -7   6 100.149 6.08573  12
  -3  -7  -6 89.7389 8.00302  11
  -3  -7  -6 93.1559 7.33110   6
   3  -7   6 98.4561 7.41510   2
   3   7   6 99.6041 6.97871   3
   3   7   6 99.4247 5.73957  12
   3   7   6 91.8521 6.71971  13
  -3   7  -6 95.6885 7.77712   1
  -3   7  -6 94.2881 7.77442   7
   5  -7   6 139.804 9.40047   4
  -5  -7  -6 148.427 11.8385  11
   5  -7   6 142.179 7.96029  12
  -5   7  -6 148.702 9.48077   7
   5   7   6 142.999 9.12208   3
   5   7   6 144.351 7.78229  12
  -5   7  -6 139.708 9.84671   1
  10  -8  -6 180.939 11.9476   9
 -10  -8   6 187.003 13.5499   5
  10   8  -6 198.740 11.8109   7
 -10   8   6 178.067 9.59238   8
  10   8  -6 184.717 11.7592   4
   8  -8  -6 328.003 15.0725   9
  -8  -8   6 334.833 16.7856   5
  -8  -8   6 330.604 15.8146  16
  -8   8   6 314.855 12.9655   8
  -8   8   6 306.646 12.9710  13
  -8   8   6 317.431 13.7661   1
   8   8  -6 330.985 14.9941  14
   8   8  -6 325.140 14.6654   7
  -6  -8   6 310.846 14.5133   5
  -6  -8   6 289.487 13.5701  16
   6  -8  -6 313.312 14.0066   9
   6  -8  -6 317.830 12.0691   6
  -6  -8   6 333.094 13.7875   2
  -6   8   6 311.113 12.5809  13
  -6   8   6 301.534 11.7119  12
   6   8  -6 300.027 13.3666   7
  -6   8   6 288.900 12.4828  16
   6   8  -6 319.805 13.9352  14
  -6   8   6 306.862 12.1690   8
   4  -8  -6 633.371 20.8310   9
  -4  -8   6 606.257 19.2304  12
   4  -8  -6 655.443 20.6477   6
  -4  -8   6 605.729 20.7039   5
  -4  -8   6 623.000 20.8390   2
   4  -8  -6 666.548 20.8969  15
  -4  -8   6 603.316 20.2514  16
  -4   8   6 641.376 19.3234  12
   4   8  -6 666.175 21.2562   7
   4   8  -6 598.305 18.4229   3
  -4   8   6 646.739 20.1736  13
  -4   8   6 640.385 19.7866   8
  -2  -8   6 552.719 19.3010   2
   2  -8  -6 546.772 18.8234   6
   2  -8  -6 520.619 17.3649  15
  -2  -8   6 534.936 17.0521  12
  -2  -8   6 500.688 21.9207  10
   2  -8  -6 535.936 17.1789   9
   2   8  -6 564.193 16.9748   3
  -2   8   6 539.109 16.4275   3
  -2   8   6 519.501 17.7627  13
  -2   8   6 539.284 16.8070  12
   2   8  -6 548.512 18.6742   7
   0  -8  -6 752.621 22.4374  15
   0  -8  -6 766.523 24.5417   6
   0  -8   6 750.551 22.2164  12
   0  -8   6 755.004 24.9259   2
   0   8   6 744.237 23.6221  13
   0   8  -6 761.663 24.0787   7
   0   8   6 767.526 22.3167   3
   0   8   6 758.878 21.9883  12
  -2  -8  -6 487.670 20.0936  11
  -2  -8  -6 482.639 18.5606   6
   2  -8   6 513.762 16.6982  12
   2  -8   6 491.118 19.1401   2
   2   8   6 490.963 18.0031  13
   2   8   6 507.949 16.4486  12
  -2   8  -6 479.141 18.5788   1
  -2   8  -6 513.030 18.5481   7
   2   8   6 516.052 17.1468   3
   4  -8   6 394.857 14.8024  12
   4  -8   6 403.439 16.9986   2
  -4  -8  -6 376.021 16.3376   6
  -4  -8  -6 399.948 18.6182  11
  -4   8  -6 423.733 17.0970   7
   4   8   6 422.702 14.7519  12
  -4   8  -6 398.246 17.4951   1
   4   8   6 416.089 15.8261   3
  -9  -9   6 22.8589 6.24426   5
   9  -9  -6 18.7972 4.71952   9
   9   9  -6 24.0246 5.05343   7
  -7  -9   6 38.7918 5.99691  16
  -7  -9   6 48.1883 7.16496   5
   7  -9  -6 45.7842 6.20186   9
   7   9  -6 39.9226 5.90910  14
   7   9  -6 48.1657 6.32668   7
  -7   9   6 33.2324 4.52501   8
  -7   9   6 42.0360 5.41987  13
   5  -9  -6 17.4571 3.74540   9
   5  -9  -6 30.1970 5.25539   2
  -5  -9   6 21.0749 3.96695   2
   5  -9  -6 15.9214 3.59958   6
  -5  -9   6 16.4236 3.84116  16
  -5  -9   6 24.5151 4.31244   5
   5  -9  -6 23.8003 4.31338  15
  -5   9   6 19.2868 3.25125   8
  -5   9   6 14.0344 3.13314  16
  -5   9   6 17.1527 3.26300  13
  -5   9   6 28.9705 3.78587  12
   5   9  -6 20.3934 4.31357   7
   3  -9  -6 72.6910 5.36968   9
  -3  -9   6 79.2135 7.20723   2
   3  -9  -6 75.0023 6.99066   6
   3  -9  -6 80.0089 5.73010  15
  -3  -9   6 67.1539 4.95189  12
  -3   9   6 73.9157 5.24032   3
   3   9  -6 73.2233 5.17840   3
   3   9  -6 71.7740 6.64170   7
  -3   9   6 71.3465 5.26392  12
  -3   9   6 75.6730 5.93502   8
  -3   9   6 77.4169 5.75416  13
  -1  -9   6 13.7365 4.07840   2
   1  -9  -6 11.0039 2.51329  15
   1  -9  -6 10.4681 3.79904   6
  -1  -9   6 11.6810 2.75637  12
  -1   9   6 12.7773 2.72349  12
   1   9  -6 10.5718 2.74587   3
  -1   9   6 15.0911 3.19121   3
   1   9  -6 13.0252 3.63702   7
  -1   9   6 13.3885 3.06393  13
   1  -9   6 28.5557 3.90692  12
   1  -9   6 33.0225 5.84159   2
  -1  -9  -6 27.1261 4.87722   6
  -1   9  -6 28.3374 4.75191   7
   1   9   6 26.7482 3.58758  12
   1   9   6 27.8414 4.09609  13
   1   9   6 29.1589 3.87903   3
  -3  -9  -6 10.8551 4.95323  11
  -3  -9  -6 11.0249 3.18946   6
   3  -9   6 6.53718 2.61040  12
   3  -9   6 10.9103 4.43725   2
  -3   9  -6 8.65203 3.66209   1
  -3   9  -6 12.4916 4.31436   7
   3   9   6 12.9376 2.86641  12
   3   9   6 12.5238 3.64492   3
  -8 -10   6 1027.88 35.4106   5
   8 -10  -6 1062.66 34.3087   9
   6 -10  -6 34.2598 5.47601   9
  -6 -10   6 20.8264 4.37625   5
  -6 -10   6 17.1929 3.84186  16
  -6  10   6 18.1147 3.66086   8
   6  10  -6 15.1324 3.80439   7
   4 -10  -6 1444.58 40.2866   6
   4 -10  -6 1430.92 40.3150  15
   4 -10  -6 1442.59 40.5907   9
  -4 -10   6 1436.59 40.7970   2
  -4  10   6 1412.49 39.0173  12
   4  10  -6 1404.72 40.7105   7
  -4  10   6 1423.39 38.9107   8
  -4  10   6 1374.16 39.5703  13
   2 -10  -6 13.3813 2.65881  15
  -2 -10   6 10.7577 3.49375   2
   2 -10  -6 15.2367 4.21874   6
  -2  10   6 4.65225 2.60295   3
  -2  10   6 10.6955 3.40239  13
  -2  10   6 13.5620 2.83444  12
   2  10  -6 10.5384 2.43242   3
   2  10  -6 11.7485 3.26005   7
  -2  10   6 11.4827 3.26434   8
   0 -10  -6 1104.71 34.2665   6
   0 -10   6 1086.44 31.6347  12
   0 -10   6 1117.21 34.7237   2
   0  10   6 1114.70 31.6153  12
   0  10  -6 1131.22 33.4599   7
   0  10   6 1101.88 31.4545   3
   0  10   6 1088.74 32.8742  13
   2 -10   6 3.78442 4.41225   2
   2 -10   6 8.04187 2.83235  12
  -2 -10  -6 11.9817 3.53386   6
  -2  10  -6 12.4136 4.16952   7
   2  10   6 13.1532 3.21339   3
   2  10   6 10.3524 2.76557  12
   7 -11  -6 114.318 9.24269   9
  -7 -11   6 113.021 10.2767   5
   7  11  -6 120.798 9.44530   7
   5 -11  -6 105.898 8.02324  15
   5 -11  -6 108.251 8.22546   9
   5  11  -6 117.327 8.25174   7
  -5  11   6 120.052 7.08235   8
  -3 -11   6 177.546 11.0426   2
   3 -11  -6 169.242 9.32559  15
   3 -11  -6 191.148 11.0255   6
  -3  11   6 189.254 9.21406   8
   3  11  -6 183.399 10.7318   7
   3  11  -6 166.746 8.75053   3
  -3  11   6 161.937 10.2984   3
  -3  11   6 181.627 9.28919  12
   1 -11  -6 121.101 8.80465   6
  -1 -11   6 113.872 9.64167   2
  -1  11   6 114.501 7.35308   8
   1  11  -6 120.280 7.58503   3
   1  11  -6 106.367 8.21916   7
  -1  11   6 111.822 7.20994  12
   1 -11   6 141.277 11.1195   2
  -1 -11  -6 157.388 10.7180   6
   1  11   6 150.873 9.12578   3
   1  11   6 154.101 8.63859  12
   6 -12  -6 256.002 12.9635   9
  -4 -12   6 246.060 12.4939   6
   4 -12  -6 255.540 12.0730  15
  -4 -12   6 247.358 12.6916   2
   4 -12  -6 240.119 12.7728   6
  -4  12   6 223.655 10.7437   8
   4  12  -6 261.829 13.0751   7
  -2 -12   6 279.180 14.4627   2
   2 -12  -6 282.135 13.7870   6
   2  12  -6 270.972 12.0951   3
   2  12  -6 274.967 13.4690   7
  -2  12   6 277.150 12.1882   8
   0 -12   6 217.012 13.2853   2
   0 -12  -6 204.497 12.5812   6
   0  12   6 218.999 11.0668   3
   0  12   6 215.214 10.6140  12
   0  12   6 223.158 10.9505   8
 -12   0   7 -0.9612 2.10538   8
  12   0  -7 0.62598 2.30629   4
 -12   0   7 -0.1414 2.91068   5
 -12   0   7 2.01090 2.73050  11
 -10   0   7 0.95128 2.99682   5
  10   0  -7 2.41974 2.88702   4
  10   0  -7 0.66815 2.22020   9
 -10   0   7 -0.6515 1.61374  16
 -10   0   7 -0.4297 2.71729   8
 -10   0   7 -0.7389 1.83862  11
   8   0  -7 2.11769 1.09021  15
  -8   0   7 2.19233 1.65311   8
   8   0  -7 0.22257 1.81140   9
   8   0  -7 0.34519 2.01865   4
  -8   0   7 1.53143 1.79239  16
  -8   0   7 3.49332 2.18847   5
  -8   0   7 -0.2564 0.87031  12
  -6   0   7 1.62076 2.02245   5
  -6   0   7 2.88793 1.25609  12
   6   0  -7 1.49709 1.60538   4
   6   0  -7 1.42425 1.28772   9
  -6   0   7 2.80738 1.58772   8
  -6   0   7 -0.2488 1.65458  16
   6   0  -7 0.01370 1.00415   7
   4   0  -7 0.54098 1.00629   9
   4   0  -7 1.04720 0.89575  15
  -4   0   7 1.13309 1.16294   8
   4   0  -7 4.18256 1.27576   7
  -4   0   7 0.65333 1.19289   5
  -4   0   7 0.65711 1.16265  16
  -4   0   7 -0.3516 0.67265  12
   2   0  -7 2.95772 1.49062   6
   2   0  -7 0.28183 0.96413   7
  -2   0   7 0.04586 0.62332  13
  -2   0   7 8.31255 1.49554   8
  -2   0   7 0.99851 0.44503  12
  -2   0   7 0.91572 0.46088  12
   2   0  -7 1.43008 1.44664   9
   2   0  -7 -0.2598 1.20974  15
  -2   0   7 -1.1160 0.78602  16
   0   0  -7 3.66090 1.54131  11
   0   0   7 0.59877 1.34599  10
   0   0  -7 1.58156 1.33118   6
   0   0  -7 1.73896 1.40582   9
   0   0  -7 0.58033 1.14959   1
   2   0   7 1.51019 2.51504  10
  -2   0  -7 1.35088 1.95661   7
   2   0   7 0.88694 0.38367  12
  -2   0  -7 0.60730 1.31883  15
  -2   0  -7 -0.2477 1.13464  11
  -2   0  -7 1.03109 1.49925   1
  -4   0  -7 3.18174 2.73092  11
   4   0   7 0.78322 2.79416   4
  -4   0  -7 -0.3964 2.42256   1
   4   0   7 1.36875 2.73291  14
   4   0   7 0.75524 1.16053  12
  -6   0  -7 -0.3758 2.98040   1
  -6   0  -7 0.55749 2.93644  11
   6   0   7 -3.0946 3.03942   4
   6   0   7 1.90403 1.82481  12
 -11  -1   7 226.371 13.1303   5
 -11  -1   7 218.859 10.4700   8
 -11  -1   7 230.237 12.3325  16
  11  -1  -7 223.829 11.8082   4
 -11   1   7 231.320 11.2508   8
 -11   1   7 233.192 12.1190  16
 -11   1   7 230.508 12.8659  11
 -11   1   7 252.357 12.7941   5
  11   1  -7 233.296 12.7629   4
   9  -1  -7 778.902 24.3789   9
  -9  -1   7 730.167 23.5501  11
   9  -1  -7 763.743 22.5159  15
  -9  -1   7 767.118 25.3399  16
  -9  -1   7 754.346 22.6388   8
   9  -1  -7 735.699 24.2181   4
  -9  -1   7 770.908 25.9834   5
  -9   1   7 788.438 23.2015   8
  -9   1   7 753.060 24.7719  16
   9   1  -7 764.256 24.9100   4
  -9   1   7 792.341 25.7018   5
   9   1  -7 757.450 23.7280   9
   7  -1  -7 398.063 12.8647   7
   7  -1  -7 401.634 14.2655   4
   7  -1  -7 413.836 15.0357   9
  -7  -1   7 426.536 15.5013  16
  -7  -1   7 411.445 13.1019   8
  -7  -1   7 392.683 15.5016   5
  -7  -1   7 424.223 13.2289  12
   7  -1  -7 419.284 13.8142  15
   7   1  -7 396.514 12.8414  15
   7   1  -7 412.566 14.6268   9
   7   1  -7 407.605 13.7295   7
  -7   1   7 396.882 12.9985  12
   7   1  -7 416.963 14.8774   4
  -7   1   7 425.779 13.6602   8
  -7   1   7 415.186 15.1846  16
  -7   1   7 428.724 15.7728   5
  -5  -1   7 1943.45 48.4910   8
   5  -1  -7 1958.60 49.9544  15
  -5  -1   7 2006.47 51.3045  16
   5  -1  -7 1991.17 51.1552   9
  -5  -1   7 1963.91 51.5219   5
   5  -1  -7 1960.26 49.9407   4
   5  -1  -7 1912.52 48.3994   7
  -5  -1   7 2056.60 48.6597  12
   5   1  -7 1955.48 50.7164   4
  -5   1   7 2018.10 48.5747  12
   5   1  -7 2011.89 51.0367   9
   5   1  -7 1920.78 49.3814   7
   5   1  -7 2004.99 49.5002  15
  -5   1   7 2026.41 49.2059   8
  -5   1   7 2053.97 51.5554  16
  -5   1   7 2025.74 51.9190   5
   3  -1  -7 546.550 16.8849   9
  -3  -1   7 546.021 16.7727  16
   3  -1  -7 535.018 16.1204   6
  -3  -1   7 545.135 17.0409   5
  -3  -1   7 548.937 14.0533  12
  -3  -1   7 512.552 14.4181   8
   3  -1  -7 553.298 16.4741  15
   3  -1  -7 511.741 14.7630   7
  -3   1   7 546.032 15.2579   8
   3   1  -7 548.422 16.1638  15
  -3   1   7 536.581 17.0342  16
   3   1  -7 545.973 16.9417   9
  -3   1   7 523.966 14.4536  13
   3   1  -7 520.377 15.5940   7
  -3   1   7 543.253 13.8936  12
   1  -1  -7 2404.25 60.2882   6
  -1  -1   7 2643.35 56.6046  12
   1  -1  -7 2299.48 60.3986   9
   1  -1  -7 2326.05 59.2452   7
   1  -1  -7 2418.53 60.7199  15
   1  -1  -7 2299.59 59.3853   1
  -1  -1   7 2586.23 60.6771  16
  -1  -1   7 2513.30 56.6104  12
   1  -1  -7 2375.85 60.5067  11
   1   1  -7 2550.35 60.4041   7
   1   1  -7 2361.65 59.1638   1
  -1   1   7 2383.10 59.1464  13
   1   1  -7 2471.27 61.1665   9
   1   1  -7 2521.40 60.8440  15
  -1  -1  -7 283.157 10.8967  15
  -1  -1  -7 284.089 11.3432  11
  -1  -1  -7 278.195 10.2511   9
  -1  -1  -7 285.416 10.3727   7
  -1  -1  -7 283.564 11.0126   1
  -1  -1  -7 296.821 10.3229   6
   1  -1   7 293.792 14.2565  10
  -1   1  -7 267.995 10.6934   9
  -1   1  -7 262.696 10.7177   1
  -1   1  -7 271.107 10.9505  15
  -1   1  -7 274.202 10.7770   7
   1   1   7 290.630 13.0514  10
  -1   1  -7 261.041 10.3586  11
   3  -1   7 1180.96 28.4345  12
  -3  -1  -7 1165.86 34.4084  11
  -3  -1  -7 1134.55 33.7064   1
  -3  -1  -7 1179.40 32.8540  15
   3   1   7 1169.37 28.0278  12
  -3   1  -7 1100.15 33.6183   1
  -3   1  -7 1099.61 33.1512  11
  -3   1  -7 1197.22 33.1883   7
   3   1   7 1108.63 33.0080  14
   3   1   7 1146.17 32.1489   4
  -5  -1  -7 101.351 8.51815   1
   5  -1   7 99.6019 5.21053  12
   5  -1   7 100.393 8.39401  14
   5  -1   7 104.141 8.39649   4
  -5  -1  -7 95.0787 8.53062  11
   5   1   7 95.5529 7.55750   4
   5   1   7 101.358 5.11941  12
  -5   1  -7 100.073 8.06106   1
  -5   1  -7 92.3986 7.92805  11
   5   1   7 98.5942 8.32640  14
 -12  -2   7 110.991 8.14059   8
 -12  -2   7 110.478 9.61008   5
  12  -2  -7 126.492 9.10751   4
 -12   2   7 119.861 8.57061   8
  12   2  -7 121.893 9.75969   4
 -12   2   7 114.635 10.0549  11
 -10  -2   7 223.138 12.2534  16
  10  -2  -7 226.968 11.4417   4
  10  -2  -7 250.209 11.9950   9
 -10  -2   7 230.524 13.0813   5
 -10  -2   7 229.024 10.4047   8
 -10   2   7 225.491 11.7149   5
 -10   2   7 232.653 11.3572  16
  10   2  -7 253.268 12.7599   4
 -10   2   7 232.431 10.6140   8
  -8  -2   7 254.151 9.77111  12
  -8  -2   7 265.654 12.3094  16
  -8  -2   7 283.109 13.0686   5
   8  -2  -7 246.257 10.2867  15
   8  -2  -7 254.469 10.9426   4
   8  -2  -7 268.127 11.7734   9
  -8  -2   7 265.572 10.0187   8
  -8   2   7 265.554 11.7365  16
   8   2  -7 272.273 12.0304   4
  -8   2   7 268.098 10.3554   8
   8   2  -7 263.838 10.9522   9
  -8   2   7 259.923 9.98352  12
  -8   2   7 255.002 11.9210   5
  -6  -2   7 635.443 20.6234   5
  -6  -2   7 617.760 17.4461   8
   6  -2  -7 614.785 18.6146   4
   6  -2  -7 637.335 20.0832   9
  -6  -2   7 633.830 20.2239  16
   6  -2  -7 648.582 19.1946  15
  -6  -2   7 632.882 17.9180  12
  -6   2   7 617.481 17.1352  13
   6   2  -7 616.285 17.5888  15
   6   2  -7 618.015 18.7395   7
  -6   2   7 605.265 19.9147  16
   6   2  -7 646.243 20.1121   4
   6   2  -7 613.953 19.4351   9
  -6   2   7 632.152 18.4027   8
  -6   2   7 614.794 20.4375   5
   6   2  -7 630.337 18.2556  14
  -6   2   7 643.910 17.8744  12
  -4  -2   7 566.829 17.4114  16
  -4  -2   7 571.863 15.2513  12
   4  -2  -7 531.803 17.3856   9
  -4  -2   7 526.845 14.7541   8
   4  -2  -7 546.972 16.7991   6
   4  -2  -7 567.350 17.0430  15
  -4  -2   7 568.760 17.6838   5
  -4   2   7 556.344 15.0579  12
  -4   2   7 581.939 16.1899   8
   4   2  -7 573.677 17.6747   9
   4   2  -7 524.245 16.4051   7
  -4   2   7 544.027 15.1639  13
   4   2  -7 540.145 16.0971  15
  -4   2   7 549.386 17.7735  16
   2  -2  -7 651.316 18.6302   7
  -2  -2   7 759.234 20.8787   5
   2  -2  -7 708.880 20.7054  15
  -2  -2   7 725.545 17.8994  12
   2  -2  -7 698.174 20.7090   9
  -2  -2   7 734.847 20.4752  16
   2  -2  -7 703.754 20.6262   6
   2   2  -7 716.114 21.2405   9
  -2   2   7 711.367 17.4350  12
   2   2  -7 721.063 20.4253  15
  -2   2   7 699.846 19.3300  13
   2   2  -7 716.698 20.3768   7
   0  -2  -7 645.926 19.7855   1
   0  -2  -7 671.558 20.8812  11
   0  -2  -7 697.464 20.3992  15
   0  -2  -7 658.058 19.5624   9
   0  -2  -7 655.240 18.8025   7
   0  -2   7 655.024 18.8722  16
   0  -2   7 684.967 16.5299  12
   0  -2   7 671.548 24.2024  10
   0  -2  -7 680.697 19.9627   6
   0   2  -7 665.732 20.3415  15
   0   2   7 751.523 19.8079  14
   0   2  -7 634.117 19.4207   1
   0   2  -7 672.618 20.0247   7
   0   2  -7 706.761 20.8874   9
  -2  -2  -7 398.819 14.9292   1
   2  -2   7 396.629 13.9035   2
   2  -2   7 370.227 18.0441  10
  -2  -2  -7 416.474 14.3782  15
   2  -2   7 403.316 10.9543  12
  -2  -2  -7 378.507 13.2660   6
  -2  -2  -7 443.221 16.1264  11
  -2   2  -7 373.759 14.6695   1
   2   2   7 405.976 13.5803   4
   2   2   7 417.001 9.96396  12
  -2   2  -7 405.546 14.7001   7
   2   2   7 398.508 14.4312  14
   4  -2   7 374.222 15.3484   4
  -4  -2  -7 341.765 15.2854   1
   4  -2   7 362.422 11.3608  12
  -4  -2  -7 353.461 16.0752  11
  -4   2  -7 366.236 14.9131   7
  -4   2  -7 361.816 15.6234   1
   4   2   7 349.510 10.8136  12
   4   2   7 334.059 14.7453  14
   4   2   7 360.084 15.3921   4
   6  -2   7 171.463 8.02768  12
  -6  -2  -7 167.500 11.3080   1
   6  -2   7 189.228 11.5660   4
  -6  -2  -7 179.808 12.1270  11
   6   2   7 178.236 8.07835  12
  -6   2  -7 175.603 11.5702   1
 -11  -3   7 823.570 25.5990   8
  11  -3  -7 833.379 27.2104   9
  11  -3  -7 812.340 27.0447   4
 -11  -3   7 878.839 29.8866   5
 -11   3   7 837.939 26.0608   8
 -11   3   7 854.302 29.2947  11
  11   3  -7 827.384 28.4106   4
   9  -3  -7 212.145 10.0049  15
   9  -3  -7 222.493 10.8739   9
  -9  -3   7 200.736 8.72885   8
  -9  -3   7 198.081 11.9237   5
   9  -3  -7 206.474 9.98347   4
  -9  -3   7 207.656 11.4672  16
  -9   3   7 199.431 10.2213  16
   9   3  -7 189.961 10.4942   4
  -9   3   7 215.564 9.98764   8
  -9   3   7 201.389 10.7154   5
  -7  -3   7 1375.36 39.0680  16
  -7  -3   7 1375.67 36.2481  12
   7  -3  -7 1374.28 36.7715   4
   7  -3  -7 1450.60 38.9757   9
   7  -3  -7 1452.23 37.8539  15
  -7  -3   7 1377.11 39.5786   5
  -7  -3   7 1364.22 35.5228   8
  -7   3   7 1343.73 35.4365  13
   7   3  -7 1379.51 38.6042   4
  -7   3   7 1398.37 36.1970  12
   7   3  -7 1387.07 37.5210   9
  -7   3   7 1413.66 38.5428  16
  -7   3   7 1388.64 36.7183   8
   7   3  -7 1386.89 37.6653   7
   7   3  -7 1373.70 37.1073  14
  -7   3   7 1392.50 38.9955   5
  -5  -3   7 370.343 13.5790  16
   5  -3  -7 383.127 13.1904  15
  -5  -3   7 359.657 10.7911   8
  -5  -3   7 394.515 14.2722   5
   5  -3  -7 366.604 12.6518   6
   5  -3  -7 318.502 11.5307   4
   5  -3  -7 375.837 13.4795   9
  -5  -3   7 364.848 11.5708  12
   5   3  -7 358.311 11.5010  15
  -5   3   7 387.705 11.6800  12
  -5   3   7 371.021 11.4821  13
  -5   3   7 375.488 12.2888   8
  -5   3   7 407.401 14.2352  16
   5   3  -7 392.364 13.3344   9
   5   3  -7 386.239 12.9418   7
  -3  -3   7 1493.95 36.5106  12
   3  -3  -7 1440.02 38.9235   9
  -3  -3   7 1524.23 38.7688  16
  -3  -3   7 1544.84 39.0559   5
   3  -3  -7 1465.07 38.7531  15
   3  -3  -7 1462.52 38.7450   6
  -3   3   7 1463.37 36.1130  12
  -3   3   7 1456.31 37.2939  13
  -3   3   7 1445.53 37.7121   8
   3   3  -7 1540.25 38.7870   7
   3   3  -7 1487.70 39.3842   9
   3   3  -7 1469.58 37.9130  15
   1  -3  -7 413.331 13.8817  15
   1  -3  -7 413.291 13.4970   9
   1  -3  -7 400.965 14.4269  11
  -1  -3   7 401.017 12.9065   5
  -1  -3   7 417.307 11.3246  12
  -1  -3   7 425.017 12.8719  16
  -1  -3   7 433.187 17.9025  10
   1  -3  -7 403.157 13.9645   6
   1   3  -7 417.310 13.9040   7
  -1   3   7 417.982 13.1761  13
   1   3  -7 416.208 14.4890   9
  -1   3   7 409.548 12.0072   3
  -1   3   7 411.686 10.5020  12
   1   3  -7 415.061 13.8815  15
  -1  -3  -7 1013.02 29.9798  11
  -1  -3  -7 1037.30 28.4421   6
   1  -3   7 974.513 33.8355  10
  -1  -3  -7 991.735 28.7772   1
   1  -3   7 1053.13 25.1774  12
  -1  -3  -7 1000.62 28.2050  15
   1  -3   7 1028.23 28.5581   2
   1   3   7 990.805 23.8220  12
  -1   3  -7 1013.12 28.9338   7
   1   3   7 969.762 27.7763  14
  -1   3  -7 984.023 28.6485   1
   3  -3   7 315.925 9.93855  12
  -3  -3  -7 331.006 14.8134  11
  -3  -3  -7 307.677 13.5236   1
  -3  -3  -7 330.812 12.4844  15
  -3   3  -7 277.314 13.1348   1
   3   3   7 306.677 13.1215  14
   3   3   7 330.770 9.43643  12
  -3   3  -7 294.442 13.0262   7
  -5  -3  -7 572.067 23.0858  11
   5  -3   7 605.358 21.8826   4
   5  -3   7 575.964 17.6273  12
  -5  -3  -7 581.768 22.2825   1
   5   3   7 567.909 17.0018  12
  -5   3  -7 550.292 21.9798   1
 -12  -4   7 80.3519 6.83353   8
  12  -4  -7 83.3347 7.18617   9
 -12  -4   7 84.3846 9.42578   5
 -12   4   7 96.9394 7.67831   8
  12   4  -7 87.0379 9.46109   4
 -10  -4   7 116.023 9.21281   5
 -10  -4   7 111.960 6.99070   8
  10  -4  -7 129.303 9.15454   9
 -10  -4   7 102.803 8.73938  16
 -10   4   7 119.767 7.43837   8
  10   4  -7 105.139 9.00941   4
   8  -4  -7 52.1669 5.27383  15
  -8  -4   7 43.9108 4.09997   8
  -8  -4   7 47.1872 6.41407   5
  -8  -4   7 40.9292 5.64611  16
   8  -4  -7 53.2400 5.95877   9
  -8   4   7 43.8960 4.89293  16
  -8   4   7 44.9012 3.97990  13
   8   4  -7 33.6089 5.08156   4
  -8   4   7 44.1564 4.81281   8
  -8   4   7 46.8774 5.43721   5
   8   4  -7 48.8045 5.38194   7
   8   4  -7 38.0128 4.61551   9
   8   4  -7 50.3177 4.76140  14
  -8   4   7 39.1963 4.05734  12
  -6  -4   7 182.718 9.49432  16
   6  -4  -7 191.805 9.28505   9
  -6  -4   7 169.329 7.36200  12
  -6  -4   7 186.215 9.90886   5
   6  -4  -7 177.070 8.70232  15
   6  -4  -7 185.835 8.30799   6
  -6   4   7 184.635 9.58376   5
   6   4  -7 184.405 8.79517   7
   6   4  -7 190.090 8.66160   9
  -6   4   7 184.415 7.61994  13
   6   4  -7 195.395 8.74219  14
  -6   4   7 180.384 8.96299  16
  -6   4   7 185.297 7.58214  12
  -6   4   7 178.230 8.22442   8
   6   4  -7 189.265 9.32585   4
  -4  -4   7 35.3892 4.31643   5
  -4  -4   7 36.4536 2.94796  12
   4  -4  -7 34.1671 4.04620   9
  -4  -4   7 33.3033 3.93026  16
   4  -4  -7 32.9293 3.80777   6
   4  -4  -7 28.5207 3.63632  15
  -4   4   7 27.3973 2.86490  13
   4   4  -7 39.0595 4.21320   9
  -4   4   7 31.5397 3.36285   8
   4   4  -7 32.6141 3.83478   7
   4   4  -7 29.8675 2.68643  15
  -4   4   7 25.3339 2.47537  12
  -2  -4   7 45.1968 3.85182   5
   2  -4  -7 49.5779 3.91504  15
  -2  -4   7 43.8207 2.89275  12
  -2  -4   7 53.6137 3.89334  16
   2  -4  -7 41.5239 3.55009   9
   2  -4  -7 54.7332 4.30467   6
  -2   4   7 44.9169 2.79453   3
  -2   4   7 35.8277 3.56027  13
   2   4  -7 50.0287 4.42731   7
   2   4  -7 41.9856 3.69329  15
   2   4  -7 46.7200 4.58267   9
  -2   4   7 49.0247 2.78284  12
   0  -4  -7 71.1479 4.73393  15
   0  -4  -7 72.9705 5.91277  11
   0  -4  -7 71.9839 5.33659   6
   0  -4   7 68.2885 3.50149  12
   0  -4   7 68.6360 5.62842   2
   0  -4   7 67.1445 7.36424  10
   0   4   7 63.6296 2.88418  12
   0   4   7 65.9429 4.11905   3
   0   4  -7 68.3944 5.40723   7
   0   4  -7 59.7660 4.34613   1
   0   4   7 62.0531 4.47228  13
  -2  -4  -7 1.84184 1.63745  15
   2  -4   7 3.32133 1.37310  12
  -2  -4  -7 3.51155 2.84754  11
   2  -4   7 -0.6594 2.25645   2
  -2  -4  -7 3.53693 2.05763   6
  -2  -4  -7 0.02879 2.13595   1
   2   4   7 1.22503 2.01781  14
  -2   4  -7 0.79203 2.33705   7
   2   4   7 2.83221 1.11799  12
  -2   4  -7 -1.4199 1.93456   1
  -4  -4  -7 50.5596 6.39847   1
   4  -4   7 46.8903 3.95985  12
  -4  -4  -7 54.0631 7.07892  11
   4   4   7 41.3147 5.45639  14
  -4   4  -7 46.3671 5.52748   7
  -4   4  -7 46.5856 5.80129   1
   4   4   7 48.8984 3.74243  12
  -6  -4  -7 -0.2705 2.27299  11
  -6  -4  -7 1.73391 3.30956   1
   6  -4   7 -0.6914 3.88268   4
   6  -4   7 0.96405 1.80559  12
   6   4   7 3.15461 1.99407  12
  -6   4  -7 -1.7773 3.04570   1
   6   4   7 -0.1362 2.82846   3
  11  -5  -7 108.689 9.11430   9
 -11  -5   7 108.215 11.0084   5
  11   5  -7 91.6002 8.37321   4
 -11   5   7 104.975 7.70409   8
  -9  -5   7 529.515 20.2180  16
  -9  -5   7 525.595 20.8910   5
   9  -5  -7 529.873 20.0384   9
   9   5  -7 509.345 19.9863   4
   9   5  -7 530.048 19.0213  14
  -9   5   7 520.065 17.9594   8
  -9   5   7 501.560 16.7584  13
   9   5  -7 514.023 19.1030   7
  -9   5   7 507.704 18.8737   5
   7  -5  -7 310.020 13.3479   9
   7  -5  -7 317.332 13.0589  15
  -7  -5   7 308.801 13.6684  16
  -7  -5   7 296.803 11.1164  12
   7  -5  -7 278.386 11.0186   6
  -7  -5   7 307.840 14.1658   5
  -7   5   7 298.942 11.2460  13
   7   5  -7 302.491 12.5913  14
  -7   5   7 312.746 13.2539   5
  -7   5   7 312.277 11.7893   8
   7   5  -7 306.415 11.7462   9
  -7   5   7 307.822 12.7917  16
  -7   5   7 315.336 11.3698  12
   7   5  -7 300.796 13.4359   4
   7   5  -7 315.969 12.9051   7
   5  -5  -7 1485.09 41.0955   9
   5  -5  -7 1478.80 39.9649   6
  -5  -5   7 1533.79 41.1189  16
  -5  -5   7 1563.13 41.6636   5
  -5  -5   7 1534.73 38.8752  12
   5  -5  -7 1552.49 40.9303  15
   5   5  -7 1514.87 40.3273   9
   5   5  -7 1534.44 40.6504   7
  -5   5   7 1474.46 38.6186  12
  -5   5   7 1455.92 38.8727  13
  -5   5   7 1493.62 41.5238  16
  -5   5   7 1476.81 39.3682   8
   3  -5  -7 682.330 20.7577   6
   3  -5  -7 685.029 20.5516   9
  -3  -5   7 632.982 19.7328  16
  -3  -5   7 649.875 18.4954  12
  -3  -5   7 648.854 20.0702   5
   3  -5  -7 673.484 20.4887  15
  -3   5   7 650.789 18.2275  12
  -3   5   7 656.443 19.4322  13
   3   5  -7 649.268 20.4524   7
  -3   5   7 681.480 19.6687   8
   3   5  -7 663.475 19.1604  15
   3   5  -7 671.353 20.8828   9
   1  -5  -7 1526.53 40.6755   9
  -1  -5   7 1576.89 39.4399  12
   1  -5  -7 1624.13 41.7729  15
  -1  -5   7 1525.24 47.2149  10
  -1  -5   7 1559.23 42.4456   2
   1  -5  -7 1567.97 42.2289   6
  -1   5   7 1581.04 39.6304   3
  -1   5   7 1616.71 38.9666  12
   1   5  -7 1587.01 42.2365   7
  -1   5   7 1616.35 41.5018  13
   1  -5   7 419.799 12.9844  12
   1  -5   7 432.985 15.9480   2
  -1  -5  -7 429.787 15.6468   6
  -1  -5  -7 431.271 14.6726  15
  -1  -5  -7 404.681 16.4925  11
  -1   5  -7 435.992 15.7601   7
   1   5   7 430.864 12.3434  12
   1   5   7 446.774 14.0304   3
   1   5   7 414.745 15.0664  13
  -1   5  -7 403.370 15.0531   1
  -3  -5  -7 674.247 24.2851  11
  -3  -5  -7 615.484 20.7925   6
   3  -5   7 634.411 21.2831   2
   3  -5   7 637.648 18.6666  12
   3   5   7 643.565 20.1490   3
   3   5   7 636.443 21.5643  13
  -3   5  -7 652.822 22.0687   7
  -3   5  -7 607.411 22.3470   1
   3   5   7 649.936 18.2274  12
   5  -5   7 126.584 6.91359  12
  -5  -5  -7 138.609 10.9856  11
   5  -5   7 137.740 10.1794   4
  -5   5  -7 107.461 9.34005   1
   5   5   7 127.151 6.62912  12
   5   5   7 129.871 7.98134   3
  -5   5  -7 119.953 9.38033   7
 -10  -6   7 26.2585 6.44574   5
  10  -6  -7 32.3549 5.90626   9
  10   6  -7 20.4904 4.77067   7
  10   6  -7 26.3603 5.58516   4
 -10   6   7 23.4152 4.41268   8
   8  -6  -7 122.859 9.01218   9
  -8  -6   7 127.411 9.30198  16
  -8  -6   7 125.338 10.0991   5
   8   6  -7 120.463 8.37228   7
  -8   6   7 124.708 7.75332  16
  -8   6   7 115.759 7.96323   5
   8   6  -7 134.890 8.41371  14
   8   6  -7 116.874 8.98263   4
  -8   6   7 143.030 8.04788   8
  -8   6   7 119.514 6.72465  13
   6  -6  -7 1.27341 2.18417   6
  -6  -6   7 16.3301 3.50611   5
   6  -6  -7 -1.0828 1.28608   9
  -6  -6   7 -0.4759 1.90651   2
   6  -6  -7 1.76561 2.27787  15
  -6  -6   7 2.13905 1.70050  12
  -6  -6   7 2.25634 1.92153  16
  -6   6   7 1.45878 1.63566  12
   6   6  -7 2.62251 2.29940   7
   6   6  -7 3.26275 2.24319  14
  -6   6   7 3.17367 2.28998  16
   6   6  -7 -0.2705 1.67302   9
  -6   6   7 -0.9676 1.76629  13
  -6   6   7 2.30025 2.34177   8
  -4  -6   7 90.6149 6.31314   5
  -4  -6   7 70.0917 5.77954   2
   4  -6  -7 69.9597 5.82065   6
   4  -6  -7 67.7260 5.55253  15
   4  -6  -7 71.7767 5.32854   9
  -4  -6   7 74.4509 4.74398  12
  -4   6   7 67.2228 5.20098   8
   4   6  -7 73.8013 5.85492   9
   4   6  -7 71.9036 5.86075   7
  -4   6   7 64.0963 4.12107  12
  -4   6   7 64.5386 4.99606  13
   2  -6  -7 13.7202 3.26921   6
  -2  -6   7 12.4064 2.81886   2
  -2  -6   7 9.75740 3.47954  10
  -2  -6   7 12.2830 2.17844  12
   2  -6  -7 12.7399 2.52501   9
   2  -6  -7 12.3663 2.39980  15
  -2   6   7 10.4063 1.96546   3
  -2   6   7 9.84246 2.61661  13
  -2   6   7 14.5652 2.29745  12
   2   6  -7 14.7898 2.95182   7
   0  -6   7 0.85119 2.71580   2
   0  -6  -7 14.5205 2.82697  15
   0  -6  -7 2.57776 2.56185  11
   0  -6  -7 2.93621 1.94603   6
   0  -6   7 0.97012 1.41886  12
   0   6  -7 -0.8574 1.61096   7
   0   6   7 1.04514 1.77497   3
   0   6   7 0.21637 1.07679  12
   0   6   7 1.50434 2.12528  13
   2  -6   7 33.3491 4.68962   2
  -2  -6  -7 30.6762 5.07925  11
   2  -6   7 32.6872 3.48948  12
  -2  -6  -7 37.5524 4.86066   6
  -2   6  -7 34.0752 4.64129   1
   2   6   7 38.0108 4.71716  13
   2   6   7 32.8074 4.11781   3
  -2   6  -7 37.6518 5.38910   7
   2   6   7 33.3876 3.11239  12
   4  -6   7 0.75170 1.80795  12
  -4  -6  -7 3.05474 3.84399  11
  -4   6  -7 6.11162 3.34782   1
  -4   6  -7 12.9711 4.48446   7
   4   6   7 4.10595 1.95157  12
   4   6   7 3.27469 3.12462   3
   9  -7  -7 871.797 28.8975   9
  -9  -7   7 797.865 28.9266   5
  -9   7   7 798.070 24.9703   8
   9   7  -7 793.342 27.6241   4
   9   7  -7 802.493 27.0954   7
   7  -7  -7 243.676 11.9244  15
  -7  -7   7 255.587 12.5579  16
   7  -7  -7 229.650 10.0458   6
   7  -7  -7 234.576 12.0946   9
  -7  -7   7 254.644 13.2164   5
  -7   7   7 232.071 9.97466  12
  -7   7   7 230.755 11.1031  16
  -7   7   7 236.079 10.6834   8
  -7   7   7 227.358 10.3007  13
   7   7  -7 240.330 11.7630   7
  -7   7   7 215.994 11.3470   5
   7   7  -7 243.029 11.6181  14
  -5  -7   7 750.293 24.4565   5
   5  -7  -7 770.229 24.4446   9
  -5  -7   7 744.391 22.2085  12
   5  -7  -7 798.056 24.4410  15
   5  -7  -7 775.857 23.4521   6
  -5  -7   7 696.598 23.5342  16
  -5  -7   7 763.366 23.7445   2
  -5   7   7 744.821 22.0276  12
   5   7  -7 779.383 24.5641   7
  -5   7   7 736.625 22.5690  13
   5   7  -7 763.974 23.4444   9
  -5   7   7 755.405 24.6501  16
  -5   7   7 742.927 22.6448   8
   3  -7  -7 170.536 8.59380  15
  -3  -7   7 169.289 9.43237   2
  -3  -7   7 152.019 7.33995  12
   3  -7  -7 165.923 8.31030   9
   3  -7  -7 166.226 9.10047   6
  -3   7   7 161.181 8.19019  13
  -3   7   7 155.863 8.10460   8
  -3   7   7 170.925 7.32923  12
   3   7  -7 160.157 8.87623   7
  -1  -7   7 537.974 16.8871  12
   1  -7  -7 561.451 19.5221   6
  -1  -7   7 557.226 19.7545   2
   1  -7  -7 552.517 18.1307  15
  -1   7   7 538.556 18.1320  13
   1   7  -7 537.305 18.8945   7
  -1   7   7 556.726 16.7804   3
  -1   7   7 561.986 16.6420  12
  -1  -7  -7 196.034 10.2230   6
   1  -7   7 189.445 8.33248  12
  -1  -7  -7 193.667 11.4919  11
   1  -7   7 198.292 10.9946   2
  -1  -7  -7 190.592 8.90318  15
  -1   7  -7 178.504 10.2639   7
   1   7   7 185.040 9.55356  13
   1   7   7 190.758 7.90290  12
   1   7   7 207.311 9.16823   3
  -3  -7  -7 486.453 20.7059  11
   3  -7   7 474.079 15.8420  12
  -3  -7  -7 434.571 17.6111   6
   3  -7   7 455.481 17.9008   2
  -3   7  -7 427.739 18.2509   1
  -3   7  -7 491.281 18.4893   7
   3   7   7 483.140 15.4452  12
   3   7   7 478.733 17.0186   3
  -5   7  -7 162.983 14.1172   1
   5   7   7 186.752 13.8172   3
 -10  -8   7 51.8082 8.05830   5
  10  -8  -7 45.4396 6.83977   9
  10   8  -7 76.9185 8.05307   7
 -10   8   7 55.4882 5.93277   8
  -8  -8   7 323.590 15.9890   5
   8  -8  -7 329.840 15.8840   9
  -8   8   7 360.714 13.9678   8
   8   8  -7 336.551 15.3230   7
   6  -8  -7 93.6904 7.49224  15
   6  -8  -7 105.226 8.11972   9
  -6  -8   7 97.5608 6.98721   2
  -6  -8   7 112.013 8.80293   5
   6  -8  -7 95.0426 6.76977   6
  -6  -8   7 78.0103 7.14360  16
  -6   8   7 85.8422 6.03427   8
   6   8  -7 99.0376 7.37512   7
  -6   8   7 100.280 7.16478  16
  -6   8   7 92.3703 6.23505  13
  -6   8   7 87.2255 5.94649  12
  -4  -8   7 440.658 15.4583  12
  -4  -8   7 475.768 17.5864   2
   4  -8  -7 465.135 17.0750   6
   4  -8  -7 484.807 17.3347  15
   4  -8  -7 472.468 17.0308   9
   4   8  -7 460.431 17.3853   7
  -4   8   7 450.979 16.2646  13
  -4   8   7 448.205 15.3287  12
  -4   8   7 468.762 16.2497   8
  -2  -8   7 315.012 13.9886   2
  -2  -8   7 303.907 11.6951  12
   2  -8  -7 300.910 12.3908  15
   2  -8  -7 326.976 13.6659   6
   2   8  -7 291.824 12.9065   7
  -2   8   7 298.939 12.5994  13
  -2   8   7 305.117 11.1493   3
   2   8  -7 328.999 11.7192   3
  -2   8   7 323.743 11.5996  12
   0  -8   7 183.856 8.58497  12
   0  -8  -7 193.854 8.93577  15
   0  -8   7 184.147 11.0548   2
   0  -8  -7 192.469 10.4162   6
   0   8  -7 194.162 10.6598   7
   0   8   7 191.591 8.88105   3
   0   8   7 198.975 8.43861  12
   0   8   7 181.017 9.74870  13
   2  -8   7 385.079 14.2678  12
   2  -8   7 406.554 16.9238   2
  -2  -8  -7 397.114 16.6927   6
  -2  -8  -7 408.819 18.6260  11
   2   8   7 391.423 14.9166   3
  -2   8  -7 388.079 16.6520   7
   2   8   7 418.783 14.0821  12
   4  -8   7 62.3703 5.51465  12
  -4  -8  -7 64.6527 8.81894  11
  -4   8  -7 66.7204 10.1555   1
  -4   8  -7 57.3795 6.80486   7
   4   8   7 59.9188 4.94333  12
   4   8   7 61.5597 6.50422   3
  -9  -9   7 23.6358 6.09255   5
   9  -9  -7 23.3341 4.67517   9
  -9   9   7 23.5594 4.39616   8
   9   9  -7 25.7867 4.74739   7
  -7  -9   7 879.268 30.1151   5
   7  -9  -7 881.482 29.6369   9
   7  -9  -7 897.298 28.9114  15
   7   9  -7 861.968 28.6355   7
  -7   9   7 848.571 26.5687   8
   5  -9  -7 104.000 7.50119   6
   5  -9  -7 100.626 7.27148  15
   5  -9  -7 102.625 7.57360   9
  -5  -9   7 99.1634 7.62236   2
  -5   9   7 95.5524 7.45147  16
  -5   9   7 82.7981 6.07828   8
   5   9  -7 91.1247 7.12987   7
  -5   9   7 94.7602 6.53347  13
  -5   9   7 93.1495 6.25821  12
  -3  -9   7 1618.83 44.4071  12
  -3  -9   7 1651.02 47.0447   2
   3  -9  -7 1739.20 46.9829   6
  -3   9   7 1726.05 45.3354   8
  -3   9   7 1673.38 45.5742  13
   3   9  -7 1645.53 46.6102   7
  -1  -9   7 96.7207 6.40744  12
   1  -9  -7 104.019 6.68230  15
   1  -9  -7 101.609 8.46197   6
  -1  -9   7 105.442 8.63712   2
  -1   9   7 103.436 6.36227  12
   1   9  -7 109.626 8.17158   7
  -1   9   7 103.553 6.58006   3
  -1   9   7 114.218 7.75072  13
   1  -9   7 1236.98 35.1169  12
   1  -9   7 1265.66 38.3478   2
  -1  -9  -7 1237.64 37.9819   6
   1   9   7 1243.78 35.0984   3
  -1   9  -7 1277.28 37.6123   7
   1   9   7 1281.87 34.7942  12
  -3  -9  -7 19.6535 4.49387   6
   3  -9   7 15.0658 4.58937   2
  -3  -9  -7 16.2073 5.72022  11
   3  -9   7 11.2726 3.13509  12
   3   9   7 11.9841 2.64562  12
  -3   9  -7 13.4894 4.17010   7
   3   9   7 23.7627 4.49796   3
   8 -10  -7 26.8900 5.09229   9
  -8 -10   7 26.5025 6.02734   5
   8 -10  -7 30.9050 4.96242  15
  -8  10   7 27.1369 4.45055   8
   8  10  -7 26.0413 4.86143   7
   6 -10  -7 18.6486 4.29499   9
   6 -10  -7 24.6751 4.34735  15
   6  10  -7 24.0534 4.99209   7
  -6  10   7 23.3342 4.28264   8
   4 -10  -7 22.5433 4.74479   6
  -4 -10   7 16.0858 4.33754   2
   4 -10  -7 21.1264 3.96150  15
  -4  10   7 27.0757 4.44561   8
   4  10  -7 12.4447 4.05228   7
  -4  10   7 15.9483 3.21621  12
  -2 -10   7 -0.9291 1.77019  12
   2 -10  -7 -0.9732 2.31233   6
   2 -10  -7 -2.5241 1.69487  15
  -2 -10   7 -2.5763 3.08316   2
  -2  10   7 1.86642 1.94204  12
   2  10  -7 -1.1434 2.84554   7
  -2  10   7 -2.0876 2.27741   8
   2  10  -7 2.05563 2.06480   3
   0 -10   7 9.05312 4.70075   2
   0 -10  -7 7.82550 3.95643   6
   0 -10   7 8.58863 2.79252  12
   0  10   7 7.52989 3.36316   3
   0  10   7 8.40952 2.66765  12
   0  10  -7 8.34329 3.85848   7
   2 -10   7 20.8615 5.49032   2
  -2 -10  -7 24.2833 4.48281   6
   2 -10   7 25.8579 3.65353  12
   2  10   7 21.2230 3.77271   3
   2  10   7 21.0880 3.56761  12
  -2  10  -7 23.2959 5.07822   7
   7 -11  -7 298.861 14.3735  15
  -7  11   7 269.534 11.6231   8
   7  11  -7 201.998 14.2756   7
  -5 -11   7 176.241 10.6891   2
   5 -11  -7 179.174 10.5181  15
   5 -11  -7 171.925 10.3114   6
   5  11  -7 180.695 11.1398   7
  -5  11   7 198.387 9.73930   8
  -3 -11   7 203.700 12.2235   2
   3 -11  -7 214.348 12.2048   6
   3 -11  -7 202.979 10.4684  15
  -3  11   7 200.869 10.4081   8
   3  11  -7 203.100 11.7197   7
  -3  11   7 214.913 10.2933  12
   1 -11  -7 93.1616 9.44987   6
  -1 -11   7 81.8124 8.66226   2
  -1  11   7 87.5790 6.83569   3
  -1  11   7 90.0195 6.53337  12
  -1  11   7 89.8119 7.19730   8
  -1 -11  -7 195.455 12.5766   6
   1 -11   7 186.007 12.7254   2
   1  11   7 232.768 10.6624  12
  -1  11  -7 240.172 12.6910   7
   1  11   7 231.192 11.1883   3
  -4 -12   7 8.33960 3.89309   2
   4 -12  -7 14.2415 3.83756  15
   4 -12  -7 13.2865 4.50437   6
   4  12  -7 15.4531 4.59538   7
  -4  12   7 9.87796 3.40546   8
  -2 -12   7 62.8166 7.68297   2
   2 -12  -7 63.7197 8.39394   6
   2  12  -7 56.7323 6.24889   7
  -2  12   7 60.4822 6.20647   8
 -12   0   8 392.665 15.4848   8
 -12   0   8 365.827 17.3630   5
  12   0  -8 372.888 17.0368   4
 -10   0   8 102.897 7.35670  11
 -10   0   8 102.741 8.31364   5
  10   0  -8 105.957 7.81762   9
 -10   0   8 111.631 8.12117  16
  10   0  -8 90.9136 7.28555   4
 -10   0   8 105.583 6.70122   8
  -8   0   8 1645.03 45.6754  16
   8   0  -8 1583.97 42.7946   7
   8   0  -8 1669.22 42.9905  15
  -8   0   8 1617.44 42.6873  12
   8   0  -8 1697.44 45.3270   4
   8   0  -8 1691.15 45.3713   9
  -8   0   8 1671.59 42.9495   8
  -8   0   8 1639.85 46.2942   5
   6   0  -8 424.377 15.0674   4
  -6   0   8 448.015 16.1029  16
  -6   0   8 450.591 16.5890   5
   6   0  -8 454.501 14.5845  15
   6   0  -8 436.262 15.7659   9
   6   0  -8 414.188 13.6300   7
  -6   0   8 437.787 13.4571  12
  -6   0   8 470.583 13.9382   8
  -4   0   8 3328.07 79.8916   8
  -4   0   8 3389.22 79.0937  12
   4   0  -8 3376.32 81.6605  15
  -4   0   8 3341.75 82.7642  16
   4   0  -8 3377.97 82.8290   9
  -4   0   8 3363.90 83.3005   5
   4   0  -8 3195.58 80.2181   7
   2   0  -8 270.438 10.0019   6
  -2   0   8 277.815 7.09859  12
   2   0  -8 254.351 9.34983   7
   2   0  -8 260.641 10.3121  15
  -2   0   8 257.970 10.4402  16
   2   0  -8 264.374 10.5730   9
  -2   0   8 261.920 8.79440   8
   0   0  -8 2498.56 62.4492   7
   0   0   8 2503.12 63.1454  16
   0   0   8 2528.46 68.0133  10
   0   0  -8 2428.90 62.9673   9
   0   0  -8 2524.69 61.9851   6
   0   0  -8 2523.83 63.4267  15
   0   0  -8 2474.93 62.7601  11
  -2   0  -8 15.0080 3.16117   7
  -2   0  -8 9.39760 2.87421   1
   2   0   8 7.48484 0.89332  12
  -2   0  -8 1.01393 2.30139  15
  -2   0  -8 6.61573 2.52236  11
   4   0   8 906.836 27.1623   4
  -4   0  -8 836.828 27.9094   1
   4   0   8 793.027 27.1260  14
  -4   0  -8 710.482 29.0869  11
   4   0   8 880.943 22.0280  12
 -11  -1   8 6.23499 3.28511   8
  11  -1  -8 4.01064 2.92139   9
  11  -1  -8 2.72250 2.20165   4
 -11  -1   8 -0.6691 3.46827   5
 -11   1   8 -2.0118 2.03662   5
 -11   1   8 3.59840 3.11924   8
 -11   1   8 -3.1989 2.82831  11
  11   1  -8 2.35462 3.27480   4
   9  -1  -8 183.482 8.63716  15
   9  -1  -8 191.705 10.0851   4
  -9  -1   8 194.442 11.3888   5
  -9  -1   8 175.536 10.4562  16
   9  -1  -8 192.252 10.3574   9
  -9  -1   8 165.520 8.37587   8
  -9   1   8 187.257 10.2571  16
   9   1  -8 184.387 9.85065   9
  -9   1   8 181.328 10.5169   5
   9   1  -8 196.884 10.5174   4
   9   1  -8 177.668 8.73377   7
  -9   1   8 175.876 8.65388   8
   7  -1  -8 3.13955 2.08813   4
  -7  -1   8 6.41398 1.78238   8
  -7  -1   8 6.28758 1.83524  12
   7  -1  -8 5.47965 1.80430  15
   7  -1  -8 7.35218 2.34121   9
  -7  -1   8 6.15131 2.36505  16
  -7  -1   8 6.37049 2.65593   5
  -7   1   8 7.31988 2.72599  16
  -7   1   8 4.80449 2.89375   5
   7   1  -8 5.00898 2.43847   9
  -7   1   8 5.23881 1.81555   8
   7   1  -8 4.93821 2.46122   4
   7   1  -8 11.9531 2.18358  15
  -7   1   8 4.51577 1.61541  12
   7   1  -8 7.01249 2.06880   7
   5  -1  -8 105.502 6.43853   9
  -5  -1   8 96.4276 6.79569   5
  -5  -1   8 99.3297 4.68380  12
  -5  -1   8 94.9246 4.72027   8
   5  -1  -8 106.179 5.99678  15
  -5  -1   8 100.531 6.55451  16
   5   1  -8 102.004 5.49806  15
   5   1  -8 90.4519 5.14998   7
   5   1  -8 94.4882 6.40289   9
  -5   1   8 102.933 5.25035   8
  -5   1   8 117.963 5.02438  12
  -5   1   8 88.8636 6.38547   5
  -5   1   8 99.5873 6.37097  16
   3  -1  -8 215.400 9.49415   9
  -3  -1   8 220.821 9.45640  16
  -3  -1   8 223.560 9.73444   5
   3  -1  -8 231.433 9.30912   6
   3  -1  -8 223.184 9.24759  15
  -3  -1   8 216.427 6.78856  12
  -3  -1   8 209.932 7.27726   8
  -3   1   8 212.071 9.65705  16
   3   1  -8 221.188 9.67676   9
  -3   1   8 224.257 6.71783  12
  -3   1   8 194.863 7.27390  13
  -3   1   8 219.884 7.96101   8
   3   1  -8 246.301 8.83164   7
   3   1  -8 218.133 9.01384  15
   1  -1  -8 2.94763 1.44528   7
   1  -1  -8 2.64767 1.47923  15
   1  -1  -8 3.83805 1.54782   9
  -1  -1   8 5.76258 1.93456  16
   1  -1  -8 7.26977 1.78118   1
  -1  -1   8 4.15707 0.56528  12
  -1  -1   8 2.28588 2.37747  10
   1  -1  -8 1.77006 1.54637  11
  -1  -1   8 6.63905 2.15792   5
  -1   1   8 9.58502 1.82709  13
   1   1  -8 12.3717 2.18173   7
   1   1  -8 10.6105 2.60174  15
   1   1  -8 5.78478 2.05362   9
   1  -1   8 251.550 13.9972  10
  -1  -1  -8 261.751 10.4114   7
   1  -1   8 263.309 6.74708  12
  -1  -1  -8 270.480 11.5435  11
  -1  -1  -8 276.880 11.2964  15
  -1  -1  -8 269.235 11.2592   1
  -1  -1  -8 266.888 10.1879   6
  -1  -1  -8 274.947 10.6457   9
  -1   1  -8 255.970 11.1906  15
  -1   1  -8 257.088 10.9785   1
  -1   1  -8 253.358 10.9684   9
  -1   1  -8 264.122 10.9022   7
   3  -1   8 17.2134 1.93816  12
  -3  -1  -8 15.8471 3.86717  11
  -3  -1  -8 21.9329 4.15918   1
   3   1   8 13.9503 3.77886  14
  -3   1  -8 14.7180 3.29275   1
  -3   1  -8 19.3814 3.57985   7
   3   1   8 16.5135 3.15362   4
   3   1   8 15.9788 1.69073  12
  -5  -1  -8 36.0760 5.76199  11
  -5  -1  -8 30.8814 5.54321   1
   5  -1   8 54.5058 7.04482   4
   5  -1   8 40.6459 3.50104  12
  -5   1  -8 37.2354 5.92437   1
   5   1   8 34.9264 3.34482  12
  12  -2  -8 138.977 9.56261   4
 -12  -2   8 151.557 11.1478   5
 -12  -2   8 146.610 9.02637   8
 -12   2   8 143.555 8.72433   8
  12   2  -8 140.273 10.4387   4
 -12   2   8 130.443 9.90970  11
 -10  -2   8 910.328 30.2890  16
 -10  -2   8 940.135 31.4397   5
 -10  -2   8 897.229 26.7838   8
  10  -2  -8 902.581 28.7127   4
  10  -2  -8 941.112 29.6204   9
 -10   2   8 912.309 29.9906   5
 -10   2   8 906.828 27.5306   8
 -10   2   8 920.117 29.3684  16
  10   2  -8 917.485 29.9031   4
   8  -2  -8 88.6957 6.22699  15
  -8  -2   8 98.2576 5.67924  12
   8  -2  -8 110.547 7.69698   9
  -8  -2   8 85.9696 7.20022   5
  -8  -2   8 85.8568 5.40017   8
  -8  -2   8 89.8171 7.27366  16
   8  -2  -8 91.1952 6.28049   4
   8   2  -8 94.0543 6.30020   7
  -8   2   8 94.6551 6.82968  16
  -8   2   8 91.5038 7.63444   5
  -8   2   8 87.2061 6.13203   8
   8   2  -8 95.5170 6.39524   9
  -8   2   8 99.7610 5.70409  12
   8   2  -8 91.4929 7.22112   4
  -6  -2   8 917.750 28.4471   5
  -6  -2   8 935.687 28.1651  16
   6  -2  -8 935.072 26.5466   4
  -6  -2   8 978.206 25.7134  12
   6  -2  -8 956.222 28.3528   9
   6  -2  -8 978.052 27.3748  15
  -6  -2   8 955.265 25.0614   8
  -6   2   8 966.992 25.5340  12
  -6   2   8 945.800 28.3503  16
  -6   2   8 942.955 28.8272   5
   6   2  -8 916.153 25.7093  15
   6   2  -8 958.866 28.0088   9
   6   2  -8 926.649 26.5944   7
  -6   2   8 958.593 26.1601   8
   4  -2  -8 151.094 7.27860  15
   4  -2  -8 140.953 7.22782   6
  -4  -2   8 155.025 7.98441   5
  -4  -2   8 148.245 7.63485  16
  -4  -2   8 140.917 5.60800  12
   4  -2  -8 153.899 7.77412   9
   4   2  -8 143.107 6.72849  15
   4   2  -8 141.668 7.69718   9
   4   2  -8 136.654 6.80963   7
  -4   2   8 151.411 8.07135  16
  -4   2   8 144.613 6.56249   8
  -4   2   8 140.254 5.74055  13
  -4   2   8 150.257 5.56767  12
   2  -2  -8 1015.06 29.2211  15
  -2  -2   8 1045.37 25.8068  12
  -2  -2   8 1088.26 29.2778   5
  -2  -2   8 1026.16 28.6861  16
   2  -2  -8 1004.08 29.1831   9
   2  -2  -8 1047.17 29.2500   6
   2   2  -8 1053.81 29.0633  15
  -2   2   8 1069.56 25.3322  12
  -2   2   8 1012.22 27.4936  13
   2   2  -8 1065.33 28.9047   7
   2   2  -8 1082.77 30.1150   9
   0  -2  -8 424.330 14.2328   9
   0  -2  -8 424.712 14.6055   1
   0  -2  -8 423.230 13.5186   7
   0  -2  -8 423.886 14.6781   6
   0  -2   8 451.184 11.1638  12
   0  -2  -8 418.646 15.4698  11
   0  -2  -8 419.649 14.9701  15
   0  -2   8 424.009 19.0634  10
   0   2  -8 438.850 15.6379   9
   0   2  -8 438.952 14.9989   7
   0   2   8 419.536 14.1752  14
   0   2   8 411.486 14.0007  13
   0   2  -8 413.079 14.9545  15
   2  -2   8 896.338 22.4049  12
  -2  -2  -8 923.854 27.0285  15
  -2  -2  -8 916.775 27.7700   1
  -2  -2  -8 967.672 28.9258  11
   2  -2   8 748.669 25.7066   2
   2   2   8 907.203 21.3693  12
  -2   2  -8 858.399 27.1732   1
  -2   2  -8 872.092 26.9383   7
   4  -2   8 481.338 14.0961  12
  -4  -2  -8 469.474 19.3945  11
   4  -2   8 476.259 18.4947   4
  -4  -2  -8 459.778 18.8155   1
   4   2   8 437.920 18.1200  14
  -4   2  -8 461.864 18.0632   7
   4   2   8 468.934 13.5322  12
  -4   2  -8 451.396 18.6595   1
 -11  -3   8 -1.0286 2.47871   5
  11  -3  -8 -0.3152 2.11028   9
 -11  -3   8 3.91943 2.83922   8
 -11   3   8 1.74320 3.26253   8
  11   3  -8 1.81216 3.44421   4
 -11   3   8 -3.0767 2.59132   5
   9  -3  -8 91.6764 6.88696   4
  -9  -3   8 119.135 6.70830   8
  -9  -3   8 130.906 9.22861   5
  -9  -3   8 125.251 8.60940  16
   9  -3  -8 116.572 8.64917   9
   9  -3  -8 121.460 7.66226  15
   9   3  -8 124.914 7.61686   7
  -9   3   8 116.187 7.75255  16
  -9   3   8 112.529 7.07440   8
  -9   3   8 125.011 8.53249   5
   9   3  -8 114.681 7.32926   9
   9   3  -8 116.454 8.18901   4
   7  -3  -8 2.27918 2.17006  15
  -7  -3   8 8.58859 1.94222   8
  -7  -3   8 0.35507 2.91207   5
  -7  -3   8 0.12102 1.44325  12
  -7  -3   8 -0.5386 2.39459  16
   7  -3  -8 1.44446 1.87788   9
  -7   3   8 -2.3102 2.06441   8
  -7   3   8 1.73622 1.40989  12
   7   3  -8 2.02792 1.63171   9
  -7   3   8 0.49263 2.15810  16
   7   3  -8 5.48767 1.91538   7
   7   3  -8 -1.9424 1.97710   4
  -7   3   8 2.86210 2.61850   5
   5  -3  -8 21.8423 3.46648   6
  -5  -3   8 20.1619 3.84079   5
   5  -3  -8 20.5206 3.07384  15
   5  -3  -8 19.2089 3.16284   9
  -5  -3   8 23.2770 2.58833  12
  -5  -3   8 23.3703 3.82859  16
  -5   3   8 22.9180 3.19937   8
   5   3  -8 24.9308 2.83098  15
   5   3  -8 18.6370 3.38369   9
  -5   3   8 23.2557 3.91208  16
   5   3  -8 23.7334 3.39728   7
  -5   3   8 21.3069 2.56538  13
  -5   3   8 20.4940 2.47805  12
  -3  -3   8 54.1740 3.24963  12
  -3  -3   8 46.6921 4.23789  16
   3  -3  -8 60.9851 4.84118  15
   3  -3  -8 48.8240 4.21908   9
   3  -3  -8 51.3410 4.72995   6
  -3  -3   8 52.9167 4.55805   5
   3   3  -8 46.6952 3.96230  15
  -3   3   8 50.2996 3.69384  13
   3   3  -8 50.8942 4.46419   7
  -3   3   8 52.2430 4.18006   8
   3   3  -8 51.3145 4.58009   9
  -3   3   8 50.1339 2.84280  12
  -1  -3   8 37.7044 2.50330  12
  -1  -3   8 34.7997 5.89297  10
   1  -3  -8 35.7976 3.66196   9
   1  -3  -8 37.7828 4.29218  15
   1  -3  -8 38.5180 4.43101   6
  -1   3   8 37.3572 2.98155   3
  -1   3   8 40.2474 1.94431  12
  -1   3   8 42.8611 4.10742  13
   1   3  -8 39.8206 4.43572  15
   1   3  -8 57.6857 4.93053   7
   1   3  -8 51.2542 4.66465   9
  -1  -3  -8 34.9069 4.69347  11
  -1  -3  -8 36.3191 4.49377   1
   1  -3   8 39.6260 4.78684   2
   1  -3   8 39.5273 2.69967  12
  -1  -3  -8 37.7842 4.28710  15
   1   3   8 31.4011 1.70051  12
  -1   3  -8 35.8567 4.60387   7
   1   3   8 34.4609 4.17813  13
  -1   3  -8 28.2197 3.83647   1
  -3  -3  -8 38.0029 5.47996  11
  -3  -3  -8 34.1348 4.54426  15
   3  -3   8 29.6954 2.90744  12
  -3  -3  -8 32.4470 5.01875   1
   3   3   8 35.7152 2.72651  12
   3   3   8 30.8729 4.88863  14
  -3   3  -8 25.5775 4.28387   7
  -3   3  -8 20.6419 4.13346   1
   5  -3   8 -0.2922 3.72528   4
  -5  -3  -8 4.65066 2.78666   1
  -5  -3  -8 1.65429 2.49031  11
   5  -3   8 3.50350 2.04229  12
   5   3   8 1.20220 1.64933  12
  -5   3  -8 3.83374 3.14358   1
  12  -4  -8 5.98172 3.19904   9
 -10  -4   8 957.439 32.3630   5
  10  -4  -8 993.394 29.7046  15
  10  -4  -8 968.442 31.0445   9
 -10   4   8 984.161 28.9279   8
  10   4  -8 961.174 30.0094   7
 -10   4   8 850.601 29.5282  16
 -10   4   8 928.025 30.4960   5
  10   4  -8 952.806 31.4100   4
  -8  -4   8 117.103 8.71883   5
  -8  -4   8 115.346 8.26361  16
   8  -4  -8 126.622 7.71102  15
   8  -4  -8 137.290 9.04469   9
  -8  -4   8 113.879 6.56307  12
   8   4  -8 125.276 7.22199   9
  -8   4   8 120.936 8.14754   5
  -8   4   8 111.091 7.50110  16
  -8   4   8 124.300 6.69214  12
   8   4  -8 138.349 8.32638   7
  -8   4   8 133.225 7.70231   8
   8   4  -8 124.849 8.77266   4
   6  -4  -8 2333.25 58.5237  15
  -6  -4   8 2218.37 59.3805   5
  -6  -4   8 2228.94 55.9993  12
  -6  -4   8 2204.19 58.7798  16
   6  -4  -8 2310.72 59.3545   9
   6  -4  -8 2255.59 57.4226   6
  -6   4   8 2204.12 55.6255  13
  -6   4   8 2269.78 59.8322   5
   6   4  -8 2248.82 58.1469   9
  -6   4   8 2271.45 59.2138  16
  -6   4   8 2279.45 55.9023  12
  -6   4   8 2202.61 56.6506   8
   6   4  -8 2133.12 57.5854   7
  -4  -4   8 394.407 14.0784  16
  -4  -4   8 382.144 12.0870  12
   4  -4  -8 375.292 14.0178   6
  -4  -4   8 409.938 14.5938   5
   4  -4  -8 380.561 13.9550  15
   4  -4  -8 390.087 14.4319   9
  -4   4   8 397.744 15.2017  16
  -4   4   8 376.089 12.6127  13
   4   4  -8 380.703 14.3638   9
  -4   4   8 373.297 13.0254   8
   4   4  -8 383.232 13.7996   7
   4   4  -8 373.924 12.5932  15
  -4   4   8 376.934 11.8564  12
   2  -4  -8 2109.60 54.3709   6
   2  -4  -8 2034.03 53.4909   9
   2  -4  -8 2118.76 54.1462  15
  -2  -4   8 2115.40 51.0812  12
  -2   4   8 2112.70 50.4574  12
   2   4  -8 2054.12 54.9607   9
   2   4  -8 2130.13 53.7003  15
  -2   4   8 2091.31 52.8158  13
   2   4  -8 2073.30 54.0741   7
   0  -4  -8 155.986 8.14768  15
   0  -4   8 165.465 6.27411  12
   0  -4  -8 158.248 9.36184  11
   0  -4  -8 161.695 8.69494   6
   0  -4   8 159.376 8.86142   2
   0   4   8 173.595 7.30666   3
   0   4  -8 167.412 8.52687   7
   0   4   8 161.973 5.38564  12
   0   4   8 156.844 7.86653  13
   2  -4   8 839.790 25.2211   2
  -2  -4  -8 782.305 24.5167   6
  -2  -4  -8 818.053 27.4468  11
  -2  -4  -8 772.864 24.1376  15
   2  -4   8 819.192 21.6202  12
   2   4   8 762.344 24.6120  13
  -2   4  -8 753.231 25.1007   1
  -2   4  -8 807.162 25.8415   7
   2   4   8 793.110 20.5346  12
   2   4   8 766.507 23.2280   3
   4  -4   8 28.2212 3.45603  12
  -4  -4  -8 38.1962 5.40408   1
  -4  -4  -8 39.5757 6.43749  11
   4   4   8 34.4285 3.33368  12
   4   4   8 41.5374 4.93668   3
  -4   4  -8 37.3609 5.80581   7
  -4   4  -8 29.3128 5.12124   1
  11  -5  -8 287.431 14.7071   9
  11  -5  -8 264.577 13.0729  15
 -11  -5   8 284.348 15.4366   5
 -11   5   8 282.851 12.4707   8
  11   5  -8 263.356 14.9178   4
  11   5  -8 271.211 13.7038   7
  -9  -5   8 80.5697 8.02369  16
   9  -5  -8 87.1626 7.42029  15
   9  -5  -8 82.5374 7.31556   9
  -9  -5   8 85.0841 8.92318   5
   9   5  -8 85.4207 6.80653   7
   9   5  -8 84.5807 7.53414   4
  -9   5   8 82.9165 6.47313  16
  -9   5   8 82.2466 6.71278   8
  -9   5   8 76.5103 6.68719   5
   7  -5  -8 368.693 13.5069   6
  -7  -5   8 361.794 13.0398  12
   7  -5  -8 370.287 15.5717   9
   7  -5  -8 376.810 14.9632  15
  -7  -5   8 361.219 15.1789  16
  -7  -5   8 376.934 15.9530   5
  -7   5   8 367.017 12.8365  13
  -7   5   8 377.825 13.0668  12
   7   5  -8 348.142 14.1053  14
   7   5  -8 379.129 14.1594   9
   7   5  -8 354.094 14.5693   7
  -7   5   8 367.232 13.5156   8
  -7   5   8 359.904 15.2138   5
  -7   5   8 355.091 14.6870  16
   5  -5  -8 214.153 9.97739   6
  -5  -5   8 216.014 10.2536  16
   5  -5  -8 206.730 10.0150  15
   5  -5  -8 216.322 10.3513   9
  -5  -5   8 203.428 8.30836  12
  -5  -5   8 239.562 11.1056   5
  -5   5   8 197.671 9.16727   8
   5   5  -8 208.282 9.96134   7
  -5   5   8 200.616 8.60449  13
  -5   5   8 201.532 10.3172  16
   5   5  -8 193.531 9.78929   9
  -5   5   8 210.493 8.38997  12
   3  -5  -8 118.512 6.79570  15
   3  -5  -8 102.381 6.24887   9
  -3  -5   8 105.507 5.25669  12
   3  -5  -8 94.0006 6.84021   6
  -3  -5   8 110.685 7.09483   2
  -3  -5   8 93.6760 6.00738  16
  -3  -5   8 99.1715 6.31025   5
   3   5  -8 101.200 6.81429   7
  -3   5   8 101.764 5.99596  13
   3   5  -8 108.055 6.08381  15
  -3   5   8 97.7755 4.96335  12
  -3   5   8 90.6456 5.70201   8
   3   5  -8 104.511 6.90501   9
   1  -5  -8 254.608 11.4092   6
  -1  -5   8 236.252 8.70042  12
   1  -5  -8 257.739 10.6076  15
  -1  -5   8 242.212 11.1110   2
  -1   5   8 245.974 8.99633   3
  -1   5   8 255.437 8.30921  12
  -1   5   8 234.420 10.2447  13
   1   5  -8 241.583 11.0655   7
  -1  -5  -8 7.25132 3.44483  11
  -1  -5  -8 9.25822 3.04750   6
  -1  -5  -8 9.51676 2.31255  15
   1  -5   8 10.9478 3.62291   2
   1  -5   8 9.97122 2.06337  12
   1   5   8 10.8637 2.95761  13
  -1   5  -8 12.6653 3.10185   7
   1   5   8 7.68728 2.57056   3
   1   5   8 10.9988 1.79271  12
  -3  -5  -8 53.0137 7.22398  11
   3  -5   8 65.9141 4.70114  12
   3   5   8 57.7396 3.98268  12
  -3   5  -8 64.7466 7.13404   1
  -3   5  -8 54.3046 6.56814   7
   3   5   8 70.2117 5.60943   3
 -10  -6   8 61.3774 7.86592   5
  10  -6  -8 47.4775 6.43580   9
  10  -6  -8 46.6284 6.18641  15
  10   6  -8 52.1249 6.12495   7
 -10   6   8 50.2218 5.89538   8
  10   6  -8 44.0091 6.73659   4
  -8  -6   8 976.314 32.1041   5
   8  -6  -8 1035.99 30.8084  15
  -8  -6   8 950.761 31.2185  16
   8  -6  -8 1007.25 31.7467   9
  -8   6   8 960.483 28.8014   8
   8   6  -8 976.745 30.4665   7
  -8   6   8 946.434 27.9879  12
  -8   6   8 947.555 30.5039   5
   8   6  -8 989.183 30.2630  14
  -8   6   8 981.569 27.9150  13
  -8   6   8 958.631 29.9664  16
   6  -6  -8 17.4113 3.80165   9
  -6  -6   8 14.9776 3.35006   2
   6  -6  -8 16.8140 3.58278   6
   6  -6  -8 17.6885 3.87799  15
  -6  -6   8 18.2333 2.75585  12
  -6  -6   8 14.7409 3.32577  16
  -6  -6   8 17.4269 3.80551   5
  -6   6   8 21.0846 4.08345  16
  -6   6   8 18.4524 3.18578  13
   6   6  -8 16.3598 3.39238   9
  -6   6   8 16.3024 3.12944   8
  -6   6   8 16.0481 2.76960  12
   6   6  -8 21.5068 4.02963   7
  -4  -6   8 1144.29 33.7278   5
  -4  -6   8 1204.62 34.4875   2
   4  -6  -8 1260.75 34.6467  15
   4  -6  -8 1202.31 34.3475   9
  -4  -6   8 1160.68 31.9102  12
   4  -6  -8 1211.81 34.1672   6
  -4   6   8 1173.28 32.7363  13
  -4   6   8 1215.77 33.2826   8
   4   6  -8 1207.24 34.6572   9
  -4   6   8 1192.88 31.7124  12
   4   6  -8 1163.71 34.2094   7
   2  -6  -8 37.3911 4.62869  15
   2  -6  -8 33.9666 3.92331   9
  -2  -6   8 27.2410 4.23084   2
   2  -6  -8 39.8562 5.23555   6
  -2  -6   8 33.5148 3.45361  12
  -2   6   8 37.1903 3.59303  12
  -2   6   8 26.6157 3.84135  13
   2   6  -8 33.3842 4.63335   7
   0  -6   8 1205.85 34.8521   2
   0  -6  -8 1154.93 34.3310   6
   0  -6   8 1191.89 31.2154  12
   0  -6  -8 1151.85 32.9985  15
   0   6   8 1192.18 31.6931   3
   0   6   8 1161.36 30.3649  12
   0   6  -8 1164.37 34.2523   7
   0   6   8 1135.83 33.2803  13
   2  -6   8 108.223 8.36650   2
  -2  -6  -8 104.231 7.76931   6
  -2  -6  -8 94.4315 8.93029  11
   2  -6   8 99.2489 5.84651  12
   2   6   8 96.9905 6.74145   3
   2   6   8 84.8076 6.92446  13
  -2   6  -8 94.0376 8.13831   7
   2   6   8 93.1406 5.20441  12
   4  -6   8 789.040 23.8790  12
  -4  -6  -8 841.566 30.2870  11
   4   6   8 783.670 23.0940  12
  -4   6  -8 813.660 27.6644   7
   4   6   8 829.686 25.5955   3
   9  -7  -8 -1.2391 2.12531   9
  -9  -7   8 -0.3044 4.32492   5
   9  -7  -8 1.69512 3.24916  15
  -9   7   8 0.46434 2.78320   8
   9   7  -8 -0.2579 2.83291   7
   7  -7  -8 69.6555 6.96992  15
   7  -7  -8 75.8317 6.11559   6
  -7  -7   8 67.5014 6.94549   5
  -7  -7   8 69.3913 6.12021   2
  -7  -7   8 76.8939 6.73769  16
   7  -7  -8 65.3900 6.40180   9
   7   7  -8 71.0596 6.79109   7
  -7   7   8 70.6080 5.82652  13
  -7   7   8 74.9718 6.57830  16
  -7   7   8 68.5483 6.58460   8
  -7   7   8 68.0981 6.89213   5
  -7   7   8 70.6024 5.41308  12
   5  -7  -8 49.1395 5.87286   9
  -5  -7   8 46.8055 5.68322   5
  -5  -7   8 44.2998 5.30086  16
  -5  -7   8 53.6191 5.94448   2
   5  -7  -8 42.0291 5.09436  15
  -5  -7   8 41.6079 4.41081  12
   5  -7  -8 49.2773 5.74025   6
  -5   7   8 51.9680 6.42783  16
  -5   7   8 48.7127 5.30649   8
  -5   7   8 48.8262 4.00055  12
  -5   7   8 40.9216 4.64440  13
   5   7  -8 37.9092 5.22916   7
   5   7  -8 42.7237 4.97213   9
   3  -7  -8 48.4438 4.77752  15
  -3  -7   8 62.8079 6.68903   2
   3  -7  -8 55.9073 6.51374   6
   3  -7  -8 52.7800 4.90890   9
  -3  -7   8 49.7660 4.34980  12
  -3   7   8 49.4809 5.15514  13
   3   7  -8 55.1858 6.10302   7
  -3   7   8 48.9181 4.03663  12
  -3   7   8 43.3119 4.96590   8
  -1  -7   8 171.351 10.3776   2
   1  -7  -8 179.055 10.1711   6
  -1  -7   8 173.294 8.05749  12
   1  -7  -8 183.821 9.08552  15
   1   7  -8 179.460 10.0662   7
  -1   7   8 168.236 7.49608  12
  -1   7   8 178.236 9.32799  13
   1  -7   8 25.6030 5.15455   2
   1  -7   8 39.5075 4.18228  12
  -1  -7  -8 37.3754 5.47346   6
   1   7   8 26.4571 4.14775  13
   1   7   8 36.7979 3.53328  12
   1   7   8 39.1717 4.64053   3
  -1   7  -8 30.8688 5.20243   7
   3  -7   8 140.757 9.82730   2
  -3  -7  -8 137.441 10.5549  11
   3  -7   8 133.083 7.39414  12
   3   7   8 130.257 6.83435  12
   3   7   8 138.380 8.63738   3
  -3   7  -8 141.461 9.83336   7
  -8  -8   8 684.911 25.0639   5
   8  -8  -8 638.935 24.3228   9
   8  -8  -8 668.419 23.6971  15
  -8   8   8 633.989 21.7431   8
   8   8  -8 661.998 23.4632   7
   6  -8  -8 300.982 13.6181  15
  -6  -8   8 302.579 14.4003   5
  -6  -8   8 266.751 12.7423   2
   6  -8  -8 311.803 14.3301   9
   6  -8  -8 306.802 13.1166   6
  -6  -8   8 281.030 13.4544  16
   6   8  -8 276.256 13.2514   7
  -6   8   8 304.792 12.6620  13
  -6   8   8 300.027 13.8192  16
  -6   8   8 299.390 12.7529   8
  -6   8   8 298.682 11.9110  12
   4  -8  -8 856.223 26.9165   9
  -4  -8   8 828.410 27.3144   2
   4  -8  -8 887.219 27.1649  15
  -4  -8   8 836.803 24.9970  12
   4  -8  -8 877.720 27.3640   6
   4   8  -8 772.413 26.6704   7
  -4   8   8 846.567 24.8032  12
  -4   8   8 831.479 25.7379  13
  -4   8   8 876.626 26.1296   8
  -2  -8   8 375.709 16.0206   2
   2  -8  -8 359.328 15.7751   6
  -2  -8   8 360.126 13.3502  12
   2  -8  -8 357.473 14.2027  15
  -2   8   8 346.938 14.2622  13
  -2   8   8 360.205 14.4510   8
   2   8  -8 368.162 15.5328   7
  -2   8   8 371.001 12.9909  12
   0  -8   8 503.187 19.8625   2
   0  -8  -8 492.408 19.4464   6
   0  -8  -8 531.278 23.7235  15
   0  -8   8 498.449 16.7121  12
   0   8  -8 504.646 19.3165   7
   0   8   8 493.984 16.2256  12
   0   8   8 509.005 16.8950   3
  -2  -8  -8 199.223 11.2280   6
   2  -8   8 212.839 9.69226  12
   2  -8   8 210.530 12.4329   2
  -2   8  -8 203.823 12.0047   7
   2   8   8 213.498 9.27086  12
   2   8   8 217.936 10.5143   3
   9  -9  -8 14.6304 3.95088  15
  -9  -9   8 10.1443 4.92517   5
   9  -9  -8 7.59067 3.69369   9
  -9   9   8 5.83126 3.50334   8
   7  -9  -8 -0.7800 2.58599  15
   7  -9  -8 0.93296 2.04997   9
  -7  -9   8 4.92755 4.28343   5
   7   9  -8 2.81041 3.44423   7
  -7   9   8 7.44377 3.09965   8
   5  -9  -8 12.6045 3.76671  15
  -5  -9   8 6.87987 3.41172   2
   5  -9  -8 16.2579 4.27727   6
   5  -9  -8 7.28025 2.61162   9
  -5   9   8 8.11182 3.79900  13
  -5   9   8 11.7104 3.38785   8
  -5   9   8 3.48043 3.01626  16
   5   9  -8 4.42136 3.60763   7
  -5   9   8 5.88751 2.33642  12
   3  -9  -8 18.8374 4.73876   6
  -3  -9   8 13.8409 3.05989  12
  -3  -9   8 21.7583 4.89219   2
   3  -9  -8 20.4869 3.65934  15
  -3   9   8 18.1346 3.24947  12
  -3   9   8 21.6991 4.27298   8
   3   9  -8 22.0181 4.67994   7
  -3   9   8 19.1498 3.60841  13
  -1  -9   8 3.66686 3.97887   2
  -1  -9   8 5.90350 2.39332  12
   1  -9  -8 -0.0427 1.39077  15
   1  -9  -8 10.4892 3.94556   6
  -1   9   8 5.55417 2.23318  12
   1   9  -8 2.45220 3.44042   7
   1  -9   8 30.8935 5.36363   2
   1  -9   8 31.5547 4.30042  12
  -1  -9  -8 45.9301 6.41280   6
   1   9   8 31.8290 4.61994   3
  -1   9  -8 33.4385 5.79273   7
   1   9   8 28.3076 3.76002  12
   8 -10  -8 99.2441 9.58071   9
   6 -10  -8 548.675 20.6133  15
   6 -10  -8 519.843 19.4222   6
   6 -10  -8 525.358 20.3923   9
  -6  10   8 515.191 18.7516   8
   6  10  -8 516.017 20.5479   7
   4 -10  -8 76.2140 6.41420  15
  -4 -10   8 63.0401 7.10922   2
   4 -10  -8 69.3834 7.84871   6
   4  10  -8 73.7397 7.99699   7
  -4  10   8 70.7843 5.85616  12
  -4  10   8 74.2397 6.86803   8
  -2 -10   8 588.854 19.9079  12
   2 -10  -8 638.926 23.2130   6
   2 -10  -8 597.986 20.7773  15
  -2 -10   8 591.974 22.9883   2
  -2  10   8 583.590 20.9034   8
  -2  10   8 609.543 19.8566  12
   2  10  -8 622.281 22.5387   7
   0 -10   8 38.3820 6.59968   2
   0 -10  -8 39.6692 6.22843   6
   0  10   8 38.8575 4.59380  12
  -5 -11   8 81.7043 8.06825   2
   5 -11  -8 95.7591 7.86113  15
   5  11  -8 99.8216 8.84890   7
  -5  11   8 93.5382 7.41742   8
  -3 -11   8 63.6303 7.50650   2
   3 -11  -8 64.8745 7.50329   6
   3  11  -8 55.4115 6.81487   7
  -3  11   8 63.8341 5.60815  12
  -3  11   8 57.2446 5.95396   8
   1 -11  -8 51.4014 7.31939   6
  -1 -11   8 60.4354 7.80167   2
   1  11  -8 57.8442 7.13950   7
  -1  11   8 70.5835 6.03839   8
 -12   0   9 -0.2967 2.15364   5
  12   0  -9 0.51572 3.04798   4
 -12   0   9 1.88091 3.25063   8
 -10   0   9 -1.1252 2.67736   8
 -10   0   9 0.47242 3.03245  16
  10   0  -9 -0.0124 2.54069   4
 -10   0   9 -1.6561 3.37515   5
  10   0  -9 4.30859 3.07642   9
   8   0  -9 2.29168 2.72711   9
   8   0  -9 3.76460 2.58702   4
  -8   0   9 -0.8293 0.93059  12
   8   0  -9 1.78308 1.40952  15
  -8   0   9 3.54157 2.45447   8
  -8   0   9 -0.8282 2.39577  16
  -8   0   9 4.37277 3.21928   5
   6   0  -9 0.64528 2.07759   9
  -6   0   9 -0.1942 2.19129  16
  -6   0   9 6.07194 2.04587   8
  -6   0   9 6.71163 1.79961  12
  -6   0   9 -0.9368 2.51452   5
   6   0  -9 0.86084 1.72722  15
  -4   0   9 0.01734 2.28596   5
  -4   0   9 0.26599 1.06368  12
   4   0  -9 0.80721 1.28873  15
   4   0  -9 1.05456 1.23877   7
  -4   0   9 1.17217 2.03519  16
   4   0  -9 -0.7173 1.68218   9
  -4   0   9 0.37326 1.23730   8
   2   0  -9 0.74921 1.85292  15
  -2   0   9 1.03548 0.62232  12
   2   0  -9 0.41316 1.04740   7
   2   0  -9 1.52039 1.82864   9
  -2   0   9 2.65804 1.36404   8
  -2   0   9 3.16197 2.24189  16
   0   0  -9 1.06477 2.06840  15
   0   0  -9 2.56576 1.87587   7
   0   0  -9 12.6357 2.85137   9
  -2   0  -9 1.98435 2.27756   1
   2   0   9 0.87540 0.76829  12
  -2   0  -9 14.9626 3.89578  15
   2   0   9 0.11884 2.50156  14
   4   0   9 -1.5290 3.10322   4
  -4   0  -9 -0.5650 2.53329   1
   4   0   9 0.70120 1.27766  12
 -11  -1   9 285.354 12.3584   8
  11  -1  -9 269.801 13.6718   4
 -11  -1   9 289.687 15.5863   5
 -11   1   9 304.555 15.5093   5
 -11   1   9 279.431 12.2438   8
  11   1  -9 294.118 14.7683   4
   9  -1  -9 572.518 18.7872  15
  -9  -1   9 575.275 22.0607   5
   9  -1  -9 579.172 20.3623   4
  -9  -1   9 558.079 21.1489  16
  -9  -1   9 563.396 18.1791   8
   9  -1  -9 583.713 20.8715   9
  -9  -1   9 551.018 18.1624  12
  -9   1   9 570.919 20.8465  16
   9   1  -9 557.711 20.2557   9
   9   1  -9 557.060 20.8237   4
  -9   1   9 573.155 18.6794   8
  -9   1   9 550.117 18.1163  12
  -9   1   9 563.266 21.2994   5
   7  -1  -9 524.130 17.4244  15
   7  -1  -9 526.913 18.9049   9
  -7  -1   9 501.660 15.9437  12
  -7  -1   9 505.022 15.7371   8
  -7  -1   9 510.801 18.8416  16
  -7  -1   9 517.968 19.5529   5
   7   1  -9 513.867 16.7820   7
  -7   1   9 503.416 19.2519   5
   7   1  -9 506.808 18.3345   9
  -7   1   9 507.559 18.7413  16
   7   1  -9 521.696 16.5985  15
  -7   1   9 519.027 16.2836   8
  -7   1   9 509.885 15.9191  12
  -5  -1   9 904.626 23.9458   8
   5  -1  -9 899.618 26.2553  15
   5  -1  -9 896.180 27.2984   9
  -5  -1   9 888.763 27.1856  16
  -5  -1   9 892.178 27.7396   5
  -5   1   9 887.505 27.4943  16
   5   1  -9 898.238 27.2980   9
   5   1  -9 922.290 25.9471  15
  -5   1   9 905.673 23.8446  12
  -5   1   9 919.733 28.2615   5
  -5   1   9 909.422 24.8106   8
   5   1  -9 857.339 25.0302   7
  -3  -1   9 642.435 16.4649  12
   3  -1  -9 626.172 20.3486   9
   3  -1  -9 639.731 19.6379   6
  -3  -1   9 621.859 20.0452  16
  -3  -1   9 618.974 20.4533   5
   3  -1  -9 617.068 19.7796  15
  -3   1   9 630.109 16.2512  12
  -3   1   9 627.929 18.1343   8
   3   1  -9 594.374 18.6747   7
   3   1  -9 622.539 19.6327  15
   3   1  -9 608.904 20.4655   9
  -3   1   9 607.919 20.5353  16
  -1  -1   9 656.784 20.7202  16
  -1  -1   9 735.320 30.1405  10
  -1  -1   9 727.862 21.6183   5
   1  -1  -9 658.259 21.3675  15
   1  -1  -9 630.247 19.6210   7
   1  -1  -9 625.574 20.9400   9
   1  -1  -9 680.954 20.8630   6
   1   1  -9 682.758 21.8733   9
  -1   1   9 667.804 21.9357  16
  -1   1   9 650.340 24.5006  10
   1   1  -9 696.632 21.8480  15
   1   1  -9 697.547 20.9055   7
  -1  -1  -9 501.828 17.9270  15
  -1  -1  -9 482.084 16.4308   7
   1  -1   9 485.771 12.3081  12
  -1  -1  -9 483.310 17.3612   1
  -1  -1  -9 505.532 18.0477  11
  -1   1  -9 487.398 17.8666  15
   1   1   9 492.359 17.3475  14
  -1   1  -9 452.664 16.7104   7
   3  -1   9 294.599 8.94355  12
  -3  -1  -9 254.518 12.8154   1
   3  -1   9 299.477 13.7626   4
  -3  -1  -9 296.739 14.5425  11
  -3   1  -9 283.311 13.0679   7
  -3   1  -9 260.262 12.9707   1
   3   1   9 257.836 13.1791  14
   3   1   9 286.960 8.46646  12
 -12  -2   9 102.608 9.57815   5
 -12  -2   9 112.224 7.83473   8
  12   2  -9 116.457 9.00915   4
 -12   2   9 91.0723 7.91012   8
 -12   2   9 109.659 9.24137   5
 -12   2   9 86.4857 11.4923  11
 -10  -2   9 84.2298 8.96262   5
 -10  -2   9 86.1419 6.39635   8
 -10  -2   9 82.0488 9.37841  16
  10  -2  -9 94.3893 7.69571   9
  10  -2  -9 84.7857 8.22635   4
 -10   2   9 91.2979 7.71966   8
 -10   2   9 85.7486 7.71603  16
  10   2  -9 87.6804 6.74610   7
  10   2  -9 87.0133 7.57618   4
 -10   2   9 86.4252 8.38725   5
  10   2  -9 100.465 7.56223   9
  -8  -2   9 142.651 9.53792   5
  -8  -2   9 147.257 9.22689  16
   8  -2  -9 144.933 8.15993   4
  -8  -2   9 144.879 7.07452   8
   8  -2  -9 144.835 9.39596   9
  -8  -2   9 140.210 7.20921  12
   8  -2  -9 142.202 8.21541  15
   8   2  -9 151.666 8.14288   7
   8   2  -9 149.325 9.39606   4
  -8   2   9 141.667 8.77492  16
   8   2  -9 142.486 8.46422   9
  -8   2   9 150.770 9.40002   5
  -8   2   9 144.369 7.07341  12
  -8   2   9 142.256 7.90000   8
   6  -2  -9 219.871 9.80032  15
  -6  -2   9 196.599 10.2571  16
  -6  -2   9 203.207 8.16654  12
  -6  -2   9 202.585 10.8727   5
   6  -2  -9 200.182 10.3945   9
  -6   2   9 229.821 10.7799  16
   6   2  -9 198.041 9.05203   7
  -6   2   9 214.443 8.99442   8
  -6   2   9 192.813 7.89679  12
  -6   2   9 212.974 10.9312   5
   6   2  -9 194.422 8.54487  15
   6   2  -9 194.713 9.89631   9
   4  -2  -9 137.931 8.04123   9
  -4  -2   9 158.895 8.21828  16
   4  -2  -9 137.096 7.69327   6
  -4  -2   9 150.050 8.41106   5
  -4  -2   9 131.598 5.69533  12
   4  -2  -9 145.110 7.87608  15
  -4   2   9 137.734 5.60571  12
  -4   2   9 131.475 6.45818   8
   4   2  -9 139.989 7.21604  15
   4   2  -9 127.918 8.06273   9
   4   2  -9 131.043 7.07845   7
  -4   2   9 129.822 8.21484  16
  -2  -2   9 244.058 10.2879   5
   2  -2  -9 223.723 9.97412   9
   2  -2  -9 224.874 10.1875   6
   2  -2  -9 230.770 10.4048  15
  -2  -2   9 231.602 7.24541  12
  -2  -2   9 229.333 9.74504  16
   2   2  -9 236.399 10.0133   7
  -2   2   9 233.130 11.1595  16
   2   2  -9 226.786 10.5517   9
   2   2  -9 245.846 10.5320  15
  -2   2   9 229.952 9.24125   8
  -2   2   9 224.326 6.67843  12
   0  -2   9 144.435 4.90267  12
   0  -2  -9 143.274 8.09098  15
   0  -2  -9 154.918 8.86057  11
   0  -2  -9 134.857 7.37686   9
   0  -2  -9 132.602 7.67149   6
   0   2   9 141.913 7.28633  13
   0   2  -9 187.192 9.05050   7
   0   2  -9 150.154 8.85172  15
   0   2  -9 142.473 8.59692   9
  -2  -2  -9 122.192 7.81995  15
   2  -2   9 134.150 5.22839  12
  -2  -2  -9 119.680 8.24426   1
  -2  -2  -9 148.256 9.63086  11
   2   2   9 130.930 4.23687  12
  -2   2  -9 120.598 8.22728   7
   4  -2   9 115.518 9.33446   4
  -4  -2  -9 112.758 8.98886   1
   4  -2   9 107.185 5.58771  12
  -4  -2  -9 113.673 8.87463  11
   4   2   9 121.214 5.25748  12
 -11  -3   9 33.3630 6.42708   5
 -11  -3   9 37.4960 4.94872   8
  11  -3  -9 29.6910 5.14713   9
  11   3  -9 33.0809 6.05857   4
 -11   3   9 27.8695 5.34972   5
  11   3  -9 21.1056 4.08310   7
 -11   3   9 42.5081 5.94112   8
   9  -3  -9 1000.16 29.5598  15
   9  -3  -9 1024.22 31.8600   9
  -9  -3   9 970.467 31.5382  16
  -9  -3   9 954.419 32.3037   5
  -9   3   9 978.972 31.3519   5
  -9   3   9 963.080 30.7190  16
   9   3  -9 910.732 29.3059   7
  -9   3   9 971.474 28.1483  12
  -9   3   9 997.223 28.6495   8
   9   3  -9 991.741 31.7307   4
   7  -3  -9 33.1363 4.56817  15
   7  -3  -9 34.7409 5.12628   9
  -7  -3   9 30.4918 3.61987  12
  -7  -3   9 42.4742 6.12772   5
  -7  -3   9 37.7406 5.42349  16
  -7   3   9 28.0199 4.98777   5
  -7   3   9 31.9945 4.89482  16
   7   3  -9 36.5272 4.27658   7
  -7   3   9 29.8240 3.43330  12
   7   3  -9 28.4801 4.32813   9
  -7   3   9 33.0266 3.98892   8
  -5  -3   9 1570.06 43.7246  16
   5  -3  -9 1647.41 43.8719  15
  -5  -3   9 1577.22 44.1631   5
  -5  -3   9 1575.54 40.7765  12
   5  -3  -9 1606.54 44.4974   9
   5  -3  -9 1614.10 43.4056   6
   5   3  -9 1666.18 44.6042   9
   5   3  -9 1589.61 41.9325  15
   5   3  -9 1552.35 42.8705   7
  -5   3   9 1638.56 45.1216  16
  -5   3   9 1661.85 40.8509  12
  -5   3   9 1642.86 42.1329   8
  -3  -3   9 109.760 6.40067  16
  -3  -3   9 120.038 5.09489  12
   3  -3  -9 118.535 7.21542  15
   3  -3  -9 112.971 7.15170   6
  -3  -3   9 115.397 6.70190   5
   3  -3  -9 109.239 6.95345   9
   3   3  -9 118.987 7.61399   9
  -3   3   9 111.565 7.89841  16
   3   3  -9 115.710 6.86239   7
  -3   3   9 111.583 4.70400  12
  -3   3   9 108.170 5.70762  13
   3   3  -9 101.972 6.21289  15
  -3   3   9 119.098 6.60801   8
   1  -3  -9 1538.09 42.2131   6
  -1  -3   9 1560.02 37.9526  12
   1  -3  -9 1497.77 41.2471   9
   1  -3  -9 1551.87 42.2364  15
   1   3  -9 1598.59 42.5939  15
   1   3  -9 1550.88 43.2394   9
  -1   3   9 1546.46 40.7308  13
  -1   3   9 1543.09 36.9352  12
   1   3  -9 1520.94 41.8854   7
  -1  -3  -9 152.741 8.45895  15
  -1  -3  -9 155.546 9.81011  11
   1  -3   9 162.132 5.91482  12
   1  -3   9 145.022 8.89348   2
  -1  -3  -9 139.532 8.18825   6
  -1   3  -9 152.693 9.13303   7
   1   3   9 149.815 8.21669  13
   1   3   9 148.865 4.68238  12
   3  -3   9 833.477 22.7890  12
  -3  -3  -9 893.129 29.7909  11
  -3   3  -9 776.903 27.0365   7
   3   3   9 846.131 21.8503  12
  10  -4  -9 146.598 9.31135  15
  10  -4  -9 138.866 10.4244   9
 -10  -4   9 145.320 11.3471   5
  10   4  -9 131.491 10.0601   4
  10   4  -9 131.211 9.03767   7
 -10   4   9 132.139 9.67821   5
 -10   4   9 133.055 8.87944   8
   8  -4  -9 274.347 12.3228  15
  -8  -4   9 245.370 13.0017   5
  -8  -4   9 249.415 12.6241  16
  -8  -4   9 241.652 10.3278  12
   8  -4  -9 280.995 13.5696   9
   8   4  -9 243.023 11.6923   9
  -8   4   9 255.916 10.4145  12
  -8   4   9 244.278 12.3056  16
   8   4  -9 252.422 11.6852   7
  -8   4   9 226.854 12.6090   5
  -8   4   9 247.410 11.1207   8
   6  -4  -9 409.399 14.9826   6
  -6  -4   9 379.205 15.4999  16
  -6  -4   9 387.566 13.3161  12
   6  -4  -9 421.743 15.5096  15
  -6  -4   9 392.220 16.1977   5
   6  -4  -9 385.080 15.7576   9
  -6   4   9 422.226 14.5895   8
   6   4  -9 383.108 15.2724   9
  -6   4   9 384.521 16.5335   5
  -6   4   9 399.671 16.2169  16
  -6   4   9 377.658 13.0305  12
   6   4  -9 408.731 15.0509   7
  -4  -4   9 225.868 10.0032  16
   4  -4  -9 217.059 10.3879  15
  -4  -4   9 236.094 10.7849   5
   4  -4  -9 215.782 10.3753   9
  -4  -4   9 217.939 8.31508  12
   4  -4  -9 220.506 10.5420   6
  -4   4   9 212.036 9.30759   8
  -4   4   9 217.857 8.07704  12
   4   4  -9 220.898 10.2630   7
   4   4  -9 213.849 9.28435  15
   4   4  -9 227.243 10.7443   9
  -4   4   9 214.705 11.2201  16
  -4   4   9 204.296 8.56812  13
   2  -4  -9 397.465 14.4178   9
   2  -4  -9 416.972 15.2455  15
   2  -4  -9 394.987 15.2796   6
  -2  -4   9 392.180 12.0710  12
  -2   4   9 404.706 11.6352  12
   2   4  -9 405.851 16.0446   9
   2   4  -9 382.789 14.4489  15
   2   4  -9 391.714 14.6738   7
  -2   4   9 375.997 13.5963  13
   0  -4  -9 156.508 8.64413  15
   0  -4  -9 164.162 9.03438   6
   0  -4   9 154.831 9.37822   2
   0  -4  -9 145.414 9.62473  11
   0  -4   9 167.770 6.37589  12
   0   4   9 144.245 8.07154  13
   0   4   9 152.367 5.39978  12
   0   4  -9 148.505 8.91734   7
  -2  -4  -9 131.200 7.78204  15
  -2  -4  -9 121.974 9.63598  11
   2  -4   9 124.306 5.98571  12
  -2   4  -9 135.086 8.83932   7
   2   4   9 109.657 7.11743   3
   2   4   9 117.930 4.96056  12
   2   4   9 114.012 7.47065  13
   4  -4   9 68.9696 7.88386   4
   4  -4   9 103.562 6.02807  12
  -4  -4  -9 101.102 8.85467  11
   4   4   9 98.1371 5.09929  12
  -4   4  -9 89.8990 7.52433   7
  11  -5  -9 455.109 18.0032  15
  11  -5  -9 447.686 19.6603   9
 -11  -5   9 409.843 20.0328   5
 -11   5   9 459.461 17.1509   8
  11   5  -9 461.420 18.6279   7
  11   5  -9 440.008 19.9123   4
   9  -5  -9 377.867 15.6647  15
   9  -5  -9 377.914 16.7517   9
  -9  -5   9 335.317 17.0739   5
  -9   5   9 348.935 15.7011   5
  -9   5   9 359.563 14.5491   8
   9   5  -9 350.083 15.2807   7
  -9   5   9 337.768 15.0326  16
   7  -5  -9 888.400 28.7100   9
   7  -5  -9 851.896 26.0459   6
  -7  -5   9 841.512 25.0818  12
   7  -5  -9 887.341 27.6003  15
  -7  -5   9 823.619 27.7747  16
  -7  -5   9 865.575 28.7826   5
   7   5  -9 842.619 27.3518   7
  -7   5   9 847.366 28.6586   5
  -7   5   9 879.029 28.1985  16
   7   5  -9 861.949 26.6600   9
  -7   5   9 885.616 26.1284   8
  -7   5   9 869.020 25.0660  12
   5  -5  -9 435.995 17.0605   9
   5  -5  -9 418.652 16.0330   6
  -5  -5   9 447.029 16.6520  16
   5  -5  -9 441.984 16.8260  15
  -5  -5   9 462.024 14.6995  12
  -5  -5   9 457.933 17.2218   5
  -5   5   9 420.536 14.5958  13
  -5   5   9 442.588 17.6204  16
  -5   5   9 440.879 15.6098   8
  -5   5   9 452.319 14.4484  12
   5   5  -9 475.801 17.2982   9
   5   5  -9 456.673 16.7759   7
  -3  -5   9 788.882 22.1775  12
   3  -5  -9 783.958 25.1962   6
   3  -5  -9 815.511 25.2658  15
   3  -5  -9 775.126 24.4905   9
  -3  -5   9 781.690 25.1957   2
  -3   5   9 801.190 24.0296   8
  -3   5   9 807.220 21.7535  12
  -3   5   9 780.850 23.3507  13
   3   5  -9 766.348 24.6438   7
   3   5  -9 816.568 25.9713   9
  -1  -5   9 199.545 11.0044   2
  -1  -5   9 215.038 8.12233  12
   1  -5  -9 205.732 9.92437  15
   1  -5  -9 214.754 10.8800   6
   1   5  -9 201.610 10.2083   7
  -1   5   9 208.864 9.80194  13
  -1   5   9 200.277 7.33299  12
   1  -5   9 406.819 16.4831   2
  -1  -5  -9 432.816 15.9495  15
  -1  -5  -9 436.357 18.5824  11
  -1  -5  -9 404.600 16.2846   6
   1  -5   9 437.761 13.7001  12
   1   5   9 426.686 14.7893   3
  -1   5  -9 440.687 17.3340   7
   1   5   9 423.851 12.5993  12
   1   5   9 401.540 15.9180  13
   3  -5   9 104.603 6.36465  12
  -3  -5  -9 98.6062 8.75281  11
   3   5   9 108.170 7.58938   3
   3   5   9 107.556 5.38523  12
  -3   5  -9 111.919 8.33427   7
  10  -6  -9 205.833 12.6743   9
  10  -6  -9 193.766 11.5148  15
 -10  -6   9 187.318 13.3205   5
  10   6  -9 176.574 10.6599   7
 -10   6   9 207.723 10.7988   8
   8  -6  -9 178.559 10.7337  15
  -8  -6   9 152.996 11.1332   5
   8  -6  -9 179.252 11.0574   9
  -8  -6   9 164.034 10.7928  16
  -8   6   9 161.200 9.25876   8
  -8   6   9 168.444 10.1855  16
  -8   6   9 163.358 8.43771  12
  -8   6   9 168.313 10.7911   5
   8   6  -9 165.791 10.1062   7
  -6  -6   9 136.615 7.42486  12
   6  -6  -9 148.617 9.23718   9
  -6  -6   9 156.037 9.92074   5
  -6  -6   9 147.542 8.99952   2
  -6  -6   9 134.468 8.85237  16
   6  -6  -9 140.201 8.71936   6
   6  -6  -9 148.581 9.34571  15
   6   6  -9 150.563 9.05696   9
  -6   6   9 144.115 9.52318  16
   6   6  -9 157.041 9.00038   7
  -6   6   9 134.876 8.31771   8
  -6   6   9 149.198 7.53411  12
  -6   6   9 129.374 7.12964  13
   4  -6  -9 359.341 14.4872   9
  -4  -6   9 354.832 12.6449  12
  -4  -6   9 344.957 14.9026   2
   4  -6  -9 378.749 15.2703   6
   4  -6  -9 364.917 14.7550  15
  -4   6   9 364.710 13.3197  13
   4   6  -9 354.294 14.8351   7
  -4   6   9 358.253 13.9920   8
   4   6  -9 351.396 15.0740   9
  -4   6   9 364.433 12.4471  12
  -2  -6   9 84.3238 5.22879  12
   2  -6  -9 82.6201 6.62676  15
   2  -6  -9 76.0222 6.41550   6
  -2  -6   9 69.4977 7.28475   2
  -2   6   9 84.6975 4.97298  12
   2   6  -9 72.9170 6.75425   7
  -2   6   9 77.6440 5.71351  13
   0  -6   9 165.759 10.5082   2
   0  -6  -9 169.622 9.75018   6
   0  -6  -9 153.582 8.52687  15
   0  -6   9 165.137 7.59959  12
   0   6  -9 173.550 10.1433   7
   0   6   9 164.999 6.82351  12
   0   6   9 164.591 8.94681  13
  -2  -6  -9 88.0960 7.27015   6
   2  -6   9 99.7336 8.43451   2
   2  -6   9 93.6902 5.90685  12
  -2  -6  -9 91.2204 9.01122  11
   2   6   9 88.8912 5.14551  12
   2   6   9 84.0678 6.76076   3
  -2   6  -9 99.0542 8.22306   7
  -9  -7   9 30.3681 6.37561   5
   9  -7  -9 29.3620 5.70289  15
   9  -7  -9 24.2038 4.91498   9
  -9   7   9 33.5929 4.94528   8
  -9   7   9 33.2138 5.21068   5
   9   7  -9 38.9225 5.82320   7
  -7  -7   9 600.196 22.6778   5
  -7  -7   9 574.805 21.6171  16
   7  -7  -9 608.248 20.6471   6
   7  -7  -9 624.019 22.7912   9
   7  -7  -9 623.319 22.0517  15
  -7  -7   9 586.160 20.8695   2
  -7   7   9 577.157 19.9521   8
   7   7  -9 631.383 22.1599   7
  -7   7   9 584.170 22.6397   5
   7   7  -9 604.516 20.6112   9
  -7   7   9 585.051 19.3233  12
  -7   7   9 556.696 19.0769  13
  -7   7   9 593.139 22.1117  16
  -5  -7   9 63.5235 5.21797  12
   5  -7  -9 62.7714 6.47446  15
   5  -7  -9 65.0311 6.38629   9
  -5  -7   9 62.9157 6.43115   2
   5  -7  -9 79.9668 7.21444   6
   5   7  -9 60.7247 6.60565   7
  -5   7   9 81.0806 5.49940  12
  -5   7   9 64.1115 6.37983   8
  -5   7   9 69.3276 7.19452  16
   5   7  -9 78.0188 7.11039   9
  -5   7   9 71.6031 5.84729  13
   3  -7  -9 937.859 29.6358   6
   3  -7  -9 952.804 29.0740  15
  -3  -7   9 924.341 29.8558   2
  -3  -7   9 921.372 26.5603  12
   3   7  -9 887.430 29.0261   7
  -3   7   9 954.980 28.3114   8
  -3   7   9 891.905 27.5345  13
  -3   7   9 949.180 26.1875  12
  -1  -7   9 187.437 8.43497  12
   1  -7  -9 180.718 9.37358  15
  -1  -7   9 190.851 11.3963   2
   1  -7  -9 181.664 10.9296   6
  -1   7   9 166.098 9.15000  13
   1   7  -9 178.808 10.0925   7
  -1   7   9 181.967 7.83953  12
   1  -7   9 850.149 24.6801  12
   1  -7   9 813.835 28.1020   2
  -1  -7  -9 851.897 28.1847   6
   1   7   9 863.247 23.8526  12
  -1   7  -9 820.394 28.0647   7
   8  -8  -9 35.0818 5.71660   9
   8  -8  -9 56.2011 6.77448  15
  -8  -8   9 36.7421 6.66330   5
  -8   8   9 38.3700 5.79722   5
   8   8  -9 62.9688 6.94911   7
  -8   8   9 49.3310 6.03493   8
   6  -8  -9 20.0390 4.39281   6
   6  -8  -9 27.8155 5.12689   9
   6  -8  -9 25.6072 5.02828  15
  -6  -8   9 21.6548 3.71369  12
  -6  -8   9 23.6509 4.69310   2
   6   8  -9 25.6789 4.87177   7
  -6   8   9 28.3017 4.03954  12
  -6   8   9 23.0139 4.78512  16
  -6   8   9 29.1958 4.70096   8
   4  -8  -9 164.008 9.85194  15
  -4  -8   9 165.554 8.48331  12
   4  -8  -9 141.490 9.51317   9
  -4  -8   9 177.449 10.8353   2
   4  -8  -9 181.405 10.8623   6
  -4   8   9 174.581 8.40771  12
   4   8  -9 157.573 9.71892   7
  -4   8   9 163.594 9.30000   8
  -4   8   9 149.992 8.91031  13
  -2  -8   9 18.0374 4.90854   2
   2  -8  -9 15.1528 3.58287  15
  -2  -8   9 21.6229 3.56576  12
   2  -8  -9 17.7021 4.59574   6
  -2   8   9 15.5185 3.27049  13
  -2   8   9 18.5908 4.38146   8
  -2   8   9 12.1174 2.53901  12
   2   8  -9 10.6723 3.33589   7
   0  -8   9 132.464 7.31291  12
   0  -8   9 117.224 9.09470   2
   0  -8  -9 119.441 9.33345   6
   0   8  -9 131.582 9.64071   7
   0   8   9 119.760 6.69146  12
   2  -8   9 50.1571 7.19692   2
   7  -9  -9 280.902 12.9977   6
   7  -9  -9 308.001 14.7237  15
   7  -9  -9 293.464 14.6661   9
  -7   9   9 288.286 14.7053   5
  -7   9   9 289.869 13.0864   8
   7   9  -9 261.428 13.6301   7
  -5  -9   9 651.010 21.7451  12
   5  -9  -9 690.882 23.6225   6
   5  -9  -9 655.132 23.3351   9
   5  -9  -9 688.416 23.9843  15
  -5  -9   9 662.873 23.8953   2
  -5   9   9 681.986 22.7526   8
  -5   9   9 656.429 21.5601  12
   5   9  -9 674.056 24.2951   7
  -3  -9   9 140.908 8.07820  12
  -3  -9   9 163.850 11.0165   2
   3  -9  -9 167.825 11.0673   6
   3  -9  -9 164.204 9.67096  15
   3   9  -9 144.124 10.2302   7
  -3   9   9 158.618 9.35796   8
  -3   9   9 154.844 8.25370  12
   1  -9  -9 369.092 16.8867   6
  -1  -9   9 374.249 17.3980   2
  -1  -9   9 361.591 13.9429  12
   1   9  -9 375.837 16.6425   7
  -1   9   9 360.174 13.5278  12
  -6 -10   9 1.47291 3.03244   2
   6 -10  -9 4.62408 3.20374  15
   6 -10  -9 -0.5747 3.24750   6
   6  10  -9 2.73071 3.58637   7
  -6  10   9 0.95438 1.56086  12
  -6  10   9 -1.8440 1.60944   8
  -4 -10   9 49.1244 6.80075   2
   4 -10  -9 44.8655 6.06925   6
   4 -10  -9 40.6443 5.68069  15
  -4  10   9 56.5552 5.35331  12
  -4  10   9 49.8226 6.24630   8
   4  10  -9 40.5036 5.78771   7
  -2 -10   9 5.47923 2.43141  12
  -2 -10   9 10.5298 4.45433   2
   2 -10  -9 8.27177 4.65062   6
  -2  10   9 13.3476 2.93658  12
   2  10  -9 9.94847 4.33863   7
  -2  10   9 12.6073 3.89359   8
 -10   0  10 1295.68 41.3117   5
 -10   0  10 1318.68 37.0055   8
  10   0 -10 1426.23 40.6564   9
  10   0 -10 1311.31 39.8831   4
  -8   0  10 138.169 7.24946  12
  -8   0  10 149.449 7.42396   8
  -8   0  10 141.709 9.60497  16
   8   0 -10 147.335 9.23758   9
   8   0 -10 138.854 7.64060  15
  -8   0  10 151.359 10.5833   5
   6   0 -10 1335.88 38.9358   9
  -6   0  10 1337.76 39.7525   5
  -6   0  10 1311.47 35.2299   8
   6   0 -10 1398.02 37.5283  15
  -6   0  10 1359.54 35.1315  12
  -6   0  10 1330.74 38.9825  16
   4   0 -10 70.4543 5.88706  15
  -4   0  10 70.5035 6.25189   5
  -4   0  10 72.9256 3.86000  12
   4   0 -10 107.219 7.28562   9
  -4   0  10 68.7753 6.19009  16
  -2   0  10 767.253 24.4807   5
  -2   0  10 767.661 18.8896  12
   2   0 -10 740.619 24.0344   9
  -2   0  10 724.047 23.8679  16
   2   0 -10 761.558 24.1125  15
   0   0 -10 45.4022 4.34168   7
   0   0 -10 49.8991 5.62344  15
   0   0 -10 41.0774 4.85161   9
   2   0  10 536.435 13.8325  12
  11  -1 -10 40.2472 5.94306   9
 -11  -1  10 50.1789 7.41210   5
 -11  -1  10 35.0540 4.39586   8
  11  -1 -10 46.7941 5.95637   4
  11   1 -10 51.4882 7.14110   4
  11   1 -10 45.6066 6.13534   9
 -11   1  10 32.6536 6.11849   5
 -11   1  10 45.1628 5.56483   8
   9  -1 -10 107.159 7.28552  15
   9  -1 -10 117.126 8.13265   4
  -9  -1  10 100.256 9.25444   5
  -9  -1  10 113.802 6.93837   8
  -9  -1  10 108.897 6.71367  12
   9  -1 -10 107.748 8.89158   9
  -9  -1  10 104.889 8.77407  16
  -9   1  10 100.402 6.60599   8
  -9   1  10 95.6271 6.33324  12
  -9   1  10 113.633 8.83601  16
   9   1 -10 115.756 8.67773   9
  -9   1  10 110.225 9.32309   5
   7  -1 -10 2.82572 2.39565  15
   7  -1 -10 4.69457 2.97111   9
  -7  -1  10 -0.3958 1.92058  16
  -7  -1  10 2.68183 2.50311   5
  -7  -1  10 3.13665 1.98704   8
  -7  -1  10 1.57141 1.61632  12
  -7   1  10 2.08165 2.77789  16
  -7   1  10 3.68539 2.40837   8
  -7   1  10 -0.0787 3.11352   5
   7   1 -10 0.95800 2.01684   9
   7   1 -10 1.47964 1.89634  15
  -7   1  10 5.12294 1.89066  12
  -5  -1  10 178.960 9.94682  16
  -5  -1  10 196.406 10.6969   5
   5  -1 -10 205.930 9.61590  15
   5  -1 -10 194.107 10.1298   9
  -5   1  10 187.375 10.9144   5
  -5   1  10 192.343 7.40364  12
   5   1 -10 194.354 9.15036  15
   5   1 -10 184.722 8.47314   7
   5   1 -10 196.898 10.1314   9
  -5   1  10 196.927 10.4918  16
  -5   1  10 189.618 8.27839   8
   3  -1 -10 14.0998 3.35260  15
  -3  -1  10 7.49570 3.18090   5
   3  -1 -10 12.6032 3.27496   6
  -3  -1  10 17.2692 3.51740  16
   3  -1 -10 10.3939 2.59234   9
   3   1 -10 7.35742 2.53696   9
  -3   1  10 10.3788 2.42627   8
   3   1 -10 11.8857 2.78260  15
   3   1 -10 11.1662 2.55449   7
  -3   1  10 9.95407 1.48118  12
  -3   1  10 9.54485 2.77976  16
  -3   1  10 12.5734 3.81925   5
   1  -1 -10 37.9820 4.41668   6
   1  -1 -10 40.0774 5.15572  15
   1  -1 -10 39.1126 4.73501   9
  -1  -1  10 38.2132 2.08568  12
   1   1 -10 32.2030 4.22445   7
  -1   1  10 36.2568 1.52728  12
   1   1 -10 44.8235 5.28074   9
  -1   1  10 37.7785 4.93056  16
   1   1 -10 40.4428 4.95564  15
  -1  -1 -10 84.6619 7.12597  15
   1  -1  10 78.7201 3.17177  12
  -1   1 -10 75.0927 6.06264   7
  -1   1 -10 56.7608 6.56384  15
   3  -1  10 2.53517 3.46280   4
   3  -1  10 1.14880 1.29336  12
   3   1  10 0.71245 1.11922  12
 -10  -2  10 56.5878 7.81880   5
  10  -2 -10 67.0593 7.99000   9
  10   2 -10 67.9364 6.89523   9
 -10   2  10 54.2773 5.93862   8
  10   2 -10 67.8681 7.73106   4
 -10   2  10 66.3102 7.86652   5
  -8  -2  10 599.984 22.9274   5
   8  -2 -10 626.734 20.8293  15
  -8  -2  10 582.214 18.7974  12
  -8  -2  10 592.437 22.1691  16
   8  -2 -10 609.499 22.2659   9
  -8   2  10 584.430 21.8500  16
   8   2 -10 614.587 21.7846   9
  -8   2  10 600.657 19.4502   8
  -8   2  10 590.434 22.5473   5
   8   2 -10 582.110 19.9063   7
  -8   2  10 610.732 18.9360  12
   6  -2 -10 183.836 9.80581  15
   6  -2 -10 180.494 10.3804   9
  -6  -2  10 171.514 10.6079   5
  -6  -2  10 182.763 10.2578  16
  -6  -2  10 203.020 8.15085  12
  -6   2  10 184.885 10.6189  16
  -6   2  10 180.585 7.66064  12
  -6   2  10 196.635 8.86793   8
   6   2 -10 185.372 8.80266  15
  -6   2  10 206.295 11.5835   5
   6   2 -10 185.143 10.0166   9
   6   2 -10 173.598 8.73924   7
   4  -2 -10 1431.47 38.9464   6
  -4  -2  10 1425.56 35.7893  12
  -4  -2  10 1416.85 39.8227   5
   4  -2 -10 1425.68 40.1073   9
   4  -2 -10 1446.48 39.6340  15
  -4  -2  10 1371.86 39.2303  16
   4   2 -10 1375.05 38.5670  15
   4   2 -10 1421.78 38.4417   7
  -4   2  10 1368.23 40.4305  16
  -4   2  10 1422.20 35.4626  12
   4   2 -10 1444.24 40.3915   9
  -4   2  10 1407.25 37.3703   8
  -4   2  10 1365.18 41.1725   5
   2  -2 -10 328.745 13.4048   6
   2  -2 -10 348.156 13.9180  15
  -2  -2  10 337.514 10.0135  12
   2  -2 -10 326.569 13.4689   9
   2   2 -10 363.207 13.9813  15
  -2   2  10 359.262 12.5130   8
   2   2 -10 326.304 13.0054   7
  -2   2  10 329.089 14.3765  16
  -2   2  10 335.950 9.45267  12
   2   2 -10 347.200 14.3866   9
   0  -2 -10 1238.71 36.1970  15
   0  -2 -10 1180.54 34.8428   6
   0  -2  10 1263.75 35.9572   2
   0  -2  10 1264.97 30.5496  12
   0   2 -10 1254.21 35.8401   7
   0   2 -10 1231.20 36.6313  15
   2  -2  10 167.670 6.17703  12
  -2  -2 -10 182.530 10.2699  15
  -2   2 -10 149.491 9.65378   7
   2   2  10 169.262 5.23833  12
 -11  -3  10 4.56354 4.16666   5
  11  -3 -10 0.79736 3.41396   9
  11   3 -10 1.42268 2.21697   4
 -11   3  10 0.47215 2.46804   5
 -11   3  10 1.07351 3.30231   8
  -9  -3  10 18.1093 3.24104  12
   9  -3 -10 18.6940 4.19596  15
  -9  -3  10 14.1537 4.01524  16
  -9  -3  10 12.2973 4.04340   5
   9  -3 -10 16.8616 3.95119   9
  -9   3  10 20.4406 4.10811   8
  -9   3  10 17.2688 4.81788   5
  -9   3  10 16.4002 4.27049  16
   9   3 -10 18.0100 3.67152   7
  -9   3  10 19.4907 3.28160  12
   9   3 -10 20.1711 4.24887   9
   7  -3 -10 16.3332 3.40100  15
   7  -3 -10 11.0887 3.61967   9
  -7  -3  10 10.9434 3.58036   5
  -7  -3  10 13.1098 3.50812  16
  -7  -3  10 17.0598 2.99666  12
  -7   3  10 16.5831 2.90534  12
   7   3 -10 13.2062 2.87895   7
  -7   3  10 14.1114 3.79138  16
  -7   3  10 15.0174 4.38761   5
  -7   3  10 13.8044 3.63497   8
   7   3 -10 7.92645 3.42314   9
   5  -3 -10 87.3177 7.17147   9
  -5  -3  10 108.686 7.97420   5
  -5  -3  10 88.3197 5.13631  12
   5  -3 -10 93.9055 7.10585   6
   5  -3 -10 90.8092 7.09518  15
  -5  -3  10 102.195 7.30481  16
  -5   3  10 95.4587 6.30696   8
  -5   3  10 87.5543 7.58424   5
   5   3 -10 85.5825 6.11562   7
  -5   3  10 89.1476 5.15648  12
   5   3 -10 93.1397 6.03235  15
   5   3 -10 87.3834 6.85622   9
  -5   3  10 85.5776 7.00544  16
  -3  -3  10 0.85573 1.19418  12
   3  -3 -10 -3.2350 1.99641   6
   3  -3 -10 2.04978 1.65463   9
   3  -3 -10 20.3820 3.90574  15
   3   3 -10 6.14744 2.90338   9
  -3   3  10 1.20728 1.13903  12
  -3   3  10 1.65336 2.23972   8
   3   3 -10 1.25037 1.57141   7
  -3   3  10 -0.1854 1.70807  16
   3   3 -10 -1.1733 2.00293  15
   1  -3 -10 22.9892 4.15772  15
  -1  -3  10 24.3900 2.49020  12
  -1  -3  10 23.8665 4.07191   2
   1  -3 -10 24.3578 4.39487   6
  -1   3  10 21.3034 1.81795  12
   1   3 -10 18.9582 3.82065   9
   1   3 -10 25.6285 4.54355  15
   1   3 -10 24.9031 3.95210   7
  -1  -3 -10 43.7011 5.42194  15
   1  -3  10 52.0092 6.28140   2
   1  -3  10 46.0016 3.29827  12
  -1  -3 -10 50.5058 6.60217  11
  -1   3 -10 46.8968 5.33387   7
   1   3  10 43.9521 2.33193  12
  -3  -3 -10 3.14012 3.16323  11
   3  -3  10 -0.5403 1.47724  12
  -3   3 -10 -1.6923 2.76028   7
   3   3  10 -0.5730 1.00454  12
   3   3  10 0.53878 2.72618   3
 -10  -4  10 148.722 11.6735   5
  10  -4 -10 128.917 10.3620   9
  10   4 -10 134.971 8.98350   7
 -10   4  10 137.565 9.08819   8
 -10   4  10 140.766 10.3700   5
  -8  -4  10 1251.60 39.3297   5
  -8  -4  10 1243.49 38.4980  16
   8  -4 -10 1298.55 39.0273   9
   8  -4 -10 1360.25 37.9385  15
  -8  -4  10 1252.31 34.9636  12
  -8   4  10 1271.84 34.8393  12
   8   4 -10 1255.16 37.0929   7
   8   4 -10 1261.16 37.2248   9
  -8   4  10 1264.91 35.5949   8
  -8   4  10 1206.34 37.8325  16
  -8   4  10 1246.41 38.8942   5
  -6  -4  10 59.9108 4.72447  12
  -6  -4  10 58.3152 6.26763  16
  -6  -4  10 77.1417 7.41797   5
   6  -4 -10 69.9333 6.73159   6
   6  -4 -10 66.3803 6.72948   9
   6  -4 -10 68.6415 6.58354  15
  -6   4  10 59.3659 7.24550   5
  -6   4  10 75.2967 6.19864   8
  -6   4  10 66.2485 6.72479  16
   6   4 -10 57.0928 6.46414   9
  -6   4  10 64.8963 4.68878  12
   6   4 -10 63.3780 5.98841   7
  -4  -4  10 1180.28 34.1406   5
   4  -4 -10 1158.34 34.2055   6
  -4  -4  10 1172.12 30.8938  12
   4  -4 -10 1180.83 34.4619  15
   4  -4 -10 1178.31 34.5523   9
  -4   4  10 1146.88 35.6640  16
   4   4 -10 1193.31 35.2466   9
  -4   4  10 1153.76 32.7258   8
   4   4 -10 1154.72 32.6682  15
   4   4 -10 1117.37 33.4806   7
  -4   4  10 1176.65 30.5861  12
   2  -4 -10 12.0312 2.87633   9
  -2  -4  10 18.6172 3.88545   2
   2  -4 -10 11.7580 3.17398   6
   2  -4 -10 13.7810 3.53143  15
  -2  -4  10 7.17614 2.10734  12
  -2   4  10 10.1466 2.70343   8
   2   4 -10 13.6394 3.46990   9
   2   4 -10 6.62508 2.89521   7
   2   4 -10 11.9987 3.57024  15
  -2   4  10 16.1303 2.03124  12
   0  -4 -10 743.250 24.5391   6
   0  -4  10 797.489 25.3999   2
   0  -4 -10 725.969 24.2218  15
   0  -4  10 756.051 20.6246  12
   0   4  10 712.881 23.4321  13
   0   4 -10 766.624 25.1025   7
   0   4  10 727.649 19.2836  12
   2  -4  10 19.7142 2.77673  12
  -2  -4 -10 12.5697 3.70280  11
  -2  -4 -10 17.4658 3.88714  15
  -2   4 -10 17.2484 4.20201   7
   2   4  10 18.0366 2.10948  12
   9  -5 -10 52.8228 6.22897  15
   9  -5 -10 55.6982 7.34427   9
  -9  -5  10 45.2158 7.12046   5
   9   5 -10 57.9454 6.83255   7
  -9   5  10 46.0083 4.79104  12
  -9   5  10 47.9770 6.69807   5
  -9   5  10 56.3343 6.35785   8
   7  -5 -10 254.472 13.0413   9
   7  -5 -10 239.171 11.5697   6
  -7  -5  10 246.903 12.7865  16
  -7  -5  10 262.520 10.7623  12
  -7  -5  10 243.248 13.3604   5
   7  -5 -10 263.553 12.6207  15
  -7   5  10 247.013 13.3101   5
   7   5 -10 231.139 11.9599   7
  -7   5  10 250.884 11.1794   8
   7   5 -10 258.983 12.2095   9
  -7   5  10 255.312 10.4971  12
  -7   5  10 238.272 12.5842  16
   5  -5 -10 91.8947 7.62185   6
   5  -5 -10 80.6568 7.16278   9
  -5  -5  10 77.8628 7.35248   5
   5  -5 -10 77.3867 6.92873  15
  -5  -5  10 80.7767 5.35003  12
   5   5 -10 78.4919 7.38629   9
  -5   5  10 78.8661 7.34743  16
   5   5 -10 78.7983 6.90250   7
  -5   5  10 78.7175 6.48345   8
  -5   5  10 84.2401 5.16415  12
   3  -5 -10 301.627 13.6648   6
   3  -5 -10 264.728 12.1781   9
   3  -5 -10 276.144 12.8362  15
  -3  -5  10 280.311 13.4387   2
  -3  -5  10 283.609 10.3714  12
  -3   5  10 308.035 12.6429   8
   3   5 -10 288.277 13.4907   9
  -3   5  10 273.666 11.2092  13
  -3   5  10 297.521 10.1922  12
  -3   5  10 274.075 14.3037  16
   3   5 -10 280.069 12.6596   7
  -1  -5  10 170.424 7.49767  12
   1  -5 -10 158.025 9.39610  15
   1  -5 -10 166.886 10.1103   6
  -1  -5  10 174.602 10.6528   2
  -1   5  10 165.855 6.49914  12
   1   5 -10 178.081 10.1680   7
  -1   5  10 154.755 8.48076  13
   1  -5  10 85.2080 8.05298   2
  -1  -5 -10 80.2583 6.68293  15
  -1  -5 -10 83.4424 7.22494   6
   1  -5  10 83.6492 5.32279  12
  -1   5 -10 93.9090 8.09863   7
   1   5  10 77.5969 4.15191  12
  10  -6 -10 456.415 19.8374   9
  10  -6 -10 459.927 18.7985  15
 -10  -6  10 438.363 20.1890   5
 -10   6  10 454.060 17.5528   8
  10   6 -10 459.562 18.6915   7
   8  -6 -10 41.5756 6.23421  15
   8  -6 -10 37.8982 6.17759   9
  -8  -6  10 33.0802 5.65547   5
  -8  -6  10 28.7398 4.63352   2
  -8   6  10 49.5989 5.46036   8
  -8   6  10 43.2355 4.64184  12
  -8   6  10 35.9137 6.24110   5
   8   6 -10 37.9520 5.26931   7
   8   6 -10 28.0788 4.62328   9
  -6  -6  10 957.168 30.6818   5
  -6  -6  10 996.038 28.1959  12
   6  -6 -10 1003.28 30.9804  15
   6  -6 -10 936.711 29.8741   6
  -6  -6  10 968.213 30.3089   2
  -6  -6  10 931.661 30.1574  16
   6  -6 -10 979.751 31.4774   9
  -6   6  10 980.998 29.3295   8
   6   6 -10 963.811 30.5284   9
  -6   6  10 1005.53 28.0694  12
  -6   6  10 921.830 31.5899  16
   6   6 -10 984.941 30.7950   7
  -4  -6  10 112.317 8.74804   2
   4  -6 -10 119.891 7.86064   9
   4  -6 -10 123.618 8.64898  15
   4  -6 -10 113.971 8.85317   6
  -4  -6  10 109.161 6.38025  12
  -4   6  10 117.760 6.32108  12
   4   6 -10 118.991 8.99152   9
  -4   6  10 115.379 7.18992  13
  -4   6  10 142.011 8.56747   8
  -4   6  10 119.446 9.42245  16
   4   6 -10 121.383 8.51871   7
  -2  -6  10 1167.54 35.7304   2
   2  -6 -10 1200.32 35.6892   6
   2  -6 -10 1196.98 34.7225  15
  -2  -6  10 1146.00 31.4999  12
  -2   6  10 1176.86 30.8912  12
   2   6 -10 1138.49 34.9402   7
  -2   6  10 1165.11 33.9977   8
  -2   6  10 1099.22 33.0124  13
   0  -6  10 132.940 9.81600   2
   0  -6 -10 118.998 7.96749  15
   0  -6 -10 121.008 8.32774   6
   0  -6  10 118.458 6.50698  12
   0   6 -10 119.551 8.89126   7
   0   6  10 113.694 5.53573  12
   9  -7 -10 10.2116 4.24962  15
  -9  -7  10 11.3205 4.21045   5
   9  -7 -10 19.2525 5.02525   9
  -9   7  10 14.6198 3.43269   8
   9   7 -10 19.1375 4.65056   7
   7  -7 -10 66.0181 7.48422   9
  -7  -7  10 57.6284 6.83983   5
  -7  -7  10 63.0877 6.47341   2
   7  -7 -10 67.1747 7.50666  15
  -7  -7  10 66.8272 5.61359  12
   7  -7 -10 61.6847 6.24183   6
  -7   7  10 61.3545 7.45589   5
   7   7 -10 63.2662 6.89762   9
  -7   7  10 60.6484 6.55894   8
   7   7 -10 58.2062 6.85053   7
  -7   7  10 67.9483 5.44394  12
  -5  -7  10 6.28820 2.45479  12
   5  -7 -10 0.42454 3.40080   6
   5  -7 -10 0.22721 2.57135  15
  -5  -7  10 0.31838 3.29547   2
   5  -7 -10 2.57492 2.00251   9
  -5   7  10 3.52528 3.19868   8
  -5   7  10 3.77427 2.57538  13
   5   7 -10 3.46728 3.04970   7
  -5   7  10 0.25372 1.68834  12
   3  -7 -10 39.3186 6.25077   6
  -3  -7  10 35.7524 4.07439  12
  -3  -7  10 29.5065 5.48703   2
   3  -7 -10 33.6917 5.05865  15
  -3   7  10 33.3290 3.71397  12
  -3   7  10 32.8486 4.25366  13
   3   7 -10 34.7465 5.13401   7
  -3   7  10 38.8497 5.09787   8
   1  -7 -10 6.92438 3.66627   6
   1  -7 -10 5.59252 2.39853  15
  -1  -7  10 9.46961 2.64608  12
  -1  -7  10 5.94912 4.28023   2
   1   7 -10 12.4734 4.09890   7
  -1   7  10 9.01755 2.21839  12
   1  -7  10 3.22380 2.13469  12
  -1  -7 -10 -0.3027 2.77160   6
   1  -7  10 2.46459 3.06512   2
   1   7  10 3.86292 1.79585  12
  -1   7 -10 5.54474 3.56862   7
   8  -8 -10 244.865 13.1025  15
   8   8 -10 242.681 13.0933   7
  -8   8  10 231.121 13.3765   5
  -8   8  10 232.093 11.3790   8
   6  -8 -10 493.836 18.6974   6
  -6  -8  10 451.232 18.6131   2
  -6  -8  10 461.120 16.9446  12
   6  -8 -10 507.438 19.9722   9
   6  -8 -10 507.106 19.7601  15
  -6   8  10 466.621 18.0323   8
  -6   8  10 481.463 17.0358  12
   6   8 -10 468.132 19.2625   7
  -4  -8  10 142.988 10.4188   2
   4  -8 -10 154.648 10.6414   6
   4  -8 -10 164.982 9.85438  15
  -4  -8  10 143.887 8.12449  12
   4   8 -10 146.722 10.0188   7
  -4   8  10 146.246 8.92004   8
  -4   8  10 149.215 7.92129  12
   2  -8 -10 433.461 18.1073   6
  -2  -8  10 423.116 14.8993  12
   2  -8 -10 402.199 16.3159  15
  -2  -8  10 392.079 17.4948   2
   2   8 -10 399.380 17.2912   7
  -2   8  10 388.085 16.1180   8
  -2   8  10 369.718 13.7324  12
   0  -8 -10 73.3905 8.05327   6
   0  -8  10 56.1436 7.34254   2
   0  -8  10 64.4975 5.36262  12
   0   8 -10 71.6147 7.61364   7
  -7  -9  10 -2.9948 2.68679   2
   7  -9 -10 2.67578 2.74685   9
   7  -9 -10 6.11979 4.24201   6
   7  -9 -10 1.27597 3.34960  15
   7   9 -10 5.19397 3.80953   7
  -7   9  10 6.89281 2.61543  12
  -7   9  10 3.10469 3.21679   5
  -5  -9  10 5.61300 2.96010   2
   5  -9 -10 6.28861 4.15758   6
  -5  -9  10 8.20923 2.70951  12
   5  -9 -10 2.04235 2.98941  15
  -5   9  10 4.25761 2.26570  12
  -5   9  10 1.00477 2.84628   8
   5   9 -10 2.46319 2.35022   7
   3  -9 -10 5.12702 4.08963   6
   3  -9 -10 6.02410 2.82163  15
  -3  -9  10 1.94839 3.60742   2
  -3  -9  10 5.56685 2.43161  12
  -3   9  10 1.04533 2.85436   8
   3   9 -10 5.22441 3.77103   7
  -3   9  10 6.71034 2.54810  12
 -10   0  11 3.39636 2.90108   8
  10   0 -11 1.45769 3.16976   9
 -10   0  11 0.35983 2.69002   5
  -8   0  11 0.98144 2.19019  16
  -8   0  11 0.42707 1.72005  12
  -8   0  11 -0.1004 2.21963   8
   8   0 -11 -0.7218 2.80332   9
  -8   0  11 3.04839 2.92461   5
   8   0 -11 -0.1617 2.22111  15
   6   0 -11 -0.3826 2.51318   9
  -6   0  11 0.72757 3.36692   5
   6   0 -11 2.80066 2.50273  15
  -6   0  11 -1.4714 2.52163  16
  -4   0  11 2.62872 1.23945  12
   4   0 -11 1.28870 2.02978   9
  -4   0  11 -2.0721 2.67517   5
   4   0 -11 0.24611 1.72211  15
  -4   0  11 -0.9158 2.24515  16
   2   0 -11 7.24380 3.11361  15
   2   0 -11 1.54871 2.46768   9
  -2   0  11 3.72987 2.34051   5
  -2   0  11 1.98537 0.98335  12
   0   0 -11 0.13746 1.97388  15
 -11  -1  11 94.4193 10.4787   5
  11   1 -11 96.9753 7.89970   9
 -11   1  11 92.2609 9.93055   5
 -11   1  11 84.8749 7.25572   8
   9  -1 -11 713.980 25.4919   9
   9  -1 -11 708.672 23.0282  15
  -9  -1  11 703.979 26.3953   5
  -9  -1  11 674.851 21.6883  12
  -9   1  11 673.601 21.7926   8
  -9   1  11 675.037 25.4632   5
  -9   1  11 676.086 21.6345  12
   9   1 -11 702.100 24.9615   9
  -7  -1  11 168.697 7.93488  12
  -7  -1  11 168.943 10.7431   5
   7  -1 -11 175.240 9.65076  15
   7  -1 -11 160.466 10.4453   9
  -7  -1  11 147.647 9.64576  16
   7   1 -11 161.249 10.4795   9
  -7   1  11 174.090 10.8742   5
   7   1 -11 165.689 8.89859  15
  -7   1  11 184.091 8.09141  12
  -7   1  11 162.283 10.0810  16
  -7   1  11 163.404 8.27477   8
   5  -1 -11 736.005 23.4817  15
   5  -1 -11 678.458 24.1366   9
  -5  -1  11 721.185 20.1309  12
  -5  -1  11 683.499 23.8073  16
  -5  -1  11 713.994 24.6914   5
  -5   1  11 697.026 25.1126   5
  -5   1  11 679.800 24.2395  16
  -5   1  11 706.064 19.9686  12
  -5   1  11 697.106 20.9405   8
   5   1 -11 718.224 23.0557  15
   5   1 -11 731.203 24.6897   9
  -3  -1  11 252.027 11.9002  16
   3  -1 -11 269.129 12.5867  15
  -3  -1  11 270.930 8.66278  12
   3  -1 -11 251.568 12.1103   9
  -3  -1  11 258.890 12.5366   5
  -3   1  11 259.776 12.7398  16
   3   1 -11 263.865 12.7247   9
  -3   1  11 271.336 8.40774  12
  -3   1  11 260.918 13.3040   5
   3   1 -11 274.931 12.3713  15
   1  -1 -11 489.984 18.7679  15
  -1  -1  11 501.787 13.0139  12
   1  -1 -11 466.290 17.6634   9
   1   1 -11 511.632 19.0166   9
   1   1 -11 501.545 18.6395  15
  -1   1  11 466.678 12.2389  12
   1  -1  11 288.970 8.41039  12
  -1  -1 -11 303.098 14.2268  15
 -10  -2  11 164.058 12.6259   5
  10  -2 -11 200.209 11.9526   9
 -10   2  11 181.260 12.1416   5
 -10   2  11 183.054 9.91460   8
  10   2 -11 173.135 10.4525   9
  -8  -2  11 288.038 15.2800   5
  -8  -2  11 287.172 11.4975  12
  -8  -2  11 258.572 14.1112  16
   8  -2 -11 302.808 13.4815  15
   8  -2 -11 293.681 14.7115   9
  -8   2  11 291.179 11.8620   8
  -8   2  11 279.413 14.3906  16
  -8   2  11 290.240 11.5119  12
   8   2 -11 292.214 14.1726   9
  -8   2  11 289.749 15.0083   5
  -6  -2  11 233.916 12.1460  16
   6  -2 -11 243.490 11.8601  15
   6  -2 -11 228.178 12.3165   9
  -6  -2  11 238.744 9.49436  12
  -6  -2  11 232.852 12.7886   5
   6   2 -11 231.998 11.1152   7
  -6   2  11 239.054 12.4080  16
   6   2 -11 244.031 12.3839   9
  -6   2  11 232.186 10.2473   8
   6   2 -11 240.425 10.8388  15
  -6   2  11 225.987 13.0692   5
  -6   2  11 244.079 9.33834  12
  -4  -2  11 221.957 8.22431  12
   4  -2 -11 227.821 11.6019   9
  -4  -2  11 233.846 11.5578   5
   4  -2 -11 227.628 11.4618  15
  -4  -2  11 208.964 10.6128  16
  -4   2  11 216.246 7.86709  12
   4   2 -11 221.056 10.8349  15
  -4   2  11 226.000 12.2679   5
   4   2 -11 222.105 11.7443   9
  -4   2  11 215.937 11.6426  16
   4   2 -11 215.585 10.2069   7
  -4   2  11 212.695 9.51082   8
   2  -2 -11 215.494 10.6753   9
   2  -2 -11 223.633 11.4794  15
   2  -2 -11 191.655 10.2932   6
  -2  -2  11 224.720 7.55433  12
   2   2 -11 220.832 10.6105   7
  -2   2  11 216.841 6.86845  12
  -2   2  11 208.287 11.5075  16
   2   2 -11 244.220 11.8247  15
   2   2 -11 242.638 12.0026   9
   0  -2  11 109.397 8.18460   2
   0  -2  11 103.890 4.45245  12
   0  -2 -11 103.451 8.07349  15
   0   2 -11 101.606 7.43793   7
   2  -2  11 102.415 5.16007  12
  -9  -3  11 163.153 12.1238   5
  -9  -3  11 157.176 8.44711  12
   9  -3 -11 158.671 9.92281  15
   9  -3 -11 159.730 11.2944   9
   9   3 -11 151.853 13.3349   7
  -9   3  11 174.717 9.51374   8
  -9   3  11 149.171 8.22346  12
   9   3 -11 171.169 10.7687   9
  -9   3  11 156.812 10.8278   5
   7  -3 -11 849.099 28.3060   9
  -7  -3  11 776.544 27.0143  16
   7  -3 -11 852.558 27.0588  15
  -7  -3  11 802.712 27.8086   5
  -7  -3  11 805.069 23.9294  12
  -7   3  11 778.457 28.2181   5
   7   3 -11 826.985 27.2714   9
  -7   3  11 791.850 27.6646  16
   7   3 -11 786.675 25.3260   7
  -7   3  11 807.136 23.6794  12
  -7   3  11 816.144 24.8258   8
   5  -3 -11 226.001 11.8101   9
   5  -3 -11 204.211 10.3819   6
  -5  -3  11 202.510 10.8640  16
   5  -3 -11 215.674 11.2589  15
  -5  -3  11 211.584 11.5744   5
  -5  -3  11 205.657 8.50120  12
  -5   3  11 221.306 12.4394   5
   5   3 -11 212.097 10.0090  15
  -5   3  11 218.192 12.1958  16
  -5   3  11 203.773 9.71281   8
   5   3 -11 203.374 10.2852   7
  -5   3  11 208.752 8.27748  12
   5   3 -11 208.545 11.2574   9
   3  -3 -11 1030.36 31.0041  15
   3  -3 -11 955.216 30.1370   6
  -3  -3  11 1013.39 26.2746  12
   3  -3 -11 976.474 30.2917   9
   3   3 -11 1003.20 29.9480   7
  -3   3  11 982.493 28.6967   8
   3   3 -11 1026.58 30.1679  15
  -3   3  11 983.580 25.6638  12
  -3   3  11 894.935 31.0993  16
   3   3 -11 1014.65 31.6162   9
  -1  -3  11 118.266 5.30256  12
  -1  -3  11 115.606 8.70623   2
   1  -3 -11 118.595 8.06403  15
   1  -3 -11 130.429 8.41565   6
   1   3 -11 118.080 8.17657   7
  -1   3  11 116.600 7.07594   8
  -1   3  11 118.829 8.82974  16
  -1   3  11 116.183 4.29011  12
  -1  -3 -11 599.950 21.6180  15
   1  -3  11 616.974 16.8757  12
  -1   3 -11 572.509 21.3877   7
  10  -4 -11 4.40938 4.08115   9
 -10  -4  11 6.13592 4.63491   5
  10  -4 -11 -0.0622 3.14630  15
 -10   4  11 -1.1437 2.11928   5
 -10   4  11 1.95234 2.43648   8
   8  -4 -11 61.1566 6.21358  15
  -8  -4  11 50.6001 4.89679  12
   8  -4 -11 54.1907 6.75493   9
  -8  -4  11 54.7688 7.71301   5
   8   4 -11 51.2829 5.96461   7
  -8   4  11 54.7711 5.82798   8
  -8   4  11 59.5187 7.16261   5
   8   4 -11 61.7830 6.28584   9
  -8   4  11 61.2670 5.04966  12
  -6  -4  11 26.0925 3.59872  12
  -6  -4  11 21.4706 5.01273   5
   6  -4 -11 28.2200 4.60147   6
   6  -4 -11 27.7611 4.97565   9
   6  -4 -11 28.6894 4.99142  15
  -6  -4  11 23.9829 4.77466  16
  -6   4  11 23.5689 4.38417   8
  -6   4  11 25.6080 3.43673  12
  -6   4  11 21.3505 4.83441   5
   6   4 -11 23.1618 4.77960   9
  -6   4  11 23.4089 4.66907  16
   6   4 -11 22.9250 4.23416   7
  -4  -4  11 55.5868 4.58164  12
   4  -4 -11 51.3993 5.94711   9
   4  -4 -11 64.8582 6.65751   6
   4  -4 -11 57.3016 5.80757  15
   4   4 -11 60.7067 6.74058   9
   4   4 -11 57.6374 5.85046  15
   4   4 -11 55.9284 6.06726   7
  -4   4  11 57.9363 5.78284   8
  -4   4  11 45.6536 6.06805  16
  -4   4  11 57.6485 3.97419  12
   2  -4 -11 104.803 7.59394  15
  -2  -4  11 98.6031 8.68503   2
  -2  -4  11 103.976 5.36285  12
   2  -4 -11 108.117 8.16076   6
   2   4 -11 105.014 8.74378   9
  -2   4  11 100.747 7.23272   8
   2   4 -11 110.712 7.97248   7
  -2   4  11 99.1091 4.80368  12
  -2   4  11 107.424 8.65027  16
   0  -4  11 46.0381 6.31547   2
   0  -4 -11 36.1074 5.38697  15
   0  -4  11 40.5211 3.59756  12
   0  -4 -11 32.5435 4.76722   6
   0   4  11 33.3271 2.39036  12
   0   4 -11 39.6496 5.24950   7
  -9  -5  11 409.986 19.4167   5
   9  -5 -11 424.511 19.0471   9
   9  -5 -11 440.265 18.1658  15
  -9   5  11 433.892 15.6793  12
  -9   5  11 414.187 16.4339   8
  -9   5  11 400.363 18.7049   5
   9   5 -11 400.399 16.9604   7
   9   5 -11 429.321 17.5116   9
   7  -5 -11 181.830 11.1352   9
  -7  -5  11 166.479 8.54765  12
  -7  -5  11 159.878 11.1129   5
   7  -5 -11 175.838 10.9288  15
  -7   5  11 170.926 9.26154   8
  -7   5  11 166.762 11.7739   5
   7   5 -11 175.492 10.8201   9
  -7   5  11 174.973 8.56209  12
   7   5 -11 170.329 10.1384   7
   5  -5 -11 393.622 16.6592  15
   5  -5 -11 367.973 16.0044   6
  -5  -5  11 426.597 17.0229   2
  -5  -5  11 427.446 14.0962  12
   5  -5 -11 372.961 16.4262   9
   5   5 -11 385.486 15.8966   7
   5   5 -11 387.433 17.0832   9
  -5   5  11 390.303 13.4775  12
  -5   5  11 365.843 14.7457   8
   3  -5 -11 160.805 10.3243   6
  -3  -5  11 173.195 10.4522   2
  -3  -5  11 169.099 7.72006  12
   3  -5 -11 175.440 10.3160  15
  -3   5  11 169.994 7.21517  12
   3   5 -11 166.349 9.71006   7
   3   5 -11 169.443 10.9761   9
  -3   5  11 178.961 9.74035   8
  -1  -5  11 376.713 16.4937   2
   1  -5 -11 361.408 15.5244  15
  -1  -5  11 381.041 12.7483  12
   1  -5 -11 372.129 15.9496   6
  -1   5  11 387.421 15.3099   8
   1   5 -11 353.905 15.9341   7
  -1   5  11 363.787 11.4848  12
  -8  -6  11 -0.3178 3.79200   5
  -8  -6  11 0.76444 2.11868  12
   8  -6 -11 0.11655 3.22525  15
  -8  -6  11 -0.5172 2.56239   2
   8  -6 -11 0.04275 2.79883   9
  -8   6  11 0.16934 1.78354  12
  -8   6  11 0.66253 3.21400   8
  -8   6  11 2.90923 3.43717   5
   8   6 -11 -2.2393 2.46290   7
   8   6 -11 -0.1232 2.84825   9
   6  -6 -11 39.7317 5.57478   9
  -6  -6  11 51.0897 4.87480  12
   6  -6 -11 31.1079 5.36661   6
  -6  -6  11 52.5842 6.53018   2
   6  -6 -11 47.2081 6.50066  15
   6   6 -11 54.8889 6.66577   7
  -6   6  11 37.6719 6.96620   5
  -6   6  11 50.7166 4.58515  12
   6   6 -11 45.2196 5.99798   9
  -6   6  11 44.0790 5.76788   8
   4  -6 -11 47.7130 5.72779   9
  -4  -6  11 31.1766 4.99936   2
  -4  -6  11 42.7327 4.55117  12
   4  -6 -11 49.1067 6.46322   6
   4  -6 -11 48.9081 6.40478  15
  -4   6  11 42.2225 4.28978  12
  -4   6  11 38.5119 5.51751   8
   4   6 -11 41.1971 5.71923   7
  -2  -6  11 17.7651 2.94309  12
   2  -6 -11 18.5890 4.22230  15
  -2  -6  11 26.2379 4.99527   2
   2  -6 -11 17.9919 3.99599   6
  -2   6  11 19.6054 4.26909   8
  -2   6  11 19.6898 2.76352  12
   2   6 -11 16.4306 4.17694   7
   0  -6  11 109.271 9.47555   2
   0  -6 -11 116.709 8.00657  15
   0  -6  11 119.727 6.66604  12
   0  -6 -11 106.245 8.07753   6
   0   6 -11 108.769 8.27070   7
   0   6  11 105.937 5.49159  12
  -7  -7  11 271.354 13.7919   2
  -7  -7  11 257.182 11.6226  12
   7  -7 -11 269.421 12.8868   6
   7  -7 -11 279.468 14.3298   9
   7  -7 -11 274.119 14.4230  15
  -7   7  11 282.124 11.8016  12
  -7   7  11 276.922 15.4090   5
   7   7 -11 279.642 13.4973   9
   7   7 -11 271.079 13.9004   7
  -5  -7  11 625.804 23.5072   2
  -5  -7  11 629.085 20.4131  12
   5  -7 -11 624.311 22.9721  15
   5  -7 -11 625.817 22.8362   9
   5  -7 -11 634.707 23.2772   6
  -5   7  11 628.300 19.9496  12
  -5   7  11 625.821 21.6495   8
   5   7 -11 632.461 23.1843   7
  -3  -7  11 278.425 14.2233   2
   3  -7 -11 289.530 13.7411  15
   3  -7 -11 266.875 14.0474   6
  -3  -7  11 282.943 11.5814  12
   3   7 -11 259.813 13.5524   7
  -3   7  11 273.232 13.0140   8
  -3   7  11 281.882 10.8750  12
  -1  -7  11 460.609 15.2833  12
   1  -7 -11 475.791 18.7637   6
   1  -7 -11 457.172 17.4545  15
  -1  -7  11 343.566 17.8646   2
   1   7 -11 447.633 18.5026   7
  -1   7  11 415.722 14.1502  12
  -1   7  11 433.388 17.5440   8
   6  -8 -11 161.020 10.2059  15
  -6  -8  11 158.164 10.6345   2
  -6  -8  11 143.723 8.39506  12
   6  -8 -11 151.583 10.5458   6
   6  -8 -11 123.044 11.5898   9
  -6   8  11 146.056 8.28432  12
  -6   8  11 154.149 11.5500   5
  -6   8  11 154.967 9.31284   8
   6   8 -11 132.252 9.94407   7
  -4  -8  11 107.690 9.35732   2
   4  -8 -11 107.066 9.48371   6
  -4  -8  11 89.9546 6.55479  12
   4  -8 -11 89.4268 7.40413  15
  -4   8  11 92.1308 6.26960  12
   4   8 -11 85.8740 8.08099   7
  -4   8  11 86.5542 7.16428   8
   2  -8 -11 22.7471 4.86248  15
  10   0 -12 18.7229 4.86583   9
 -10   0  12 18.1790 3.43223  12
 -10   0  12 17.8583 4.63533   5
  -8   0  12 1045.42 29.8979  12
  -8   0  12 1000.30 34.7859   5
   8   0 -12 1078.79 31.7317  15
   8   0 -12 1056.01 34.3006   9
   6   0 -12 39.2501 5.88505   9
  -6   0  12 48.3030 7.10202   5
   6   0 -12 51.2327 5.68375  15
  -6   0  12 46.4119 7.23028  16
  -6   0  12 40.4775 3.79919  12
   4   0 -12 1205.20 37.0168   9
   4   0 -12 1223.57 36.2851  15
   2   0 -12 6.70974 3.02095   9
   2   0 -12 8.11725 3.75724  15
  -2   0  12 9.76583 1.48482  12
   0   0 -12 1173.03 36.2624  15
  -9  -1  12 23.1362 6.13104   5
  -9  -1  12 24.2772 3.75549  12
   9  -1 -12 21.5785 5.35776   9
   9   1 -12 26.2711 4.79987   9
  -9   1  12 23.0719 5.27038   5
  -9   1  12 20.8634 3.99280   8
  -9   1  12 23.6016 3.58753  12
   7  -1 -12 72.5551 7.06866   9
  -7  -1  12 76.2874 5.33420  12
   7  -1 -12 73.0574 6.89197  15
  -7  -1  12 80.1173 8.93827   5
   7   1 -12 71.6153 6.03254  15
   7   1 -12 72.4571 7.88296   9
  -7   1  12 82.1049 9.18071   5
  -5  -1  12 128.275 9.09356  16
  -5  -1  12 133.901 9.94857   5
  -5  -1  12 131.566 6.45124  12
   5  -1 -12 140.256 9.19616  15
   5  -1 -12 143.339 9.80629   9
  -5   1  12 136.931 6.45804  12
  -5   1  12 131.353 10.1881   5
   5   1 -12 144.357 9.07144  15
  -5   1  12 133.228 9.17207  16
   5   1 -12 144.574 9.39086   9
  -3  -1  12 8.14275 1.70339  12
   3  -1 -12 13.5301 4.05904  15
   3  -1 -12 7.89771 3.06887   9
  -3   1  12 8.31914 3.92741   5
  -3   1  12 8.78305 3.81454  16
   3   1 -12 9.91094 3.74346  15
   3   1 -12 4.87469 3.22068   9
  -3   1  12 8.41819 1.56725  12
  -1  -1  12 135.424 4.90201  12
   1  -1 -12 122.372 9.16980  15
  -1  -1  12 135.050 9.06198   2
   1   1 -12 133.973 9.22064  15
  10  -2 -12 350.266 17.1258   9
 -10  -2  12 343.877 18.0021   5
 -10   2  12 329.080 16.6750   5
 -10   2  12 335.445 13.5621  12
 -10   2  12 340.169 13.6787   8
  10   2 -12 337.799 15.7080   9
   8  -2 -12 547.242 20.4314  15
  -8  -2  12 550.593 18.3615  12
   8  -2 -12 561.810 22.3051   9
  -8  -2  12 540.162 22.6321   5
   8   2 -12 554.983 21.9493   9
  -8   2  12 560.179 18.8629   8
  -8   2  12 567.456 22.7543   5
  -8   2  12 545.694 18.1300  12
   6  -2 -12 588.016 20.9073  15
  -6  -2  12 551.199 17.2505  12
  -6  -2  12 548.513 21.6427   5
   6  -2 -12 549.270 21.2241   9
  -6   2  12 544.486 17.0479  12
  -6   2  12 531.163 22.0883   5
  -6   2  12 526.230 18.0883   8
   6   2 -12 548.630 21.1558   9
  -4  -2  12 441.337 14.0820  12
   4  -2 -12 467.327 18.1018  15
   4  -2 -12 462.527 18.4518   9
  -4   2  12 450.787 13.6624  12
   4   2 -12 456.941 17.6979  15
   4   2 -12 434.311 18.2536   9
  -4   2  12 458.854 19.7137   5
   2  -2 -12 351.035 15.2975  15
  -2  -2  12 380.494 11.1821  12
   2   2 -12 378.022 16.2261  15
  -2   2  12 346.278 10.1639  12
   2   2 -12 358.091 15.8401   9
  -2   2  12 337.138 16.4160   5
   0  -2  12 153.599 5.72931  12
   0  -2 -12 154.322 10.0711  15
  -9  -3  12 62.4039 8.62346   5
   9  -3 -12 60.7032 8.04539   9
  -9  -3  12 42.0320 5.02272  12
   9  -3 -12 48.5936 6.40227  15
  -9   3  12 48.3340 5.24136   8
   9   3 -12 60.4490 7.46394   9
  -9   3  12 47.5566 7.24658   5
  -7  -3  12 25.0359 5.85759   5
   7  -3 -12 19.5632 4.62806  15
   7  -3 -12 19.9415 4.73418   9
  -7  -3  12 22.4322 3.43153  12
  -7   3  12 28.1919 6.26215   5
  -7   3  12 24.5821 3.47636  12
  -7   3  12 18.7615 3.51560   8
   7   3 -12 27.6410 5.07813   9
   5  -3 -12 1.68387 1.88842   9
  -5  -3  12 3.41011 2.23225  12
   5  -3 -12 0.41196 2.82596  15
   5   3 -12 0.54240 2.32757   9
  -5   3  12 1.82202 1.85251  12
  -5   3  12 1.35245 3.70051   5
   5   3 -12 2.28138 2.70786  15
   5   3 -12 3.03073 2.36656   7
  -5   3  12 3.05654 2.85194   8
   3  -3 -12 63.1139 6.26143   9
   3  -3 -12 67.0970 6.37857  15
  -3  -3  12 71.4652 4.31440  12
   3  -3 -12 66.7212 6.78349   6
   3   3 -12 59.9409 5.82357   7
  -3   3  12 61.9508 7.89608   5
   3   3 -12 66.6320 7.03532  15
  -3   3  12 61.2635 3.72041  12
   3   3 -12 61.7647 6.97482   9
  -1  -3  12 0.40662 3.35741   2
   1  -3 -12 2.35412 2.81221  15
  -1  -3  12 1.06821 1.49539  12
  -1   3  12 1.62908 0.91559  12
   1   3 -12 3.13292 2.62559   7
  -8  -4  12 34.2131 6.72766   5
  -8  -4  12 30.3179 3.99798  12
   8  -4 -12 35.8469 5.35401  15
   8  -4 -12 42.7488 6.03850   9
  -8   4  12 42.8538 6.91867   5
  -8   4  12 40.1070 4.39694  12
   8   4 -12 43.2434 6.35247   9
  -8   4  12 33.2242 4.57092   8
   6  -4 -12 502.502 19.9982   9
  -6  -4  12 438.867 18.8804   5
   6  -4 -12 475.800 19.1588  15
  -6  -4  12 450.457 15.8910  12
   6   4 -12 520.784 20.3783   9
  -6   4  12 464.237 17.1584   8
  -6   4  12 500.250 21.1630   5
  -6   4  12 461.198 15.6114  12
   6   4 -12 470.445 18.0365   7
   4  -4 -12 49.4790 6.21971  15
   4  -4 -12 50.3384 6.02930   9
   4  -4 -12 56.2614 6.33415   6
   4   4 -12 71.2488 7.04936   7
  -4   4  12 95.8154 9.33821   5
  -4   4  12 63.3375 4.24989  12
   4   4 -12 52.5683 6.89259   9
   4   4 -12 69.7233 6.73156  15
  -4   4  12 56.9506 5.60902   8
   2  -4 -12 622.533 22.3098   6
   2  -4 -12 626.782 22.5739  15
  -2  -4  12 629.614 18.4664  12
  -2  -4  12 631.890 23.0468   2
   2   4 -12 637.809 22.5537   7
  -2   4  12 630.760 17.3627  12
  -9  -5  12 9.86942 3.12348   2
   9   5 -12 10.6383 4.29601   9
  -7  -5  12 1.81143 2.09324  12
   7  -5 -12 3.25248 3.65637  15
   7  -5 -12 2.56900 3.12772   9
  -7  -5  12 1.09727 2.63272   5
   7   5 -12 1.80340 3.48255   9
  -7   5  12 2.34749 3.42415   8
  -7   5  12 4.63470 2.01191  12
   7   5 -12 -0.2389 2.52345   7
  -7   5  12 2.17956 3.78951   5
   5  -5 -12 0.52286 2.89015  15
   5  -5 -12 1.32476 3.07728   6
  -5  -5  12 -1.5703 1.40034  12
  -5  -5  12 -1.6353 2.92887   2
   5  -5 -12 -2.2466 2.19079   9
   5   5 -12 -2.2178 2.16850   7
  -5   5  12 -1.7533 2.09125   8
  -5   5  12 -2.0446 3.63891   5
   5   5 -12 0.91227 3.53690   9
  -5   5  12 -0.6384 1.54366  12
   3  -5 -12 42.6477 5.79747   6
   3  -5 -12 50.3235 6.61852  15
  -3  -5  12 31.5611 6.09364   2
  -3  -5  12 33.3206 3.80478  12
  -3   5  12 40.1550 5.68562   8
   3   5 -12 43.4949 5.26530   7
  -3   5  12 37.9097 3.57512  12
  -6  -6  12 171.902 11.0085   2
   6  -6 -12 151.410 10.4623  15
   6  -6 -12 156.732 10.6197   6
  -6  -6  12 167.059 8.55502  12
   6   6 -12 167.909 10.5084   7
  -6   6  12 138.926 9.41170   8
  -6   6  12 154.966 7.99772  12
   6   6 -12 175.162 11.4252   9
  -6   6  12 151.856 11.7350   5
  -4  -6  12 680.525 21.0548  12
   4  -6 -12 707.209 24.7844  15
  -4  -6  12 687.596 25.3988   2
   4  -6 -12 686.124 24.7691   6
   4   6 -12 633.327 23.9202   7
  -4   6  12 680.459 20.3825  12
  -4   6  12 691.867 23.2866   8
  -5  -7  12 71.1237 6.59991  12
  -8   0  13 0.49604 2.93244   5
   8   0 -13 1.79159 2.66152   9
  -8   0  13 -2.4909 1.48632  12
   8   0 -13 -3.0624 2.49758  15
  -6   0  13 -0.0780 3.85146   5
  -6   0  13 0.16816 1.62380  12
   6   0 -13 -1.0022 1.88572   9
   6   0 -13 -2.2702 2.59775  15
  -4   0  13 1.89596 1.53335  12
   4   0 -13 -0.5100 2.94454  15
   4   0 -13 6.98083 2.79357   9
  -2   0  13 1.18088 1.11508  12
   2   0 -13 0.13371 2.23270  15
  -9  -1  13 99.7172 7.69736  12
  -9   1  13 104.635 6.92342  12
  -7  -1  13 545.630 22.8653   5
  -7  -1  13 584.453 18.3603  12
   7  -1 -13 569.995 22.4445   9
   7  -1 -13 580.262 21.2692  15
  -7   1  13 556.352 23.2811   5
   7   1 -13 543.032 21.9934   9
   7   1 -13 573.792 20.4606  15
  -7   1  13 553.977 17.9628  12
   5  -1 -13 111.813 8.64810  15
   5  -1 -13 95.5174 8.51967   9
  -5  -1  13 97.6503 5.73974  12
  -5  -1  13 101.870 8.93502   5
  -5   1  13 101.782 9.52771   5
   5   1 -13 109.466 7.98943  15
   5   1 -13 107.190 8.83432   9
   3  -1 -13 626.238 22.7292  15
   3  -1 -13 581.649 21.8608   9
  -3  -1  13 592.054 16.6321  12
   3   1 -13 587.089 22.3327   9
  -3   1  13 584.590 16.2440  12
   3   1 -13 589.659 22.1296  15
   8  -2 -13 202.487 12.1106   9
  -8  -2  13 181.208 9.04092  12
   8  -2 -13 180.305 11.0204  15
  -8  -2  13 185.262 12.2609   5
  -8   2  13 170.542 12.7093   5
   8   2 -13 182.011 11.4532   9
   6  -2 -13 143.517 9.46049  15
  -6  -2  13 154.420 10.9329   5
  -6  -2  13 143.093 7.30172  12
   6  -2 -13 142.643 9.79865   9
   6   2 -13 156.994 9.18438  15
  -6   2  13 142.729 10.6651   5
  -6   2  13 142.350 7.16505  12
   6   2 -13 151.986 10.4921   9
   4  -2 -13 219.852 11.9756   9
   4  -2 -13 199.199 11.8359  15
  -4  -2  13 204.406 8.28744  12
   4   2 -13 212.525 12.1323   9
  -4   2  13 208.318 13.0480   5
   4   2 -13 203.184 11.5779  15
  -4   2  13 205.351 7.86738  12
  -7  -3  13 175.311 11.3643   5
  -7  -3  13 184.140 8.77888  12
   7  -3 -13 181.273 11.2666  15
   7  -3 -13 171.005 11.4512   9
  -7   3  13 166.047 9.35765   8
  -7   3  13 167.775 12.5625   5
  -7   3  13 179.059 8.43324  12
   7   3 -13 174.024 11.2124   9
  -5  -3  13 416.149 14.2218  12
   5  -3 -13 404.249 17.5878   9
   5  -3 -13 427.607 18.0442  15
  -5   3  13 401.460 18.9445   5
  -5   3  13 403.039 13.5205  12
   5   3 -13 438.096 18.4635   9
  -3  -3  13 150.750 10.5325   2
   3  -3 -13 129.437 9.08464  15
  -3  -3  13 145.391 6.71122  12
  -3   3  13 133.523 5.68310  12
   3   3 -13 139.226 9.93696  15
   3   3 -13 133.380 9.69917   9
   6  -4 -13 2.05224 2.38579   9
   6  -4 -13 3.17630 3.55198  15
  -6  -4  13 6.51720 2.32471  12
   6   4 -13 0.94340 3.54451   9
  -6   4  13 0.41578 4.01222   5
  -6   4  13 -3.4966 2.56706   8
  -6   4  13 3.31153 2.30484  12
  -4  -4  13 21.5116 3.76511  12
  -4  -4  13 23.2750 4.64001   2
   4   4 -13 22.6939 4.98379   9
  -4   4  13 20.7574 5.83534   5
  -4   4  13 17.8089 2.91142  12
   0   0   0    0.00    0.00   0

 _exptl_absorpt_process_details
)
 SADABS 2016/2: Krause, L., Herbst-Irmer, R., Sheldrick G.M. & Stalke D.,
 J. Appl. Cryst. 48 (2015) 3-10
)
 _exptl_absorpt_correction_type   multi-scan
 _exptl_absorpt_correction_T_max  0.7482
 _exptl_absorpt_correction_T_min  0.6455
 _exptl_special_details
)
 The following wavelength and cell were deduced by SADABS from the
 direction cosines etc. They are given here for emergency use only:
 CELL 0.71074    6.798    7.603    7.386   89.994  116.973   90.004
)

;
_shelx_hkl_checksum              35462
loop_
_space_group_symop_operation_xyz
'x, y, z'
'-x, y, -z+1/2'
'x+1/2, y+1/2, z'
'-x+1/2, y+1/2, -z+1/2'
'-x, -y, -z'
'x, -y, z-1/2'
'-x+1/2, -y+1/2, -z'
'x+1/2, -y+1/2, z-1/2'
loop_
_atom_site_label
_atom_site_type_symbol
_atom_site_fract_x
_atom_site_fract_y
_atom_site_fract_z
_atom_site_U_iso_or_equiv
_atom_site_adp_type
_atom_site_occupancy
_atom_site_site_symmetry_order
_atom_site_calc_flag
_atom_site_refinement_flags_posn
_atom_site_refinement_flags_adp
_atom_site_refinement_flags_occupancy
_atom_site_disorder_assembly
_atom_site_disorder_group
Ni Ni 0.000000 0.500000 0.000000 0.00428(5) Uani 1 2 d S . P . .
S S 0.000000 0.15727(3) 0.250000 0.00404(5) Uani 1 2 d S T P . .
O1 O 0.17262(10) 0.04732(9) 0.40413(10) 0.00843(10) Uani 1 1 d . . . . .
O2 O 0.10428(10) 0.27059(8) 0.15519(9) 0.00703(9) Uani 1 1 d . . . . .
O3 O 0.000000 0.63077(12) 0.250000 0.00631(12) Uani 1 2 d S T P . .
H H 0.109(3) 0.695(3) 0.294(3) 0.020(5) Uiso 1 1 d . . . . .
loop_
_atom_site_aniso_label
_atom_site_aniso_U_11
_atom_site_aniso_U_22
_atom_site_aniso_U_33
_atom_site_aniso_U_23
_atom_site_aniso_U_13
_atom_site_aniso_U_12
Ni 0.00390(6) 0.00468(7) 0.00412(6) 0.00016(3) 0.00173(5) -0.00014(4)
S 0.00314(9) 0.00423(10) 0.00453(9) 0.000 0.00159(7) 0.000
O1 0.0052(2) 0.0100(2) 0.0094(2) 0.00463(18) 0.00281(18) 0.00250(18)
O2 0.0067(2) 0.0066(2) 0.0094(2) 0.00264(16) 0.00512(18) 0.00068(16)
O3 0.0060(3) 0.0070(3) 0.0061(3) 0.000 0.0029(2) 0.000
loop_
_atom_type_symbol
_atom_type_description
_atom_type_scat_dispersion_real
_atom_type_scat_dispersion_imag
_atom_type_scat_source
O O 0.0106 0.0060 'International Tables Vol C Tables 4.2.6.8 and 6.1.1.4'
H H 0.0000 0.0000 'International Tables Vol C Tables 4.2.6.8 and 6.1.1.4'
S S 0.1246 0.1234 'International Tables Vol C Tables 4.2.6.8 and 6.1.1.4'
Ni Ni 0.3393 1.1124 'International Tables Vol C Tables 4.2.6.8 and 6.1.1.4'
loop_
_geom_angle_atom_site_label_1
_geom_angle_atom_site_label_2
_geom_angle_atom_site_label_3
_geom_angle
_geom_angle_site_symmetry_1
_geom_angle_site_symmetry_3
_geom_angle_publ_flag
O2 Ni O2 180.0 . 5_565 ?
O2 Ni O1 94.85(3) . 8_455 ?
O2 Ni O1 85.15(3) 5_565 8_455 ?
O2 Ni O1 85.15(3) . 4 ?
O2 Ni O1 94.85(3) 5_565 4 ?
O1 Ni O1 180.00(4) 8_455 4 ?
O2 Ni O3 87.31(3) . 5_565 ?
O2 Ni O3 92.69(3) 5_565 5_565 ?
O1 Ni O3 93.18(2) 8_455 5_565 ?
O1 Ni O3 86.82(2) 4 5_565 ?
O2 Ni O3 92.69(3) . . ?
O2 Ni O3 87.31(3) 5_565 . ?
O1 Ni O3 86.82(2) 8_455 . ?
O1 Ni O3 93.18(2) 4 . ?
O3 Ni O3 180.0 5_565 . ?
O2 Ni O2 81.665(14) . 8_455 ?
O2 Ni O2 98.335(15) 5_565 8_455 ?
O1 Ni O2 43.54(2) 8_455 8_455 ?
O1 Ni O2 136.46(2) 4 8_455 ?
O3 Ni O2 51.388(16) 5_565 8_455 ?
O3 Ni O2 128.612(16) . 8_455 ?
O2 Ni O2 98.335(15) . 4 ?
O2 Ni O2 81.665(15) 5_565 4 ?
O1 Ni O2 136.46(2) 8_455 4 ?
O1 Ni O2 43.54(2) 4 4 ?
O3 Ni O2 128.612(16) 5_565 4 ?
O3 Ni O2 51.388(16) . 4 ?
O2 Ni O2 180.00(2) 8_455 4 ?
O2 Ni O2 136.21(2) . 6_565 ?
O2 Ni O2 43.79(2) 5_565 6_565 ?
O1 Ni O2 113.60(2) 8_455 6_565 ?
O1 Ni O2 66.40(2) 4 6_565 ?
O3 Ni O2 59.80(3) 5_565 6_565 ?
O3 Ni O2 120.20(3) . 6_565 ?
O2 Ni O2 96.280(19) 8_455 6_565 ?
O2 Ni O2 83.720(19) 4 6_565 ?
O2 Ni O2 43.79(2) . 2 ?
O2 Ni O2 136.21(2) 5_565 2 ?
O1 Ni O2 66.40(2) 8_455 2 ?
O1 Ni O2 113.60(2) 4 2 ?
O3 Ni O2 120.20(3) 5_565 2 ?
O3 Ni O2 59.80(3) . 2 ?
O2 Ni O2 83.720(19) 8_455 2 ?
O2 Ni O2 96.280(19) 4 2 ?
O2 Ni O2 180.0 6_565 2 ?
O1 S O1 110.36(6) . 2 ?
O1 S O2 110.24(4) . 2 ?
O1 S O2 108.45(4) 2 2 ?
O1 S O2 108.45(4) . . ?
O1 S O2 110.24(4) 2 . ?
O2 S O2 109.10(5) 2 . ?
S O1 Ni 136.63(4) . 4_545 ?
S O1 O2 36.08(2) . . ?
Ni O1 O2 100.67(3) 4_545 . ?
S O1 O1 34.82(3) . 2 ?
Ni O1 O1 139.66(5) 4_545 2 ?
O2 O1 O1 60.59(3) . 2 ?
S O1 O2 35.17(2) . 2 ?
Ni O1 O2 145.34(4) 4_545 2 ?
O2 O1 O2 60.38(3) . 2 ?
O1 O1 O2 59.48(3) 2 2 ?
S O1 O2 127.88(4) . 4_545 ?
Ni O1 O2 47.397(19) 4_545 4_545 ?
O2 O1 O2 110.05(3) . 4_545 ?
O1 O1 O2 102.43(3) 2 4_545 ?
O2 O1 O2 161.72(4) 2 4_545 ?
S O1 O3 170.71(4) . 7_556 ?
Ni O1 O3 47.713(15) 4_545 7_556 ?
O2 O1 O3 145.75(3) . 7_556 ?
O1 O1 O3 150.59(2) 2 7_556 ?
O2 O1 O3 135.69(3) 2 7_556 ?
O2 O1 O3 61.41(2) 4_545 7_556 ?
S O1 O2 115.05(4) . 8_556 ?
Ni O1 O2 42.548(19) 4_545 8_556 ?
O2 O1 O2 86.37(3) . 8_556 ?
O1 O1 O2 146.91(3) 2 8_556 ?
O2 O1 O2 104.20(3) 2 8_556 ?
O2 O1 O2 89.95(3) 4_545 8_556 ?
O3 O1 O2 61.68(3) 7_556 8_556 ?
S O1 O3 92.76(3) . 3_545 ?
Ni O1 O3 44.418(17) 4_545 3_545 ?
O2 O1 O3 57.87(2) . 3_545 ?
O1 O1 O3 101.86(4) 2 3_545 ?
O2 O1 O3 115.73(3) 2 3_545 ?
O2 O1 O3 62.51(3) 4_545 3_545 ?
O3 O1 O3 92.13(2) 7_556 3_545 ?
O2 O1 O3 56.89(2) 8_556 3_545 ?
S O1 O2 112.33(4) . 7_556 ?
Ni O1 O2 78.24(2) 4_545 7_556 ?
O2 O1 O2 108.26(3) . 7_556 ?
O1 O1 O2 139.67(3) 2 7_556 ?
O2 O1 O2 80.99(3) 2 7_556 ?
O2 O1 O2 117.29(3) 4_545 7_556 ?
O3 O1 O2 58.82(2) 7_556 7_556 ?
O2 O1 O2 45.72(2) 8_556 7_556 ?
O3 O1 O2 102.38(3) 3_545 7_556 ?
S O1 O2 127.16(4) . 6_556 ?
Ni O1 O2 95.35(3) 4_545 6_556 ?
O2 O1 O2 162.44(4) . 6_556 ?
O1 O1 O2 102.30(3) 2 6_556 ?
O2 O1 O2 108.85(3) 2 6_556 ?
O2 O1 O2 75.94(3) 4_545 6_556 ?
O3 O1 O2 51.77(2) 7_556 6_556 ?
O2 O1 O2 110.49(3) 8_556 6_556 ?
O3 O1 O2 135.36(3) 3_545 6_556 ?
O2 O1 O2 81.903(19) 7_556 6_556 ?
S O1 O1 89.40(3) . 5_556 ?
Ni O1 O1 133.25(4) 4_545 5_556 ?
O2 O1 O1 124.04(4) . 5_556 ?
O1 O1 O1 80.65(4) 2 5_556 ?
O2 O1 O1 65.61(3) 2 5_556 ?
O2 O1 O1 116.97(4) 4_545 5_556 ?
O3 O1 O1 85.55(3) 7_556 5_556 ?
O2 O1 O1 120.95(4) 8_556 5_556 ?
O3 O1 O1 177.49(3) 3_545 5_556 ?
O2 O1 O1 75.59(3) 7_556 5_556 ?
O2 O1 O1 43.24(2) 6_556 5_556 ?
S O2 Ni 130.57(4) . . ?
S O2 O1 35.48(2) . . ?
Ni O2 O1 160.21(4) . . ?
S O2 O1 34.59(2) . 2 ?
Ni O2 O1 117.52(3) . 2 ?
O1 O2 O1 59.93(4) . 2 ?
S O2 O2 35.45(3) . 2 ?
Ni O2 O2 100.75(2) . 2 ?
O1 O2 O2 60.36(3) . 2 ?
O1 O2 O2 59.26(2) 2 2 ?
S O2 O3 106.80(4) . 3_545 ?
Ni O2 O3 122.46(3) . 3_545 ?
O1 O2 O3 72.70(3) . 3_545 ?
O1 O2 O3 111.94(4) 2 3_545 ?
O2 O2 O3 129.69(4) 2 3_545 ?
S O2 O1 160.31(4) . 4 ?
Ni O2 O1 47.46(2) . 4 ?
O1 O2 O1 138.07(3) . 4 ?
O1 O2 O1 161.72(4) 2 4 ?
O2 O2 O1 127.62(2) 2 4 ?
O3 O2 O1 77.44(3) 3_545 4 ?
S O2 O3 135.49(4) . 5_565 ?
Ni O2 O3 47.49(2) . 5_565 ?
O1 O2 O3 150.02(4) . 5_565 ?
O1 O2 O3 101.56(3) 2 5_565 ?
O2 O2 O3 133.51(4) 2 5_565 ?
O3 O2 O3 96.31(2) 3_545 5_565 ?
O1 O2 O3 60.99(2) 4 5_565 ?
S O2 O1 91.02(3) . 8_455 ?
Ni O2 O1 42.599(18) . 8_455 ?
O1 O2 O1 126.41(4) . 8_455 ?
O1 O2 O1 75.80(3) 2 8_455 ?
O2 O2 O1 72.08(3) 2 8_455 ?
O3 O2 O1 158.16(3) 3_545 8_455 ?
O1 O2 O1 90.06(3) 4 8_455 ?
O3 O2 O1 61.86(2) 5_565 8_455 ?
S O2 O3 101.61(3) . . ?
Ni O2 O3 44.697(16) . . ?
O1 O2 O3 116.68(3) . . ?
O1 O2 O3 115.80(3) 2 . ?
O2 O2 O3 66.162(14) 2 . ?
O3 O2 O3 128.51(3) 3_545 . ?
O1 O2 O3 63.01(2) 4 . ?
O3 O2 O3 92.19(2) 5_565 . ?
O1 O2 O3 56.780(17) 8_455 . ?
S O2 O1 82.52(3) . 7_556 ?
Ni O2 O1 94.86(3) . 7_556 ?
O1 O2 O1 71.74(3) . 7_556 ?
O1 O2 O1 116.58(3) 2 7_556 ?
O2 O2 O1 62.20(3) 2 7_556 ?
O3 O2 O1 87.75(2) 3_545 7_556 ?
O1 O2 O1 78.41(2) 4 7_556 ?
O3 O2 O1 136.93(3) 5_565 7_556 ?
O1 O2 O1 107.43(3) 8_455 7_556 ?
O3 O2 O1 54.395(17) . 7_556 ?
S O2 O1 93.95(3) . 6 ?
Ni O2 O1 114.98(3) . 6 ?
O1 O2 O1 83.53(2) . 6 ?
O1 O2 O1 71.15(3) 2 6 ?
O2 O2 O1 128.29(2) 2 6 ?
O3 O2 O1 56.91(2) 3_545 6 ?
O1 O2 O1 104.06(3) 4 6 ?
O3 O2 O1 67.50(3) 5_565 6 ?
O1 O2 O1 110.49(3) 8_455 6 ?
O3 O2 O1 159.67(3) . 6 ?
O1 O2 O1 141.97(2) 7_556 6 ?
Ni O3 Ni 123.72(4) . 2 ?
Ni O3 O2 111.572(17) . 3_455 ?
Ni O3 O2 90.474(16) 2 3_455 ?
Ni O3 O2 90.475(16) . 4 ?
Ni O3 O2 111.572(17) 2 4 ?
O2 O3 O2 133.02(5) 3_455 4 ?
Ni O3 O1 45.464(17) . 8_455 ?
Ni O3 O1 104.62(3) 2 8_455 ?
O2 O3 O1 71.32(2) 3_455 8_455 ?
O2 O3 O1 134.40(2) 4 8_455 ?
Ni O3 O1 104.62(3) . 7_556 ?
Ni O3 O1 45.464(17) 2 7_556 ?
O2 O3 O1 134.40(2) 3_455 7_556 ?
O2 O3 O1 71.32(2) 4 7_556 ?
O1 O3 O1 123.16(4) 8_455 7_556 ?
Ni O3 O2 162.22(3) . 6_566 ?
Ni O3 O2 45.201(15) 2 6_566 ?
O2 O3 O2 84.30(2) 3_455 6_566 ?
O2 O3 O2 83.69(2) 4 6_566 ?
O1 O3 O2 141.78(2) 8_455 6_566 ?
O1 O3 O2 57.60(2) 7_556 6_566 ?
Ni O3 O2 45.201(15) . 5_565 ?
Ni O3 O2 162.22(3) 2 5_565 ?
O2 O3 O2 83.69(2) 3_455 5_565 ?
O2 O3 O2 84.30(2) 4 5_565 ?
O1 O3 O2 57.60(2) 8_455 5_565 ?
O1 O3 O2 141.78(2) 7_556 5_565 ?
O2 O3 O2 149.56(4) 6_566 5_565 ?
Ni O3 O2 42.614(19) . . ?
Ni O3 O2 82.71(3) 2 . ?
O2 O3 O2 128.51(3) 3_455 . ?
O2 O3 O2 96.110(18) 4 . ?
O1 O3 O2 61.54(2) 8_455 . ?
O1 O3 O2 66.79(3) 7_556 . ?
O2 O3 O2 121.22(3) 6_566 . ?
O2 O3 O2 87.81(2) 5_565 . ?
Ni O3 O2 82.71(3) . 2 ?
Ni O3 O2 42.614(19) 2 2 ?
O2 O3 O2 96.109(18) 3_455 2 ?
O2 O3 O2 128.51(3) 4 2 ?
O1 O3 O2 66.79(3) 8_455 2 ?
O1 O3 O2 61.54(2) 7_556 2 ?
O2 O3 O2 87.82(2) 6_566 2 ?
O2 O3 O2 121.22(3) 5_565 2 ?
O2 O3 O2 47.68(3) . 2 ?
Ni O3 O1 122.64(3) . 3_455 ?
Ni O3 O1 42.405(14) 2 3_455 ?
O2 O3 O1 49.435(19) 3_455 3_455 ?
O2 O3 O1 144.93(2) 4 3_455 ?
O1 O3 O1 80.58(2) 8_455 3_455 ?
O1 O3 O1 87.87(2) 7_556 3_455 ?
O2 O3 O1 61.25(2) 6_566 3_455 ?
O2 O3 O1 126.28(2) 5_565 3_455 ?
O2 O3 O1 101.25(3) . 3_455 ?
O2 O3 O1 54.48(2) 2 3_455 ?
Ni O3 O1 42.405(14) . 4 ?
Ni O3 O1 122.64(3) 2 4 ?
O2 O3 O1 144.93(2) 3_455 4 ?
O2 O3 O1 49.435(19) 4 4 ?
O1 O3 O1 87.87(2) 8_455 4 ?
O1 O3 O1 80.58(2) 7_556 4 ?
O2 O3 O1 126.28(2) 6_566 4 ?
O2 O3 O1 61.25(2) 5_565 4 ?
O2 O3 O1 54.48(2) . 4 ?
O2 O3 O1 101.25(3) 2 4 ?
O1 O3 O1 155.64(4) 3_455 4 ?
Ni O3 H 105.2(15) . . ?
Ni O3 H 107.3(14) 2 . ?
O2 O3 H 119.2(14) 3_455 . ?
O2 O3 H 16.2(14) 4 . ?
O1 O3 H 146.0(15) 8_455 . ?
O1 O3 H 74.7(14) 7_556 . ?
O2 O3 H 71.7(15) 6_566 . ?
O2 O3 H 90.1(15) 5_565 . ?
O2 O3 H 111.5(14) . . ?
O2 O3 H 136.0(14) 2 . ?
O1 O3 H 131.9(15) 3_455 . ?
O1 O3 H 65.3(15) 4 . ?
Ni O3 H 107.3(14) . 2 ?
Ni O3 H 105.2(15) 2 2 ?
O2 O3 H 16.2(15) 3_455 2 ?
O2 O3 H 119.2(14) 4 2 ?
O1 O3 H 74.7(14) 8_455 2 ?
O1 O3 H 146.0(15) 7_556 2 ?
O2 O3 H 90.1(15) 6_566 2 ?
O2 O3 H 71.7(15) 5_565 2 ?
O2 O3 H 136.0(14) . 2 ?
O2 O3 H 111.5(14) 2 2 ?
O1 O3 H 65.3(15) 3_455 2 ?
O1 O3 H 131.9(15) 4 2 ?
H O3 H 107(3) . 2 ?
loop_
_geom_bond_atom_site_label_1
_geom_bond_atom_site_label_2
_geom_bond_distance
_geom_bond_site_symmetry_2
_geom_bond_publ_flag
Ni O2 2.0317(6) . ?
Ni O2 2.0317(6) 5_565 ?
Ni O1 2.0336(7) 8_455 ?
Ni O1 2.0336(7) 4 ?
Ni O3 2.1106(5) 5_565 ?
Ni O3 2.1106(5) . ?
Ni O2 3.4176(7) 8_455 ?
Ni O2 3.4176(7) 4 ?
Ni O2 3.4401(7) 6_565 ?
Ni O2 3.4401(7) 2 ?
S O1 1.4657(7) . ?
S O1 1.4657(7) 2 ?
S O2 1.4872(6) 2 ?
S O2 1.4872(6) . ?
O1 O2 2.3957(9) . ?
O1 O1 2.4065(13) 2 ?
O1 O2 2.4225(9) 2 ?
O1 O2 2.7503(9) 4_545 ?
O1 O3 2.8486(8) 7_556 ?
O1 O2 2.9938(10) 8_556 ?
O1 O3 3.0110(7) 3_545 ?
O1 O2 3.2200(10) 7_556 ?
O1 O2 3.2208(10) 6_556 ?
O1 O1 3.3466(13) 5_556 ?
O2 O2 2.4229(12) 2 ?
O2 O3 2.6706(8) 3_545 ?
O2 O3 2.8601(8) 5_565 ?
O2 O3 2.9975(11) . ?
O3 H 0.82(2) . ?
O3 H 0.82(2) 2 ?
loop_
_geom_hbond_atom_site_label_D
_geom_hbond_atom_site_label_H
_geom_hbond_atom_site_label_A
_geom_hbond_distance_DH
_geom_hbond_distance_HA
_geom_hbond_distance_DA
_geom_hbond_angle_DHA
_geom_hbond_site_symmetry_A
_geom_hbond_publ_flag
O3 H O2 0.82(2) 1.90(2) 2.6706(8) 157(2) 4 yes
