#------------------------------------------------------------------------------
#$Date: 2022-01-01 07:13:54 +0200 (Sat, 01 Jan 2022) $
#$Revision: 271676 $
#$URL: file:///home/coder/svn-repositories/cod/cif/1/56/58/1565881.cif $
#------------------------------------------------------------------------------
#
# This file is available in the Crystallography Open Database (COD),
# http://www.crystallography.net/. The original data for this entry
# were provided by IUCr Journals, http://journals.iucr.org/.
#
# The file may be used within the scientific community so long as
# proper attribution is given to the journal article from which the
# data were obtained.
#
data_1565881
loop_
_publ_author_name
'Olejniczak, Anna'
'Katrusiak, Anna'
'Podsiad\/lo, Marcin'
'Katrusiak, Andrzej'
_publ_section_title
;
 Stochastic hydration of a high-nitrogen-content molecular compound
 recrystallized under pressure
;
_journal_issue                   1
_journal_name_full               IUCrJ
_journal_page_first              49
_journal_page_last               54
_journal_paper_doi               10.1107/S2052252521010381
_journal_volume                  9
_journal_year                    2022
_chemical_formula_moiety         'C4 H2 Cl N5'
_chemical_formula_sum            'C4 H2 Cl N5'
_chemical_formula_weight         155.56
_chemical_name_systematic        6-chloro-1,2,3,4-tetrazolo[1,5-b]pyridazine
_space_group_crystal_system      orthorhombic
_space_group_IT_number           19
_space_group_name_Hall           'P 2ac 2ab'
_space_group_name_H-M_alt        'P 21 21 21'
_atom_sites_solution_hydrogens   geom
_atom_sites_solution_primary     direct
_audit_creation_date             2020-07-14
_audit_creation_method
;
Olex2 1.3
(compiled 2020.06.28 svn.raecde09e for OlexSys, GUI svn.r6132)
;
_cell_angle_alpha                90
_cell_angle_beta                 90
_cell_angle_gamma                90
_cell_formula_units_Z            4
_cell_length_a                   7.005(2)
_cell_length_b                   8.7554(18)
_cell_length_c                   10.086(2)
_cell_measurement_reflns_used    859
_cell_measurement_temperature    296(2)
_cell_measurement_theta_max      23.4210
_cell_measurement_theta_min      3.5090
_cell_volume                     618.6(2)
_computing_cell_refinement       'CrysAlisPro 1.171.40.67a (Rigaku OD, 2019)'
_computing_data_collection       'CrysAlisPro 1.171.40.67a (Rigaku OD, 2019)'
_computing_data_reduction        'CrysAlisPro 1.171.40.67a (Rigaku OD, 2019)'
_computing_molecular_graphics    'Olex2 1.3 (Dolomanov et al., 2009)'
_computing_publication_material  'Olex2 1.3 (Dolomanov et al., 2009)'
_computing_structure_refinement  'SHELXL 2018/3 (Sheldrick, 2015)'
_computing_structure_solution    'SHELXT 2018/2 (Sheldrick, 2018)'
_diffrn_ambient_environment      'diamond-anvil cell'
_diffrn_ambient_pressure         180000
_diffrn_ambient_temperature      296
_diffrn_detector                 'CCD plate'
_diffrn_detector_area_resol_mean 16.1544
_diffrn_detector_type            Eos
_diffrn_measured_fraction_theta_full 0.717
_diffrn_measured_fraction_theta_max 0.640
_diffrn_measurement_details
;
List of Runs (angles in degrees, time in seconds):

  # Type    Start    End  Width  t~exp~   \w     \q     \k     \f   Frames
--------------------------------------------------------------------------
  1  \f    -35.00  19.75   0.75   20.00   0.00 -30.00   0.00    --    73
  2  \f    140.00 200.00   0.75   20.00   0.00 -30.00   0.00    --    80
  3  \f    160.00 217.00   0.75   20.00   0.00  30.00   0.00    --    76
  4  \f    -20.00  34.75   0.75   20.00   0.00  30.00   0.00    --    73
  5  \w    -24.00  24.00   0.75   20.00    --   30.00  39.46 -12.90   64
  6  \w    -24.00  24.00   0.75   20.00    --   30.00  39.46 167.10   64
  7  \w    -50.00  10.00   0.75   20.00    --  -30.00  39.46 167.10   80
  8  \w    -50.00  10.00   0.75   20.00    --  -30.00  39.46 -12.90   80
  9  \w    -64.00  -8.50   0.75   20.00    --  -30.00  81.40 -28.90   74
 10  \w    -64.00  -8.50   0.75   20.00    --  -30.00  81.40 151.10   74
 11  \w    -19.00   8.00   0.75   20.00    --   30.00  81.40 151.10   36
 12  \w    -19.00   8.00   0.75   20.00    --   30.00  81.40 -28.90   36
 13  \w    -43.00 -21.25   0.75   20.00    --   30.00 134.60 -56.90   29
 14  \w    -43.00 -21.25   0.75   20.00    --   30.00 134.60 123.10   29
 15  \w    -90.00 -36.00   0.75   20.00    --  -30.00 134.60 123.10   72
 16  \w    -90.00 -36.00   0.75   20.00    --  -30.00 134.60 -56.90   72
;
_diffrn_measurement_device       'four-circle diffractometer'
_diffrn_measurement_device_type  'KM-4 CCD'
_diffrn_measurement_method
;
HP omega scans - for more details see:
A. Budzianowski, A. Katrusiak in High-Pressure Crystallography
(Eds.: A. Katrusiak, P. F. McMillan),
Dordrecht: Kluwer Acad. Publ., 2004 pp.157-168
;
_diffrn_orient_matrix_type
'CrysAlisPro convention (1999,Acta A55,543-557)'
_diffrn_orient_matrix_UB_11      -0.0645556000
_diffrn_orient_matrix_UB_12      0.0522971000
_diffrn_orient_matrix_UB_13      -0.0296073000
_diffrn_orient_matrix_UB_21      0.0225911000
_diffrn_orient_matrix_UB_22      -0.0300225000
_diffrn_orient_matrix_UB_23      -0.0634375000
_diffrn_orient_matrix_UB_31      -0.0746344000
_diffrn_orient_matrix_UB_32      -0.0541494000
_diffrn_orient_matrix_UB_33      0.0066032000
_diffrn_radiation_monochromator  graphite
_diffrn_radiation_probe          x-ray
_diffrn_radiation_type           'Mo K\a'
_diffrn_radiation_wavelength     0.71073
_diffrn_reflns_av_R_equivalents  0.3126
_diffrn_reflns_av_unetI/netI     0.1917
_diffrn_reflns_Laue_measured_fraction_full 0.717
_diffrn_reflns_Laue_measured_fraction_max 0.640
_diffrn_reflns_limit_h_max       7
_diffrn_reflns_limit_h_min       -7
_diffrn_reflns_limit_k_max       9
_diffrn_reflns_limit_k_min       -9
_diffrn_reflns_limit_l_max       12
_diffrn_reflns_limit_l_min       -12
_diffrn_reflns_number            3219
_diffrn_reflns_point_group_measured_fraction_full 0.723
_diffrn_reflns_point_group_measured_fraction_max 0.633
_diffrn_reflns_theta_full        25.242
_diffrn_reflns_theta_max         28.147
_diffrn_reflns_theta_min         3.081
_diffrn_source                   'fine-focus sealed X-ray tube'
_diffrn_source_type              'Enhance (Mo) X-ray Source'
_exptl_absorpt_coefficient_mu    0.532
_exptl_absorpt_correction_T_max  1.00000
_exptl_absorpt_correction_T_min  0.52021
_exptl_absorpt_correction_type   multi-scan
_exptl_absorpt_process_details
;
CrysAlisPro 1.171.39.46 (Rigaku Oxford Diffraction, 2018)
Empirical absorption correction using spherical harmonics,
 implemented in SCALE3 ABSPACK scaling algorithm.
;
_exptl_crystal_colour            colorless
_exptl_crystal_density_diffrn    1.670
_exptl_crystal_description       plate
_exptl_crystal_F_000             312
_exptl_crystal_size_max          0.38
_exptl_crystal_size_mid          0.26
_exptl_crystal_size_min          0.14
_refine_diff_density_max         0.660
_refine_diff_density_min         -0.793
_refine_diff_density_rms         0.158
_refine_ls_abs_structure_details
;
 Classical Flack method preferred over Parsons because s.u. lower.
;
_refine_ls_abs_structure_Flack   -0.3(7)
_refine_ls_extinction_method     none
_refine_ls_goodness_of_fit_ref   1.156
_refine_ls_hydrogen_treatment    constr
_refine_ls_matrix_type           full
_refine_ls_number_parameters     91
_refine_ls_number_reflns         961
_refine_ls_number_restraints     0
_refine_ls_restrained_S_all      1.156
_refine_ls_R_factor_all          0.2367
_refine_ls_R_factor_gt           0.1430
_refine_ls_shift/su_max          0.000
_refine_ls_shift/su_mean         0.000
_refine_ls_structure_factor_coef Fsqd
_refine_ls_weighting_details
'w=1/[\s^2^(Fo^2^)+(0.2000P)^2^] where P=(Fo^2^+2Fc^2^)/3'
_refine_ls_weighting_scheme      calc
_refine_ls_wR_factor_gt          0.3439
_refine_ls_wR_factor_ref         0.4295
_reflns_Friedel_coverage         0.666
_reflns_Friedel_fraction_full    0.734
_reflns_Friedel_fraction_max     0.624
_reflns_number_gt                410
_reflns_number_total             961
_reflns_threshold_expression     'I > 2\s(I)'
_cod_data_source_file            lt5042.cif
_cod_data_source_block           C4H2N5Cl1@0_18GPa_phase_alpha_xH2O
_cod_original_cell_volume        618.6(3)
_cod_database_code               1565881
_shelx_shelxl_version_number     2018/3
_chemical_oxdiff_formula         C4H2N5Cl1
_shelx_space_group_comment
;
The symmetry employed for this shelxl refinement is uniquely defined
by the following loop, which should always be used as a source of
symmetry information in preference to the above space-group names.
They are only intended as comments.
;
_reflns_odcompleteness_completeness 63.22
_reflns_odcompleteness_iscentric 1
_reflns_odcompleteness_theta     28.08
_olex2_refinement_description
;
1. Fixed Uiso
 At 1.2 times of:
  All C(H) groups
2.a Aromatic/amide H refined with riding coordinates:
 C7(H7), C8(H8)
;
_shelx_res_file
;
TITL 1a_a.res in P2(1)2(1)2(1)
    1a.res
    created by SHELXL-2018/3 at 12:05:46 on 28-Apr-2021
REM Old TITL 1a_a.res in P2(1)2(1)2(1)
REM SHELXT solution in P2(1)2(1)2(1)
REM R1 0.324, Rweak 0.061, Alpha 0.029, Orientation as input
REM Flack x = -2.161 ( 1.243 ) from Parsons' quotients
REM Formula found by SHELXT: C8 Cl N5
CELL 0.71073 7.0047 8.7554 10.0858 90 90 90
ZERR 4 0.0022 0.0018 0.0021 0 0 0
LATT -1
SYMM 0.5-X,-Y,0.5+Z
SYMM -X,0.5+Y,0.5-Z
SYMM 0.5+X,0.5-Y,-Z
SFAC C H Cl N
UNIT 16 8 4 20

L.S. 44 0 0
PLAN  1
CONF
BOND $H
list 4
MORE -1
fmap 2 53
acta
REM <olex2.extras>
REM <HklSrc "%.\\1a.hkl">
REM </olex2.extras>

WGHT    0.200000
FVAR       1.08674
CL1   3    0.291559    0.333525    0.323857    11.00000    0.10926    0.03745 =
         0.12742   -0.00407    0.02415   -0.00324
N4    4    0.351579    0.748639    0.412672    11.00000    0.09582    0.06275 =
         0.05808   -0.01042    0.01745    0.00127
N5    4    0.363606    0.595470    0.418181    11.00000    0.13321    0.02807 =
         0.08333    0.00592   -0.00559   -0.00054
N3    4    0.421044    0.840443    0.508367    11.00000    0.14073    0.05632 =
         0.07022   -0.00736   -0.01215   -0.00033
N2    4    0.380432    0.977543    0.467374    11.00000    0.07815    0.07835 =
         0.10004   -0.02159    0.02047   -0.00233
N1    4    0.295022    0.984104    0.347661    11.00000    0.06533    0.07055 =
         0.09161   -0.00842    0.01924    0.00171
C9    1    0.274299    0.831139    0.315409    11.00000    0.07638    0.03537 =
         0.06066    0.00483    0.00505    0.00012
C7    1    0.207030    0.605382    0.207061    11.00000    0.09400    0.06810 =
         0.05887   -0.00474   -0.00799    0.00400
AFIX  43
H7    2    0.164726    0.549814    0.134175    11.00000   -1.20000
AFIX   0
C6    1    0.283862    0.530904    0.316854    11.00000    0.05403    0.01975 =
         0.08651   -0.00478    0.01586   -0.00414
C8    1    0.195011    0.756432    0.207834    11.00000    0.09030    0.07548 =
         0.05134    0.01004   -0.00714    0.01039
AFIX  43
H8    2    0.136090    0.809662    0.139331    11.00000   -1.20000
AFIX   0
HKLF 4




REM  1a_a.res in P2(1)2(1)2(1)
REM wR2 = 0.4295, GooF = S = 1.156, Restrained GooF = 1.156 for all data
REM R1 = 0.1430 for 410 Fo > 4sig(Fo) and 0.2367 for all 961 data
REM 91 parameters refined using 0 restraints

END

WGHT      0.2000      0.0000

REM Highest difference peak  0.660,  deepest hole -0.793,  1-sigma level  0.158
Q1    1   0.2996  0.3316  0.4863  11.00000  0.05    0.66
;
_shelx_res_checksum              93837
_shelx_hkl_file
;
   0   0  -2  858.75   31.38
   0   0  -2 1008.05   37.19
   0   0   3   -1.73    3.18
   0   0   3    3.32    3.69
   0   0  -3    0.54    1.02
   0   0  -3    1.36    1.11
   0   0   4   22.93   16.50
   0   0   4   40.62   13.60
   0   0  -4   11.45    7.02
   0   0  -4   28.53    9.42
   0   0  -5    4.33    6.56
   0   0  -5   -5.00    4.83
   0   0   5    5.35    6.61
   0   1   1 1714.94   81.36
   0  -1  -1 1408.10   38.09
   0   1   2   61.60   11.18
   0  -1  -2   66.33    9.60
   0   1   2   47.86   10.70
   0  -1  -2   31.66    6.99
   0  -1  -2   44.77    8.12
   0   1   2   26.29   12.68
   0  -1  -2   14.92    7.38
   0  -1  -2   23.40    8.40
   0  -1  -3 4662.01   90.94
   0   1   3 2054.49  135.95
   0  -1  -3 1250.17  100.55
   0   1   3 5701.81  128.29
   0  -1  -3 3883.56   88.87
   0  -1  -3 3066.89   82.39
   0   1   3 4573.83  126.56
   0  -1  -3 2076.34   91.66
   0  -1  -4    8.12    5.02
   0  -1  -4    6.65    4.95
   0  -1  -4    4.49    3.75
   0   1   4    3.19    4.41
   0   1   4    7.61    6.79
   0  -1  -4    6.28    9.07
   0   1   4    3.66    0.11
   0   1   4    3.88    5.73
   0  -1  -5  505.51   56.95
   0  -1  -5  267.93   61.83
   0  -1  -5  708.35   50.87
   0  -1  -5  785.83   50.61
   0   1   5 1234.47   75.18
   0   1   5  364.87   72.72
   0   1   5 1092.39   79.63
   0  -1  -6   -2.30    4.81
   0  -1  -6   -0.22   12.67
   0   1   6   -7.31   20.80
   0   1   6    0.61    4.03
   0   1   6    4.81    1.26
   0  -1  -6   -0.62    2.51
   0  -1  -6    5.76    4.58
   0  -1  -7    9.62    6.93
   0   1   7   -1.24   10.46
   0   1   7    8.93    7.85
   0   1   7    1.82    1.85
   0  -1  -7   -6.68   23.48
   0  -1  -7   16.25   13.30
   0   1   8   16.44   12.17
   0   1   8   12.98    6.44
   0  -1  -8   15.85    8.97
   0  -1  -8   -8.82    7.84
   0  -1  -8    9.00   17.90
   0   2   1  805.76   54.15
   0  -2  -1  685.50   34.16
   0  -2  -2  196.43   32.59
   0   2   2   74.70   18.86
   0  -2  -2  442.76   31.91
   0  -2  -2  285.20   24.49
   0  -2  -2  211.14   20.12
   0   2   2  318.72   30.70
   0  -2  -2  375.56   23.73
   0   2   2  328.48   50.17
   0  -2  -2  243.87   28.58
   0   2   2  510.22   45.60
   0   2   2  206.39   24.93
   0   2   3  260.13   33.05
   0   2   3  386.09   37.25
   0  -2  -3  216.68   23.22
   0   2   3  220.10   47.78
   0  -2  -3  287.78   27.33
   0  -2  -3  145.92   33.20
   0  -2  -3  427.84   32.85
   0  -2  -3  221.29   31.21
   0   2   4    2.37    4.90
   0  -2  -4    4.97    7.14
   0  -2  -4    2.29    2.50
   0   2   4    1.99    2.61
   0  -2  -4    4.71    4.98
   0   2   4   -6.39   14.27
   0  -2  -4   -5.47   10.77
   0  -2  -4    6.35    4.19
   0   2   5 1069.80   74.70
   0  -2  -5  535.53   60.93
   0  -2  -5  728.39   51.66
   0   2   5  376.51   76.70
   0   2   5  854.43   72.11
   0   2   5   37.14   23.29
   0  -2  -5  343.54   67.65
   0  -2  -5  609.86   48.50
   0  -2  -5  929.68   54.87
   0   2   6   -7.25   16.78
   0  -2  -6   21.69   13.65
   0  -2  -6   10.55   12.07
   0   2   6   17.55   11.60
   0   2   6    6.76   13.14
   0  -2  -6   10.66    7.90
   0  -2  -6   17.10    8.73
   0   2   6   23.12   11.98
   0  -2  -7  183.90   30.41
   0   2   7   97.84   46.67
   0  -2  -7  190.24   32.92
   0   2   7  308.64   46.63
   0  -2  -7   83.39   42.01
   0   2   7  294.81   50.37
   0  -2  -7  165.44   40.60
   0  -2  -8   11.00    8.29
   0   2   8    8.94   19.37
   0  -2  -8    8.78    7.25
   0  -2  -8   29.05   15.14
   0   2   8   17.68   13.86
   0   2   8   27.31   14.29
   0  -2  -8   -4.78   28.40
   0  -2  -9    3.51    5.55
   0  -2  -9    1.01   12.98
   0   2   9   -8.39    0.91
   0  -2  -9   -2.39    1.23
   0   2   9    9.60   11.23
   0   2   9    3.20    1.64
   0   3   2 1948.70  137.08
   0  -3  -2 1101.06   51.34
   0   3   2  469.35   41.48
   0   3   2  988.51   61.80
   0   3   2 1753.08   99.37
   0  -3  -2 2556.16   91.89
   0  -3  -2 1798.56   70.41
   0  -3  -3    3.77    4.06
   0  -3  -3    6.29    3.61
   0   3   3    3.79    5.57
   0   3   3   -1.30    2.23
   0   3   3   -1.27    4.09
   0  -3  -3    5.79    3.72
   0   3   3   -1.08    1.91
   0  -3  -3    0.70    0.20
   0  -3  -3   -0.46    3.70
   0   3   3    0.85    8.92
   0   3   4    6.52    6.41
   0   3   4    3.41    6.32
   0  -3  -4   -1.13    3.90
   0  -3  -4    4.32    0.48
   0  -3  -4    8.84    4.50
   0   3   4    5.50    3.46
   0   3   4    5.90    8.13
   0  -3  -4    4.28    5.33
   0  -3  -4    3.39    3.19
   0  -3  -4    2.85   10.49
   0  -3  -5   71.03   17.17
   0  -3  -5   38.80   22.39
   0   3   5   57.24   19.14
   0  -3  -5   63.19   21.67
   0  -3  -5   41.29   13.25
   0   3   5   83.96   22.45
   0   3   5   39.68   30.62
   0   3   5  117.16   28.27
   0  -3  -5  100.30   19.85
   0   3   6    6.15    6.78
   0   3   6   -1.20    7.14
   0  -3  -6    4.29    3.99
   0  -3  -6    5.14   14.89
   0  -3  -6    3.46    3.74
   0   3   6    8.25   15.05
   0  -3  -6    3.00    1.54
   0   3   6    4.30    6.32
   0   3   6    0.19    3.91
   0  -3  -6   -7.31   10.92
   0   3   7  -12.90   22.53
   0   3   7    0.18    3.89
   0  -3  -7    3.69    3.43
   0   3   7   11.27    7.86
   0  -3  -7   -3.93    4.49
   0  -3  -7    5.29    3.47
   0   3   7   23.58   27.90
   0  -3  -7    5.35    4.58
   0   3   8  165.73   38.00
   0  -3  -8   81.59   23.58
   0   3   8  108.33   34.69
   0  -3  -8   99.46   24.35
   0   3   8   40.89   31.29
   0  -3  -8  115.38   36.20
   0  -3  -8   79.63   46.21
   0   3   9    0.89    7.85
   0  -3  -9   24.03   16.04
   0   3   9   -0.13    4.83
   0  -3  -9   25.97   13.48
   0  -3  -9   15.68   10.39
   0   3   9    6.08    4.01
   0   3  10   -2.79    7.91
   0  -3 -10    4.09   19.00
   0   3  10    0.54    5.77
   0  -3 -10    4.35    6.34
   0  -3 -10  -10.44    7.46
   0  -3 -11   -2.82    9.46
   0  -4  -2   48.13   12.68
   0  -4  -2   62.61   16.81
   0   4   2    9.72    7.23
   0  -4  -3  163.62   24.44
   0   4   3   91.98   26.96
   0  -4  -3  110.79   20.82
   0   4   3   23.30   15.76
   0  -4  -3  201.75   29.87
   0   4   3   65.29   18.42
   0  -4  -3   71.64   15.71
   0   4   3   26.14   10.81
   0   4   3  102.90   38.14
   0   4   4   28.23   13.20
   0  -4  -4   34.23   11.92
   0   4   4   31.00   12.04
   0   4   4   61.60   22.83
   0  -4  -4   51.72   14.35
   0   4   4   20.27    9.04
   0  -4  -4   73.85   18.42
   0  -4  -4   70.03   16.81
   0  -4  -4   86.63   16.34
   0  -4  -5  233.05   43.56
   0  -4  -5  144.37   25.88
   0   4   5  199.70   36.70
   0   4   5  126.82   30.39
   0  -4  -5  233.94   33.88
   0   4   5  302.88   51.00
   0   4   5  113.15   41.63
   0  -4  -5  330.09   40.70
   0  -4  -5  157.36   47.54
   0   4   6   57.87   22.56
   0  -4  -6   38.36   15.09
   0  -4  -6   34.64   17.86
   0   4   6   27.23   20.94
   0  -4  -6   38.83   15.29
   0  -4  -6   46.03   16.05
   0   4   6   25.46   13.95
   0   4   6   26.91   14.74
   0  -4  -7  140.96   40.67
   0   4   7   97.55   29.76
   0   4   7   59.05   34.03
   0  -4  -7  100.67   24.91
   0  -4  -7  120.70   27.19
   0   4   7   91.45   28.65
   0   4   8  -21.10   35.67
   0  -4  -8    0.27    4.85
   0   4   8   -5.14   11.25
   0   4   8    3.41    5.50
   0  -4  -8    4.46    5.64
   0  -4  -8   -0.72    1.30
   0  -4  -9  128.24   43.85
   0  -4  -9   90.98   26.70
   0   4   9   27.87   32.25
   0   4   9  114.15   39.57
   0  -4  -9  108.97   29.19
   0   4   9  139.75   40.01
   0  -4 -10  -10.19   12.72
   0   4  10   -1.89    1.80
   0  -4 -10    0.54    5.63
   0  -4 -10   -6.36    7.47
   0   4  10  -17.03   15.30
   0   4  10    7.92   12.08
   0   4  11   12.62   17.87
   0  -4 -11  -23.39   16.71
   0  -4 -11   -1.50    6.99
   0   4  11  -15.03   17.47
   0  -4 -11    3.79    5.56
   0   4  11  -23.64   41.99
   0   5   3  120.12   27.58
   0   5   3  301.17   72.39
   0  -5  -3  826.69   69.18
   0  -5  -3  573.61   51.83
   0   5   4  236.64   49.09
   0  -5  -4  304.22   37.68
   0   5   4  273.64   70.88
   0   5   4  163.95   34.12
   0  -5  -5    5.00    2.89
   0  -5  -5    5.82    1.22
   0   5   5    1.64    5.84
   0   5   5    8.45   10.02
   0   5   5    5.48   17.82
   0   5   5    7.40    9.66
   0  -5  -5    8.39    7.98
   0  -5  -5    9.00    8.72
   0   5   6   18.00   22.99
   0  -5  -6   27.85   12.76
   0  -5  -6   31.24   18.15
   0   5   6   27.78   16.14
   0   5   6    6.32    7.02
   0  -5  -6   34.52   14.95
   0  -5  -6   33.92   13.63
   0   5   6   30.56   17.60
   0  -5  -7   -3.27    2.49
   0   5   7   11.29   13.23
   0   5   7   -4.56    2.86
   0   5   7   -1.57   16.83
   0  -5  -7    3.90    5.27
   0  -5  -7   -7.35    9.16
   0  -5  -8    1.99    5.85
   0  -5  -8    3.51    3.52
   0   5   8    0.88    3.02
   0   5   8   -0.56    7.03
   0  -5  -8    8.27    4.64
   0  -5  -9   13.78    9.83
   0  -5  -9   27.53   17.13
   0  -5  -9   33.81   17.31
   0   5   9   29.72   30.34
   0   5   9   39.49   22.34
   0   5   9   40.16   23.61
   0  -5 -10  -11.15   12.64
   0  -5 -10   -0.41    7.42
   0  -5 -10   -0.36    5.30
   0   5  10   -1.49   11.27
   0   5  10   -7.46   17.03
   0   5  11    6.04   20.24
   0   5  11   -2.92    5.68
   0  -5 -11    7.36    8.23
   0  -5 -11  -21.65   15.02
   0  -5 -11   12.49    9.38
   0   5  11    7.42    3.71
   0   6   5   11.09   26.22
   0   6   5    0.62    2.68
   0  -6  -5   15.56   10.34
   0  -6  -5   17.80    8.70
   0  -6  -5    2.48    3.13
   0  -6  -6  627.95   63.57
   0   6   6  305.79   55.23
   0   6   6  184.73   42.45
   0   6   6  308.30   90.01
   0  -6  -6  832.83   76.96
   0   6   7   16.48   31.77
   0  -6  -7   -7.94    9.63
   0  -6  -7    5.28    7.23
   0   6   7   -0.51    8.72
   0  -6  -7   -5.40    2.13
   0   6   7   -5.09    7.50
   0   6   8    2.22    8.01
   0   6   8    0.73   20.09
   0   6   8   -2.71    7.90
   0  -6  -8    4.98    8.51
   0  -6  -8   -7.52   11.10
   0  -6  -8    8.32    7.49
   0  -6  -9    8.48   10.26
   0   6   9   10.23   30.44
   0   6   9   -6.47    6.64
   0  -6  -9   -1.35   15.67
   0   6   9   -1.03   10.62
   0  -6  -9    9.13   10.20
   0  -6 -10   11.75   11.62
   0   6  10   13.30   20.74
   0   6  10   -3.77   10.41
   0  -6 -10   28.60   21.70
   0  -6 -10    2.84    4.94
   0   6  10  -34.05   40.49
   0  -6 -11    6.81    9.22
   0   6  11   12.84   23.30
   0   6  11   10.30   22.43
   0   6  11    3.97    8.93
   0  -6 -11    9.98    8.89
   0  -6 -11  -17.99   22.49
   0   7   6  -14.39   26.18
   0  -7  -7    0.77    3.46
   0   7   7    1.74    5.01
   0   7   7   15.59   12.54
   0  -7  -7   -3.91    9.06
   0  -7  -8  -10.21   12.11
   0   7   8  -14.14   17.45
   0  -7  -8    3.87    8.71
   0   7   8   -4.66   15.43
   0  -7  -9    8.51    2.28
   0   7   9   21.02   39.40
   0  -7  -9   16.22   14.62
   0   7   9   -8.94   15.39
   0   7   9   -4.86   11.34
   0   7  10    9.35   16.75
   0   7  10    9.58   10.82
   0  -7 -10    0.93    5.06
   0   7  10    7.04   12.11
   0  -7 -10   -2.79    9.33
   0  -7 -10   -4.52   11.18
  -1   0   1   68.59   11.92
  -1   0   1  350.28   38.98
   1   0  -2 9487.95  158.01
  -1   0   2 9999.00  242.47
   1   0  -2 9486.32  118.38
   1   0  -3 1361.15   42.48
  -1   0   3 1818.36   77.61
   1   0  -3  603.02   78.86
   1   0  -3 1157.80   49.81
  -1   0   3 2228.45   65.05
   1   0  -3  961.65   60.55
  -1   0   3  837.89   84.45
   1   0  -4  163.79   28.59
  -1   0   4  457.22   35.05
   1   0  -4  260.79   22.24
  -1   0   4  371.41   41.16
   1   0  -4  251.36   26.61
  -1   0   4  119.03   37.11
   1   0  -4  102.49   39.52
  -1   0   4  480.08   27.52
   1   0  -5    0.35    0.27
  -1   0   5    2.37    3.70
  -1   0   5   -3.40    7.22
   1   0  -5    1.98    1.66
  -1   0   5    6.63    4.02
  -1   0   5    1.61    3.99
  -1   0   5    5.18    3.56
   1   0  -5   -9.69   18.06
   1   0  -5   -1.68    5.02
   1   0  -6    0.16    2.54
   1   0  -6   -1.82    5.98
  -1   0   6    0.43    4.90
  -1   0   6   -0.78    4.70
   1   0  -6    8.07   10.07
  -1   0   6    8.19    6.34
  -1   0   6    6.99   11.71
   1   0  -7   -1.19    9.10
  -1   0   7   16.30    9.59
  -1   0   7   17.43   12.38
   1   0  -7    6.54    5.10
  -1   0   7    7.38   16.49
   1   0  -7   13.78   18.14
   1   0  -8   84.17   30.03
  -1   0   8  135.34   35.99
   1   0  -8   59.80   49.73
  -1   0   8  156.90   30.45
   1   0  -8  114.28   25.95
  -1   1  10   22.46   16.43
  -1   1   9   29.46   34.60
  -1   1   9   90.28   32.82
  -1   1   9  117.19   30.32
  -1   1   8  239.46   40.10
  -1   1   8  193.67   44.43
  -1   1   7  137.60   33.76
  -1   1   7  200.31   34.60
  -1   1   7   43.93   31.19
  -1   1   7    8.38    7.61
   1   1  -6    3.25    1.24
   1   1  -6   -8.16   22.82
  -1   1   6   15.33   13.65
  -1   1   6   21.56   11.96
  -1   1   6   30.14   10.84
  -1   1   5  529.03   46.62
  -1   1   5  153.58   47.50
   1   1  -5  146.39   28.94
   1   1  -5  113.41   43.60
   1   1  -5  230.95   27.71
  -1   1   5  396.53   48.25
  -1  -1  -4   94.40   16.67
  -1   1   4   63.18   28.47
  -1  -1  -4   44.98   15.39
   1   1  -4   40.89   15.16
  -1   1   4  119.56   24.22
   1   1  -4   72.15   13.97
  -1  -1  -3  503.23   34.64
  -1  -1  -3  434.60   30.87
  -1  -1  -3  170.22   25.90
   1   1  -3  202.53   27.10
  -1   1   3  606.18   48.13
  -1   1   3  728.35   43.81
  -1   1   3  511.91   70.89
   1   1  -3  436.81   29.47
  -1   1   2  482.07   56.34
   1   1  -2 1025.41   36.37
   1   1  -2  405.80   57.74
   1   1  -2  538.46   35.05
  -1  -1  -2  933.16   37.29
  -1  -1  -2 1651.43   61.25
  -1   1   2  151.35   23.88
  -1  -1  -2 1190.80   47.12
   1   1  -2 2298.99   89.41
  -1   1   2 1637.12  110.78
  -1   1   2  875.87   50.54
  -1  -1  -1  905.39   40.69
  -1  -1  -1  656.52   28.53
   1   1  -1  227.88   34.68
  -1  -1  -1  106.63   29.88
  -1  -1  -1  986.45   42.39
  -1  -1   0  924.37   41.54
  -1  -1   0  888.46   35.58
  -1  -1   1 1310.25   50.70
   1  -1  -2  887.21   40.96
  -1  -1   2 1738.35   59.38
  -1  -1   2 2164.78   68.37
  -1  -1   2  451.38   49.44
   1  -1  -2 1015.09   92.00
   1  -1  -2 1175.12   41.39
   1  -1  -2 1400.34   68.14
  -1  -1   3  712.52   47.30
   1  -1  -3  540.29   36.62
  -1  -1   3  815.22   44.45
  -1  -1   3   42.45   18.67
  -1  -1   3  188.01   39.25
   1   1   3  569.91   44.61
   1  -1  -3  583.11   50.71
   1  -1  -3  747.48   37.47
   1  -1  -3  374.87   65.01
   1   1   4  105.08   22.76
   1  -1  -4  130.79   17.53
  -1  -1   4   30.44   18.60
   1  -1  -4  144.14   13.58
   1  -1  -4   98.84   17.45
   1  -1  -4   64.44   31.54
   1  -1  -4  110.78   24.97
  -1  -1   4  120.70   22.95
  -1  -1   4  126.83   18.52
  -1  -1   4    6.17    4.14
   1  -1  -5  244.43   40.68
  -1  -1   5  307.98   41.48
   1  -1  -5  294.81   33.03
   1  -1  -5  342.45   31.47
   1  -1  -6   27.34   24.71
   1  -1  -6   15.49    7.02
  -1  -1   6   15.33   10.55
   1  -1  -6    4.52    5.86
   1  -1  -6   16.75    9.47
   1  -1  -7  110.84   32.35
   1  -1  -7  116.65   21.84
   1  -1  -7  112.13   24.10
   1  -1  -7   30.03   27.19
   1  -1  -8   51.94   40.33
   1  -1  -8  140.62   29.67
   1  -1  -8  126.25   36.90
   1  -1  -9   -5.13   27.76
   1  -1  -9   77.36   22.82
   1  -1  -9   91.14   35.49
   1  -1 -10    7.56    8.08
   1  -1 -10   15.84   17.72
   1  -1 -10    6.87   10.20
  -1   2  11    8.94   16.83
  -1   2  10   17.85   26.44
  -1   2  10   13.18   13.68
  -1   2  10   16.99   14.44
  -1   2   9    2.54   13.89
  -1   2   9   -1.24   25.48
  -1   2   9   23.19   16.08
  -1   2   8   16.92   23.69
  -1   2   8   47.69   22.76
  -1   2   8   24.77   29.53
  -1   2   8   46.75   17.80
  -1  -2  -7   24.45   11.50
  -1   2   7   56.81   19.07
  -1  -2  -7   33.94   19.61
  -1   2   7   54.13   23.05
  -1  -2  -7    8.65   16.93
  -1  -2  -7   27.92   11.28
  -1   2   7   -8.00   18.41
  -1   2   6  374.45   46.14
  -1   2   6  306.52   47.97
  -1  -2  -6   99.15   40.37
  -1   2   6  134.66   51.17
  -1  -2  -6  147.58   34.88
  -1  -2  -6  242.83   33.46
  -1  -2  -6  212.10   30.91
  -1  -2  -5  419.00   69.83
  -1   2   5 1700.06   91.67
  -1   2   5 1459.04   78.82
  -1  -2  -5  770.25   72.25
  -1   2   5 1315.17   92.06
  -1  -2  -5 1370.38   75.65
  -1  -2  -5 1109.66   65.53
  -1   2   5  798.11  115.27
  -1  -2  -5 1265.86   71.21
  -1   2   4  149.71   46.39
  -1   2   4  141.80   27.63
  -1  -2  -4  237.43   29.46
  -1   2   4   88.79   18.51
  -1  -2  -4  171.78   24.05
  -1   2   4  178.40   26.99
  -1  -2  -4   48.11   18.35
  -1  -2  -4   92.08   22.09
  -1  -2  -4  158.78   21.88
  -1   2   3  172.86   26.98
  -1   2   3 1412.34  128.20
  -1  -2  -3 2473.36   89.89
  -1  -2  -3 1698.70   64.35
  -1   2   3 1000.05   59.43
  -1  -2  -3  531.58   54.65
  -1   2   3  470.11   65.56
  -1   2   3  932.12   64.42
  -1  -2  -3 1320.39   55.79
  -1  -2  -3 1697.56   68.96
  -1  -2  -2   21.00    7.66
  -1  -2  -2   43.39    9.78
  -1  -2  -2   59.80   12.02
   1   2  -2   25.40   11.57
  -1  -2  -2   55.62   12.60
  -1  -2  -2   31.62    7.43
  -1   2   2    8.49    5.20
   1   2  -1  595.59   46.18
  -1  -2  -1 1361.85   59.17
  -1  -2  -1  885.89   39.12
  -1  -2  -1  629.30   25.12
   1   2  -1 1112.65   71.96
  -1  -2  -1 1258.71   56.59
   1   2   0 1408.06   77.80
  -1  -2   0 1027.21   47.97
  -1  -2   0 1038.90   52.77
   1   2   0  445.72   28.08
   1   2   0 1497.08   76.87
  -1  -2   0  684.10   29.30
  -1  -2   1  989.74   53.76
   1   2   1 1109.06   52.09
  -1  -2   1  899.91   43.81
   1   2   2   20.79   11.88
   1   2   2   59.50   13.59
  -1  -2   2   43.97   12.04
   1   2   2   50.05   11.23
   1  -2  -3 1418.37  126.71
   1   2   3 2060.39   86.92
   1   2   3 2481.77   99.04
   1  -2  -3 1750.62   66.65
   1  -2  -3 2271.17   69.26
   1  -2  -3 1817.10   96.66
   1   2   3  730.06   83.68
   1  -2  -3 1197.99   58.59
   1   2   4   76.83   32.59
   1   2   4  282.54   37.14
   1   2   4  211.57   32.42
   1  -2  -4  151.65   23.45
   1  -2  -4  319.13   26.88
   1  -2  -4  216.61   36.93
   1  -2  -4  228.93   26.29
   1  -2  -4  135.82   43.10
   1   2   5 1736.40   98.93
   1   2   5 1475.65   94.11
   1  -2  -5  927.21  125.31
   1  -2  -5 2067.03   71.46
   1  -2  -5 1157.31   69.11
   1  -2  -5 1395.37  101.60
   1   2   5  451.82   81.33
   1  -2  -5 1632.04   75.34
   1   2   6  330.98   46.57
   1  -2  -6  292.64   50.18
   1  -2  -6  310.26   35.50
   1  -2  -6  173.67   58.27
   1  -2  -6  244.85   34.59
   1   2   6  289.94   45.67
   1   2   7   38.50   16.89
   1  -2  -7   49.88   16.76
   1  -2  -7   24.68   20.06
   1   2   7   48.68   18.30
   1  -2  -7   52.93   15.97
   1  -2  -7   61.33   24.48
   1  -2  -8   30.71   15.05
   1  -2  -8   30.08   14.54
   1  -2  -8   36.88   13.71
   1  -2  -8   12.12    8.12
   1  -2  -9   10.55    9.76
   1  -2  -9    9.36    6.76
   1  -2  -9    9.45    9.78
   1  -2  -9   -9.69   29.87
   1  -2 -10   15.97   10.81
   1  -2 -10   25.08   34.86
   1  -2 -10  -10.72   16.06
   1  -2 -11    6.42    5.62
   1  -2 -11    1.30   10.29
   1  -2 -11  -41.55   49.99
  -1   3  12    5.36   15.59
  -1   3  11   19.23   32.15
  -1   3  11    7.25   11.23
  -1   3  10   20.39   31.38
  -1   3  10   -1.90   10.45
  -1   3  10   17.96   15.62
  -1  -3  -9   13.73    1.30
  -1  -3  -9   18.07   10.93
  -1   3   9   39.20   37.16
  -1   3   9   24.93   13.85
  -1   3   9  -15.41   11.34
  -1   3   9   15.66    8.50
  -1  -3  -8   18.86   11.38
  -1  -3  -8   17.65   15.98
  -1   3   8   -8.74   14.74
  -1  -3  -8   20.65   13.87
  -1   3   8   20.96   17.82
  -1   3   8   15.24   10.34
  -1   3   8   -4.31   13.43
  -1  -3  -7   27.92   17.11
  -1   3   7   39.20   31.66
  -1  -3  -7   18.04    9.57
  -1  -3  -7   21.62   11.49
  -1   3   7   23.04   14.43
  -1   3   7   42.69   19.03
  -1  -3  -6   50.34   22.43
  -1  -3  -6   49.31   15.60
  -1  -3  -6   52.29   17.17
  -1   3   6   49.25   18.12
  -1  -3  -6   35.05   19.93
  -1   3   6   49.30   18.16
  -1  -3  -6   60.58   17.27
  -1   3   6   59.18   36.30
  -1   3   5   16.89    8.75
  -1   3   5   23.20   24.00
  -1  -3  -5   32.09   16.59
  -1   3   5   11.65    6.92
  -1  -3  -5   18.41    8.91
  -1  -3  -5   36.68   13.07
  -1  -3  -5   14.69   13.48
  -1  -3  -5   22.18   11.25
  -1  -3  -4  107.94   18.80
  -1   3   4   80.29   21.50
  -1  -3  -4  239.48   32.61
  -1  -3  -4  174.01   22.59
  -1   3   4   36.05   22.42
  -1  -3  -4  105.25   27.94
  -1   3   4   97.05   37.96
  -1  -3  -4  130.36   27.61
  -1   3   4   68.45   18.41
  -1   3   4    8.32    5.50
  -1  -3  -4  165.29   25.16
  -1   3   3   30.36   11.49
  -1  -3  -3  159.11   22.88
  -1   3   3   20.54    9.55
  -1  -3  -3  112.70   23.06
  -1  -3  -3  249.24   27.90
  -1  -3  -3  112.50   17.43
  -1  -3  -3  249.61   31.41
  -1   3   3  112.54   39.35
  -1  -3  -2  275.29   32.07
  -1  -3  -2  142.06   21.94
  -1  -3  -2  261.52   29.35
  -1  -3  -2  133.50   16.12
  -1  -3  -2  186.23   22.67
   1   3  -1   72.21   21.02
  -1  -3  -1  140.11   22.02
  -1  -3  -1  153.33   23.28
  -1  -3  -1   65.99    9.71
  -1  -3  -1   99.17   15.21
   1   3   0 2322.30  116.83
  -1  -3   0 2508.70   90.40
  -1  -3   0 2313.07   92.71
   1   3   1   70.81   15.13
   1   3   1  180.66   33.78
  -1  -3   1   90.75   19.20
   1   3   1  131.15   27.55
   1   3   1  136.53   27.83
   1   3   2  112.68   18.25
   1   3   2  197.40   27.51
   1   3   2  394.64   51.41
   1   3   2  303.33   39.94
   1   3   2  155.47   35.81
   1   3   3   12.79    9.02
   1   3   3  209.23   31.02
   1   3   3  149.74   24.62
   1   3   3  132.01   38.63
   1  -3  -3   88.05   17.43
   1   3   3  286.41   38.02
   1  -3  -3  115.07   19.21
   1  -3  -3  136.14   29.53
   1   3   3  408.38   53.85
   1   3   4  214.78   34.66
   1   3   4  151.64   28.45
   1  -3  -4  103.28   36.19
   1  -3  -4  154.19   32.43
   1  -3  -4  150.98   23.66
   1   3   4   81.10   32.42
   1  -3  -4  235.60   28.13
   1  -3  -4  108.23   20.62
   1   3   5   26.63   12.93
   1   3   5    3.09    7.96
   1  -3  -5   20.57   31.28
   1  -3  -5   31.60   10.58
   1   3   5   35.05   16.61
   1  -3  -5   20.03    9.82
   1  -3  -5   32.14   11.64
   1  -3  -5   30.15   15.18
   1  -3  -6   38.25   14.09
   1  -3  -6   72.18   27.02
   1  -3  -6   41.02   27.11
   1   3   6   18.37    7.79
   1   3   6   55.91   20.84
   1   3   6   74.96   22.49
   1  -3  -6   65.90   17.93
   1  -3  -7   31.47   12.40
   1   3   7   38.34   16.40
   1   3   7   35.36   16.91
   1   3   7   27.29   28.18
   1  -3  -7   -9.26   15.58
   1  -3  -7   27.78   13.60
   1  -3  -7   29.37   17.24
   1   3   8   16.01   20.55
   1   3   8   13.34   11.06
   1  -3  -8   14.57   12.05
   1  -3  -8   25.56   24.77
   1   3   8   22.72   14.33
   1  -3  -8   20.51    9.30
   1  -3  -8   15.08   11.89
   1  -3  -9    8.77    7.88
   1  -3  -9   15.07    8.92
   1  -3  -9   23.96   13.16
   1   3   9   13.89    8.99
   1   3   9    8.40    3.53
   1  -3 -10   17.21   12.03
   1  -3 -10    1.86    4.66
   1  -3 -10    8.98    7.08
   1  -3 -10   18.43   18.30
   1  -3 -11  -15.39   15.95
   1  -3 -11    4.87   15.22
   1  -3 -12    2.10    7.02
   1  -3 -12   11.16   21.70
  -1   4  11   13.74    9.68
  -1   4  11   30.88   24.06
  -1   4  11   16.97   11.57
  -1  -4 -10  -10.32   10.52
  -1   4  10   -0.57    6.97
  -1  -4 -10   -5.04   10.45
  -1   4  10   -6.36   12.67
  -1   4  10   -6.21   16.85
  -1  -4 -10   -5.80    9.16
  -1  -4  -9   38.68   17.51
  -1  -4  -9   47.16   23.70
  -1   4   9   41.01   41.66
  -1   4   9   39.09   20.43
  -1   4   9   30.56   19.81
  -1  -4  -9   26.49   14.24
  -1   4   8    6.53   22.64
  -1  -4  -8   14.72   14.32
  -1  -4  -8   -2.48    4.85
  -1   4   8   -1.38   10.18
  -1  -4  -8    0.32    4.60
  -1   4   8    1.81    2.52
  -1  -4  -7    4.15    5.31
  -1  -4  -7    1.21    5.41
  -1   4   7   -9.71    9.88
  -1   4   7   -3.64   24.74
  -1   4   7   -2.56    8.41
  -1  -4  -7  -10.94   12.49
  -1  -4  -7    1.91    2.45
  -1   4   6  -15.29   17.55
  -1   4   6   17.64   10.90
  -1  -4  -6   28.95   13.14
  -1  -4  -6   32.35   11.96
  -1  -4  -6   26.39   10.87
  -1   4   6   13.19    6.90
  -1  -4  -6   22.38   12.85
  -1  -4  -5  206.97   39.23
  -1   4   5  109.94   26.81
  -1   4   5   93.66   27.34
  -1   4   5   95.54   44.62
  -1  -4  -5  325.61   42.95
  -1  -4  -5  225.89   34.52
  -1   4   5   28.56   24.84
  -1  -4  -5  171.97   27.59
  -1  -4  -4  194.50   27.38
  -1   4   4   50.28   27.35
  -1   4   4   34.34   14.24
  -1   4   4   21.98   11.59
  -1  -4  -4  143.74   26.06
  -1  -4  -4  189.93   31.47
  -1  -4  -4  123.05   28.49
  -1  -4  -4  106.87   19.90
  -1   4   4   23.05   17.05
  -1  -4  -3 1197.51   77.14
  -1  -4  -3  669.46   59.68
  -1  -4  -3  863.09   58.10
  -1  -4  -3 1337.71   73.57
  -1  -4  -3  602.88   42.86
  -1  -4  -2    9.16    5.36
  -1  -4  -2   23.41    9.57
  -1  -4  -2   26.34   12.04
  -1  -4  -2    6.56    3.52
  -1  -4  -1  564.89   50.60
  -1  -4  -1  599.53   51.47
  -1  -4   0  282.50   37.09
  -1  -4   0  303.75   36.33
   1   4   1  413.40   56.65
   1   4   1  437.81   57.77
   1   4   1  340.18   50.10
   1   4   2   -0.38    6.47
   1   4   2    6.63    3.04
   1   4   2   22.74   13.30
   1   4   2   20.34   12.10
   1   4   3  755.37   64.57
   1   4   3  669.43   90.70
   1   4   3  920.16   76.99
   1   4   4   89.77   22.37
   1  -4  -4  112.49   22.57
   1  -4  -4  170.38   27.51
   1   4   4  127.71   27.75
   1   4   4   76.47   32.68
   1   4   4  148.58   30.61
   1  -4  -4   78.44   19.04
   1   4   5  285.56   45.42
   1   4   5  198.77   37.81
   1  -4  -5  356.02   39.96
   1  -4  -5  239.41   46.89
   1  -4  -5  248.07   35.02
   1  -4  -5  158.51   29.16
   1   4   5  117.84   45.54
   1  -4  -6   32.61   13.44
   1  -4  -6   22.48   11.24
   1   4   6   60.29   26.17
   1  -4  -6   37.77   19.44
   1   4   6   28.11   25.84
   1   4   6   29.91   14.14
   1  -4  -6   41.65   32.01
   1   4   6   43.35   19.89
   1  -4  -7    3.91    2.07
   1   4   7   -0.31    5.84
   1  -4  -7   11.62    8.95
   1   4   7   -8.99   17.81
   1   4   7    7.14    8.02
   1   4   7    8.03    9.82
   1  -4  -7   -0.66   12.68
   1  -4  -7    5.16    4.50
   1  -4  -8    5.26    7.69
   1   4   8   -1.50   24.51
   1  -4  -8   -7.72    3.13
   1  -4  -8    2.98    7.54
   1   4   8    3.99   10.32
   1   4   8    6.66   10.00
   1  -4  -8  -11.71   16.29
   1  -4  -9   19.14   11.58
   1  -4  -9   50.36   18.46
   1   4   9   17.59   23.67
   1   4   9   60.41   25.47
   1   4   9   27.37   16.26
   1  -4  -9   94.16   37.70
   1  -4 -10    4.26    6.65
   1   4  10   13.69   15.64
   1  -4 -10   -9.48    6.82
   1  -4 -10    9.95   11.10
   1   4  10   -0.19   13.09
   1  -4 -11   50.00   22.32
   1  -4 -11   48.84   20.96
   1  -4 -11   71.83   38.43
   1  -4 -12  -30.78   31.31
  -1   5  12    1.61    8.41
  -1  -5 -11   -5.60    6.67
  -1   5  11    1.70   13.26
  -1   5  11  -15.43   48.94
  -1   5  11   -5.93   11.90
  -1  -5 -11    1.38    8.75
  -1  -5 -10    9.20   11.52
  -1   5  10   -0.09    6.39
  -1   5  10   -0.68    5.38
  -1  -5 -10    4.61    4.03
  -1  -5 -10   13.14    8.93
  -1   5   9   10.58    5.94
  -1   5   9    6.78   22.82
  -1  -5  -9    7.06    9.02
  -1  -5  -9   14.14   10.60
  -1  -5  -9   18.72   17.30
  -1   5   9   -0.07    5.31
  -1  -5  -8    2.81    7.54
  -1  -5  -8   -0.70    6.38
  -1   5   8  -19.57   36.42
  -1   5   8    2.75    3.93
  -1   5   8   13.71   13.71
  -1  -5  -8   -4.03   10.23
  -1   5   7   23.60   14.79
  -1   5   7    7.04   20.83
  -1  -5  -7   59.77   19.05
  -1  -5  -7   43.12   16.15
  -1   5   7   20.42   12.55
  -1  -5  -7   82.84   24.14
  -1  -5  -7   74.33   29.38
  -1  -5  -6   48.19   18.90
  -1   5   6   39.73   34.63
  -1  -5  -6   38.85   12.80
  -1   5   6   15.09   12.19
  -1   5   6   20.87   14.61
  -1  -5  -6   48.46   21.95
  -1  -5  -6   82.07   24.00
  -1  -5  -5   39.26   14.85
  -1   5   5   12.15    9.41
  -1  -5  -5   31.95   15.98
  -1   5   5   -0.22   15.19
  -1  -5  -5   17.92   10.36
  -1   5   5   15.18   27.40
  -1  -5  -5   72.58   22.37
  -1  -5  -4    6.53    4.23
  -1  -5  -4   -1.55    4.45
  -1  -5  -4   13.82   11.39
  -1  -5  -4    7.97    6.55
  -1  -5  -4    3.37    5.36
  -1  -5  -3   48.88   17.04
  -1  -5  -3   40.86   14.09
  -1  -5  -3   49.49   16.53
  -1  -5  -3   28.54    9.91
  -1  -5  -2  170.02   22.47
  -1  -5  -2  395.53   47.76
  -1  -5  -2  391.31   46.18
  -1  -5  -2  250.91   32.85
  -1  -5  -1 2150.52  109.08
   1   5   1  704.53   82.18
   1   5   2  229.05   47.25
   1   5   2  257.41   55.81
   1   5   3   -1.46   10.95
   1   5   3   25.41   13.12
   1   5   3   41.93   22.99
   1   5   4    0.93    4.61
   1   5   4   -2.55    7.04
   1   5   4   10.30    7.84
   1   5   4    7.32    7.74
   1  -5  -5   46.62   15.74
   1   5   5   30.93   16.06
   1   5   5   -1.69   16.88
   1   5   5   15.34    9.82
   1  -5  -5   22.84   10.86
   1  -5  -5   62.59   19.06
   1   5   5   69.82   29.43
   1  -5  -6   45.60   16.82
   1   5   6   54.26   21.19
   1   5   6   28.57   14.82
   1  -5  -6   56.37   19.00
   1  -5  -6   85.14   31.34
   1   5   6   21.94   16.56
   1   5   6   97.46   34.82
   1   5   7   65.67   25.47
   1   5   7   93.38   36.16
   1  -5  -7   44.45   17.39
   1  -5  -7   50.76   18.37
   1   5   7   32.08   29.90
   1   5   7   30.74   16.45
   1  -5  -7   77.00   31.27
   1  -5  -8    4.44   10.23
   1  -5  -8    7.31    4.46
   1   5   8   17.00   30.77
   1   5   8   -1.70    3.71
   1   5   8   -7.27   10.52
   1  -5  -8    7.68   13.88
   1  -5  -9    8.49    8.01
   1  -5  -9   12.61   20.85
   1  -5  -9    9.47    8.98
   1   5   9   23.10   15.12
   1   5   9    8.77    6.63
   1   5   9    2.99    8.93
   1  -5 -10   -8.30   10.13
   1  -5 -10    0.13    2.87
   1  -5 -10   -0.70   12.00
   1   5  10  -15.76   15.65
   1   5  10    1.66   11.88
   1   5  10    4.81   29.88
   1  -5 -11    4.61    3.54
   1   5  11    0.50    1.33
   1   5  11    7.76   16.21
   1  -5 -11   -3.68    5.05
   1  -5 -11   -2.70   23.46
   1  -5 -12    1.35    9.08
  -1   6  11   14.33   16.41
  -1  -6 -11  -11.62   19.59
  -1  -6 -11   -4.95   13.60
  -1  -6 -10    4.71   14.57
  -1   6  10    8.89   11.63
  -1   6  10   -0.64    4.88
  -1  -6 -10    6.32    9.02
  -1   6  10   16.81   23.04
  -1  -6 -10  -10.71   12.02
  -1   6   9   -4.73   13.66
  -1  -6  -9   10.39   10.83
  -1  -6  -9    4.68   14.29
  -1   6   9    1.28    8.31
  -1   6   9   44.64   48.65
  -1  -6  -9   11.68   13.15
  -1  -6  -8   31.64   16.81
  -1  -6  -8   25.21   11.80
  -1   6   8   18.81   14.16
  -1   6   8   16.58   13.25
  -1   6   8  -23.08   33.53
  -1  -6  -8   39.35   22.67
  -1  -6  -7   50.29   20.61
  -1   6   7   16.69   13.47
  -1   6   7   26.12    4.81
  -1  -6  -7   27.87   14.21
  -1  -6  -7   76.64   25.97
  -1  -6  -7   39.95   21.25
  -1  -6  -6  107.47   36.20
  -1  -6  -6  125.02   27.49
  -1  -6  -6  155.32   33.81
  -1  -6  -6  206.64   41.36
  -1  -6  -5   76.01   22.43
  -1  -6  -5   70.76   19.33
  -1  -6  -5  108.39   28.93
  -1  -6  -4  972.64   67.18
  -1  -6  -4 1355.37   89.94
  -1  -6  -3   68.26   15.82
  -1  -6  -3  126.62   26.09
  -1  -6  -3  145.63   32.44
  -1  -6  -3  143.83   30.18
   1   6   3   15.05    9.51
   1   6   3   62.67   33.47
   1   6   3   51.79   24.23
   1   6   4  540.31   66.99
   1   6   4  680.16  115.76
   1   6   5   12.68   10.00
   1   6   5   41.56   33.55
   1   6   5   69.40   29.54
   1   6   5   36.22   18.42
   1   6   6  109.60   32.78
   1   6   6   39.05   17.47
   1   6   6   62.34   40.92
   1  -6  -7   33.61   16.89
   1   6   7   29.33   18.06
   1   6   7   24.92   12.44
   1   6   7   -6.02   17.91
   1   6   7   77.82   37.18
   1  -6  -7   48.20   18.67
   1  -6  -8   31.17   16.31
   1   6   8   27.58   19.95
   1  -6  -8   27.23   14.86
   1   6   8   12.24   14.18
   1   6   8   21.70   31.89
   1  -6  -9   -1.89    6.59
   1  -6  -9    0.79    3.06
   1   6   9   -1.73    8.50
   1   6   9    6.96    6.05
   1  -6  -9    9.12   18.20
   1  -6 -10    3.79    9.05
   1  -6 -10    6.21    8.33
   1   6  10   21.58   15.73
   1   6  10   -5.17   16.99
   1   6  10   27.58   22.50
   1  -6 -10   -8.06    8.39
   1   6  11   10.50   15.73
   1  -6 -11    0.98   10.44
   1  -6 -11   12.78   21.58
  -1   7  10  -22.44   35.63
  -1  -7  -9    8.17    8.67
  -1  -7  -8    4.49    2.93
  -1  -7  -7   -4.90    7.71
  -1  -7  -7    7.90   10.95
  -1  -7  -6    8.61   11.82
  -1  -7  -6    4.53    1.81
  -1  -7  -5    2.88    4.65
  -1  -7  -5   30.24   18.89
  -1  -7  -4   -5.14    4.96
  -1  -7  -4    0.78    3.40
   1   7   5   -1.78   12.20
   1   7   5    3.51    8.21
   1   7   6   -0.87    4.05
   1   7   6   12.66   17.04
   1   7   7    2.81    5.59
   1   7   7    7.73   17.51
   1   7   8    7.21   13.10
   1   7   8   30.38   37.11
   1   7   9   27.27   19.79
   1   7   9  -25.22   37.76
   1   7  10   -1.80    6.43
   1   7  10  -16.19   38.71
  -1  -8  -8  -10.59   11.12
  -1  -8  -7   15.44   10.93
  -1  -8  -7  -11.21   16.71
   1   8   7    3.55    9.86
   1   8   8   -1.51    1.02
   2   0  -2 5474.38  134.12
  -2   0   2 1955.36   75.06
  -2   0   2  961.92  103.24
   2   0  -2 4796.24  232.15
   2   0  -2 4091.07   87.10
  -2   0   2 6559.63  220.65
  -2   0   2 1945.49  131.97
  -2   0   3  487.75   42.61
   2   0  -3  396.47   73.23
  -2   0   3  650.42   40.29
   2   0  -3  776.26   57.61
   2   0  -3  565.75   36.97
  -2   0   3  525.76   70.97
   2   0  -3  831.19   31.36
  -2   0   4  423.81   32.08
  -2   0   4  281.90   25.02
  -2   0   4  370.17   41.78
   2   0  -4  202.27   56.58
  -2   0   4  180.15   47.77
   2   0  -4  370.54   44.41
   2   0  -4  293.20   29.82
   2   0  -4  378.28   25.03
  -2   0   5  228.51   25.88
  -2   0   5  214.02   36.00
   2   0  -5  169.38   33.79
   2   0  -5  174.33   19.24
  -2   0   5  240.84   24.38
  -2   0   5   71.32   32.88
   2   0  -5  207.20   29.20
   2   0  -5  182.92   26.18
   2   0  -5  107.02   46.15
  -2   0   6  141.64   50.79
  -2   0   6  544.95   45.90
  -2   0   6  444.24   55.60
   2   0  -6  198.80   63.76
   2   0  -6  350.75   52.87
   2   0  -6  345.65   39.24
   2   0  -6  308.00   28.64
   2   0  -7   29.69   15.94
   2   0  -7   34.87   14.48
  -2   0   7   42.86   17.56
   2   0  -7   -9.28   21.64
  -2   0   7   10.17   12.03
  -2   0   7    6.98    8.81
  -2   0   8  407.47   63.12
   2   0  -8  164.88   69.77
   2   0  -8  391.40   64.81
  -2   0   8  107.17   51.84
  -2   0   8   31.21   36.08
   2   0  -8  330.93   44.85
   2   0  -9   -8.06   13.03
   2   0  -9    3.57   31.12
  -2   0   9    3.58    9.00
   2   0  -9    2.11    1.19
  -2   0   9    1.42    7.83
   2   0 -10   21.40   20.91
  -2   0  10    2.40    8.29
   2   0 -10   32.35   43.96
  -2   1  11   -3.51    6.62
  -2   1  10  -23.54   39.79
  -2   1  10   22.69   20.76
   2   1  -9   12.24    8.24
  -2   1   9   11.66   31.23
  -2   1   9  -12.77   15.59
   2   1  -9   37.07   40.84
  -2   1   9   23.05   17.11
   2   1  -8    8.83    3.86
  -2   1   8    1.40    5.20
  -2   1   8    8.32   13.86
  -2   1   8  -17.42   25.88
   2   1  -8    4.26   27.01
   2   1  -7   11.00   11.00
   2   1  -7    2.54   20.18
  -2   1   7   -2.43   16.54
  -2   1   7   -1.58    4.62
   2   1  -7    3.85    5.19
  -2   1   7    5.19    5.26
   2   1  -6   52.88   32.46
  -2   1   6  179.16   28.41
  -2   1   6  159.18   34.70
   2   1  -6  132.06   31.07
   2   1  -6  114.28   21.65
  -2   1   6   64.21   32.79
  -2   1   5  409.84   39.24
  -2   1   5  487.88   55.38
   2   1  -5  209.32   65.50
   2   1  -5  400.20   49.89
  -2   1   5  301.26   69.23
   2   1  -5  452.90   39.52
   2   1  -4   -2.31    4.85
  -2   1   4  -12.42   16.72
  -2   1   4    3.66    2.71
   2   1  -4    5.50    1.46
   2   1  -4    2.33    0.91
  -2   1   4    4.25    4.97
   2   1  -4  -20.33   17.89
  -2   1   3  115.13   22.59
   2   1  -3  168.89   47.50
  -2   1   3  262.97   55.11
   2   1  -3  256.46   30.59
  -2   1   3   15.37    7.29
  -2   1   3   95.84   32.72
   2   1  -3  261.88   23.32
   2   1  -2 2060.94   72.15
   2   1  -2 1795.36   50.58
   2   1  -1  264.46   47.04
  -2  -1   0  221.27   26.45
  -2  -1   0   19.79   15.70
  -2  -1   0  187.73   20.96
  -2  -1   0   13.48    6.68
  -2  -1   1  493.88   39.25
  -2  -1   1  366.54   25.99
  -2  -1   2 1437.97   56.08
   2  -1  -2 1599.68  140.13
  -2  -1   2 1380.81   88.82
  -2  -1   3  330.60   32.63
   2  -1  -3  318.69   40.24
  -2  -1   3  491.53   40.18
   2  -1  -3   24.86   14.77
   2  -1  -3  214.82   55.46
   2  -1  -3  196.83   23.69
  -2  -1   3  122.60   32.10
   2  -1  -3  251.42   21.75
   2  -1  -4    7.05    4.68
   2  -1  -4    8.31    4.70
  -2  -1   4    2.71    5.69
  -2  -1   4    9.73    5.65
  -2  -1   4    5.02    2.92
  -2  -1   4    4.24    4.37
   2  -1  -4    5.42    2.80
   2  -1  -4    6.25    7.41
  -2  -1   5  870.26   45.78
  -2  -1   5  699.44   62.69
  -2  -1   5  189.27   51.85
   2  -1  -5  380.00   87.06
   2  -1  -5  659.10   42.62
  -2  -1   5  935.90   58.61
   2  -1  -5  642.54   68.36
   2  -1  -5  501.39   45.00
  -2  -1   6  200.57   37.25
   2  -1  -6  115.61   50.32
  -2  -1   6   40.72   27.26
   2  -1  -6  192.94   40.27
  -2  -1   6   14.92   10.86
   2  -1  -6  139.86   25.66
   2  -1  -6  178.00   23.96
   2  -1  -7   14.80   16.15
   2  -1  -7    6.00    4.79
   2  -1  -7    6.02    4.37
  -2  -1   7    2.49    5.06
   2  -1  -7    3.14   23.51
  -2  -1   7    3.03    4.61
  -2  -1   7   -3.53   17.28
   2  -1  -8   21.38   14.17
   2  -1  -8   -2.44    5.59
   2  -1  -8    8.97   13.66
  -2  -1   8   12.97   13.30
   2  -1  -9   40.81   23.84
   2  -1  -9   14.16   11.01
   2  -1  -9   -0.49   12.32
   2  -1 -10   -7.80   12.42
   2  -1 -10    5.14    5.20
   2  -1 -10   18.16   26.63
   2  -1 -11    7.00   12.57
   2  -1 -11  -18.68   31.74
   2  -1 -11    7.39    9.54
  -2   2  12    2.98   12.48
  -2   2  12    0.39    7.33
  -2   2  11   11.48   11.64
  -2   2  11    1.67   24.48
  -2   2  10   -3.14   18.72
  -2   2  10    6.49    9.13
  -2   2  10  -15.18   28.96
  -2   2   9    4.39    2.24
  -2   2   9  -22.73   28.14
  -2   2   9   -0.79    7.29
  -2   2   8   52.91   19.50
  -2   2   8   33.57   24.65
  -2   2   8   73.69   28.09
   2   2  -7   77.44   27.79
  -2   2   7   93.93   24.48
  -2   2   7  104.30   31.30
  -2   2   7   48.29   40.84
   2   2  -7   91.45   50.95
   2   2  -6    2.27    5.51
  -2   2   6    6.08    5.19
  -2   2   6    8.37    6.52
  -2   2   6    5.25   12.56
   2   2  -6    9.86   24.44
  -2   2   5  132.76   46.90
  -2   2   5   78.07   18.84
  -2   2   5  115.51   28.44
   2   2  -5   53.59   32.93
   2   2  -5  101.96   24.38
  -2  -2  -4  267.86   31.63
  -2   2   4  123.56   26.88
   2   2  -4  337.50   49.20
  -2  -2  -4   12.85   26.62
   2   2  -4   95.32   40.75
  -2  -2  -4  331.93   39.28
   2   2  -4  163.46   28.03
  -2   2   4  227.15   59.46
  -2  -2  -4  107.56   24.40
  -2   2   4   12.07    5.50
  -2   2   4   67.91   32.43
   2   2  -3   45.42   12.51
  -2  -2  -3   92.33   17.94
  -2  -2  -3   24.69   11.90
  -2  -2  -3   23.32   72.93
   2   2  -3  125.38   29.02
   2   2  -3   17.09   16.75
  -2   2   3   55.48   26.49
  -2  -2  -2   25.99    9.05
   2   2  -2  160.65   32.63
   2   2  -2  131.00   22.74
  -2  -2  -2    2.76    3.88
   2   2  -2   35.83   19.80
  -2  -2  -2  101.94   19.41
   2   2  -2   47.68   10.03
  -2  -2  -2   77.55   16.84
  -2  -2  -2   55.66   12.20
   2   2  -1  461.31   59.93
  -2  -2  -1 1137.85   65.31
  -2  -2  -1 1131.99   61.21
  -2  -2  -1  650.06   35.78
   2   2   0   91.10   13.36
   2   2   0   32.35   13.81
  -2  -2   0   84.64   15.83
  -2  -2   0   94.41   18.93
  -2  -2   0   50.91    8.58
  -2  -2   1 1280.54   57.55
  -2  -2   1 1370.44   72.22
   2   2   2   87.65   17.45
  -2  -2   2   91.50   12.56
   2   2   2   81.20   14.66
  -2  -2   2  136.34   23.37
  -2  -2   2  139.17   17.83
   2   2   3  103.87   21.83
  -2  -2   3   97.32   17.24
   2   2   3   74.51   16.65
  -2  -2   3  127.80   23.45
  -2  -2   3  136.54   16.66
  -2  -2   3    5.01    9.60
   2  -2  -3   40.13   11.68
   2  -2  -4  363.66   32.83
  -2  -2   4  396.47   40.70
   2   2   4  292.63   38.82
  -2  -2   4  546.56   49.75
   2  -2  -4  312.04   75.12
   2  -2  -4  380.16   27.90
  -2  -2   4  496.45   30.71
   2  -2  -4  364.12   50.54
   2  -2  -4  242.97   30.78
   2   2   5  212.36   36.85
  -2  -2   5  221.82   34.31
   2  -2  -5  237.80   43.67
   2  -2  -5  154.61   58.87
  -2  -2   5  274.61   36.44
   2  -2  -5  168.87   27.90
   2  -2  -5  245.78   28.84
   2  -2  -6   18.78    7.86
   2  -2  -6    2.59    3.52
   2  -2  -6    8.73    9.28
  -2  -2   6   21.64   10.50
   2  -2  -6   10.16   17.91
  -2  -2   6   29.38   15.17
   2  -2  -6   15.44    9.64
   2  -2  -7   94.53   24.31
  -2  -2   7  112.29   30.08
   2  -2  -7  116.60   58.25
   2  -2  -7  154.39   39.84
   2  -2  -7  131.06   24.01
   2  -2  -8   70.45   21.70
   2  -2  -8   60.98   41.40
   2  -2  -8   94.78   32.09
   2  -2  -8   96.10   22.08
   2  -2  -9    4.23    6.32
   2  -2  -9    5.16   17.39
   2  -2  -9    6.24    7.87
   2  -2 -10    0.10    7.10
   2  -2 -10    8.01    8.27
   2  -2 -11  -11.61   39.79
   2  -2 -11    8.79    8.62
   2  -2 -11    1.73   21.53
   2  -2 -12   23.45   40.50
   2  -2 -12  -11.60   14.11
   2  -2 -12    3.48   12.70
  -2   3  12   11.47   17.95
  -2   3  11   21.43   25.31
  -2   3  11   16.60   18.17
  -2   3  10    8.85    9.83
  -2   3  10  -26.64   35.30
  -2   3  10   17.07   20.99
  -2   3   9   18.67    8.66
  -2   3   9   34.21   22.00
  -2   3   9   -3.03   10.66
  -2   3   8   12.14    7.08
  -2   3   8   -4.68   24.82
  -2   3   8   12.36   13.66
  -2  -3  -7   26.17   15.42
  -2  -3  -7   36.23   15.01
  -2   3   7   27.45   13.89
  -2   3   7   30.72   18.47
  -2   3   7   -1.69   15.33
  -2  -3  -6    3.60    6.27
  -2  -3  -6   31.85   13.91
  -2   3   6    2.33   15.03
  -2   3   6   10.04    7.38
  -2   3   6   18.91   12.53
  -2  -3  -5    3.47    4.31
  -2  -3  -5    1.40    2.32
  -2   3   5    4.68    7.81
  -2   3   5   14.08   16.59
  -2  -3  -5    3.56    3.81
   2   3  -5    4.84   10.64
  -2  -3  -5    8.01    6.64
  -2   3   5   -4.74   15.85
  -2   3   4   79.35   39.08
  -2  -3  -4   76.50   20.47
   2   3  -4   39.04   13.17
  -2   3   4   32.67   15.51
   2   3  -4   38.28   27.16
  -2  -3  -4  176.25   30.38
  -2  -3  -4   94.25   17.24
  -2  -3  -4  127.42   22.85
   2   3  -3  289.68   49.37
  -2  -3  -3  398.28   44.04
   2   3  -3   66.79   32.94
  -2  -3  -3  171.05   27.39
  -2  -3  -3  342.97   38.34
   2   3  -3   60.02   14.16
  -2  -3  -3  174.59   20.55
  -2  -3  -3  251.43   29.75
  -2  -3  -2  521.98   47.56
   2   3  -2  473.80   61.38
   2   3  -2  225.19   35.74
  -2  -3  -2  481.69   46.32
   2   3  -2  113.70   35.18
  -2  -3  -2  223.41   26.11
  -2  -3  -2  219.89   19.57
  -2  -3  -2  315.85   30.99
   2   3  -1  162.84   36.66
   2   3  -1  802.86   78.67
  -2  -3  -1  678.50   55.21
  -2  -3  -1  654.83   51.74
   2   3  -1  662.72   63.26
  -2  -3  -1  238.46   15.28
  -2  -3  -1  425.35   32.18
   2   3   0  111.67   17.25
   2   3   0   68.03   19.38
   2   3   0  331.49   47.29
  -2  -3   0  241.02   30.44
  -2  -3   0  148.68   16.98
  -2  -3   0  231.88   32.70
   2   3   0  306.54   48.08
   2   3   1  554.92   43.54
  -2  -3   1  689.64   57.22
  -2  -3   1  655.25   47.69
   2   3   2  463.99   45.21
   2   3   2  347.19   30.78
  -2  -3   2  266.00   17.36
  -2  -3   2  297.93   22.95
  -2  -3   2  490.17   49.43
  -2  -3   2  485.33   40.10
   2   3   2  100.93   27.16
   2   3   3  405.51   45.18
   2   3   3  322.96   35.75
  -2  -3   3  242.06   26.77
  -2  -3   3  375.79   45.12
  -2  -3   3  386.73   34.58
   2   3   4  198.46   34.15
   2   3   4  170.42   29.19
  -2  -3   4  114.76   21.68
   2  -3  -4   75.90   18.85
  -2  -3   4  171.72   31.11
   2   3   4    2.02    3.75
  -2  -3   4  153.40   22.03
   2   3   4   24.33   21.45
   2  -3  -5    9.40    8.02
   2  -3  -5   14.26    8.36
   2   3   5   16.81   11.39
   2  -3  -5   16.17   13.08
   2   3   5   14.74   10.89
   2  -3  -5    7.35    9.09
   2  -3  -6   30.95   11.99
   2  -3  -6   37.15   14.63
   2  -3  -6    0.09   15.76
   2   3   6   40.56   18.59
   2   3   6   40.58   16.46
   2  -3  -6   37.90   19.28
   2  -3  -7   53.19   16.65
   2  -3  -7   37.53   15.84
   2   3   7   53.90   22.78
   2  -3  -7   -0.10   16.63
   2   3   7   35.27   15.64
   2  -3  -7   53.16   24.93
   2  -3  -8   16.90    8.97
   2  -3  -8   24.38   12.95
   2  -3  -8  -12.64   29.47
   2  -3  -8   20.11   16.06
   2  -3  -9   19.33    9.98
   2  -3  -9   19.88   13.10
   2  -3  -9   27.07   33.98
   2  -3  -9   33.95   26.85
   2  -3 -10    8.31    9.64
   2  -3 -10   27.07   41.63
   2  -3 -10   -6.76    8.75
   2  -3 -11    8.83    8.10
   2  -3 -11  -31.08   52.05
   2  -3 -11   15.47   19.99
   2  -3 -12  -16.29   22.83
  -2   4  11   11.17   29.10
  -2   4  11   17.26   22.05
  -2   4  10    4.54    4.30
  -2   4  10   -0.27   10.29
  -2   4   9    1.66    6.29
  -2   4   9    0.08    6.73
  -2   4   9   21.37   29.23
  -2  -4  -8    4.08    5.21
  -2  -4  -8   20.41   13.90
  -2   4   8   -3.17    8.55
  -2   4   8  -19.57   28.83
  -2   4   8   18.43   14.22
  -2  -4  -7  119.17   34.66
  -2   4   7   45.34   19.75
  -2   4   7   54.92   40.24
  -2   4   7   66.15   26.80
  -2  -4  -7  181.25   36.67
  -2  -4  -7  106.93   24.62
  -2  -4  -7  141.08   31.13
  -2  -4  -6    4.40    6.58
  -2  -4  -6   -0.33    2.12
  -2  -4  -6   -1.20    1.13
  -2   4   6   10.25    9.96
  -2  -4  -6   -1.18    2.20
  -2  -4  -5   59.26   21.34
  -2  -4  -5   60.30   17.55
  -2  -4  -5   50.73   14.81
  -2  -4  -5   84.09   23.00
  -2  -4  -4  175.08   29.63
  -2  -4  -4  209.73   35.96
  -2  -4  -4  108.01   26.34
  -2  -4  -4  113.49   19.28
  -2  -4  -4  129.32   25.22
  -2  -4  -3  141.57   26.54
  -2  -4  -3  149.82   29.37
  -2  -4  -3   81.98   19.30
  -2  -4  -3   67.90   13.17
  -2  -4  -3  103.98   20.50
  -2  -4  -2  658.65   58.87
   2   4  -2  391.82   61.54
  -2  -4  -2  631.25   57.65
  -2  -4  -2  239.76   28.86
  -2  -4  -2  297.04   24.39
  -2  -4  -2  443.20   39.62
  -2  -4  -1 2316.43  113.20
   2   4  -1 1855.47  130.54
  -2  -4  -1 2188.22  105.15
   2   4  -1 1231.69   98.03
  -2  -4  -1  992.74   36.44
  -2  -4  -1 1486.80   67.53
   2   4   0   -1.01    4.11
  -2  -4   0    0.68    4.06
   2   4   0    6.99    8.35
   2   4   0   -3.00    4.87
   2   4   0   -1.86    5.81
  -2  -4   0   -0.31    0.59
  -2  -4   0   -1.71    4.14
   2   4   1 1013.04   65.69
  -2  -4   1 1986.26  108.58
   2   4   1 2671.73  153.30
   2   4   1 2481.97  146.87
  -2  -4   1 2123.92   97.54
   2   4   1  775.35   66.00
  -2  -4   1 1308.93   53.60
   2   4   2  135.83   20.21
   2   4   2  471.69   48.63
  -2  -4   2  515.70   56.33
   2   4   2  757.01   79.48
   2   4   2  897.49   91.25
  -2  -4   2  549.88   48.47
   2   4   2  160.71   36.73
   2   4   3   87.69   19.02
   2   4   3  125.05   26.77
  -2  -4   3  124.38   29.75
   2   4   3   33.40   17.23
   2   4   3  186.80   39.16
   2   4   3  258.64   50.71
   2   4   4  127.64   26.20
   2   4   4   47.88   27.76
   2   4   5   -0.97    3.31
   2   4   5   65.44   21.92
   2   4   5   16.16   15.92
   2   4   5   94.40   27.39
   2  -4  -6    3.07    5.19
   2  -4  -6   10.10   10.21
   2   4   6   -9.21    9.67
   2   4   6   -1.25    5.60
   2   4   6   -1.66   12.41
   2  -4  -6   11.86   11.68
   2   4   7  191.59   41.91
   2   4   7  173.92   40.02
   2  -4  -7  165.42   70.53
   2  -4  -7  207.23   50.74
   2  -4  -7  107.55   28.49
   2  -4  -7  191.76   34.24
   2  -4  -8    6.84    9.44
   2  -4  -8    2.45    5.99
   2   4   8    3.38    1.36
   2  -4  -8   19.89   16.51
   2   4   8   21.64   15.86
   2  -4  -8    5.43   25.84
   2  -4  -9   34.65   16.01
   2  -4  -9   12.82   10.87
   2  -4  -9   12.57   17.81
   2  -4  -9   38.78   23.95
   2  -4 -10   23.94   16.63
   2  -4 -10   18.68   16.91
   2  -4 -11    9.26   13.00
   2  -4 -11    7.16   12.07
  -2   5  11   12.34   21.22
  -2   5  11   -5.60    8.62
  -2   5  10   -9.43   13.33
  -2   5  10  -11.64   15.44
  -2   5  10  -32.28   56.23
  -2  -5  -9  -13.16   18.04
  -2  -5  -9   -2.47    9.34
  -2   5   9   -4.47    9.61
  -2   5   9    5.04    8.17
  -2   5   9  -13.40   30.12
  -2  -5  -8   33.49   21.73
  -2  -5  -8    1.40    3.81
  -2   5   8   27.38   29.69
  -2  -5  -8    1.93    4.59
  -2  -5  -8   14.07    9.25
  -2   5   8    7.38    9.52
  -2  -5  -7    3.36    6.66
  -2  -5  -7   16.33   11.42
  -2   5   7   -8.87    9.55
  -2   5   7    4.02    4.03
  -2  -5  -7   14.46   10.26
  -2  -5  -7   22.75   14.92
  -2  -5  -6   35.74   16.24
  -2  -5  -6   26.31   11.80
  -2  -5  -6   65.02   23.51
  -2  -5  -6   26.63   16.06
  -2  -5  -5   66.39   19.36
  -2  -5  -5   59.04   16.54
  -2  -5  -5   80.29   23.78
  -2  -5  -5   67.58   22.59
  -2  -5  -4  349.50   49.03
  -2  -5  -4  182.92   34.19
  -2  -5  -4  370.28   46.98
  -2  -5  -4  157.78   24.50
  -2  -5  -4  232.56   35.51
  -2  -5  -3  584.59   59.71
  -2  -5  -3  560.40   61.19
  -2  -5  -2   25.68    9.96
  -2  -5  -2   45.51   17.80
  -2  -5  -2   33.13   14.73
   2   5  -1  151.23   41.77
  -2  -5  -1  315.29   45.76
  -2  -5  -1  309.27   43.04
  -2  -5  -1  208.90   28.14
  -2  -5   0  564.61   61.64
   2   5   0  387.03   65.31
   2   5   0  345.69   58.72
  -2  -5   0  571.17   57.67
  -2  -5   0  408.11   36.73
  -2  -5   1  228.64   40.39
   2   5   1  247.00   50.19
   2   5   1  292.39   55.58
  -2  -5   1  273.97   39.15
  -2  -5   1  164.90   22.09
   2   5   2   20.10   11.03
   2   5   2   41.76   20.75
   2   5   2   45.94   22.05
   2   5   3  284.78   43.74
   2   5   3  428.94   64.30
   2   5   4   90.65   37.29
   2   5   4  124.26   26.62
   2   5   4  248.93   43.35
   2   5   4  252.71   48.99
   2   5   5   95.70   28.27
   2   5   5   45.31   17.56
   2   5   5   26.45   26.26
   2   5   6    8.90   11.73
   2   5   6   23.78   12.69
   2   5   6   35.73   17.03
   2  -5  -7   13.81   11.59
   2  -5  -7    4.48    6.61
   2   5   7   19.00   12.38
   2   5   7   17.84   13.72
   2   5   7    9.78    7.87
   2   5   7   52.01   29.16
   2  -5  -8   23.01   14.73
   2   5   8   21.74   15.67
   2   5   8   -6.93   14.74
   2   5   8    8.27    6.70
   2  -5  -8   28.29   15.75
   2   5   8   13.33   17.74
   2  -5  -8  -10.29   17.25
   2  -5  -9   -8.12    9.94
   2  -5  -9   20.65   13.11
   2   5   9   -3.65   10.67
   2   5   9  -13.47   15.62
   2  -5  -9   11.69   10.93
   2  -5 -10   -6.20    4.88
   2  -5 -10    9.13   13.81
   2  -5 -10   -3.64    7.16
   2  -5 -11    0.13    2.61
   2  -5 -11  -29.22   26.75
  -2  -6 -10    1.57    6.27
  -2   6  10   -5.07   13.53
  -2   6  10  -34.87   35.88
  -2  -6  -9    9.48   11.32
  -2  -6  -8   28.93   15.97
  -2  -6  -8   44.34   20.85
  -2  -6  -7  111.10   30.14
  -2  -6  -7  158.18   38.57
  -2  -6  -6  213.76   44.83
  -2  -6  -6  145.66   32.61
  -2  -6  -5  228.88   43.98
  -2  -6  -5  135.84   30.41
  -2  -6  -4   84.89   22.61
  -2  -6  -4  152.02   31.68
  -2  -6  -4  142.29   34.80
  -2  -6  -3   18.57    8.54
  -2  -6  -3   36.50   18.78
  -2  -6  -3   34.11   15.00
  -2  -6  -2  425.80   56.38
  -2  -6  -2  390.96   54.00
  -2  -6  -2  253.10   35.88
  -2  -6  -1   16.60    9.33
  -2  -6  -1   24.87   14.27
  -2  -6  -1   22.05   12.02
  -2  -6   0  468.11   60.70
  -2  -6   0  443.08   56.16
   2   6   1   10.00   11.77
   2   6   2  184.53   46.86
   2   6   2  264.72   58.33
   2   6   3   13.88    9.62
   2   6   3   10.13    9.92
   2   6   3   42.95   25.07
   2   6   4   45.91   18.82
   2   6   4   92.97   32.65
   2   6   5  110.38   31.73
   2   6   5  276.96   64.57
   2   6   6  249.35   63.36
   2   6   6  132.01   35.36
   2   6   7   76.38   29.33
   2   6   7  177.02   54.43
   2   6   8   40.25   23.06
   2   6   8   47.04   28.79
   2   6   9  -14.05   20.09
   2  -6 -10   11.33   12.33
   2   6  10    6.51   12.55
  -2  -7  -9  -13.53   12.97
  -2  -7  -8   -3.23    8.83
  -2  -7  -8   -1.09    1.77
  -2  -7  -7    9.39    9.97
  -2  -7  -7   16.97   12.71
  -2  -7  -6   36.97   16.70
  -2  -7  -6   58.14   24.46
  -2  -7  -5   16.88   12.50
  -2  -7  -5   28.65   17.63
  -2  -7  -4   96.21   26.16
  -2  -7  -4  136.24   35.48
  -2  -7  -3   29.36   13.93
  -2  -7  -3   27.12   15.18
  -2  -7  -3   36.30   18.21
  -2  -7  -2   -0.60    5.12
  -2  -7  -2   12.74   11.14
  -2  -7  -2   -2.96    4.56
   2   7   2   -2.09   10.83
   2   7   3    6.20    7.32
   2   7   3   17.76   16.50
   2   7   4   36.62   18.75
   2   7   4   63.29   35.11
   2   7   5    8.32    6.78
   2   7   5   23.12   15.94
   2   7   6   27.19   17.46
   2   7   6   26.81   19.17
   2   7   7   -6.45    9.62
   2   7   7    6.75   10.65
   2   7   8   -9.86   14.76
   2   7   8    7.05    3.06
   2   7   9   -1.01    9.76
  -2  -8  -8   -4.22    2.32
  -2  -8  -8   -5.83    4.04
  -2  -8  -7   44.06   21.90
  -2  -8  -7   23.58   14.79
  -2  -8  -6   -2.92    6.24
  -2  -8  -6    6.81    9.40
  -2  -8  -5   35.01   17.45
  -2  -8  -5   45.75   22.23
  -2  -8  -4    0.03    1.91
  -2  -8  -4    3.77   16.26
   2   8   4   -3.56    2.00
   2   8   5    3.15    5.92
   2   8   5   18.07   16.01
   2   8   6    4.33    5.15
   2   8   6    5.88    8.32
   2   8   7   16.23   17.08
   2   8   7   12.68   17.17
   2   8   8  -18.60   21.08
   2   8   8  -19.12   29.67
  -2  -9  -7   -6.91    9.47
   3   0  -3  891.27  124.31
   3   0  -3  750.87   46.01
  -3   0   3  791.90   96.61
   3   0  -3  737.16   31.44
  -3   0   4  662.78   59.04
   3   0  -4 1086.71  146.90
   3   0  -4 1247.91   64.93
  -3   0   4  855.40  108.57
  -3   0   5   99.96   24.84
  -3   0   5   53.83   29.08
   3   0  -5  126.76   54.02
   3   0  -5  169.82   34.40
   3   0  -5  116.82   21.45
   3   0  -6    1.95    1.41
  -3   0   6    4.16    7.40
   3   0  -6   -2.12    7.96
  -3   0   6   -5.87    8.78
   3   0  -6   -3.94    2.99
  -3   0   7   14.25   26.46
   3   0  -7   44.83   16.40
   3   0  -7   10.67   15.00
  -3   0   7   35.61   18.86
   3   0  -7   61.21   24.61
   3   0  -8   81.68   23.47
  -3   0   8   73.54   27.10
   3   0  -8   52.37   45.01
  -3   0   8   36.04   34.21
  -3   0   8    9.89   11.57
   3   0  -8   98.08   31.93
   3   0  -9    4.65    5.75
  -3   0   9   16.07   17.66
  -3   0   9   19.75   14.04
   3   0  -9    0.69   17.91
   3   0  -9   16.49   10.83
  -3   0   9    0.70   16.35
   3   0 -10   10.97   17.02
  -3   0  10   -3.93   26.22
  -3   0  10   11.93   12.72
   3   0 -10   32.26   39.43
   3   0 -10   24.11   14.84
  -3   0  11   34.50   22.07
   3   0 -11   92.54   81.01
   3   0 -11   55.88   33.13
  -3   1  12    6.70   25.66
  -3   1  11    8.30   10.60
  -3   1  11   24.20   42.20
   3   1 -10    1.66   10.64
  -3   1  10   -5.15   22.10
   3   1 -10  -16.83   43.17
  -3   1  10   20.38   13.36
  -3   1  10   34.18   30.16
   3   1  -9   10.51   16.11
  -3   1   9   26.52   22.50
   3   1  -9   15.30   13.55
   3   1  -9    1.29    5.57
  -3   1   9   -2.83    8.09
  -3   1   9  -21.03   32.70
   3   1  -8  147.07   38.99
  -3   1   8  103.20   32.93
   3   1  -8   98.87   24.67
   3   1  -8   97.63   65.49
  -3   1   8   57.11   40.45
   3   1  -7   35.64   18.29
   3   1  -7   22.07   10.62
  -3   1   7   11.07    8.21
  -3   1   7   19.51   19.79
   3   1  -7   19.02   21.71
   3   1  -6   81.97   25.28
   3   1  -6   83.15   18.85
  -3   1   6   31.94   21.78
   3   1  -6   73.08   48.15
  -3   1   6   61.02   23.04
  -3   1   5   -2.77    8.16
   3   1  -5   15.27    8.04
  -3   1   5    4.35    5.76
   3   1  -5   35.08   16.44
   3   1  -5   -7.53   21.07
   3   1  -5   24.28   11.72
  -3   1   4  174.95   51.81
  -3   1   4   86.85   22.25
   3   1  -4  209.21   61.61
   3   1  -4  403.54   46.25
   3   1  -4  305.25   30.08
  -3   1   4   64.29   33.16
   3   1  -3  165.59   51.49
   3   1  -3  246.87   31.93
   3   1  -3  217.40   22.51
   3   1  -2  153.09   46.29
   3   1  -2  134.17   15.60
   3   1  -1   -0.84    4.02
  -3  -1   1   10.15    8.28
  -3  -1   1    0.46    2.44
  -3  -1   1    8.21   10.74
  -3  -1   2  190.94   29.00
  -3  -1   2  134.88   32.23
  -3  -1   3   75.84   16.81
  -3  -1   3  301.54   36.67
   3  -1  -3  206.07   62.54
  -3  -1   3  163.11   39.30
  -3  -1   4  197.32   29.85
  -3  -1   4  105.90   34.00
   3  -1  -4  362.70   49.99
   3  -1  -4  224.43   29.52
   3  -1  -4  233.98   68.69
  -3  -1   4  462.34   45.33
   3  -1  -4  345.63   28.65
   3  -1  -5   20.36    7.61
   3  -1  -5   16.55    7.21
   3  -1  -5  -11.50   17.19
  -3  -1   5    6.23    6.04
  -3  -1   5   20.28    9.55
   3  -1  -5   29.36   15.33
  -3  -1   5   10.81   14.29
   3  -1  -6   67.43   45.28
  -3  -1   6    5.70   12.32
  -3  -1   6   95.44   25.90
   3  -1  -6  129.77   37.16
   3  -1  -6   90.34   21.76
   3  -1  -7   31.04   13.05
  -3  -1   7   12.60    7.10
   3  -1  -7   26.76   28.57
  -3  -1   7   23.82   12.49
  -3  -1   7   -2.20   11.89
   3  -1  -7   43.78   19.19
  -3  -1   8   33.81   27.70
   3  -1  -8   80.09   57.56
  -3  -1   8  150.87   37.83
   3  -1  -8  118.04   27.81
  -3  -1   8   35.95   35.82
   3  -1  -8  178.00   46.00
   3  -1  -9    3.45    6.12
  -3  -1   9    2.63    8.61
   3  -1  -9   -1.45   24.80
   3  -1  -9   14.48   15.70
   3  -1 -10    2.67    8.60
  -3  -1  10   -2.47    6.38
   3  -1 -10    8.98   10.46
   3  -1 -11   36.46   42.28
   3  -1 -11    5.59   10.68
   3  -1 -11    6.34    2.13
   3  -1 -12   28.55   52.46
   3  -1 -12    8.28    7.97
   3  -1 -12   -7.43   20.19
  -3   2  12    3.25   11.82
  -3   2  11   10.61   15.49
  -3   2  11   12.04   10.16
  -3   2  11  -10.57   33.11
  -3   2  10   20.40   15.38
  -3   2  10  -11.82   25.29
  -3   2  10  -19.86   42.62
   3   2  -9   23.87   13.46
  -3   2   9   37.75   23.19
   3   2  -9   33.03   31.85
  -3   2   9    0.06    9.43
   3   2  -8    8.89   11.46
  -3   2   8   14.46   11.75
  -3   2   8    2.61   19.19
   3   2  -8    5.38   24.73
   3   2  -7   96.25   29.24
  -3   2   7    2.76    9.70
  -3   2   7   64.26   24.50
   3   2  -7   63.06   51.21
  -3   2   6   96.94   45.08
  -3   2   6   74.20   25.00
   3   2  -6  100.27   53.22
   3   2  -6  191.07   37.62
   3   2  -6  152.51   24.67
   3   2  -5   20.27   10.46
  -3   2   5   31.15   28.52
  -3   2   5   11.54   10.32
   3   2  -5   30.18   16.38
   3   2  -5   22.55    8.46
   3   2  -5   -7.50   21.66
  -3   2   5   -4.51   13.97
   3   2  -4   12.59    6.78
   3   2  -4   -1.38    2.93
   3   2  -4   11.70    5.86
   3   2  -3  565.89   97.03
   3   2  -3  831.70   39.75
   3   2  -2  282.71   61.67
  -3  -2  -2  412.83   43.81
   3   2  -2  345.04   20.75
   3   2  -1   50.37    8.61
  -3  -2  -1   45.49   15.17
   3   2  -1   38.06   20.37
  -3  -2  -1   44.34   13.49
  -3  -2  -1   -2.17    2.94
   3   2   0  502.97   35.57
  -3  -2   0  496.83   50.32
  -3  -2   0  454.57   41.67
  -3  -2   1   78.84   20.00
  -3  -2   1   50.43   12.84
  -3  -2   2  768.38   62.52
  -3  -2   2  536.97   39.86
  -3  -2   3  578.99   41.50
  -3  -2   3 1829.80   98.04
  -3  -2   3 1309.51   57.42
  -3  -2   3  280.83   46.00
  -3  -2   4    8.66    8.58
  -3  -2   4   23.11   11.65
  -3  -2   4   15.73    8.37
   3  -2  -5   29.43   10.51
  -3  -2   5   -1.03   12.33
   3  -2  -5   25.44   28.36
  -3  -2   5   45.23   16.09
  -3  -2   5   28.19   12.31
   3  -2  -5   30.11   16.93
   3  -2  -5   11.96    8.39
  -3  -2   6  241.34   39.66
  -3  -2   6  295.67   40.64
   3  -2  -6  135.43   59.75
   3  -2  -6  268.89   51.83
   3  -2  -6  170.72   31.59
   3  -2  -6  220.37   29.55
   3  -2  -7  100.05   25.25
   3  -2  -7   81.07   50.34
  -3  -2   7  108.85   29.82
   3  -2  -7  138.22   39.94
  -3  -2   7   -9.79   13.71
   3  -2  -8   18.48   14.32
   3  -2  -8   29.61   32.03
  -3  -2   8   17.69   13.32
   3  -2  -8   17.02   13.59
   3  -2  -9   17.18   13.51
   3  -2  -9   26.74   32.91
  -3  -2   9   24.27   18.45
   3  -2  -9   27.25   19.49
   3  -2 -10    1.35    8.31
   3  -2 -10   -2.79   14.03
   3  -2 -10   19.19   20.54
   3  -2 -11    2.97    7.57
   3  -2 -11   31.52   42.69
   3  -2 -11    5.46    6.39
   3  -2 -12   16.54   35.15
   3  -2 -12   -7.25    9.20
   3  -2 -12   -1.74   18.21
  -3   3  11    5.53   10.78
  -3   3  11   -1.51   18.88
  -3   3  11   -3.00   16.32
  -3   3  10   30.03   36.46
  -3   3  10   -1.76    3.61
  -3   3   9   -9.41   14.71
  -3   3   9  -27.97   25.36
  -3   3   8    0.64   24.97
  -3   3   8   -4.48   11.40
  -3   3   7   13.50   31.92
  -3   3   7    2.31    8.27
   3   3  -7   16.20   37.29
  -3   3   6   15.74   24.45
  -3   3   6   18.31   11.40
   3   3  -6   45.79   35.94
  -3   3   6   23.62   20.74
   3   3  -5   31.63   19.10
   3   3  -5   36.87   28.61
  -3  -3  -4   -1.19    3.00
  -3  -3  -4    6.26    5.95
   3   3  -4    1.70    6.14
   3   3  -4   -0.02   23.53
  -3  -3  -4   -1.18    4.41
  -3  -3  -3   75.08   16.95
  -3  -3  -3   41.94   13.39
   3   3  -3  100.98   24.53
   3   3  -3   63.18   31.42
  -3  -3  -3  133.41   27.76
  -3  -3  -2   13.93    5.80
  -3  -3  -2   30.36    9.75
  -3  -3  -2   45.79   15.56
   3   3  -2   78.97   27.82
   3   3  -2   19.89   16.21
   3   3  -2   64.67   20.70
  -3  -3  -2   39.62   13.77
  -3  -3  -1  503.52   53.68
   3   3  -1  224.73   48.39
  -3  -3  -1  477.64   48.20
  -3  -3  -1  260.93   26.86
   3   3   0  355.61   32.30
  -3  -3   0  425.91   49.58
  -3  -3   0  369.80   40.92
   3   3   1  470.76   42.65
  -3  -3   1  560.71   57.63
  -3  -3   1  514.14   45.93
   3   3   2   49.23   14.68
  -3  -3   2   41.84   15.24
   3   3   2   33.24    9.07
  -3  -3   2   49.34   14.03
   3   3   3  129.55   26.33
   3   3   3  119.23   21.36
  -3  -3   3  202.63   35.67
   3   3   3    1.36    6.63
  -3  -3   3  173.39   24.63
  -3  -3   3   12.54   10.69
  -3  -3   4    7.64    7.65
   3   3   4    7.74    7.59
   3   3   4    5.20    4.71
  -3  -3   4    7.96   10.99
   3   3   5   42.16   16.46
  -3  -3   5   62.13   21.03
   3  -3  -6   59.00   19.41
  -3  -3   6  115.58   28.30
   3  -3  -6   94.22   21.63
   3  -3  -7   16.61    9.98
   3  -3  -7   12.93    8.03
   3  -3  -7   37.64   35.33
   3  -3  -7    9.77   10.95
   3  -3  -8   17.11   12.31
   3  -3  -8   31.28   16.55
   3  -3  -8   12.27   17.03
   3  -3  -9   25.03   16.98
   3  -3  -9   -2.87   18.69
   3  -3  -9    2.12    6.11
   3  -3 -10   -4.15    7.91
   3  -3 -10   -7.13    7.10
   3  -3 -10    5.40   12.09
   3  -3 -11    7.58   13.15
   3  -3 -11  -19.15   21.56
   3  -3 -12  -22.50   39.46
  -3   4  11   63.39   54.74
  -3   4  11  -16.03   20.34
  -3   4  11    0.40   30.49
  -3   4  10   -4.23    6.82
  -3   4  10  -79.76   60.88
  -3   4   9   -9.29   15.10
  -3   4   9   18.47   30.00
  -3   4   8    7.47    1.02
  -3   4   8    9.48    5.34
  -3  -4  -6   26.27   13.26
  -3  -4  -6   36.45   14.91
  -3  -4  -6   45.71   19.88
  -3  -4  -5  134.03   30.62
  -3  -4  -5   91.50   23.08
  -3  -4  -4   49.83   15.73
   3   4  -4    9.75   19.13
  -3  -4  -4   81.37   23.68
   3   4  -4   53.99   25.25
  -3  -4  -3  450.95   53.93
   3   4  -3  464.92   72.85
  -3  -4  -3  484.49   56.08
  -3  -4  -3  322.74   38.22
  -3  -4  -2  112.49   26.03
   3   4  -2  109.04   34.94
   3   4  -2   79.85   24.95
   3   4  -2   36.36   24.52
  -3  -4  -2  112.13   26.47
  -3  -4  -2   68.00   15.61
  -3  -4  -1   10.12    6.27
  -3  -4  -1   13.89    5.49
   3   4  -1   10.03   11.46
   3   4  -1    4.55    6.56
   3   4  -1   17.67   13.09
  -3  -4  -1   12.30    7.20
   3   4   0  164.20   24.27
  -3  -4   0  419.02   53.35
   3   4   0  507.57   73.28
   3   4   0  551.56   71.93
  -3  -4   0  383.27   45.41
  -3  -4   0  229.97   24.36
   3   4   1   18.54    8.47
  -3  -4   1   20.74   12.12
   3   4   1   26.22   17.97
  -3  -4   1   13.85    8.09
   3   4   2   97.43   23.10
  -3  -4   2  131.23   30.31
  -3  -4   2  124.23   24.23
   3   4   3  547.30   58.31
  -3  -4   3  562.29   63.76
  -3  -4   3  645.07   54.08
  -3  -4   4  107.55   29.04
   3   4   4   73.53   22.58
  -3  -4   5  160.23   35.52
   3   4   5  113.43   31.57
   3   4   6   57.96   22.95
   3   4   6   45.58   18.39
   3  -4  -8   16.00    8.13
   3  -4  -9   12.92   11.65
   3  -4  -9   20.54   13.67
   3  -4 -10   -4.01    8.36
   3  -4 -10   19.14   41.74
   3  -4 -10   -4.83   10.71
   3  -4 -11   -1.41    5.65
   3  -4 -11   -0.02   12.37
  -3   5  10    3.02   16.74
  -3  -5  -8    2.08    8.87
  -3  -5  -7   32.30   16.80
  -3  -5  -7   21.78   15.73
  -3  -5  -6    1.37    3.45
  -3  -5  -6   -4.32    9.22
  -3  -5  -5   39.12   15.60
  -3  -5  -5   82.06   26.15
  -3  -5  -4   37.13   14.12
  -3  -5  -4   48.07   18.27
   3   5  -4   14.03   20.45
  -3  -5  -4   45.83   18.18
  -3  -5  -3   65.86   18.55
  -3  -5  -3  119.53   29.74
   3   5  -3   59.39   27.75
   3   5  -3   23.66   22.74
  -3  -5  -3  114.26   29.17
  -3  -5  -2  794.86   76.98
   3   5  -2  573.33   86.53
   3   5  -2  257.89   50.93
  -3  -5  -2  739.74   72.57
  -3  -5  -2  466.35   45.13
  -3  -5  -1  345.00   51.17
   3   5  -1  274.87   59.96
   3   5  -1  243.16   51.01
  -3  -5  -1  308.70   45.00
  -3  -5  -1  189.69   26.42
  -3  -5   0  112.93   37.24
  -3  -5   0  103.35   21.16
  -3  -5   1  264.04   46.02
   3   5   1  302.38   60.90
   3   5   1  376.65   66.18
  -3  -5   1  322.04   44.31
   3   5   2  772.73   95.23
  -3  -5   2  736.10   77.82
   3   5   2  996.37  110.89
  -3  -5   2  732.79   65.47
   3   5   3   95.68   26.87
  -3  -5   3   93.96   28.76
   3   5   3  120.73   39.30
   3   5   3  143.08   41.58
  -3  -5   3  111.06   25.17
  -3  -5   4   50.21   21.83
   3   5   4   45.30   19.73
   3   5   4   54.97   24.74
   3   5   4   87.79   36.76
   3   5   5    4.76    7.24
   3   5   5   52.42   21.79
   3   5   5   87.86   36.37
   3   5   6   -1.51    4.91
   3   5   6   -4.00    6.49
   3   5   7   43.79   21.36
   3   5   7   56.85   29.20
   3   5   8   10.51   12.41
   3   5   8   -3.95   18.24
  -3  -6  -9   -1.42    3.21
  -3  -6  -8    7.38   11.37
  -3  -6  -8    4.12    4.96
  -3  -6  -7   99.58   28.23
  -3  -6  -7  140.23   38.03
  -3  -6  -6   40.57   16.80
  -3  -6  -6   71.57   26.72
  -3  -6  -5  122.48   32.81
  -3  -6  -5  109.04   28.99
  -3  -6  -4  346.09   52.80
  -3  -6  -4  338.22   54.53
  -3  -6  -4  206.76   36.53
  -3  -6  -3  197.59   41.26
  -3  -6  -3  181.81   39.14
  -3  -6  -3   99.24   23.07
  -3  -6  -2  695.24   77.93
  -3  -6  -2  648.49   73.38
  -3  -6  -2  435.22   47.35
  -3  -6  -1  464.48   63.54
   3   6  -1  269.71   61.76
   3   6  -1  147.18   42.81
  -3  -6  -1  433.57   58.28
  -3  -6  -1  296.48   37.19
  -3  -6   0   -4.45   11.06
   3   6   0   -8.75   10.21
   3   6   0   -3.90   10.52
  -3  -6   0   -0.24    1.96
  -3  -6   1  418.75   62.43
   3   6   1  314.57   65.85
   3   6   1  375.74   72.56
  -3  -6   1  412.07   55.41
  -3  -6   2  624.56   77.56
   3   6   2  531.82   85.28
   3   6   2  629.16   93.86
  -3  -6   2  663.86   68.13
   3   6   3   85.98   25.70
   3   6   3  162.92   46.00
   3   6   3  199.51   54.43
   3   6   4  195.62   41.38
   3   6   4  169.93   57.34
   3   6   5  114.55   34.13
   3   6   5  233.08   62.86
   3   6   6   45.75   21.06
   3   6   6   83.48   37.70
   3   6   7   99.54   34.99
   3   6   7  179.31   57.67
   3   6   8  -17.41   18.86
   3   6   8   -5.97   14.52
   3   6   9    9.16   12.62
  -3  -7  -9    0.95    9.49
  -3  -7  -8   17.94   11.82
  -3  -7  -8   25.99   18.73
  -3  -7  -7   -1.10    6.73
  -3  -7  -7    8.04   10.59
  -3  -7  -6   27.99   16.61
  -3  -7  -6   16.89   13.64
  -3  -7  -5   18.85   11.92
  -3  -7  -5   16.03   11.76
  -3  -7  -4    4.92    7.56
  -3  -7  -4    1.96   13.13
  -3  -7  -4    4.96    4.61
  -3  -7  -3   42.23   15.72
  -3  -7  -3    1.28   24.18
  -3  -7  -3    7.23   21.72
  -3  -7  -2   94.97   22.62
  -3  -7  -2  151.74   39.37
  -3  -7  -1   16.84   10.09
  -3  -7  -1    5.63    4.02
  -3  -7   0   79.51   29.01
   3   7   0   30.09   21.10
  -3  -7   0   60.59   22.98
   3   7   1    3.73   12.80
   3   7   1   -5.45    6.14
   3   7   2   19.62   12.47
   3   7   2   40.07   35.82
   3   7   2   53.13   38.85
   3   7   3    8.85    8.90
   3   7   3   24.95   27.77
   3   7   3   39.07   34.74
   3   7   4    1.55    6.74
   3   7   4    3.44    7.35
   3   7   5   13.44    8.82
   3   7   5   12.21   12.74
   3   7   6   -0.88    9.44
   3   7   6   20.43   22.06
   3   7   7    5.43    2.85
   3   7   7  -12.52   17.92
   3   7   8   23.34   17.47
   3   7   8   40.20   28.60
   3   7   9   -0.60    4.37
   3   7   9  -15.54   29.88
  -3  -8  -8   -3.77    4.16
  -3  -8  -7    0.82    3.83
  -3  -8  -7   24.02   17.95
  -3  -8  -6   10.16    9.83
  -3  -8  -6   29.61   23.22
  -3  -8  -5    8.00    8.96
  -3  -8  -5   -0.35   17.60
  -3  -8  -4    9.96   10.10
  -3  -8  -4    0.99   18.58
  -3  -8  -3  101.23   26.97
  -3  -8  -3    5.86   45.67
  -3  -8  -3   11.24   42.44
  -3  -8  -2    1.11   23.61
  -3  -8  -2    6.86   18.53
   3   8   2   15.35   23.72
   3   8   3   40.71   39.44
   3   8   4    1.91    8.04
   3   8   4    4.94   13.78
   3   8   5   12.56   10.69
   3   8   5   -4.55   11.97
   3   8   6    7.88   12.32
   3   8   6    7.64   19.34
   3   8   7   10.14   11.34
   3   8   7   -4.08   18.28
   3   8   8   10.01   10.38
   3   8   8   -7.72   17.19
  -3  -9  -6   -3.82    2.88
  -3  -9  -6    0.30   16.30
  -3  -9  -5   13.52   11.34
  -3  -9  -5    2.61   11.53
  -3  -9  -4    0.09   12.54
   3   9   4   10.05    3.13
   3   9   5   -1.46   10.17
   3   9   6    6.72    9.73
   3   9   6    6.04   24.39
   3   9   7   10.44   13.78
   4   0  -3  225.14   66.63
  -4   0   3  578.28  100.88
   4   0  -4    6.53    6.19
  -4   0   4    4.95   12.56
   4   0  -4   -5.32   18.30
   4   0  -4    1.39    6.75
  -4   0   4   -1.02    7.47
  -4   0   5   72.56   35.19
  -4   0   5   30.20   14.00
   4   0  -5  137.50   58.01
   4   0  -5  134.06   24.46
  -4   0   6  116.65   30.10
  -4   0   6   87.63   38.72
   4   0  -6  187.70   77.91
   4   0  -6  246.26   35.45
   4   0  -7   42.91   14.91
  -4   0   7   29.68   16.50
   4   0  -7   23.63   35.03
  -4   0   7   10.32    5.34
  -4   0   8   15.02   16.84
   4   0  -8   38.44   16.11
  -4   0   8   19.48   17.28
   4   0  -8   30.86   41.27
   4   0  -8   42.25   18.60
  -4   0   9   28.32   20.06
   4   0  -9   29.30   15.51
   4   0  -9  -25.59   47.31
  -4   0   9   35.72   34.40
  -4   0   9  -12.85   15.41
   4   0  -9   31.72   22.35
  -4   0  10   -6.41   11.72
   4   0 -10    4.61    9.41
   4   0 -10  -39.22   53.96
  -4   0  10    5.98   19.20
  -4   0  10  -34.84   38.71
   4   0 -10    2.17   12.41
  -4   0  11  -20.92   39.98
  -4   0  11  -11.15   11.00
   4   0 -11  -40.98   57.72
   4   0 -11    8.56   12.09
   4   0 -11   10.65    8.75
  -4   1  11    9.74   18.54
  -4   1  11  -12.20   20.94
   4   1 -11    5.07   25.93
  -4   1  11   25.06   22.08
  -4   1  10  -48.07   31.29
   4   1 -10    3.23   14.31
  -4   1  10  -29.60   46.25
  -4   1  10  -58.91   48.37
  -4   1   9  -25.35   30.76
   4   1  -9    3.87   21.26
  -4   1   9   -1.76   11.90
  -4   1   8   10.94   13.58
  -4   1   8   11.92   15.72
  -4   1   7   15.72   11.84
  -4   1   7    8.87    4.43
   4   1  -7   -4.56   11.35
  -4   1   6   44.66   31.68
  -4   1   6   36.67   17.96
   4   1  -6   97.50   54.03
   4   1  -6  126.34   23.68
  -4   1   5   12.23   13.27
   4   1  -5   -2.23    3.31
   4   1  -5    2.72    8.69
   4   1  -5  -22.56   22.15
   4   1  -5   13.33    9.93
  -4   1   5   -2.48   14.52
   4   1  -4   56.39   13.31
   4   1  -4   67.51   39.78
   4   1  -4   -1.91   11.63
   4   1  -3    4.16    2.51
   4   1  -3   -8.82   13.74
   4   1  -3   -2.24    9.33
   4   1  -2   17.30   11.05
   4   1  -2   88.44   14.36
  -4  -1   2   15.65   10.59
  -4  -1   2  103.27   32.83
  -4  -1   3  -11.52   13.97
  -4  -1   3    0.46    8.04
  -4  -1   4   46.68   23.78
  -4  -1   4   66.79   19.77
   4  -1  -5    1.00    3.47
  -4  -1   5    8.68    8.42
  -4  -1   5   -0.15    4.82
  -4  -1   5    2.28    2.45
  -4  -1   6   88.27   26.00
   4  -1  -6  113.19   59.54
   4  -1  -6    7.12   17.16
   4  -1  -6  129.28   27.28
  -4  -1   6   72.18   36.43
   4  -1  -7   53.09   18.94
  -4  -1   7   47.75   30.08
   4  -1  -7   18.50   26.15
   4  -1  -7    5.08   12.37
   4  -1  -7   61.88   24.67
   4  -1  -8    7.22    7.51
   4  -1  -8   -1.12   22.95
   4  -1  -8   -7.54   11.13
   4  -1  -8   29.01   19.44
  -4  -1   8   -7.72   28.38
   4  -1  -9    4.55    7.39
   4  -1  -9   14.64   39.95
   4  -1  -9   14.45   14.64
  -4  -1   9   -3.18   19.84
   4  -1 -10  -15.62   19.61
   4  -1 -10  -25.98   35.91
   4  -1 -10   -0.28   20.53
   4  -1 -11    5.74   10.00
   4  -1 -11   -7.51   26.96
   4  -1 -11   46.15   28.84
   4  -1 -12    2.85   22.71
  -4   2  11    8.09   14.83
  -4   2  11   -9.01   36.19
  -4   2  11  -29.71   43.43
  -4   2  10   33.17   44.77
  -4   2  10    9.52   10.95
   4   2 -10   20.17   34.83
  -4   2   9   11.33   14.63
   4   2  -9   45.89   45.89
  -4   2   9    8.49    1.50
  -4   2   8   10.80    8.86
  -4   2   8   23.75   33.33
   4   2  -8   17.82   44.54
  -4   2   7    8.21    6.11
  -4   2   7   11.85    8.85
   4   2  -7    1.82   25.50
  -4   2   6   -6.07   14.26
   4   2  -6   14.55   28.58
   4   2  -5   17.20   14.34
   4   2  -5    8.32    9.85
   4   2  -4  107.49   50.62
   4   2  -3   -2.83   10.84
   4   2  -2  122.83   49.23
   4   2   0   -2.46    3.81
  -4  -2   0    2.06    5.88
  -4  -2   1  242.07   39.64
  -4  -2   1   50.67   27.43
  -4  -2   2  134.74   29.54
  -4  -2   3   31.45   13.57
  -4  -2   4  193.12   36.04
  -4  -2   5    1.98    5.94
   4  -2  -6   12.56    9.76
   4  -2  -6   18.95   21.01
   4  -2  -7   46.06   18.71
   4  -2  -7   41.91   45.61
  -4  -2   7   18.95   28.55
   4  -2  -8   18.67   10.94
   4  -2  -8   10.35   14.39
  -4  -2   8   20.52    9.99
   4  -2  -9   18.98   13.74
   4  -2  -9   -6.01   17.00
   4  -2  -9    7.44    2.20
   4  -2 -10    3.46    0.66
   4  -2 -10   -4.57    7.54
   4  -2 -11    9.61   11.44
   4  -2 -11  -21.78   54.20
   4  -2 -11   -5.93   10.23
  -4   3  11   98.19   73.57
  -4   3  11    5.72   14.40
  -4   3  10   -5.34    8.16
  -4   3  10  -15.79   23.37
  -4   3   9    7.66    9.58
  -4   3   9   21.73   21.24
   4   3  -9  -21.39   36.52
  -4   3   8   -4.75   14.65
   4   3  -8   15.61   12.74
   4   3  -7    4.98   27.67
   4   3  -6   14.56   16.84
   4   3  -6   41.90   35.76
   4   3  -5  127.58   40.47
   4   3  -5   28.32   31.12
   4   3  -4  106.32   36.01
   4   3  -4   43.61   40.77
   4   3  -3   40.40   22.43
   4   3  -3   -5.85   23.14
   4   3  -2   25.34   23.75
   4   3  -2   66.83   22.76
  -4  -3  -2   21.94   11.55
  -4  -3  -1  171.30   34.95
  -4  -3  -1  135.84   28.10
  -4  -3   0   -0.95    2.65
  -4  -3   0    2.30    3.99
   4   3   1  209.77   30.58
  -4  -3   1  197.50   36.89
  -4  -3   1  177.79   29.70
  -4  -3   2   36.18   16.97
   4   3   2   28.92   10.79
   4   3   2    5.88    8.08
  -4  -3   2   28.71   11.02
  -4  -3   3   37.92   16.96
  -4  -3   4   86.52   25.07
  -4  -3   5  143.58   32.82
  -4  -3   5   33.31   20.40
  -4  -3   6   16.09   11.11
  -4  -3   6   -2.22    8.31
   4  -3  -8    0.99    3.60
   4  -3  -9    3.49    6.69
   4  -3  -9   13.20   35.70
   4  -3 -10    1.92    0.54
   4  -3 -10   45.25   29.20
   4  -3 -11   17.60   15.81
   4  -3 -11   28.69   34.26
   4  -3 -11  -10.99   29.69
   4   4  -7   20.44   25.82
   4   4  -6    1.23   28.18
   4   4  -5   10.77   14.81
   4   4  -5    0.58   10.26
   4   4  -4  239.75   59.42
   4   4  -4   92.53   49.86
  -4  -4  -4  164.23   36.20
   4   4  -3   21.60   23.95
  -4  -4  -3   79.39   24.04
  -4  -4  -2  312.19   50.00
   4   4  -2  486.26   79.79
   4   4  -2  496.95   68.34
  -4  -4  -2  342.02   49.06
  -4  -4  -1  197.66   39.35
  -4  -4  -1  173.77   33.63
  -4  -4   0   52.90   19.78
   4   4   0   85.97   31.14
  -4  -4   0   44.10   16.79
   4   4   1  201.87   31.34
  -4  -4   1  222.30   42.25
  -4  -4   1  204.05   34.14
   4   4   2  352.20   45.47
  -4  -4   2  420.69   58.64
  -4  -4   2  349.85   43.25
  -4  -4   3  125.87   31.07
   4   4   3  103.91   27.76
   4   4   3    6.85   13.33
  -4  -4   3    2.63    2.58
   4   4   4  201.49   39.90
  -4  -4   4  260.74   47.98
  -4  -4   5    9.09    6.09
  -4  -4   6   51.45   21.96
   4   5  -6   13.34   10.59
  -4  -5  -5   35.90   15.00
   4   5  -5   26.32   31.50
  -4  -5  -5   28.97   17.18
  -4  -5  -4   25.33   12.89
   4   5  -4   28.82   23.95
  -4  -5  -4   29.64   16.72
  -4  -5  -3   35.89   13.00
  -4  -5  -3   59.28   22.25
   4   5  -3   59.53   30.09
  -4  -5  -3   52.22   20.74
  -4  -5  -2   30.49   11.36
  -4  -5  -2   71.84   24.41
   4   5  -2   61.09   29.63
   4   5  -2   53.90   24.46
  -4  -5  -2   62.53   22.40
  -4  -5  -1   89.16   28.44
   4   5  -1  118.05   42.17
   4   5  -1  112.35   36.43
  -4  -5  -1   92.64   26.95
  -4  -5   0  427.71   61.60
   4   5   0  536.28   87.34
   4   5   0  537.94   81.80
  -4  -5   0  410.01   54.07
  -4  -5   1   75.42   25.55
   4   5   1  116.56   38.20
   4   5   1  129.10   41.20
  -4  -5   1   91.02   25.16
   4   5   2   54.68   18.70
  -4  -5   2   61.14   23.67
   4   5   2   89.53   35.16
  -4  -5   2   55.31   18.83
  -4  -5   3   85.80   27.35
   4   5   3   75.54   23.61
  -4  -5   4   47.19   20.89
   4   5   4   30.41   16.51
   4   5   4   -7.34   12.45
  -4  -5   5   50.86   21.72
   4   5   5   46.55   20.71
  -4  -5   6   89.47   32.09
   4   5   6   64.53   25.05
  -4  -6  -6    0.39    3.23
  -4  -6  -6    1.09    8.30
  -4  -6  -5    7.27    4.89
  -4  -6  -5   -0.22    2.96
  -4  -6  -4   26.95   11.65
  -4  -6  -4    1.69   13.24
  -4  -6  -4    2.25   15.79
   4   6  -3  165.99   53.00
  -4  -6  -3  179.69   32.16
  -4  -6  -2   52.89   23.11
   4   6  -2   24.74   19.64
   4   6  -2   27.52   20.70
  -4  -6  -2   44.44   18.96
   4   6  -1   14.38   20.35
  -4  -6  -1    5.29    6.42
   4   6  -1   -3.16   11.50
  -4  -6  -1   20.60   14.15
  -4  -6   0  381.75   62.45
   4   6   0  307.02   69.99
   4   6   0  353.32   71.68
  -4  -6   0  331.29   51.84
  -4  -6   1    4.86    7.51
   4   6   1    5.85    7.49
   4   6   1    3.17   10.56
  -4  -6   1   -1.21    5.06
  -4  -6   2   51.03   22.54
   4   6   2   19.31   27.66
   4   6   2   69.41   35.34
  -4  -6   2   42.98   18.71
   4   6   3  182.64   38.45
  -4  -6   3  307.80   57.42
   4   6   3  139.53   57.43
   4   6   4   35.39   22.05
  -4  -6   4   45.36   22.67
   4   6   4   30.13   19.86
   4   6   4   -4.48   14.75
   4   6   4   14.43   30.61
   4   6   5   17.31   12.45
   4   6   5   12.16   19.40
   4   6   6    3.63    3.67
   4   6   6    8.78   25.26
   4   6   7    6.51   10.33
   4   6   7   -9.77   19.44
  -4  -7  -7   19.84   14.31
  -4  -7  -7   34.55   21.17
  -4  -7  -6   -0.52    4.98
  -4  -7  -6   -2.22    6.33
  -4  -7  -5    2.47    7.74
  -4  -7  -5    0.30    5.25
  -4  -7  -4   -3.67    6.70
  -4  -7  -4   -0.50   12.73
  -4  -7  -4    0.01    4.48
  -4  -7  -3    0.26   14.11
  -4  -7  -3    0.49   13.44
  -4  -7  -2    0.57   17.61
   4   7  -2   38.86   27.28
  -4  -7  -2   -2.29   13.54
  -4  -7  -1    1.72   15.41
   4   7  -1   28.19   21.44
   4   7  -1   10.39   14.59
  -4  -7  -1    0.79   14.88
  -4  -7   0   29.01   18.69
   4   7   0    8.95   15.20
   4   7   0    8.29   17.87
  -4  -7   0    0.43    9.01
  -4  -7   1   30.95   20.21
   4   7   1   -0.55    4.33
   4   7   1   13.74   25.18
  -4  -7   1    1.07   20.05
  -4  -7   2   45.02   21.83
   4   7   2   17.81   33.71
   4   7   2   25.82   27.41
  -4  -7   2   49.80   20.01
   4   7   3   13.58   21.46
   4   7   3   26.43   28.12
   4   7   4    8.71   11.97
   4   7   4   -6.09    6.16
   4   7   4    0.97   16.05
   4   7   5   -4.77    6.13
   4   7   5   17.33   30.48
   4   7   6   10.61   12.05
   4   7   6    9.30   20.90
   4   7   7   -1.37   14.48
   4   7   7   -6.36    7.19
   4   7   8   11.91   16.55
   4   7   8  -10.58   24.97
  -4  -8  -7    7.78    3.19
  -4  -8  -7    1.45   18.28
  -4  -8  -6   -1.15    4.54
  -4  -8  -6    0.88   21.70
  -4  -8  -5    7.54    7.77
  -4  -8  -5   -3.33    3.82
  -4  -8  -4    2.77   22.42
  -4  -8  -3    0.75   20.94
  -4  -8  -3    0.29   15.94
  -4  -8  -2   -0.88   24.33
  -4  -8  -2    4.90   28.06
  -4  -8  -1    0.67   17.46
  -4  -8  -1    0.10   11.06
  -4  -8   0   -0.91   25.03
  -4  -8   0    1.24   22.20
   4   8   1   -0.04    8.21
   4   8   1    4.62   17.60
   4   8   2   -1.94   13.69
   4   8   2   16.32   23.74
   4   8   3   -4.54   11.39
   4   8   3   16.54   23.95
   4   8   4   31.38   28.47
   4   8   5    5.96   11.40
   4   8   5   -3.18   16.22
   4   8   6   -7.71    9.59
   4   8   6    5.69   14.32
   4   8   7   16.19   13.05
   4   8   7   12.69   24.43
  -4  -9  -6    2.29   11.32
  -4  -9  -4    0.23   14.24
  -4  -9  -3    0.59   16.37
  -4  -9  -3   -1.30    5.30
  -4  -9  -2    0.29   17.35
   4   9   2   -4.81   15.47
   4   9   3   -2.58   15.75
   4   9   4  -10.09   24.31
   4   9   5   -9.24   21.68
   4   9   6   -1.95    2.40
   5   0  -5  255.25   87.81
   5   0  -6   30.82   37.45
   5   0  -6   19.77   16.12
   5   0  -7   48.90   54.09
   5   0  -7    8.82   32.62
   5   0  -8   12.10    7.70
   5   0  -8    3.10   24.53
   5   0  -9  -17.24   32.68
   5   0 -10    6.86   52.23
  -5   0  10   16.76   11.74
  -5   1  10   -0.79   20.32
   5   1 -10  -20.71   26.14
   5   1  -9  -56.00   65.90
  -5   1   9  -18.91   30.61
   5   1  -8    9.67   16.48
  -5   1   8    5.55    3.29
  -5   1   7    9.35   21.09
   5   1  -7   30.07   43.99
   5   1  -6  -41.45   36.50
   5   1  -5   75.62   42.74
   5   1  -4    4.81   13.42
   5   1  -4    6.68   23.85
   5   1  -3    3.75    4.11
  -5  -1   3    6.68   12.07
   5  -1  -7   -7.35    6.26
   5  -1  -7  -46.38   40.83
   5  -1  -8   -3.26    9.11
   5  -1  -8   -7.37   28.29
   5  -1  -9    2.61    5.89
   5  -1  -9   -5.88   28.02
  -5  -1   9  -10.97   38.18
   5  -1 -10   -3.98    8.28
   5  -1 -10   27.17   52.96
  -5  -1  10   24.21   41.74
   5   2 -10  -31.22   55.20
  -5   2  10   -1.67   22.76
   5   2  -9  -27.33   48.28
  -5   2   9   11.62   22.21
   5   2  -8   -0.24    9.21
   5   2  -7    8.48   20.34
   5   2  -6    0.52   23.16
   5   2  -5   37.22   26.87
   5   2  -5  -25.62   33.98
   5   2  -5   -1.84    9.73
   5   2  -4   11.04   26.49
   5   2  -4   -6.17   14.16
   5   2  -3    7.94   19.76
   5   2  -3    5.46    2.53
   5   2  -2   22.04   22.45
  -5  -2   2   25.25   20.50
  -5  -2   4   46.98   20.15
  -5  -2   5    9.75    0.88
  -5  -2   8   -4.58    3.93
   5  -2  -9    4.29   15.03
  -5  -2   9  -18.94   36.14
   5  -2 -10    6.47    9.42
   5  -2 -10    2.04   21.80
   5   3 -10    5.82   28.43
   5   3  -9    2.22   46.47
   5   3  -8   10.35   28.52
   5   3  -7   31.40   42.79
   5   3  -6   24.59    7.62
   5   3  -5   39.57   24.48
   5   3  -5   16.19   19.37
   5   3  -4   15.38   14.07
   5   3  -4   16.60   29.06
   5   3  -3   33.00   40.51
   5   3  -2   -7.03   10.14
   5   3  -1    2.85    5.13
   5   3  -1    1.49   15.73
   5   3   0    1.12    6.54
  -5  -3   1   30.80   13.45
  -5  -3   2   20.41   11.84
  -5  -3   3  105.93   29.41
  -5  -3   4   12.46    7.04
  -5  -3   5   30.50   16.24
  -5  -3   6   30.26   28.38
  -5  -3   7  -29.50   37.52
   5   4  -8    0.54   23.12
   5   4  -7   31.50   32.16
   5   4  -6   67.64   34.03
   5   4  -6   41.74   33.82
   5   4  -5   89.54   38.92
   5   4  -5   55.48   45.81
   5   4  -4   -3.01   13.67
   5   4  -3    8.97    7.61
  -5  -4  -1   21.62   15.31
   5   4  -1   25.94   18.57
  -5  -4  -1    4.72    3.31
  -5  -4   0  147.27   37.31
  -5  -4   0  116.85   28.61
  -5  -4   1    8.68   10.29
   5   4   1   -5.45    9.70
  -5  -4   1    4.46    5.30
  -5  -4   2   87.15   29.24
  -5  -4   3   23.64   15.18
  -5  -4   4    3.24    4.38
  -5  -4   5   91.33   31.08
  -5  -4   5   18.05   25.90
  -5  -4   6   66.13   24.87
   5   5  -5   -1.02    4.59
   5   5  -4  145.79   52.90
   5   5  -3   48.64   28.47
  -5  -5  -3    1.08   18.37
  -5  -5  -2    5.09   27.64
   5   5  -2  127.32   46.35
  -5  -5  -2   93.01   28.43
  -5  -5  -1   15.49   10.97
   5   5  -1    9.14    6.07
   5   5  -1   28.70   19.90
  -5  -5  -1    7.67    7.85
  -5  -5   0    3.34    1.59
   5   5   0   32.47   17.99
  -5  -5   0   19.67   12.03
  -5  -5   1   18.10   13.80
   5   5   1   13.47   24.07
  -5  -5   1   22.27   11.74
  -5  -5   2  110.27   35.26
   5   5   2   -0.69    9.09
  -5  -5   3   38.86   19.82
   5   5   3   -7.67   10.51
  -5  -5   4  117.18   35.26
   5   5   4  127.03   34.95
  -5  -5   5    9.36   11.60
  -5  -5   6   20.17   18.74
  -5  -6  -5   -0.49   17.75
   5   6  -4   18.23   18.69
  -5  -6  -4    0.13   11.38
  -5  -6  -3    0.52   13.95
   5   6  -3   25.62   25.66
  -5  -6  -3   -0.11    5.08
  -5  -6  -2    1.54   26.73
   5   6  -2   67.07   35.92
  -5  -6  -2    2.46   30.18
   5   6  -1  407.62   86.89
   5   6  -1  378.29   76.14
  -5  -6   0   10.94   15.77
   5   6   0   15.73   16.78
   5   6   0    4.87   12.30
  -5  -6   0    0.10    9.56
  -5  -6   1  449.02   72.44
  -5  -6   1  408.20   59.13
  -5  -6   2  102.19   34.52
   5   6   2   41.11   32.29
   5   6   2   68.18   47.08
  -5  -6   3   17.35   13.69
   5   6   3   27.07   26.61
   5   6   3   -8.57   20.81
   5   6   3   -3.47   14.37
  -5  -6   4    8.85    8.16
   5   6   4    7.74    4.19
   5   6   4   20.17   30.05
   5   6   5   28.42   16.60
  -5  -6   5   37.30   19.46
   5   6   5   62.35   47.15
  -5  -7  -6    0.09    7.49
  -5  -7  -5    0.14    4.84
  -5  -7  -4    0.53   18.84
  -5  -7  -4    3.50   23.34
   5   7  -3    5.54    8.71
  -5  -7  -2   -1.02    4.91
   5   7  -2   14.17   18.72
  -5  -7  -2    1.47    8.42
  -5  -7  -1    0.63   22.77
   5   7  -1   14.00   19.05
   5   7  -1   13.45   12.99
  -5  -7  -1    3.76   17.70
  -5  -7   0   -0.32   15.43
   5   7   0   -2.67   11.63
   5   7   0   -1.22   13.40
  -5  -7   0    2.48   10.55
  -5  -7   1   21.93   15.04
   5   7   1   35.39   32.25
   5   7   1    8.60   18.31
  -5  -7   1    3.47   15.67
  -5  -7   2   22.59   14.96
   5   7   2   -3.29    2.87
   5   7   2   -1.78   17.67
  -5  -7   3   30.40   23.24
  -5  -7   4   42.14   25.93
   5   7   4   19.29   23.69
   5   7   4    3.32   17.89
   5   7   4   13.29   26.04
   5   7   5  -13.22   20.87
   5   7   6   13.88   12.82
   5   7   6    8.89   36.95
  -5  -8  -5    2.02   16.42
  -5  -8  -4   -0.15    2.32
  -5  -8  -4    0.72    5.49
  -5  -8  -3   -0.74   16.24
  -5  -8  -3   -0.73   14.13
  -5  -8  -2    1.10   23.46
  -5  -8  -2    2.73   25.62
  -5  -8  -1    3.88   15.18
   5   8  -1    8.81   12.79
  -5  -8  -1    0.11   20.42
  -5  -8   0    0.49    4.67
   5   8   0   -0.84   11.49
   5   8   0   -2.97   11.92
  -5  -8   0   -0.10    9.77
  -5  -8   1   -0.01    8.39
   5   8   1    0.45   20.15
   5   8   1   11.63   20.68
  -5  -8   1    1.30   22.73
  -5  -8   2    0.37   16.11
   5   8   2   12.92   21.89
   5   8   2    6.18   31.27
   5   8   3    3.36   15.75
   5   8   3  -14.91   27.30
   5   8   4   -9.37   24.44
   5   8   4   -4.80    7.90
   5   8   5   14.04   21.43
  -5  -9  -3    1.47   10.37
  -5  -9  -2    0.38   16.79
  -5  -9  -2    0.05   16.86
  -5  -9  -1    0.63   15.62
  -5  -9  -1   -0.16   14.93
   5   9   1    2.16    7.04
   5   9   2   22.26   28.88
   5   9   2    0.44   19.00
   5   9   3   -4.13   28.20
   5   9   3    8.50   18.51
   6   0  -8   -6.28   40.86
   6   0  -9   40.28   53.27
   6   1 -10   -3.37   18.57
   6   1  -9   34.81   50.37
   6   1  -9   -6.06   32.53
   6   1  -8   80.12   66.25
   6   1  -8   -3.66   31.74
   6   1  -7  -13.64   30.95
   6   1  -7   -5.72   25.23
   6   1  -6   -9.89   23.59
   6   1  -6   17.95   25.90
   6   2  -9   45.19   48.97
   6   2  -8  -13.50   52.35
   6   2  -7  -16.90   33.30
   6   2  -6   49.85   46.42
   6   2  -5  -51.36   41.18
   6   2  -5   29.79   44.77
   6   2  -4    7.26   39.20
  -6  -2   8   15.60   13.22
  -6  -2   9  -24.07   43.60
   6   3  -9  -15.40   17.99
   6   3  -8  -13.05   24.01
   6   3  -7   38.76   48.42
   6   3  -6   -8.21   30.22
   6   3  -5   15.92   17.99
   6   3  -5   63.68   31.94
   6   3  -5   -3.41   19.66
   6   3  -4   -8.04    4.65
   6   3  -3   -6.28    6.46
   6   3  -3   -4.75    3.60
   6   3  -2   14.81   36.55
  -6  -3   5   30.94   17.94
  -6  -3   7   22.10   49.71
  -6  -3   8   13.71   39.87
   6   4  -9   20.29   35.75
   6   4  -8  -26.11   47.61
   6   4  -5    4.83   18.41
   6   4  -4  184.22   58.82
   6   4  -4   -2.44    9.53
   6   4  -3    5.08   11.11
   6   4  -3   -4.93   12.78
   6   4  -2    1.60   11.38
   6   4  -1   -0.07   13.03
   6   4  -1    8.65   38.63
  -6  -4   1   12.34   11.79
  -6  -4   2   61.29   25.81
  -6  -4   3    7.93    3.56
  -6  -4   4  141.86   40.59
  -6  -4   5   -1.75   13.47
  -6  -4   6   26.51   19.53
   6   5  -6   12.12   16.35
   6   5  -5   -0.31   20.45
   6   5  -4    6.23   13.21
   6   5  -3   -9.16   23.93
   6   5  -2   42.83   31.71
   6   5  -1   82.46   38.12
   6   5  -1    7.53   25.52
   6   5  -1   22.60   42.66
  -6  -5   0    9.68   10.88
   6   5   0   -0.26   15.14
   6   5   0    9.46   17.39
  -6  -5   1   48.08   23.21
   6   5   1   -4.80   17.68
   6   5   1   57.55   42.70
  -6  -5   2   18.30   15.37
  -6  -5   3   -3.39    1.46
  -6  -5   4    2.91    8.83
  -6  -5   5    0.65    6.14
  -6  -5   6   21.45   21.05
   6   6  -5   12.45   20.02
   6   6  -4    0.92   13.90
   6   6  -3   46.71   30.98
   6   6  -2    9.27    8.52
  -6  -6  -2   -2.33    1.25
  -6  -6  -1   -2.67   27.07
   6   6  -1   57.14   34.14
  -6  -6  -1    6.43   25.37
  -6  -6   0   34.59   21.05
   6   6   0   43.05   38.86
   6   6   0   17.23   26.37
  -6  -6   0    0.55   11.88
  -6  -6   1   46.84   25.35
   6   6   1   21.18   27.93
   6   6   1   -7.03   20.69
   6   6   1   39.83   34.76
  -6  -6   2   -4.74    7.93
   6   6   2    6.07   22.55
   6   6   2   -2.37   10.01
   6   6   2   -5.75   17.61
  -6  -6   3   93.47   35.61
   6   6   3   75.78   51.47
  -6  -6   4   18.77   17.37
  -6  -6   5    8.17   15.21
  -6  -6   6   -3.84    8.21
   6   7  -4   25.63   25.18
   6   7  -3   12.76   17.38
  -6  -7  -3   -0.05    2.30
  -6  -7  -2    0.06    8.82
   6   7  -2    4.14    2.10
  -6  -7  -2   -0.61   13.42
  -6  -7  -1    0.29   14.49
   6   7  -1    1.27   14.93
  -6  -7  -1   -0.15   14.05
  -6  -7   0    0.46   26.96
   6   7   0   14.38   29.61
   6   7   0   12.12   27.35
  -6  -7   0    0.15   15.41
  -6  -7   1    5.84    7.76
   6   7   1   -3.88   11.43
   6   7   1   22.88   23.75
  -6  -7   2   -9.82   14.27
   6   7   2  -12.46   21.81
   6   7   2   -3.77   15.01
   6   7   2   -1.37   28.40
  -6  -7   3    2.23   13.04
   6   7   3    2.09   11.76
   6   7   3  -15.92   14.15
   6   7   3   -0.59    6.48
  -6  -7   4    8.32   15.39
   6   7   4   -8.25   28.85
  -6  -7   5    2.54    8.81
  -6  -8  -3    0.25   20.92
  -6  -8  -2    3.81   14.20
   6   8  -2    4.99   10.56
  -6  -8  -2    0.22    5.71
  -6  -8  -1    0.09   10.13
   6   8  -1    7.42   23.68
  -6  -8  -1    0.03   13.72
  -6  -8   0   -0.62    7.74
   6   8   0   16.62   27.08
   6   8   0    9.57   20.34
  -6  -8   0    0.71   10.91
  -6  -8   1    1.52   15.73
   6   8   1   -0.15   21.57
   6   8   1   -0.05    9.56
   6   8   2   16.78   40.20
   6   8   2    4.21   19.39
   6   8   2   13.68    4.23
   6   8   3   -4.74   20.31
   6   8   3   -2.59   17.48
   6   8   3  -10.02   30.87
   6   8   4   -6.46   22.59
   7   2  -7   19.55   47.45
   7   3  -8  -21.55   40.08
   7   3  -7   -7.33    4.74
   7   3  -6    7.22   52.22
   7   3  -5   23.81   13.85
   7   3  -5   -8.38   23.82
  -7  -3   7   -0.40   18.81
  -7  -3   8  -35.65   37.40
   7   4  -5   21.47   16.35
   7   4  -4  -10.27   18.92
   7   4  -4    1.56   25.75
   7   4  -3   -7.34   30.10
   7   5  -5  -26.03   26.30
   7   5  -5   -6.16    1.53
   7   5  -4   29.84   20.21
   7   5  -4  -16.27   18.49
   7   5  -3  -13.93   26.31
   7   5  -3   -4.26   10.59
   7   5  -3   27.28   29.13
   7   5  -2   -0.11   12.08
   7   5  -2    8.83   10.45
  -7  -5   3   -6.48   13.83
  -7  -5   4   33.50   22.58
  -7  -5   5    6.83    9.93
   7   6  -5  -19.53   31.04
   7   6  -5   13.53   13.60
   7   6  -4  -18.94   35.94
   7   6  -4   -1.39   28.70
   7   6  -3   -4.16   14.79
   7   6  -3    4.03   17.75
   7   6  -2   13.02   25.31
   7   6  -2   -2.67   21.45
   7   6  -2   -3.40   10.33
   7   6  -1   69.95   57.42
   7   6  -1   11.75   19.32
   7   6   0    9.04   13.71
   7   6   0   -4.98    6.70
  -7  -6   1    2.26   42.18
  -7  -6   2   -7.41   11.85
  -7  -6   3  -10.99   15.72
  -7  -6   4  -13.92   15.07
   7   7   0   14.10   28.55
   7   7   1    4.09   12.06
   7   7   1    0.28   27.27
   0   0   0    0.00    0.00



TITL 1a in P2(1)2(1)2(1)
REM P2(1)2(1)2(1) (#19 in standard setting)
CELL 0.71073   7.004654   8.755413  10.085836  90.0000  90.0000  90.0000
ZERR    4.00   0.002192   0.001828   0.002051   0.0000   0.0000   0.0000
LATT -1
SYMM -x+1/2,-y, z+1/2
SYMM -x, y+1/2,-z+1/2
SYMM  x+1/2,-y+1/2,-z
SFAC C H N Cl
UNIT 16.00 8.00 20.00 4.00
TREF
HKLF 4
END
_computing_structure_solution     'SHELXT 2014/5 (Sheldrick, 2014)'
_computing_structure_solution     'SHELXT 2014/5 (Sheldrick, 2014)'
;
_shelx_hkl_checksum              56802
_olex2_submission_special_instructions 'No special instructions were received'
_oxdiff_exptl_absorpt_empirical_details
;
Empirical correction (ABSPACK) includes:
- Frame scaling
;
_oxdiff_exptl_absorpt_empirical_full_max 2.980
_oxdiff_exptl_absorpt_empirical_full_min 0.458
loop_
_space_group_symop_operation_xyz
'x, y, z'
'-x+1/2, -y, z+1/2'
'-x, y+1/2, -z+1/2'
'x+1/2, -y+1/2, -z'
loop_
_atom_site_label
_atom_site_type_symbol
_atom_site_fract_x
_atom_site_fract_y
_atom_site_fract_z
_atom_site_U_iso_or_equiv
_atom_site_adp_type
_atom_site_occupancy
_atom_site_site_symmetry_order
_atom_site_calc_flag
_atom_site_refinement_flags_posn
_atom_site_refinement_flags_adp
_atom_site_refinement_flags_occupancy
_atom_site_disorder_assembly
_atom_site_disorder_group
Cl1 Cl 0.2916(10) 0.3335(6) 0.3239(6) 0.091(3) Uani 1 1 d . . . . .
N4 N 0.352(3) 0.749(2) 0.4127(13) 0.072(6) Uani 1 1 d . . . . .
N5 N 0.364(3) 0.5955(19) 0.4182(15) 0.082(6) Uani 1 1 d . . . . .
N3 N 0.421(3) 0.840(2) 0.5084(13) 0.089(6) Uani 1 1 d . . . . .
N2 N 0.380(3) 0.978(3) 0.4674(18) 0.086(6) Uani 1 1 d . . . . .
N1 N 0.295(3) 0.984(2) 0.3477(16) 0.076(5) Uani 1 1 d . . . . .
C9 C 0.274(3) 0.831(2) 0.3154(14) 0.057(5) Uani 1 1 d . . . . .
C7 C 0.207(4) 0.605(3) 0.2071(17) 0.074(6) Uani 1 1 d . . . . .
H7 H 0.164726 0.549814 0.134175 0.088 Uiso 1 1 calc R U . . .
C6 C 0.284(3) 0.5309(18) 0.3169(15) 0.053(4) Uani 1 1 d . . . . .
C8 C 0.195(4) 0.756(3) 0.2078(15) 0.072(6) Uani 1 1 d . . . . .
H8 H 0.136090 0.809662 0.139331 0.087 Uiso 1 1 calc R U . . .
loop_
_atom_site_aniso_label
_atom_site_aniso_U_11
_atom_site_aniso_U_22
_atom_site_aniso_U_33
_atom_site_aniso_U_23
_atom_site_aniso_U_13
_atom_site_aniso_U_12
Cl1 0.109(6) 0.037(4) 0.127(4) -0.004(2) 0.024(3) -0.003(3)
N4 0.096(17) 0.063(14) 0.058(8) -0.010(7) 0.017(10) 0.001(9)
N5 0.13(2) 0.028(13) 0.083(10) 0.006(7) -0.006(11) -0.001(9)
N3 0.141(19) 0.056(16) 0.070(10) -0.007(10) -0.012(10) 0.000(11)
N2 0.078(17) 0.078(17) 0.100(11) -0.022(9) 0.020(10) -0.002(9)
N1 0.065(15) 0.071(14) 0.092(9) -0.008(8) 0.019(11) 0.002(10)
C9 0.076(17) 0.035(13) 0.061(9) 0.005(7) 0.005(9) 0.000(9)
C7 0.09(2) 0.068(16) 0.059(9) -0.005(7) -0.008(11) 0.004(12)
C6 0.054(14) 0.020(11) 0.087(10) -0.005(7) 0.016(10) -0.004(7)
C8 0.090(19) 0.075(17) 0.051(9) 0.010(7) -0.007(12) 0.010(13)
loop_
_atom_type_symbol
_atom_type_description
_atom_type_scat_dispersion_real
_atom_type_scat_dispersion_imag
_atom_type_scat_source
C C 0.0033 0.0016 'International Tables Vol C Tables 4.2.6.8 and 6.1.1.4'
H H 0.0000 0.0000 'International Tables Vol C Tables 4.2.6.8 and 6.1.1.4'
Cl Cl 0.1484 0.1585 'International Tables Vol C Tables 4.2.6.8 and 6.1.1.4'
N N 0.0061 0.0033 'International Tables Vol C Tables 4.2.6.8 and 6.1.1.4'
loop_
_geom_angle_atom_site_label_1
_geom_angle_atom_site_label_2
_geom_angle_atom_site_label_3
_geom_angle
_geom_angle_site_symmetry_1
_geom_angle_site_symmetry_3
_geom_angle_publ_flag
N5 N4 N3 122.9(17) . . ?
C9 N4 N5 126.6(16) . . ?
C9 N4 N3 110.5(19) . . ?
C6 N5 N4 112.1(16) . . ?
N2 N3 N4 104.1(17) . . ?
N3 N2 N1 114.9(15) . . ?
N2 N1 C9 102.4(14) . . ?
N4 C9 N1 108.0(14) . . ?
N4 C9 C8 118.9(19) . . ?
C8 C9 N1 133.1(18) . . ?
C6 C7 H7 120.4 . . ?
C8 C7 H7 120.4 . . ?
C8 C7 C6 119.1(16) . . ?
N5 C6 Cl1 113.0(14) . . ?
N5 C6 C7 126.1(17) . . ?
C7 C6 Cl1 120.8(14) . . ?
C9 C8 H8 121.6 . . ?
C7 C8 C9 116.8(18) . . ?
C7 C8 H8 121.6 . . ?
loop_
_geom_bond_atom_site_label_1
_geom_bond_atom_site_label_2
_geom_bond_distance
_geom_bond_site_symmetry_2
_geom_bond_publ_flag
Cl1 C6 1.730(16) . ?
N4 N5 1.34(2) . ?
N4 N3 1.35(2) . ?
N4 C9 1.33(2) . ?
N5 C6 1.29(2) . ?
N3 N2 1.30(2) . ?
N2 N1 1.35(2) . ?
N1 C9 1.39(2) . ?
C9 C8 1.38(3) . ?
C7 H7 0.9300 . ?
C7 C6 1.39(3) . ?
C7 C8 1.33(2) . ?
C8 H8 0.9300 . ?
loop_
_geom_torsion_atom_site_label_1
_geom_torsion_atom_site_label_2
_geom_torsion_atom_site_label_3
_geom_torsion_atom_site_label_4
_geom_torsion
_geom_torsion_site_symmetry_1
_geom_torsion_site_symmetry_2
_geom_torsion_site_symmetry_3
_geom_torsion_site_symmetry_4
_geom_torsion_publ_flag
N4 N5 C6 Cl1 -178.3(14) . . . . ?
N4 N5 C6 C7 5(3) . . . . ?
N4 N3 N2 N1 -3(3) . . . . ?
N4 C9 C8 C7 -2(4) . . . . ?
N5 N4 N3 N2 -179.5(17) . . . . ?
N5 N4 C9 N1 -178.8(19) . . . . ?
N5 N4 C9 C8 1(4) . . . . ?
N3 N4 N5 C6 179(2) . . . . ?
N3 N4 C9 N1 1(2) . . . . ?
N3 N4 C9 C8 -180(2) . . . . ?
N3 N2 N1 C9 3(2) . . . . ?
N2 N1 C9 N4 -2(2) . . . . ?
N2 N1 C9 C8 179(2) . . . . ?
N1 C9 C8 C7 177(2) . . . . ?
C9 N4 N5 C6 -2(3) . . . . ?
C9 N4 N3 N2 1(3) . . . . ?
C6 C7 C8 C9 5(4) . . . . ?
C8 C7 C6 Cl1 177(2) . . . . ?
C8 C7 C6 N5 -7(4) . . . . ?
