#------------------------------------------------------------------------------
#$Date: 2021-12-04 04:46:23 +0200 (Sat, 04 Dec 2021) $
#$Revision: 271105 $
#$URL: file:///home/coder/svn-repositories/cod/cif/1/56/55/1565525.cif $
#------------------------------------------------------------------------------
#
# This file is available in the Crystallography Open Database (COD),
# http://www.crystallography.net/
#
# All data on this site have been placed in the public domain by the
# contributors.
#
data_1565525
loop_
_publ_author_name
'Chen, Ye-Tao'
'Chen, Wenbin'
'He, Jiaxing'
'Zhang, Guohui'
'Wen, Xinyi'
'Ran, Shuping'
'Deng, Ziqi'
'Zhu, Sheng'
'Li, Hailin'
'Ni, Shaofei'
'Chen, Shunli'
'Dang, Li'
'Li, Ming-De'
_publ_section_title
;
 Tailormade Nonradiative Rotation Tuning of the Near-Infrared Photothermal
 Conversion in Donor--Acceptor Cocrystals
;
_journal_issue                   46
_journal_name_full               'The Journal of Physical Chemistry C'
_journal_page_first              25462
_journal_page_last               25469
_journal_paper_doi               10.1021/acs.jpcc.1c09151
_journal_volume                  125
_journal_year                    2021
_chemical_formula_moiety         'C16 H10, C6 N4'
_chemical_formula_sum            'C22 H10 N4'
_chemical_formula_weight         330.34
_space_group_crystal_system      monoclinic
_space_group_IT_number           14
_space_group_name_Hall           '-P 2ybc'
_space_group_name_H-M_alt        'P 1 21/c 1'
_atom_sites_solution_hydrogens   geom
_atom_sites_solution_primary     dual
_audit_creation_date             2021-03-22
_audit_creation_method
;
Olex2 1.3-beta
(compiled 2020.11.12 svn.r5f609507 for OlexSys, GUI svn.r6272)
;
_cell_angle_alpha                90
_cell_angle_beta                 92.458(2)
_cell_angle_gamma                90
_cell_formula_units_Z            2
_cell_length_a                   7.97980(10)
_cell_length_b                   7.25230(10)
_cell_length_c                   14.3587(2)
_cell_measurement_reflns_used    2893
_cell_measurement_temperature    299.98(10)
_cell_measurement_theta_max      73.7040
_cell_measurement_theta_min      3.0890
_cell_volume                     830.201(19)
_computing_cell_refinement       'CrysAlisPro 1.171.39.28b (Rigaku OD, 2015)'
_computing_data_collection       'CrysAlisPro 1.171.39.28b (Rigaku OD, 2015)'
_computing_data_reduction        'CrysAlisPro 1.171.39.28b (Rigaku OD, 2015)'
_computing_molecular_graphics    'Olex2 1.3-beta (Dolomanov et al., 2009)'
_computing_publication_material  'Olex2 1.3-beta (Dolomanov et al., 2009)'
_computing_structure_refinement  'SHELXL 2018/3 (Sheldrick, 2015)'
_computing_structure_solution    'SHELXT 2014/5 (Sheldrick, 2014)'
_diffrn_ambient_environment      air
_diffrn_ambient_temperature      299.98(10)
_diffrn_detector                 'CCD plate'
_diffrn_measured_fraction_theta_full 0.999
_diffrn_measured_fraction_theta_max 0.970
_diffrn_measurement_details
;
List of Runs (angles in degrees, time in seconds):

  # Type    Start    End  Width  t~exp~   \w     \q     \k     \f   Frames
--------------------------------------------------------------------------
  1  \w    -22.00   5.00   0.50    0.50    --    0.00 -19.00  60.00   54
  2  \w    -48.00 -14.00   0.50    0.50    --    0.00 -57.00 -60.00   68
  3  \w    -74.00  21.00   0.50    0.50    --    0.00 -57.00   0.00  190
  4  \w    -76.00 -39.00   0.50    0.50    --    0.00 -19.00  60.00   74
  5  \w    123.00 185.00   0.50    0.50    --   95.80  45.00 120.00  124
  6  \w      8.00  75.00   0.50    0.50    --   95.80 -15.00 -30.00  134
  7  \w     69.00 113.00   0.50    0.50    --   95.80 -77.00  60.00   88
  8  \w    126.00 184.00   0.50    0.50    --   95.80  77.00-120.00  116
  9  \w     59.00 125.00   0.50    0.50    --   95.80 -82.00 -90.00  132
 10  \w     76.00 102.00   0.50    0.50    --   95.80  45.00 120.00   52
 11  \w     70.00 111.00   0.50    0.50    --   95.80  77.00-120.00   82
 12  \w     13.00 107.00   0.50    0.50    --   95.80 -15.00 150.00  188
 13  \w     56.00 120.00   0.50    0.50    --   95.80 -77.00 120.00  128
;
_diffrn_measurement_device       'four-circle diffractometer'
_diffrn_measurement_device_type  'XtaLAB AFC12 (RINC): Kappa single'
_diffrn_measurement_method       '\w scans'
_diffrn_orient_matrix_type
'CrysAlisPro convention (1999,Acta A55,543-557)'
_diffrn_orient_matrix_UB_11      -0.0356886000
_diffrn_orient_matrix_UB_12      -0.2001079000
_diffrn_orient_matrix_UB_13      -0.0307036000
_diffrn_orient_matrix_UB_21      0.0099114000
_diffrn_orient_matrix_UB_22      0.0583403000
_diffrn_orient_matrix_UB_23      -0.1027403000
_diffrn_orient_matrix_UB_31      0.1898219000
_diffrn_orient_matrix_UB_32      -0.0407676000
_diffrn_orient_matrix_UB_33      0.0042743000
_diffrn_radiation_monochromator  graphite
_diffrn_radiation_probe          x-ray
_diffrn_radiation_type           'Cu K\a'
_diffrn_radiation_wavelength     1.54184
_diffrn_reflns_av_R_equivalents  0.0201
_diffrn_reflns_av_unetI/netI     0.0251
_diffrn_reflns_Laue_measured_fraction_full 0.999
_diffrn_reflns_Laue_measured_fraction_max 0.970
_diffrn_reflns_limit_h_max       9
_diffrn_reflns_limit_h_min       -8
_diffrn_reflns_limit_k_max       8
_diffrn_reflns_limit_k_min       -9
_diffrn_reflns_limit_l_max       17
_diffrn_reflns_limit_l_min       -17
_diffrn_reflns_number            4199
_diffrn_reflns_point_group_measured_fraction_full 0.999
_diffrn_reflns_point_group_measured_fraction_max 0.970
_diffrn_reflns_theta_full        67.684
_diffrn_reflns_theta_max         74.065
_diffrn_reflns_theta_min         5.549
_diffrn_source                   'fine-focus sealed X-ray tube'
_diffrn_source_type              'Enhance (Cu) X-ray Source'
_exptl_absorpt_coefficient_mu    0.645
_exptl_absorpt_correction_T_max  1.00000
_exptl_absorpt_correction_T_min  0.46614
_exptl_absorpt_correction_type   multi-scan
_exptl_absorpt_process_details
;
CrysAlisPro 1.171.39.28b (Rigaku Oxford Diffraction, 2015)
Empirical absorption correction using spherical harmonics,
 implemented in SCALE3 ABSPACK scaling algorithm.
;
_exptl_crystal_colour            Black
_exptl_crystal_density_diffrn    1.321
_exptl_crystal_description       Block
_exptl_crystal_F_000             340
_exptl_crystal_size_max          0.22
_exptl_crystal_size_mid          0.16
_exptl_crystal_size_min          0.13
_refine_diff_density_max         0.516
_refine_diff_density_min         -0.299
_refine_diff_density_rms         0.091
_refine_ls_extinction_method     none
_refine_ls_goodness_of_fit_ref   1.047
_refine_ls_hydrogen_treatment    constr
_refine_ls_matrix_type           full
_refine_ls_number_parameters     118
_refine_ls_number_reflns         1629
_refine_ls_number_restraints     0
_refine_ls_restrained_S_all      1.047
_refine_ls_R_factor_all          0.0611
_refine_ls_R_factor_gt           0.0578
_refine_ls_shift/su_max          0.000
_refine_ls_shift/su_mean         0.000
_refine_ls_structure_factor_coef Fsqd
_refine_ls_weighting_details
'w=1/[\s^2^(Fo^2^)+(0.0815P)^2^+0.2262P] where P=(Fo^2^+2Fc^2^)/3'
_refine_ls_weighting_scheme      calc
_refine_ls_wR_factor_gt          0.1500
_refine_ls_wR_factor_ref         0.1538
_reflns_Friedel_coverage         0.000
_reflns_number_gt                1491
_reflns_number_total             1629
_reflns_threshold_expression     'I > 2\s(I)'
_cod_data_source_file            jp1c09151_si_003.cif
_cod_data_source_block           20210126a
_cod_database_code               1565525
_shelx_shelxl_version_number     2018/3
_chemical_oxdiff_formula         'N H C'
_chemical_oxdiff_usercomment     'N H C'
_shelx_space_group_comment
;
The symmetry employed for this shelxl refinement is uniquely defined
by the following loop, which should always be used as a source of
symmetry information in preference to the above space-group names.
They are only intended as comments.
;
_reflns_odcompleteness_completeness 99.88
_reflns_odcompleteness_iscentric 1
_reflns_odcompleteness_theta     66.97
_olex2_refinement_description
;
1. Fixed Uiso
 At 1.2 times of:
  All C(H) groups
2.a Aromatic/amide H refined with riding coordinates:
 C10(H10), C11(H11), C13(H13), C8(H8), C7(H7)
;
_shelx_res_file
;
TITL 20210126a_a.res in P2(1)/c
    20210126a.res
    created by SHELXL-2018/3 at 10:02:52 on 22-Mar-2021
REM Old TITL 20210126A in P2(1)/c
REM SHELXT solution in P2(1)/c
REM R1 0.160, Rweak 0.138, Alpha 0.018, Orientation as input
REM Formula found by SHELXT: C11 N2
CELL 1.54184 7.9798 7.2523 14.3587 90 92.458 90
ZERR 2 0.0001 0.0001 0.0002 0 0.002 0
LATT 1
SYMM -X,0.5+Y,0.5-Z
SFAC C H N
UNIT 44 20 8

L.S. 4 0 0
PLAN  5
CONF
BOND $H
list 4
MORE -1
fmap 2 53
acta
REM <olex2.extras>
REM <HklSrc "%.\\20210126A.hkl">
REM </olex2.extras>

WGHT    0.081500    0.226200
FVAR       0.97290
C15   1    0.053747    0.444321    0.528867    11.00000    0.03531    0.05050 =
         0.04110    0.00184    0.00607   -0.00321
C9    1    0.107772    0.508237    0.619096    11.00000    0.04044    0.06353 =
         0.04103    0.00032    0.00396   -0.00383
C12   1    0.106563    0.269316    0.497269    11.00000    0.04055    0.05010 =
         0.05383    0.00152    0.00787   -0.00246
N3    3    0.491706    0.803011    0.640422    11.00000    0.07588    0.07844 =
         0.07920   -0.01631   -0.00320    0.00238
N4    3    0.716455    0.255146    0.621217    11.00000    0.06137    0.08602 =
         0.08186    0.02663   -0.00742    0.01131
C10   1    0.051511    0.685292    0.648831    11.00000    0.05308    0.07530 =
         0.04783   -0.01586    0.00165   -0.00327
AFIX  43
H10   2    0.086147    0.728563    0.707515    11.00000   -1.20000
AFIX   0
C11   1   -0.050186    0.790492    0.593956    11.00000    0.05401    0.05713 =
         0.06153   -0.01411    0.00694   -0.00011
AFIX  43
H11   2   -0.084741    0.904581    0.615635    11.00000   -1.20000
AFIX   0
C13   1    0.211203    0.161691    0.556287    11.00000    0.05187    0.05315 =
         0.07266    0.00982    0.00827    0.00436
AFIX  43
H13   2    0.245993    0.046284    0.536520    11.00000   -1.20000
AFIX   0
C8    1    0.213980    0.396195    0.674345    11.00000    0.05183    0.08316 =
         0.04321    0.00878   -0.00022   -0.00230
AFIX  43
H8    2    0.252111    0.437435    0.732812    11.00000   -1.20000
AFIX   0

C6    1    0.635617    0.364363    0.585135    11.00000    0.04700    0.06789 =
         0.05764    0.01182   -0.00294    0.00148
C4    1    0.533501    0.509260    0.542677    11.00000    0.04705    0.06644 =
         0.06370    0.00949   -0.00035   -0.00073
C5    1    0.506965    0.676809    0.595512    11.00000    0.05159    0.06570 =
         0.05923   -0.00306   -0.00105   -0.00165
C7    1    0.263183    0.225127    0.643431    11.00000    0.05428    0.07353 =
         0.06175    0.02256    0.00022    0.00427
AFIX  43
H7    2    0.332232    0.151685    0.681808    11.00000   -1.20000
AFIX   0
HKLF 4




REM  20210126a_a.res in P2(1)/c
REM wR2 = 0.1538, GooF = S = 1.047, Restrained GooF = 1.047 for all data
REM R1 = 0.0578 for 1491 Fo > 4sig(Fo) and 0.0611 for all 1629 data
REM 118 parameters refined using 0 restraints

END

WGHT      0.0815      0.2262

REM Highest difference peak  0.516,  deepest hole -0.299,  1-sigma level  0.091
Q1    1   0.4645  0.5985  0.5044  11.00000  0.05    0.52
Q2    1   0.3836  0.7673  0.7532  11.00000  0.05    0.21
Q3    1   0.5843  0.3110  0.7207  11.00000  0.05    0.20
Q4    1   0.1146  0.2189  0.7280  11.00000  0.05    0.20
Q5    1   0.1777  0.2398  0.7974  11.00000  0.05    0.19
;
_shelx_res_checksum              62108
_shelx_hkl_file
;
   0   0   1    6.55    0.23
   0   0   2 4005.26  133.21
   0   0   3    0.10    0.07
   0   0   4 5135.01  170.80
   0   0   5    0.03    0.06
   0   0  -5    0.05    0.08
   0   0  -6  109.07    3.90
   0   0   6  117.58    3.88
   0   0  -7   -0.02    0.07
   0   0  -7    0.09    0.11
   0   0  -7   -0.09    0.10
   0   0   7    0.08    0.07
   0   0   7    0.06    0.11
   0   0  -8  387.84   13.03
   0   0  -8  376.49   13.00
   0   0   8  382.66   12.95
   0   0  -8  387.37   12.96
   0   0   8  397.85   13.07
   0   0   9    0.01    0.16
   0   0  -9    0.05    0.12
   0   0  -9    0.04    0.15
   0   0  10    7.57    0.52
   0   0 -10    7.08    0.48
   0   0 -10    7.91    0.45
   0   0  11    0.39    0.25
   0   0 -11    0.04    0.22
   0   0 -11    0.07    0.21
   0   0  12   -0.06    0.28
   0   0 -12    0.24    0.26
   0   0 -12   -0.11    0.25
   0   0 -13    0.31    0.26
   0   0  13   -0.09    0.28
   0   0 -13    0.11    0.21
   0   0 -14    1.41    0.30
   0   0 -14    1.70    0.33
   0   0  14    1.27    0.35
   0   0 -15   -0.13    0.23
   0   0  15   -0.15    0.29
   0   0  16    6.20    0.51
   0   0  17    0.20    0.20
   0   1   0    0.00    0.07
   0  -1   1 2933.85   97.24
   0   1   1 2892.63   97.25
   0   1  -1 2940.10   97.24
   0  -1  -2    3.78    0.20
   0   1   2    3.75    0.20
   0   1   3    3.98    0.19
   0  -1   3    4.61    0.22
   0  -1  -3    3.86    0.20
   0   1  -3    4.09    0.21
   0  -1  -4   23.10    0.86
   0  -1   4   22.96    0.86
   0   1   4   23.81    0.85
   0   1   5   16.97    0.65
   0  -1   5   17.13    0.67
   0  -1  -5   16.79    0.66
   0  -1   6  248.76    8.39
   0   1   6  250.10    8.37
   0  -1   6  247.01    8.41
   0  -1  -7   26.76    0.95
   0  -1  -7   24.87    1.01
   0   1  -7   23.87    0.96
   0  -1   7   27.16    1.02
   0   1   7   23.96    0.95
   0   1  -7   25.09    1.01
   0  -1   7   24.56    1.03
   0  -1   7   25.69    0.98
   0   1   7   27.37    1.07
   0   1   8   68.10    2.48
   0  -1   8   72.04    2.60
   0  -1  -8   72.95    2.49
   0  -1  -8   71.63    2.57
   0   1   8   74.92    2.62
   0   1  -8   71.03    2.56
   0  -1   8   67.67    2.49
   0   1   9    1.14    0.23
   0  -1  -9    1.10    0.15
   0  -1  -9    0.84    0.20
   0   1  -9    1.05    0.21
   0  -1   9    0.80    0.21
   0  -1  10    1.85    0.30
   0   1  10    2.22    0.32
   0   1 -10    1.80    0.27
   0  -1 -10    1.98    0.22
   0  -1 -10    1.68    0.26
   0  -1  11    1.90    0.34
   0  -1 -11    1.99    0.31
   0  -1 -11    2.73    0.29
   0   1 -11    2.26    0.32
   0   1  11    2.28    0.34
   0  -1 -12    0.66    0.23
   0  -1 -12    1.05    0.28
   0  -1  12    1.06    0.35
   0   1  12    0.61    0.28
   0  -1  12    0.79    0.27
   0  -1  13   22.88    1.10
   0  -1 -13   22.04    1.09
   0  -1  13   23.49    1.22
   0   1 -13   20.65    1.06
   0  -1 -13   24.08    1.06
   0   1  13   24.19    1.21
   0   1  14   19.56    1.07
   0  -1 -14   18.85    0.96
   0   1 -14   19.30    0.96
   0  -1  14   19.87    1.10
   0  -1 -14   19.94    0.94
   0  -1  15   28.19    1.34
   0  -1 -15   27.28    1.20
   0   1  15   27.19    1.32
   0  -1 -15   27.15    1.18
   0   1  16    3.49    0.39
   0  -1  16    4.09    0.44
   0  -1  17    0.12    0.21
   0   1  17    0.13    0.18
   0   2   0 3348.76  109.39
   0  -2   0 3222.05  109.40
   0  -2   1  120.60    4.02
   0   2  -1  128.88    4.00
   0  -2  -2   15.08    0.57
   0  -2   2   14.51    0.62
   0  -2   2   14.84    0.59
   0   2   2   14.14    0.61
   0  -2   2   13.77    0.61
   0  -2  -3    0.15    0.09
   0   2  -3    0.35    0.10
   0   2   3    0.12    0.11
   0  -2   3    0.10    0.11
   0  -2   3    0.15    0.12
   0  -2   4 1774.69   58.27
   0  -2  -4 1744.33   58.24
   0   2   4 1715.82   58.25
   0   2  -4 1761.57   58.25
   0  -2  -5   18.12    0.71
   0   2  -5   17.92    0.72
   0  -2   5   18.48    0.73
   0   2   5   16.82    0.70
   0  -2  -6   19.36    0.78
   0  -2  -6   18.46    0.79
   0   2  -6   19.26    0.79
   0  -2  -6   19.64    0.79
   0   2   6   17.20    0.76
   0  -2   6   19.10    0.82
   0   2  -6   19.41    0.77
   0   2   6   21.89    0.88
   0  -2   6   19.24    0.80
   0  -2   7    3.32    0.28
   0  -2  -7    3.14    0.27
   0   2  -7    3.38    0.26
   0  -2   7    3.22    0.25
   0  -2  -7    3.68    0.20
   0   2   7    3.12    0.23
   0  -2  -7    3.57    0.25
   0  -2   7    3.22    0.29
   0  -2  -7    3.35    0.24
   0   2   7    4.03    0.33
   0   2  -7    3.36    0.25
   0  -2  -8  215.87    7.68
   0   2   8  234.63    7.78
   0  -2   8  227.15    7.73
   0   2   8  222.62    7.65
   0   2  -8  223.71    7.64
   0  -2  -8  224.20    7.58
   0  -2   9   12.30    0.67
   0  -2  -9   11.00    0.52
   0  -2  -9   10.63    0.61
   0   2  -9   10.36    0.57
   0   2   9   13.08    0.70
   0  -2 -10    9.13    0.57
   0  -2  10    9.63    0.62
   0  -2 -10    9.42    0.48
   0   2 -10    9.03    0.54
   0   2  10    9.80    0.64
   0   2 -11    2.59    0.32
   0  -2  11    2.40    0.36
   0  -2 -11    2.41    0.26
   0  -2 -11    2.31    0.33
   0  -2  11    1.87    0.37
   0   2  11    2.19    0.36
   0  -2  12   90.23    3.49
   0   2 -12   87.20    3.40
   0  -2 -12   97.70    3.35
   0   2  12   92.37    3.55
   0  -2 -12   90.87    3.44
   0  -2  12   98.37    3.58
   0   2 -13   44.61    1.91
   0  -2  13   47.14    2.01
   0  -2  13   49.13    2.09
   0  -2 -13   47.69    1.85
   0  -2 -13   49.77    1.95
   0   2  13   49.63    2.07
   0   2  14  119.35    4.54
   0  -2 -14  120.44    4.32
   0  -2 -14  125.22    4.42
   0  -2  14  127.42    4.61
   0   2  15    1.80    0.34
   0  -2  15    1.64    0.38
   0  -2 -15    1.42    0.27
   0  -2 -16    0.62    0.20
   0  -2  16    0.81    0.31
   0   2  16    0.40    0.22
   0   2  17    1.80    0.22
   0   2 -17    2.25    0.21
   0  -3   0    0.15    0.09
   0   3   0    0.10    0.12
   0  -3   1  428.08   15.61
   0  -3   1  502.28   15.64
   0   3  -1  484.93   15.62
   0   3   1  451.45   15.63
   0  -3   2  172.04    5.89
   0  -3   2  167.13    5.89
   0  -3  -2  176.77    5.86
   0   3   2  170.63    5.94
   0  -3   3   44.04    1.66
   0   3   3   43.21    1.69
   0  -3   3   41.52    1.67
   0  -3  -3   46.11    1.61
   0   3   4   18.47    0.85
   0  -3   4   18.20    0.84
   0  -3   4   18.58    0.84
   0  -3   4   18.65    0.84
   0  -3  -4   19.11    0.78
   0  -3   4   18.34    0.86
   0  -3  -4   20.10    0.79
   0  -3   5   26.33    1.17
   0  -3   5   26.26    1.14
   0  -3   5   25.02    1.14
   0  -3   5   27.78    1.12
   0   3  -5   26.97    1.06
   0  -3  -5   28.37    1.10
   0   3   5   25.85    1.15
   0  -3   5   25.23    1.15
   0  -3  -5   29.81    1.11
   0  -3  -5   31.22    1.06
   0  -3  -6  204.36    6.90
   0  -3   6  203.42    6.99
   0   3   6  195.69    6.96
   0  -3   6  194.76    6.96
   0  -3   6  196.29    7.01
   0  -3  -6  203.67    6.90
   0  -3   6  201.33    6.93
   0   3  -6  207.48    6.88
   0  -3   7    0.19    0.22
   0  -3  -7    0.02    0.15
   0   3  -7    0.12    0.14
   0  -3   7    0.38    0.20
   0   3   7    0.21    0.20
   0   3   8    7.82    0.56
   0   3  -8    7.85    0.45
   0  -3   8    7.28    0.56
   0  -3  -8    7.05    0.47
   0  -3   9    1.27    0.34
   0  -3  -9    1.24    0.28
   0   3  -9    1.74    0.25
   0   3  10   19.65    1.04
   0  -3  10   19.55    1.08
   0   3 -10   18.51    0.90
   0  -3 -10   20.67    0.99
   0   3 -11  155.30    5.62
   0   3  11  155.56    5.78
   0  -3  11  161.82    5.83
   0  -3 -11  168.04    5.70
   0  -3  12   34.18    1.60
   0   3  12   33.30    1.60
   0  -3 -12   34.82    1.50
   0  -3 -13   98.87    3.48
   0   3  13   87.00    3.54
   0  -3 -14   38.40    1.51
   0   3  14   32.14    1.56
   0  -3  15    1.02    0.33
   0  -3 -15    0.91    0.22
   0   3  15    0.94    0.26
   0   3  16   -0.05    0.15
   0  -3 -16    0.06    0.14
   0   3 -16   -0.11    0.13
   0  -4   0  519.72   17.08
   0   4   0  489.51   17.05
   0  -4   0  509.86   17.05
   0  -4   0  511.79   17.09
   0   4   1   66.69    2.44
   0  -4  -1   70.01    2.46
   0  -4   1   67.28    2.46
   0   4  -1   66.31    2.42
   0  -4   1   66.91    2.41
   0  -4  -2  103.04    3.58
   0  -4  -2  100.35    3.54
   0  -4   2  100.39    3.54
   0   4   2   98.22    3.57
   0  -4   2  102.97    3.60
   0  -4  -3   15.49    0.61
   0  -4  -3   14.98    0.69
   0  -4   3   14.96    0.69
   0   4   3   12.96    0.68
   0   4   4   22.83    1.06
   0  -4  -4   24.34    1.04
   0  -4  -4   26.59    0.97
   0  -4  -5   17.21    0.81
   0  -4  -5   17.95    0.73
   0  -4  -6   41.47    1.63
   0  -4  -7   74.14    2.66
   0  -4   7   68.22    2.77
   0  -4   8  276.62    9.56
   0   4   8  256.98    9.54
   0  -4  -8  283.83    9.44
   0  -4   9   12.91    0.86
   0   4   9   11.48    0.79
   0  -4  -9   12.87    0.74
   0  -4 -10    0.37    0.29
   0  -4  10    0.27    0.41
   0   4  10   -0.11    0.28
   0  -4 -11    0.76    0.33
   0   4  11    0.63    0.30
   0   4  12   45.52    2.12
   0  -4 -12   56.49    2.09
   0  -4 -13    6.70    0.48
   0   4  13    4.37    0.46
   0  -4 -14    0.91    0.23
   0   4 -14    0.68    0.18
   0   4  14    0.48    0.22
   0  -4 -15    0.68    0.17
   0   4 -15    0.68    0.13
   0   4  15    0.63    0.18
   0  -5   0    0.03    0.19
   0  -5  -1    0.18    0.18
   0  -5  -2   11.64    0.64
   0  -5  -3   46.96    1.79
   0  -5   3   43.69    1.81
   0  -5  -4   29.10    1.24
   0  -5  -5    3.31    0.34
   0  -5  -6   27.79    1.22
   0  -5  -7   11.22    0.65
   0   5   8   20.20    1.11
   0  -5  -9    9.86    0.65
   0   5   9    8.99    0.69
   0   5  10   26.57    1.39
   0  -5 -10   32.93    1.37
   0  -5 -11   15.65    0.82
   0   5  11   12.82    0.81
   0  -5  12    3.77    0.36
   0   5  12    3.44    0.38
   0  -5 -12    3.25    0.35
   0  -5 -13    4.09    0.34
   0  -5  13    3.75    0.29
   0   5  13    3.68    0.35
   0  -5 -14    3.19    0.26
   0   5  14    2.76    0.24
   0  -6   0   25.34    1.16
   0  -6   1    5.19    0.47
   0  -6  -1    5.72    0.45
   0  -6  -2    8.56    0.56
   0  -6  -3    0.49    0.24
   0  -6  -4   32.19    1.37
   0  -6   4   30.93    1.40
   0  -6   5   12.25    0.75
   0  -6  -5   11.95    0.69
   0  -6   6   73.61    2.81
   0  -6  -6   71.99    2.74
   0  -6   7    3.71    0.44
   0   6   7    4.21    0.46
   0  -6   8   16.05    0.87
   0   6   8   16.27    0.91
   0  -6   9    3.22    0.39
   0   6   9    3.53    0.40
   0   6  10   12.99    0.73
   0  -6  10   12.43    0.70
   0  -6 -10   13.10    0.70
   0  -6 -11    5.26    0.39
   0   6  11    4.89    0.38
   0  -6  11    4.30    0.35
   0  -6  12    5.81    0.33
   0   6  12    5.44    0.35
   0  -6 -12    5.85    0.37
   0  -6 -13    0.67    0.13
   0  -7   0    0.10    0.23
   0  -7  -1    5.83    0.47
   0  -7   1    6.74    0.50
   0  -7  -2   64.27    2.45
   0  -7  -3   36.51    1.52
   0  -7   4    8.09    0.59
   0  -7  -4    8.40    0.54
   0  -7   5   70.30    2.61
   0  -7  -5   66.42    2.54
   0  -7   6   41.75    1.70
   0  -7   7    3.31    0.36
   0   7   7    4.09    0.38
   0  -7   8    0.91    0.23
   0   7   8    1.20    0.23
   0   7   9    0.56    0.16
   0  -7   9    0.61    0.19
   0  -7  10    0.83    0.15
   0   7  10    0.71    0.13
   0  -7 -11   -0.08    0.10
   0  -8   0    0.19    0.16
   0  -8   1    5.75    0.40
   0  -8  -1    5.71    0.40
   0  -8   2   -0.03    0.19
   0  -8  -2    0.05    0.16
   0  -8  -3    6.60    0.40
   0  -8  -4    0.22    0.14
   0  -8  -4    0.22    0.17
   0  -8   4    0.10    0.16
   0  -8   5    0.27    0.16
   0   8   5    0.25    0.14
   0  -8  -5    0.16    0.16
   0   8   6    0.17    0.11
   0  -8   6    0.18    0.13
   0  -8  -6    0.15    0.14
   0  -8  -7    0.03    0.12
   0  -8   7    0.14    0.12
   0  -8   8    0.68    0.11
   0  -9   0    0.05    0.07
   0  -9   1    0.92    0.11
  -1   0  17   -0.06    0.17
   1   0 -17    0.08    0.12
  -1   0  16    2.44    0.35
  -1   0  15   -0.14    0.24
  -1   0  15   -0.04    0.25
  -1   0  14    7.21    0.60
   1   0 -14    6.14    0.51
  -1   0  13    0.02    0.26
   1   0 -13   -0.05    0.24
   1   0 -13    0.13    0.27
  -1   0  12   15.82    0.89
   1   0 -12   14.44    0.83
   1   0 -12   17.16    0.85
   1   0 -11    0.03    0.19
   1   0 -11    0.19    0.25
  -1   0  11    0.02    0.21
   1   0 -10   11.22    0.62
  -1   0  10   13.10    0.70
  -1   0   9    1.30    0.22
  -1   0   9    1.95    0.18
  -1   0   8 1150.52   38.70
   1   0  -8 1152.83   38.71
  -1   0   8 1176.77   38.76
  -1   0   7   -0.01    0.09
  -1   0   7    0.11    0.11
  -1   0   6 1019.33   34.03
  -1   0   5   -0.01    0.08
  -1   0   5    0.01    0.09
   1   0  -5    0.03    0.07
  -1   0   4   52.84    1.83
  -1   0   4   52.79    1.81
   1   0  -4   50.48    1.81
  -1   0   3   -0.03    0.08
  -1   0   3    0.09    0.08
   1   0  -3    0.07    0.07
  -1   0   2 1402.31   46.67
  -1   0   1    0.00    0.03
  -1   0   0  383.24   12.76
  -1   0  -1    0.02    0.03
   1   0   1    0.12    0.05
   1   0   2  243.75    8.14
  -1   0  -3    0.03    0.05
   1   0   3    0.05    0.03
  -1   0  -4 1696.17   56.07
   1   0   4 1679.92   56.02
   1   0   5   -0.01    0.03
  -1   0  -5    0.05    0.07
  -1   0  -6   39.27    1.43
   1   0   6   39.52    1.36
   1   0   7   -0.01    0.09
   1   0   7   -0.01    0.13
  -1   0  -7    0.04    0.10
   1   0   7    0.02    0.04
  -1   0  -7    0.03    0.09
  -1   0  -8  151.63    5.34
  -1   0  -8  155.96    5.35
   1   0   8  153.31    5.32
   1   0   8  160.55    5.42
  -1   0  -9    0.09    0.11
  -1   0  -9    0.08    0.14
   1   0   9    0.04    0.18
  -1   0 -10   25.76    1.01
  -1   0 -10   23.62    1.07
  -1   0 -11   -0.01    0.16
  -1   0 -11    0.01    0.20
  -1   0 -12   25.16    1.09
  -1   0 -12   23.97    1.11
  -1   0 -13   -0.14    0.24
  -1   0 -13    0.17    0.20
  -1   0 -14    0.66    0.27
  -1   0 -15    0.09    0.22
  -1   0 -16    6.65    0.44
   1   0  16    6.81    0.54
   1   0  17    0.04    0.20
  -1   1  17    0.17    0.14
   1   1 -17    0.15    0.13
  -1  -1  17    0.31    0.20
  -1   1  16    4.12    0.39
  -1  -1  16    4.30    0.44
  -1   1  15    3.13    0.39
  -1  -1  15    3.51    0.41
   1  -1 -15    3.41    0.37
  -1  -1  15    3.17    0.43
  -1  -1  14    6.86    0.57
  -1  -1  14    7.64    0.62
   1  -1 -14    7.40    0.55
  -1   1  14    7.95    0.61
   1  -1 -13    2.65    0.37
   1   1 -13    2.40    0.37
  -1  -1  13    2.50    0.39
   1  -1 -13    2.62    0.33
  -1  -1  13    2.60    0.40
  -1   1  13    2.24    0.37
  -1  -1  12   10.65    0.70
   1   1 -12   10.43    0.64
   1  -1 -12    8.61    0.63
   1  -1 -12    9.58    0.59
  -1   1  12    9.46    0.67
  -1   1  11    1.82    0.30
   1   1 -11    1.27    0.29
   1   1 -11    1.00    0.25
  -1  -1  11    1.34    0.30
   1  -1 -11    1.03    0.23
   1  -1 -10   48.56    1.86
  -1   1  10   49.97    1.94
  -1  -1  10   50.84    1.96
   1   1 -10   47.52    1.88
   1   1 -10   46.49    1.89
  -1   1   9   43.66    1.73
   1  -1  -9   43.52    1.65
  -1  -1   9   46.15    1.74
   1   1  -9   41.28    1.66
  -1  -1   8  176.85    5.71
  -1   1   8  153.80    5.62
   1  -1  -8  161.03    5.66
  -1   1   8  171.56    5.72
   1  -1  -8  163.58    5.64
  -1  -1   8  167.07    5.72
  -1   1   7  436.93   14.91
  -1   1   7  465.03   14.97
   1  -1  -7  429.01   14.90
   1  -1  -7  435.05   14.91
   1  -1  -7  439.45   14.95
  -1  -1   7  452.30   14.97
  -1  -1   7  462.23   14.96
   1  -1  -6  156.66    5.23
  -1   1   6  150.24    5.22
   1  -1  -5   35.52    1.29
  -1   1   5   35.85    1.29
   1  -1  -4  292.84    9.81
   1  -1  -4  292.73    9.79
  -1   1   4  290.09    9.80
   1  -1  -3  758.38   24.84
   1   1  -3  785.11   24.87
  -1   1   3  741.97   24.85
   1  -1  -3  693.37   24.86
   1   1  -2  350.04   11.71
   1  -1  -1  237.51    7.65
  -1   1   1  224.21    7.64
  -1  -1   1  223.79    7.67
  -1  -1   0  787.30   26.47
  -1   1   0  798.51   26.48
   1  -1   0  801.52   26.48
   1  -1   1  166.99    5.61
  -1  -1  -1  165.68    5.65
  -1   1  -1  165.69    5.63
   1   1   1  171.67    5.60
  -1   1  -1  162.12    5.66
   1  -1   2   30.86    1.11
   1  -1   2   29.52    1.05
   1  -1   2   32.45    1.05
   1   1   2   31.85    1.09
  -1  -1  -2   29.80    1.06
  -1   1  -2   31.40    1.06
   1  -1   3   44.20    1.49
   1   1   3   44.50    1.52
  -1  -1  -3   42.93    1.48
   1  -1   3   41.01    1.52
   1  -1   3   42.63    1.49
  -1  -1  -4  349.22   11.78
   1  -1   4  351.45   11.82
   1  -1   4  356.10   11.80
   1   1   4  352.71   11.80
   1  -1   4  353.50   11.78
   1  -1   5  751.36   25.14
  -1  -1  -5  742.45   25.08
   1  -1   5  768.52   25.12
  -1  -1  -5  737.75   25.12
   1   1   5  761.43   25.09
   1   1   6  464.22   14.76
  -1  -1  -6  418.49   14.79
   1  -1   6  447.21   14.73
   1   1   6  423.51   14.86
   1  -1   6  433.11   14.81
  -1  -1  -7  431.70   14.53
   1   1   7  461.19   14.48
   1  -1   7  430.72   14.43
  -1   1  -7  443.10   14.53
  -1  -1  -7  409.79   14.51
   1   1   7  399.38   14.49
   1  -1   7  429.69   14.58
   1  -1   7  438.79   14.55
  -1   1  -7  441.13   14.47
   1   1   8    0.22    0.11
   1  -1   8    0.27    0.15
  -1   1  -8    0.32    0.10
  -1   1  -8    0.39    0.14
  -1  -1  -8    0.45    0.14
   1  -1   8    0.39    0.14
   1  -1   9    0.69    0.21
  -1   1  -9    0.73    0.14
  -1   1  -9    0.85    0.19
  -1  -1  -9    0.76    0.18
   1  -1  10    3.47    0.38
  -1   1 -10    3.18    0.32
  -1   1 -10    2.90    0.27
  -1  -1 -10    3.67    0.27
  -1  -1 -10    3.51    0.32
  -1  -1 -11   61.99    2.24
   1  -1  11   60.76    2.42
  -1  -1 -11   58.99    2.32
  -1  -1 -12   25.07    1.06
  -1  -1 -12   23.44    1.11
   1   1  13   32.47    1.54
  -1  -1 -13   30.10    1.38
  -1  -1 -13   34.65    1.38
  -1  -1 -14    1.42    0.26
  -1  -1 -14    0.96    0.24
   1   1  14    0.92    0.34
  -1  -1 -15    8.37    0.51
   1   1  15    8.84    0.66
  -1  -1 -16    0.66    0.18
   1   1  16    0.59    0.26
   1   1  17    0.35    0.20
  -1   2  16    2.62    0.30
   1  -2 -16    3.19    0.30
   1  -2 -15    2.75    0.35
  -1   2  15    2.18    0.32
  -1  -2  15    2.65    0.42
  -1  -2  15    2.75    0.40
  -1   2  14   16.07    0.94
  -1  -2  14   17.48    1.00
  -1  -2  14   18.72    1.05
   1  -2 -14   18.37    0.93
  -1   2  13   66.25    2.66
   1  -2 -13   62.90    2.58
  -1  -2  13   69.72    2.70
  -1  -2  13   70.06    2.73
  -1  -2  12   12.12    0.79
   1  -2 -12   11.16    0.61
  -1   2  12   10.32    0.72
  -1  -2  12   12.68    0.79
  -1   2  11    3.39    0.39
  -1  -2  11    3.32    0.43
   1   2 -11    3.24    0.37
   1  -2 -11    3.38    0.30
  -1  -2  11    3.80    0.47
  -1  -2  10   28.85    1.33
  -1   2  10   29.88    1.33
  -1  -2  10   31.04    1.36
   1   2 -10   29.05    1.25
   1  -2 -10   28.77    1.18
  -1   2   9   26.09    1.16
   1   2  -9   26.24    1.11
   1  -2  -9   26.11    1.05
  -1  -2   9   25.70    1.17
   1   2  -8    3.45    0.29
   1  -2  -8    3.06    0.30
  -1   2   8    4.29    0.34
  -1  -2   8    3.49    0.33
   1   2  -7   36.32    1.43
  -1  -2   7   36.18    1.45
  -1   2   7   41.67    1.50
  -1  -2   7   37.60    1.49
  -1   2   7   37.20    1.41
   1  -2  -7   37.80    1.39
   1  -2  -7   35.69    1.44
   1  -2  -7   37.67    1.42
   1   2  -7   37.40    1.44
  -1  -2   7   38.18    1.46
   1  -2  -6  123.43    4.20
   1  -2  -6  123.05    4.23
  -1   2   6  115.78    4.19
   1   2  -6  121.31    4.22
  -1   2   6  126.73    4.27
   1   2  -6  118.10    4.22
   1  -2  -6  118.40    4.22
  -1  -2   6  118.74    4.22
  -1  -2   6  123.72    4.25
   1  -2  -6  129.28    4.19
  -1  -2   6  121.25    4.26
  -1   2   5   20.60    0.83
   1   2  -5   19.80    0.85
   1  -2  -5   22.85    0.88
   1  -2  -5   21.20    0.83
  -1  -2   5   23.83    0.90
  -1  -2   5   21.25    0.85
  -1  -2   4  274.58    9.33
   1  -2  -4  288.37    9.34
  -1   2   4  269.09    9.31
  -1   2   3   37.97    1.47
  -1  -2   3   46.14    1.50
  -1  -2   2    0.06    0.10
   1  -2  -1  188.76    6.17
  -1   2   1  187.06    6.19
  -1  -2   1  173.03    6.18
   1  -2   0   13.63    0.53
  -1   2   0   12.70    0.57
  -1  -2   0   12.38    0.59
   1  -2   1  716.00   23.76
  -1  -2  -1  733.66   23.81
   1  -2   1  684.23   23.76
   1   2   1  725.95   23.76
  -1   2  -1  706.82   23.81
  -1  -2  -2  614.05   20.87
   1  -2   2  635.26   20.87
   1   2   3    0.59    0.15
  -1  -2  -3    0.39    0.09
   1  -2   3    0.63    0.17
   1  -2   3    0.46    0.09
   1  -2   3    0.38    0.10
   1  -2   4  934.85   31.25
  -1  -2  -4  940.95   31.23
   1   2   4  924.68   31.30
   1  -2   4  932.97   31.24
  -1   2  -4  964.31   31.24
   1  -2   4  901.47   31.31
   1   2   5 1136.09   38.33
   1  -2   5 1148.79   38.28
   1  -2   5 1154.21   38.29
  -1   2  -5 1160.24   38.28
  -1  -2  -5 1159.26   38.27
   1  -2   5 1107.93   38.35
   1  -2   6   29.94    1.16
  -1   2  -6   28.25    1.04
  -1   2  -6   29.41    1.09
   1  -2   6   27.53    1.08
  -1  -2  -6   27.33    1.10
  -1  -2  -6   28.09    1.06
   1   2   6   27.64    1.12
   1  -2   6   26.94    1.13
   1  -2   6   29.98    1.10
   1  -2   7   62.05    2.21
  -1   2  -7   58.17    2.08
   1  -2   7   59.40    2.20
  -1  -2  -7   60.61    2.15
  -1  -2  -7   59.41    2.14
   1   2   7   61.11    2.17
  -1  -2  -7   60.22    2.10
  -1   2  -7   62.71    2.14
   1  -2   7   64.31    2.15
   1  -2   7   60.14    2.19
  -1  -2  -8  213.44    6.90
   1  -2   8  212.34    6.96
   1  -2   8  207.62    6.93
  -1   2  -8  209.43    6.82
   1  -2   9   28.22    1.26
   1  -2   9   27.78    1.23
  -1  -2  -9   28.44    1.20
  -1   2  -9   28.14    1.13
   1   2   9   29.75    1.31
  -1  -2 -10   32.61    1.21
   1  -2  10   29.38    1.35
   1   2  10   30.91    1.42
  -1  -2 -10   29.58    1.31
   1  -2  10   32.94    1.42
  -1   2 -10   31.05    1.27
  -1  -2 -11  116.83    4.29
  -1   2 -11  117.17    4.25
   1   2  11  121.92    4.46
   1  -2  11  124.71    4.43
  -1  -2 -11  119.95    4.19
  -1  -2 -12  154.39    5.58
   1   2  12  162.33    5.76
   1  -2  12  161.04    5.73
  -1  -2 -12  156.98    5.49
  -1   2 -12  156.85    5.55
  -1   2 -13   15.57    0.84
   1   2  13   16.92    0.99
  -1  -2 -13   17.08    0.87
  -1  -2 -13   17.19    0.81
   1  -2  13   17.19    1.00
   1   2  14    2.54    0.40
  -1   2 -14    2.06    0.32
   1  -2  14    2.74    0.44
  -1  -2 -14    2.49    0.33
  -1  -2 -14    2.39    0.27
   1  -2  15   18.50    1.00
  -1  -2 -15   16.71    0.77
   1   2  15   17.60    0.96
  -1  -2 -15   17.83    0.82
   1   2  16    3.40    0.36
   1   2  17    0.70    0.17
   1  -3 -16    0.66    0.18
   1   3 -16    0.89    0.17
   1  -3 -15   13.69    0.66
   1   3 -15   11.90    0.62
  -1  -3  14   46.25    1.82
   1  -3 -14   39.85    1.60
  -1  -3  13   44.78    1.91
  -1  -3  13   47.12    1.95
  -1  -3  12   55.67    2.31
  -1  -3  12   57.79    2.32
  -1   3  11  106.09    4.20
  -1  -3  11  116.53    4.32
  -1  -3  11  120.70    4.32
  -1  -3  10   37.81    1.67
  -1  -3  10   40.05    1.71
  -1  -3   9  132.89    4.68
   1  -3  -9  119.78    4.54
  -1  -3   9  135.85    4.68
  -1   3   9  123.90    4.60
  -1   3   8   74.76    2.84
  -1  -3   8   77.34    2.88
   1  -3  -8   72.84    2.77
  -1  -3   8   76.87    2.89
  -1  -3   7  398.40   13.33
   1  -3  -7  366.57   13.23
   1  -3  -7  402.73   13.16
  -1  -3   7  388.34   13.32
  -1   3   7  393.55   13.31
   1  -3  -6   42.31    1.66
  -1  -3   6   43.03    1.74
  -1   3   6   43.90    1.69
   1  -3  -6   47.07    1.62
   1  -3  -6   43.99    1.63
  -1  -3   6   41.48    1.73
   1  -3  -6   41.88    1.66
   1  -3  -5  240.25    7.85
   1  -3  -5  231.73    7.91
  -1  -3   5  221.74    7.97
  -1  -3   5  216.62    7.91
  -1  -3   5  225.81    7.97
   1  -3  -5  242.77    7.92
  -1  -3   5  229.37    7.95
  -1   3   5  238.59    7.93
  -1  -3   4   97.29    3.51
   1  -3  -4  104.13    3.47
  -1   3   4   95.05    3.47
  -1  -3   4   90.72    3.46
   1  -3  -4   99.34    3.46
  -1  -3   4   94.99    3.51
   1  -3  -4  104.23    3.42
   1  -3  -3  533.34   17.88
  -1  -3   3  529.93   17.92
  -1  -3   3  530.17   17.90
  -1  -3   3  532.50   17.95
  -1  -3   3  536.74   17.94
  -1  -3   2  195.00    6.76
  -1   3   2  177.33    6.71
  -1  -3   2  192.97    6.73
  -1   3   1  343.37   11.56
  -1   3   1  334.99   11.56
  -1  -3   1  319.20   11.52
   1  -3  -1  361.93   11.49
   1   3   0   66.90    2.25
   1  -3   0   69.18    2.28
  -1   3   0   63.45    2.35
  -1   3   0   60.84    2.32
  -1  -3   0   60.71    2.30
   1  -3   0   63.13    2.27
  -1   3  -1   10.31    0.51
   1  -3   1   11.37    0.48
  -1  -3  -1   11.23    0.50
   1   3   1   11.66    0.47
  -1  -3  -2    6.89    0.35
   1   3   2    6.86    0.35
   1  -3   2    7.28    0.35
  -1   3  -2    7.53    0.39
  -1  -3  -3  137.56    4.45
   1   3   3  127.91    4.44
   1  -3   3  123.73    4.42
   1  -3   4    5.87    0.39
   1  -3   4    6.59    0.36
   1  -3   4    6.79    0.35
  -1  -3  -4    7.11    0.36
   1  -3   5  671.30   21.22
   1  -3   5  604.08   21.34
   1  -3   5  633.81   21.22
  -1  -3  -5  643.47   21.22
   1   3   5  617.93   21.29
  -1  -3  -5  632.05   21.21
   1  -3   5  601.87   21.29
   1   3   6   87.61    3.08
  -1  -3  -6   86.44    2.99
   1  -3   6   80.89    3.07
  -1   3  -6   86.10    2.96
   1  -3   6   84.46    3.00
  -1  -3  -6   81.12    2.98
   1  -3   7  107.97    3.95
  -1   3  -7  110.40    3.82
  -1  -3  -7  109.84    3.90
  -1  -3  -8    1.02    0.22
   1   3   8    1.00    0.28
  -1   3  -8    1.25    0.19
   1  -3   8    1.22    0.28
  -1  -3  -9   70.65    2.46
   1  -3   9   69.96    2.71
  -1  -3  -9   69.02    2.62
   1   3   9   71.01    2.76
  -1   3  -9   68.23    2.55
  -1  -3 -10    5.23    0.45
  -1  -3 -10    5.17    0.32
   1  -3  10    5.58    0.54
   1   3  10    6.07    0.56
  -1   3 -10    5.32    0.41
  -1  -3 -11   66.08    2.38
  -1   3 -11   66.46    2.48
  -1  -3 -11   67.97    2.56
   1   3  11   65.10    2.68
   1  -3  11   63.20    2.66
  -1  -3 -12    0.22    0.15
   1   3  12    0.05    0.31
  -1  -3 -12    0.21    0.23
  -1   3 -12    0.03    0.22
   1  -3  12    0.05    0.37
   1   3  13    0.70    0.33
   1  -3  13    0.88    0.38
  -1   3 -13    0.63    0.23
  -1  -3 -13    1.13    0.27
   1   3  14   16.90    0.97
  -1  -3 -14   18.87    0.88
   1  -3  14   18.49    1.05
  -1  -3 -15    3.45    0.29
   1  -3  15    3.58    0.44
   1   3  15    2.75    0.35
   1   3  16    0.97    0.22
  -1   3 -16    0.75    0.14
   1  -4 -16   12.40    0.53
   1   4 -15    1.35    0.18
   1  -4 -15    1.68    0.23
  -1   4  14    3.07    0.32
   1   4 -14    4.40    0.33
  -1   4  13   10.16    0.65
   1   4 -13   11.97    0.63
   1   4 -12    1.13    0.24
  -1   4  12    0.70    0.25
  -1   4  11    1.01    0.28
  -1   4  10  110.50    4.35
   1  -4 -10  126.77    4.36
  -1  -4   9  373.17   12.13
   1  -4  -9  363.64   11.89
  -1  -4   9  355.00   12.03
  -1  -4   8   22.07    1.17
   1  -4  -8   21.45    0.99
   1  -4  -7  221.11    7.35
  -1  -4   7  218.56    7.65
  -1   4   7  193.64    7.52
   1  -4  -7  220.24    7.46
   1  -4  -7  217.07    7.48
   1   4  -6  104.24    3.81
   1  -4  -6  110.12    3.75
   1  -4  -6  106.43    3.85
   1  -4  -5    5.71    0.34
   1   4  -5    5.70    0.37
   1  -4  -5    5.97    0.41
   1  -4  -4    9.03    0.44
   1  -4  -4    8.57    0.50
   1  -4  -3   48.58    1.72
   1  -4  -3   49.77    1.80
  -1  -4   2   17.81    0.83
   1  -4  -2   18.83    0.79
  -1  -4   2   17.54    0.81
   1  -4  -2   17.48    0.72
  -1   4   2   16.11    0.81
  -1   4   2   16.17    0.84
  -1  -4   1   27.37    1.13
   1  -4  -1   28.61    1.08
  -1   4   1   26.54    1.15
  -1   4   1   25.68    1.12
   1  -4  -1   25.73    1.03
   1  -4   0  102.80    3.47
  -1  -4   0   98.00    3.48
   1  -4   0  104.10    3.44
  -1  -4   0   96.79    3.46
  -1  -4   0   89.21    3.41
   1  -4   0   93.14    3.39
  -1   4   0   95.88    3.47
   1  -4   0  102.06    3.42
  -1  -4  -1  379.10   12.99
  -1   4  -1  383.12   13.03
   1  -4   1  390.82   13.04
  -1  -4  -1  387.80   13.02
   1  -4   1  364.47   12.98
   1  -4   1  398.41   12.99
   1   4   1  381.02   12.95
   1  -4   1  400.95   13.01
   1   4   2   59.41    2.06
  -1  -4  -2   58.97    2.11
   1  -4   2   58.58    2.14
  -1   4  -2   53.70    2.09
   1  -4   2   51.52    2.08
  -1  -4  -2   59.02    2.09
   1  -4   2   59.61    2.08
   1  -4   3   34.43    1.33
  -1  -4  -3   35.61    1.37
   1  -4   4   17.33    0.75
   1  -4   4   17.51    0.79
  -1  -4  -4   19.48    0.80
  -1  -4  -5   37.95    1.48
  -1  -4  -6    0.27    0.14
   1  -4   6    0.32    0.24
   1  -4   7  118.75    4.55
  -1  -4  -7  130.54    4.49
  -1  -4  -8  115.73    4.06
   1   4   8  110.90    4.20
   1  -4   8  106.74    4.14
   1  -4   9   58.16    2.40
   1   4   9   57.39    2.42
  -1  -4  -9   58.08    2.27
   1   4  10   82.19    3.40
  -1  -4 -10   90.51    3.28
   1  -4  10   87.77    3.41
  -1  -4 -11   23.81    1.12
   1   4  11   21.17    1.20
   1  -4  11   24.52    1.27
   1  -4  12   21.89    1.16
  -1  -4 -12   21.92    1.01
  -1  -4 -13   11.26    0.62
   1   4  13    9.62    0.68
  -1   4 -14    0.25    0.13
  -1  -4 -14    0.51    0.18
   1   4  14    0.66    0.24
  -1  -4 -15    3.15    0.23
   1   4  15    3.09    0.30
  -1   4 -15    2.37    0.19
  -1  -5  14    0.29    0.13
   1   5 -13    8.73    0.44
   1   5 -12   18.37    0.80
  -1   5  12   16.85    0.85
   1   5 -11    0.39    0.17
  -1   5  11    0.21    0.19
   1  -5 -11    0.39    0.26
  -1   5  10    1.95    0.32
   1  -5 -10    3.14    0.39
   1   5 -10    2.60    0.28
   1  -5  -9    1.25    0.31
   1   5  -9    1.18    0.22
   1   5  -8   20.01    0.91
   1  -5  -8   22.02    1.03
   1  -5  -7   22.78    1.09
   1  -5  -7   25.30    1.10
   1  -5  -6    7.07    0.40
   1  -5  -6    7.16    0.51
   1  -5  -5   10.06    0.50
   1  -5  -5    9.96    0.62
   1  -5  -4   10.04    0.59
   1  -5  -4    9.15    0.46
   1  -5  -3   52.17    2.05
   1  -5  -3   53.01    1.92
   1  -5  -2   10.08    0.48
  -1  -5   2    9.71    0.60
  -1  -5   1    9.08    0.55
   1  -5  -1    9.29    0.45
   1  -5   0    4.04    0.37
   1  -5   0    3.81    0.27
  -1  -5   0    3.73    0.34
   1  -5   1   12.41    0.67
  -1  -5  -1   12.60    0.66
  -1  -5  -2   -0.12    0.20
   1  -5   2   -0.08    0.20
   1  -5   3   87.64    3.29
  -1  -5  -3   92.11    3.26
  -1  -5  -4   20.69    0.94
   1  -5   4   21.11    1.00
   1  -5   5    0.22    0.24
  -1  -5  -5    0.82    0.20
   1  -5   6  114.56    4.22
  -1  -5  -6  117.84    4.16
   1  -5   7  314.06   11.09
  -1  -5  -7  332.27   11.10
  -1  -5  -7  321.61   11.00
   1  -5   8   49.25    2.00
  -1  -5  -8   50.27    1.99
   1   5   8   46.22    2.11
   1   5   9   23.97    1.30
   1  -5   9   25.02    1.17
  -1  -5  -9   26.07    1.18
   1  -5  10    0.17    0.22
  -1  -5 -10    0.11    0.23
   1   5  10   -0.02    0.30
   1  -5  11   25.94    1.13
  -1  -5 -11   28.47    1.21
   1   5  11   24.18    1.26
  -1  -5 -12    9.07    0.53
   1   5  12    7.68    0.58
  -1  -5 -13    2.89    0.27
   1   5  13    2.46    0.30
  -1  -5 -14   12.73    0.56
   1   5  14   12.17    0.61
   1  -6 -13   10.24    0.47
   1  -6 -12    0.10    0.17
  -1  -6  12   -0.02    0.14
  -1  -6  11   -0.05    0.20
   1  -6 -11   -0.01    0.19
   1  -6 -10    1.70    0.29
  -1  -6  10    1.68    0.31
  -1   6  10    0.89    0.19
  -1   6   9   21.27    1.03
  -1  -6   9   22.44    1.11
   1  -6  -9   21.85    1.04
  -1  -6   8    2.65    0.42
   1  -6  -8    2.18    0.33
  -1   6   8    2.24    0.31
  -1  -6   7    7.25    0.60
   1  -6  -7    6.21    0.50
  -1   6   7    5.81    0.49
   1  -6  -6    5.68    0.49
   1  -6  -6    5.72    0.48
   1  -6  -5   53.23    2.12
   1  -6  -4   -0.11    0.22
  -1  -6   4    0.19    0.31
   1  -6  -4   -0.01    0.10
   1  -6  -3    1.22    0.29
  -1  -6   3    1.40    0.32
   1  -6  -2    8.33    0.57
  -1  -6   2    8.39    0.57
  -1  -6   1    1.50    0.32
  -1  -6   0   38.21    1.58
   1  -6   1    0.12    0.26
  -1  -6  -1    0.59    0.24
   1  -6   2   91.25    3.38
  -1  -6  -2   91.56    3.35
   1  -6   3  159.77    5.59
  -1  -6  -3  155.57    5.54
  -1  -6  -4   66.53    2.50
   1  -6   4   65.42    2.54
   1  -6   5   94.71    3.57
  -1  -6  -5   98.41    3.52
  -1  -6  -6   11.55    0.62
   1  -6   6   10.64    0.68
   1  -6   7    9.44    0.62
  -1  -6  -7   10.76    0.64
   1   6   8    5.55    0.53
   1  -6   8    4.49    0.41
  -1  -6  -8    5.04    0.43
   1  -6   9    6.91    0.47
  -1  -6  -9    6.70    0.48
   1   6   9    5.85    0.52
   1   6  10   21.59    1.06
  -1  -6 -10   22.01    0.98
   1  -6  10   21.37    0.94
  -1  -6 -11   14.22    0.68
   1   6  11   13.80    0.73
   1   6  12    0.18    0.15
  -1  -6 -12    0.24    0.13
   1  -7 -11    5.64    0.31
  -1  -7  11    6.14    0.32
  -1  -7  10    3.47    0.28
   1  -7 -10    3.31    0.26
  -1  -7   9   23.69    1.00
   1  -7  -9   22.12    0.97
  -1  -7   8    0.52    0.22
   1  -7  -8    0.21    0.20
  -1   7   7   12.04    0.64
  -1  -7   7   13.05    0.71
   1  -7  -7   13.22    0.68
   1  -7  -6   33.09    1.41
  -1   7   6   34.51    1.42
   1  -7  -5   81.87    2.96
   1  -7  -5   78.05    2.96
  -1  -7   4   18.89    0.97
   1  -7  -4   20.20    0.96
  -1  -7   3   30.47    1.36
   1  -7  -3   31.60    1.36
   1  -7  -2    0.06    0.23
  -1  -7   2    0.20    0.25
  -1  -7   1   25.81    1.16
  -1  -7   0    0.83    0.25
  -1  -7  -1   23.91    1.08
   1  -7   1   24.48    1.12
  -1  -7  -2   26.08    1.16
   1  -7   2   27.18    1.20
   1  -7   3    3.42    0.37
  -1  -7  -3    3.24    0.32
   1  -7   4   12.08    0.69
  -1  -7  -4   11.31    0.62
  -1  -7  -5    0.58    0.16
   1  -7   5    0.63    0.25
  -1  -7  -6   14.53    0.73
   1  -7   6   13.71    0.73
  -1  -7  -7    0.04    0.19
   1   7   7    0.13    0.23
   1  -7   7   -0.16    0.19
   1  -7   8    0.33    0.17
   1   7   8    0.74    0.21
  -1  -7  -8    0.76    0.20
   1   7   9    0.38    0.17
   1  -7   9    0.29    0.12
  -1  -7  -9    0.18    0.14
  -1  -7 -10    4.66    0.29
   1   7  10    4.46    0.30
   1  -8  -8    5.95    0.30
  -1  -8   8    6.33    0.32
  -1  -8   7    0.11    0.12
   1  -8  -7    0.09    0.11
   1  -8  -6    0.20    0.13
  -1  -8   5    2.42    0.25
   1  -8  -5    2.45    0.23
   1  -8  -4   13.02    0.61
   1  -8  -4   12.14    0.60
  -1  -8   4   12.08    0.62
  -1  -8   3    0.98    0.19
   1  -8  -3    1.00    0.19
   1  -8  -3    1.05    0.20
   1  -8  -2    8.40    0.50
  -1  -8   2    8.79    0.50
   1  -8  -1    1.81    0.25
  -1  -8   1    2.23    0.26
  -1  -8   0    2.44    0.26
   1  -8   1    4.88    0.39
  -1  -8  -1    5.97    0.38
   1  -8   2    0.33    0.18
  -1  -8  -2    0.39    0.15
   1  -8   3    4.48    0.34
  -1  -8  -3    4.57    0.31
  -1  -8  -4    0.04    0.10
   1  -8   4    0.03    0.15
  -1  -8  -4    0.11    0.17
   1  -8   5    0.48    0.16
  -1  -8  -5    0.33    0.15
   1   8   5    0.58    0.17
   1  -8   6    0.34    0.13
   1   8   6    0.43    0.15
  -1  -8  -6    0.35    0.13
   1   8   7    7.62    0.40
  -1  -8  -7    7.50    0.39
   1  -8   7    8.12    0.38
  -1  -9   0    0.37    0.09
   2   0 -17    0.04    0.09
  -2   0  16   55.57    2.33
   2   0 -16   60.40    2.26
  -2   0  15    0.13    0.22
  -2   0  15   -0.04    0.27
  -2   0  14    7.70    0.58
  -2   0  13    0.20    0.24
   2   0 -13    0.08    0.27
  -2   0  12    0.24    0.23
   2   0 -12    0.19    0.26
   2   0 -11    0.13    0.24
  -2   0  11   -0.10    0.22
   2   0 -10   74.08    2.84
  -2   0  10   78.33    2.86
   2   0 -10   77.14    2.84
  -2   0   9   -0.09    0.14
   2   0  -9    0.06    0.18
   2   0  -9   -0.01    0.17
  -2   0   8  239.89    7.75
  -2   0   8  239.36    7.75
   2   0  -8  229.60    7.74
   2   0  -7    0.01    0.12
  -2   0   7    0.16    0.10
  -2   0   7    0.08    0.08
  -2   0   6   24.43    1.33
  -2   0   6   90.97    1.61
  -2   0   5    0.03    0.07
  -2   0   5   -0.03    0.10
  -2   0   4  221.84    7.47
   2   0  -3    0.01    0.08
  -2   0   3    8.91    0.22
  -2   0   2 5644.37  186.65
   2   0  -2 5580.90  186.62
  -2   0   2 5617.44  186.61
  -2   0   1   -0.02    0.07
  -2   0   0  881.89   29.07
  -2   0   0  858.67   29.10
  -2   0  -1    0.13    0.07
  -2   0  -1    0.17    0.05
  -2   0  -2  291.39    9.86
  -2   0  -2  303.10    9.87
  -2   0  -3    0.04    0.04
   2   0   3    0.06    0.09
   2   0   4  214.23    7.15
  -2   0  -4  210.62    7.13
  -2   0  -5   -0.02    0.06
   2   0   5    0.04    0.08
  -2   0  -6   23.14    0.92
   2   0   6   24.94    0.99
   2   0   6   24.74    0.93
   2   0   7    0.03    0.13
   2   0   7    0.07    0.10
  -2   0  -7   -0.01    0.08
   2   0   8   11.49    0.54
  -2   0  -8   11.12    0.55
  -2   0  -8   11.42    0.55
   2   0   8   12.18    0.63
   2   0   9    0.10    0.19
   2   0   9   -0.05    0.13
  -2   0  -9    0.03    0.13
  -2   0 -10    0.18    0.16
  -2   0 -10    0.15    0.15
   2   0  10    0.02    0.22
   2   0  11    0.12    0.28
  -2   0 -11    0.05    0.18
  -2   0 -11    0.19    0.17
   2   0  12    1.71    0.37
  -2   0 -12    1.98    0.28
  -2   0 -12    1.46    0.25
  -2   0 -13   -0.11    0.20
   2   0  13    0.19    0.28
   2   0  14    0.42    0.30
  -2   0 -14    0.79    0.25
   2   0  15    0.02    0.26
  -2   0 -15   -0.02    0.18
  -2   0 -16   20.69    0.90
   2   0  16   20.62    1.00
   2   0  17    0.04    0.17
   2   1 -17    4.76    0.31
   2  -1 -16    4.30    0.29
  -2  -1  16    4.87    0.45
  -2   1  16    4.63    0.40
   2   1 -16    4.17    0.35
  -2  -1  16    4.70    0.42
  -2  -1  15    6.84    0.54
  -2  -1  15    6.18    0.55
  -2   1  15    4.58    0.42
   2  -1 -15    5.37    0.38
  -2  -1  14    2.84    0.41
  -2   1  14    2.78    0.36
   2  -1 -14    2.80    0.37
  -2  -1  14    2.68    0.43
  -2  -1  13    1.67    0.33
   2  -1 -13    1.22    0.31
  -2   1  13    1.24    0.28
  -2  -1  12    0.71    0.27
   2  -1 -12    0.36    0.28
  -2   1  12    0.44    0.21
  -2  -1  11    6.91    0.53
  -2   1  11    7.00    0.50
   2   1 -11    7.18    0.53
   2  -1 -11    6.72    0.52
   2  -1 -10   87.84    3.38
   2   1 -10   92.03    3.43
   2  -1 -10   93.25    3.43
  -2  -1  10   98.96    3.48
  -2   1  10  100.68    3.46
  -2  -1   9    5.24    0.39
  -2   1   9    5.38    0.38
   2  -1  -9    4.39    0.37
   2   1  -9    4.84    0.38
   2   1  -9    4.88    0.38
   2  -1  -9    4.53    0.34
  -2  -1   8   47.03    1.67
   2   1  -8   42.82    1.64
   2   1  -8   41.06    1.64
  -2   1   8   44.57    1.63
   2  -1  -8   43.25    1.63
   2  -1  -7    8.27    0.42
   2   1  -7    8.46    0.45
  -2  -1   7    8.94    0.48
   2  -1  -7    8.61    0.46
   2  -1  -7    7.65    0.39
  -2   1   7    8.41    0.44
   2   1  -7    7.61    0.45
  -2  -1   7    8.75    0.45
   2   1  -7    7.86    0.46
  -2   1   7    8.17    0.44
  -2  -1   7    8.22    0.46
   2  -1  -6 1036.28   35.29
   2  -1  -6 1040.48   35.24
   2  -1  -6 1051.65   35.27
  -2  -1   6 1067.78   35.29
   2   1  -6 1051.09   35.29
   2   1  -6 1099.86   35.30
  -2  -1   6 1083.48   35.33
  -2   1   6 1036.20   35.28
  -2   1   5    7.21    0.37
   2  -1  -5    7.00    0.34
  -2  -1   5    7.16    0.37
   2   1  -5    7.68    0.37
   2   1  -4   28.09    1.05
   2  -1  -4   27.26    1.02
  -2  -1   4   29.14    1.06
   2  -1  -3 3011.47  100.02
   2   1  -3 3040.25  100.05
  -2   1   3 2959.07  100.06
   2  -1  -2 9965.77  332.12
   2  -1  -2 9999.00  332.17
  -2   1   1 3525.88  117.52
   2  -1  -1 3512.78  117.53
  -2  -1   1 3563.16  117.54
  -2   1   0 1781.21   58.85
   2  -1   0 1773.04   58.87
  -2  -1   0 1762.77   58.82
  -2   1  -1   10.03    0.45
  -2   1  -1    9.45    0.37
   2  -1   1   10.70    0.39
  -2  -1  -2 3452.74  120.03
  -2   1  -2 3713.56  119.98
  -2   1  -2 3612.67  120.04
  -2   1  -2 3682.17  120.01
   2  -1   2 3503.26  119.99
  -2  -1  -3    1.43    0.10
   2   1   3    2.22    0.09
  -2  -1  -4   10.12    0.38
   2  -1   4   10.00    0.49
   2   1   4   10.54    0.39
   2  -1   5   10.87    0.52
  -2  -1  -5   11.13    0.41
   2  -1   6  491.73   16.73
   2  -1   6  510.27   16.66
   2   1   6  527.70   16.77
   2  -1   6  497.70   16.74
  -2  -1  -6  482.10   16.68
   2   1   6  484.00   16.68
   2   1   7    0.01    0.10
   2   1   7    0.09    0.15
   2  -1   7    0.05    0.12
   2   1   7    0.05    0.07
   2  -1   7    0.06    0.09
  -2  -1  -7    0.01    0.09
  -2  -1  -7    0.12    0.08
   2  -1   7    0.15    0.13
   2   1   8    0.48    0.13
   2  -1   8    0.82    0.20
   2   1   8    0.64    0.20
   2  -1   8    0.62    0.16
  -2   1  -8    0.76    0.15
  -2  -1  -8    0.70    0.15
   2  -1   8    0.43    0.14
  -2   1  -9   16.30    0.71
   2   1   9   16.24    0.76
   2  -1   9   18.34    0.87
  -2  -1  -9   16.72    0.76
   2   1   9   17.65    0.88
  -2  -1 -10   60.91    2.29
   2  -1  10   60.69    2.41
  -2   1 -10   60.73    2.22
   2   1  10   59.42    2.28
   2   1  10   68.41    2.47
   2  -1  11  131.22    4.62
  -2  -1 -11  119.11    4.45
  -2   1 -11  123.02    4.41
  -2  -1 -11  129.20    4.40
   2   1  11  131.22    4.64
  -2   1 -12   87.53    3.20
  -2  -1 -12   89.96    3.18
  -2  -1 -12   83.47    3.21
   2   1  12   92.52    3.41
   2  -1  12   91.23    3.40
  -2   1 -13   38.57    1.58
  -2  -1 -13   36.87    1.55
   2   1  13   40.39    1.77
  -2  -1 -13   40.80    1.56
   2  -1  13   39.89    1.75
  -2   1 -14    2.29    0.32
   2   1  14    2.41    0.40
  -2  -1 -14    2.65    0.32
   2  -1  14    2.55    0.39
   2  -1  15    0.46    0.29
  -2  -1 -15    0.40    0.19
   2   1  15    0.51    0.29
   2  -1  16    0.33    0.23
   2   1  16    0.28    0.23
  -2  -1 -16    0.33    0.15
   2  -1  17    2.48    0.28
   2   1  17    2.94    0.28
   2   2 -17    2.55    0.21
   2   2 -16    0.33    0.18
   2   2 -15    0.76    0.25
  -2  -2  15    1.00    0.31
  -2  -2  15    1.67    0.39
   2  -2 -15    1.12    0.27
   2  -2 -14    7.46    0.55
  -2  -2  14    8.23    0.67
  -2  -2  14    8.56    0.64
  -2   2  14    6.28    0.51
   2  -2 -13   26.76    1.24
  -2  -2  13   30.03    1.39
  -2  -2  13   30.59    1.39
  -2  -2  12   15.32    0.91
   2  -2 -12   13.42    0.80
  -2  -2  12   15.52    0.93
  -2   2  12   13.30    0.79
   2  -2 -11    5.39    0.46
  -2  -2  11    5.22    0.55
  -2  -2  11    4.80    0.50
  -2   2  11    4.88    0.43
  -2  -2  10    3.37    0.41
  -2   2  10    3.59    0.35
   2  -2 -10    3.34    0.37
  -2  -2   9   33.54    1.41
  -2   2   9   32.25    1.36
   2  -2  -9   31.11    1.34
   2  -2  -8    1.92    0.20
  -2   2   8    2.55    0.25
  -2  -2   8    2.00    0.27
   2  -2  -8    2.00    0.25
  -2  -2   7    5.51    0.39
  -2   2   7    5.91    0.36
   2  -2  -7    5.87    0.33
   2  -2  -7    5.27    0.32
   2  -2  -7    5.42    0.36
   2   2  -6    9.45    0.48
   2  -2  -6    8.39    0.47
  -2  -2   6    9.36    0.52
   2  -2  -6    8.81    0.44
  -2   2   6    8.95    0.47
   2  -2  -6    9.37    0.45
   2   2  -5   44.09    1.56
  -2   2   5   41.16    1.54
  -2  -2   5   46.36    1.61
   2  -2  -5   41.08    1.54
   2  -2  -5   42.61    1.51
  -2  -2   5   42.32    1.60
   2  -2  -4  272.06    9.07
  -2  -2   4  267.41    9.09
   2  -2  -3   38.87    1.38
  -2   2   3   35.86    1.34
  -2  -2   3   36.12    1.33
   2  -2  -3   37.57    1.31
   2  -2  -2  702.88   23.92
  -2  -2   2  708.29   23.96
  -2   2   2  713.92   23.90
   2  -2  -2  724.05   23.86
  -2  -2   2  717.57   23.88
  -2   2   1  165.85    5.60
  -2  -2   1  161.82    5.59
  -2  -2   1  154.93    5.65
   2  -2   0   68.68    2.24
  -2   2   0   66.56    2.30
   2  -2   0   65.86    2.29
  -2   2  -1    1.30    0.19
  -2   2  -1    1.48    0.16
   2  -2   1    1.46    0.11
  -2  -2  -1    1.15    0.17
  -2   2  -2   20.65    0.77
  -2  -2  -2   20.68    0.79
   2  -2   2   19.61    0.70
  -2   2  -2   21.00    0.81
   2  -2   2   18.99    0.73
  -2   2  -3  250.89    8.23
  -2  -2  -3  255.53    8.18
   2  -2   3  242.61    8.16
   2  -2   3  244.68    8.15
   2   2   3  240.14    8.11
   2  -2   4    2.90    0.15
  -2  -2  -4    3.06    0.18
   2  -2   4    3.18    0.17
   2  -2   5  292.70    9.93
   2  -2   5  304.65    9.98
  -2  -2  -5  318.38    9.99
  -2   2  -5  306.57   10.00
   2   2   5  269.20   10.03
   2  -2   5  282.34   10.06
   2  -2   5  300.07   10.14
  -2   2  -6    1.88    0.16
  -2  -2  -6    2.21    0.20
   2  -2   6    2.02    0.25
   2  -2   6    1.60    0.20
   2   2   6    2.21    0.19
  -2  -2  -6    2.08    0.15
   2   2   6    2.19    0.26
   2  -2   7    0.03    0.14
  -2   2  -7    0.41    0.10
   2   2   7    0.19    0.19
  -2   2  -7    0.01    0.07
   2   2   7   -0.05    0.12
  -2  -2  -7    0.02    0.11
   2  -2   8    2.73    0.30
   2   2   8    2.50    0.32
  -2   2  -8    2.60    0.21
   2   2   8    3.33    0.26
  -2  -2  -8    2.68    0.26
  -2   2  -9   53.27    1.99
  -2  -2  -9   55.39    2.08
   2   2   9   51.25    2.02
   2  -2   9   57.88    2.18
  -2   2 -10  145.35    5.10
   2   2  10  157.40    5.36
   2   2  10  140.64    5.13
  -2  -2 -10  149.64    5.18
   2  -2  10  150.77    5.31
  -2   2 -11   79.82    3.01
  -2  -2 -11   86.47    2.97
   2   2  11   86.34    3.25
  -2  -2 -11   78.90    3.05
   2  -2  11   85.87    3.20
   2   2  12  210.24    7.26
  -2  -2 -12  198.24    6.96
  -2  -2 -12  200.00    7.04
  -2   2 -12  203.28    7.02
   2  -2  12  209.22    7.22
  -2   2 -13   13.82    0.73
  -2  -2 -13   15.25    0.71
  -2  -2 -13   14.69    0.74
   2   2  13   14.41    0.91
   2  -2  13   16.47    0.92
   2  -2  14    2.65    0.40
  -2  -2 -14    2.50    0.27
  -2   2 -14    2.01    0.28
  -2  -2 -14    2.35    0.27
   2  -2  15    0.37    0.28
  -2   2 -15    0.58    0.19
  -2  -2 -15    0.66    0.16
   2  -2  16    9.34    0.56
  -2  -2 -16    7.69    0.38
   2  -3 -16   35.29    1.32
   2   3 -16   33.10    1.31
   2   3 -15   43.55    1.72
   2  -3 -15   45.49    1.73
   2  -3 -14   13.64    0.75
   2   3 -14   12.24    0.70
   2  -3 -13   40.00    1.55
   2   3 -13   36.39    1.51
  -2  -3  13   40.03    1.67
  -2  -3  12    0.24    0.35
  -2   3  12    0.09    0.18
  -2  -3  12   -0.03    0.42
   2  -3 -12    0.07    0.27
   2   3 -12    0.09    0.24
  -2  -3  11   24.18    1.22
  -2  -3  11   24.65    1.27
   2  -3 -11   22.75    1.09
  -2  -3  10  195.68    6.63
   2  -3 -10  185.44    6.49
  -2  -3  10  200.40    6.66
  -2  -3   9   39.18    1.69
  -2   3   9   35.01    1.56
   2  -3  -9   38.78    1.59
  -2  -3   9   40.68    1.71
  -2   3   8  102.44    3.90
  -2  -3   8  109.88    4.01
  -2  -3   8  108.85    4.00
   2  -3  -8  108.92    3.81
   2  -3  -8  112.53    3.90
  -2  -3   7   31.30    1.44
   2  -3  -7   36.00    1.32
   2  -3  -7   34.33    1.37
  -2   3   7   31.32    1.36
  -2  -3   6  150.43    5.40
   2  -3  -6  160.77    5.28
   2  -3  -6  155.80    5.33
   2  -3  -6  150.15    5.27
   2  -3  -6  149.16    5.33
  -2  -3   6  150.33    5.42
  -2  -3   5  120.54    4.30
  -2  -3   5  112.85    4.23
   2  -3  -5  126.25    4.20
   2  -3  -5  122.96    4.18
   2  -3  -5  116.99    4.22
   2   3  -5  126.74    4.27
   2  -3  -4   72.18    2.51
  -2  -3   4   65.89    2.53
  -2  -3   4   65.81    2.47
   2  -3  -4   71.55    2.46
   2   3  -4   70.26    2.51
   2  -3  -4   69.69    2.42
   2  -3  -4   65.44    2.49
   2  -3  -3   23.84    1.04
   2   3  -3   24.97    1.05
  -2  -3   3   23.33    1.02
  -2  -3   3   23.38    1.08
  -2   3   3   24.70    1.04
   2  -3  -3   26.57    1.05
   2  -3  -2  863.81   28.68
  -2  -3   2  853.62   28.66
  -2  -3   2  824.49   28.74
  -2   3   2  870.09   28.69
   2  -3  -2  874.75   28.67
  -2  -3   2  816.78   28.73
  -2  -3   2  771.04   28.71
   2  -3  -1    1.04    0.14
  -2   3   1    0.93    0.17
  -2  -3   1    0.96    0.19
   2  -3  -1    0.99    0.15
   2  -3  -1    0.91    0.17
  -2  -3   1    1.08    0.17
   2  -3   0    0.14    0.09
  -2  -3   0    0.15    0.16
  -2   3   0    0.12    0.17
  -2  -3   0    0.19    0.13
   2  -3   0    0.21    0.13
   2  -3   0    0.16    0.07
   2   3   1   84.57    2.83
   2  -3   1   77.04    2.83
  -2  -3  -1   82.37    2.89
  -2   3  -1   83.17    2.91
  -2   3  -1   79.17    2.90
   2   3   2  316.76   10.56
  -2  -3  -2  323.49   10.59
  -2   3  -2  319.69   10.64
   2  -3   2  299.74   10.56
   2   3   3    0.94    0.08
   2   3   3    0.84    0.15
  -2  -3  -3    1.40    0.15
  -2   3  -3    0.99    0.15
   2  -3   3    0.81    0.10
   2  -3   3    1.09    0.16
   2  -3   3    1.24    0.11
   2  -3   4   11.76    0.61
   2  -3   4   13.87    0.54
   2   3   4   11.91    0.57
   2  -3   4   11.79    0.52
  -2  -3  -4   14.74    0.57
   2  -3   5    3.00    0.28
  -2  -3  -5    3.20    0.22
   2   3   5    2.74    0.22
   2  -3   6  209.48    6.86
  -2   3  -6  203.15    6.69
   2  -3   7    0.85    0.23
  -2   3  -7    0.87    0.13
   2   3   7    0.75    0.14
  -2  -3  -7    1.15    0.20
   2   3   7    0.83    0.26
   2   3   8   18.81    0.84
   2   3   8   22.44    1.09
  -2   3  -8   21.51    0.87
  -2  -3  -8   20.78    0.94
   2  -3   8   21.17    1.01
   2  -3   9   53.45    2.21
   2   3   9   53.54    2.01
   2   3   9   55.87    2.29
  -2   3  -9   55.52    2.04
  -2  -3  -9   56.66    2.12
  -2  -3 -10   21.76    1.03
  -2   3 -10   20.98    0.95
  -2  -3 -10   22.61    0.89
   2   3  10   19.87    1.13
   2  -3  10   21.72    1.12
   2  -3  11   74.05    2.85
  -2   3 -11   69.24    2.63
  -2  -3 -11   72.62    2.69
  -2  -3 -11   70.97    2.55
   2  -3  12    3.47    0.48
  -2  -3 -12    2.92    0.25
  -2   3 -12    2.78    0.30
  -2  -3 -12    3.29    0.33
   2  -3  13    0.98    0.35
  -2   3 -13    0.91    0.22
  -2  -3 -13    1.07    0.17
  -2  -3 -13    0.89    0.21
   2  -3  14    0.43    0.28
  -2  -3 -14    0.38    0.16
   2  -3  15   13.17    0.74
   2   4 -15   24.66    1.00
   2  -4 -15   25.42    1.02
   2   4 -14   47.53    1.89
   2  -4 -14   53.89    1.94
   2   4 -13   13.58    0.72
   2  -4 -13   14.74    0.77
   2  -4 -12    0.11    0.27
   2   4 -12    0.07    0.20
   2   4 -11   15.94    0.85
  -2  -4  11   17.67    1.13
   2  -4 -11   17.00    0.90
   2  -4 -10   33.38    1.36
  -2  -4  10   35.37    1.61
   2   4 -10   31.41    1.29
  -2  -4   9   31.30    1.51
   2  -4  -9   32.00    1.31
   2   4  -9   30.91    1.26
   2  -4  -8   34.63    1.29
   2   4  -8   34.11    1.39
   2  -4  -8   33.90    1.41
   2   4  -7    5.77    0.43
   2  -4  -7    6.09    0.38
   2  -4  -7    5.43    0.44
  -2   4   6   11.71    0.70
   2   4  -6   13.72    0.71
  -2  -4   6   14.21    0.88
   2  -4  -6   14.42    0.65
   2  -4  -6   14.52    0.73
   2  -4  -6   14.49    0.74
   2   4  -5   12.48    0.64
  -2  -4   5   11.31    0.75
   2  -4  -5   11.65    0.57
   2   4  -4   31.44    1.29
   2  -4  -4   31.21    1.22
   2   4  -3    0.22    0.14
   2  -4  -3    0.02    0.16
   2  -4  -3    0.15    0.13
   2  -4  -2   51.73    1.94
   2  -4  -2   51.47    1.99
   2   4  -2   53.63    1.98
   2   4  -2   53.79    1.88
   2  -4  -1  155.44    5.35
   2   4  -1  157.93    5.22
   2  -4  -1  144.75    5.28
  -2   4   0   79.97    3.07
   2   4   0   88.31    2.94
  -2  -4   0   81.94    3.03
   2  -4   0   79.77    3.01
   2  -4   0   86.49    3.05
   2  -4   0   87.21    3.02
   2   4   1    0.20    0.11
   2  -4   1    0.19    0.16
  -2  -4  -1    0.29    0.14
   2  -4   1    0.05    0.15
   2  -4   1    0.20    0.10
  -2  -4  -2   48.07    1.78
   2  -4   2   48.85    1.82
   2  -4   2   46.37    1.76
  -2  -4  -3   23.42    0.97
   2  -4   3   23.52    1.01
   2  -4   4   91.43    3.30
   2  -4   5    2.84    0.30
   2  -4   6   23.10    1.03
   2  -4   7    0.15    0.19
   2  -4   7    0.29    0.26
  -2  -4  -7    0.27    0.22
   2  -4   8   79.69    3.19
   2  -4   8   82.28    3.07
  -2  -4  -8   87.67    3.11
   2  -4   9    1.31    0.36
  -2   4  -9    1.15    0.20
  -2  -4  -9    1.81    0.29
   2  -4  10   81.56    3.08
  -2   4 -10   74.39    2.82
  -2  -4 -10   81.56    2.96
   2  -4  11    2.56    0.43
  -2  -4 -11    3.20    0.34
  -2  -4 -12    0.04    0.18
  -2  -4 -13    5.98    0.40
   2   4  14    3.05    0.36
  -2  -4 -14    3.34    0.24
   2   4  15    0.05    0.15
  -2  -5  14    3.99    0.30
   2  -5 -14    3.45    0.26
   2  -5 -13    8.30    0.47
   2   5 -13    6.81    0.39
   2   5 -12    0.22    0.15
   2  -5 -12    0.13    0.20
   2  -5 -11    0.07    0.24
   2   5 -11    0.41    0.18
   2   5 -10   10.25    0.60
   2  -5 -10   11.40    0.69
   2   5  -9    0.06    0.17
   2  -5  -9    0.21    0.25
   2   5  -8   13.32    0.72
   2  -5  -8   14.19    0.78
   2  -5  -7   12.53    0.64
   2  -5  -7   14.09    0.77
   2   5  -7   14.57    0.74
   2   5  -6    0.80    0.20
  -2   5   6    0.60    0.20
   2  -5  -6    0.89    0.26
   2  -5  -6    1.00    0.19
   2  -5  -6    0.81    0.26
   2  -5  -5    2.50    0.25
   2   5  -5    2.26    0.28
   2  -5  -4    0.58    0.16
   2  -5  -3   11.75    0.67
   2  -5  -3   11.32    0.56
   2  -5  -2    8.55    0.55
   2  -5  -2    8.70    0.47
   2  -5  -1  129.84    4.56
  -2  -5   1  128.77    4.54
   2  -5  -1  125.35    4.45
  -2  -5   0   10.56    0.59
   2  -5   0   10.51    0.61
   2  -5   0   10.52    0.55
  -2  -5  -1    7.67    0.48
   2  -5   1    8.21    0.47
   2  -5   1    6.97    0.50
   2  -5   2    9.56    0.58
   2  -5   2    9.14    0.53
  -2  -5  -2    9.65    0.54
  -2  -5  -3   34.92    1.39
   2  -5   3   34.31    1.44
   2  -5   3   35.29    1.44
   2  -5   4  106.27    3.80
  -2  -5  -4  105.42    3.73
   2  -5   4  103.10    3.79
   2  -5   5   17.43    0.87
   2  -5   6  171.50    6.02
   2  -5   7    6.68    0.48
  -2  -5  -7    6.98    0.52
   2  -5   8   39.87    1.67
  -2  -5  -8   44.59    1.74
   2  -5   9   35.79    1.50
  -2  -5  -9   40.08    1.58
  -2  -5 -10    0.25    0.22
   2   5  11    2.47    0.39
  -2  -5 -11    2.91    0.30
   2   5  12    0.82    0.26
  -2  -5 -12    1.09    0.19
   2   5  13    2.04    0.27
  -2  -5 -13    1.74    0.18
   2   5  14    1.28    0.18
  -2  -6  12    1.38    0.22
   2  -6 -12    1.10    0.17
  -2  -6  11    3.66    0.37
   2  -6 -11    3.86    0.31
  -2  -6  10    0.16    0.27
   2  -6 -10    0.05    0.18
   2  -6  -9    0.14    0.21
   2  -6  -8    3.07    0.34
   2  -6  -7    8.23    0.55
   2  -6  -6   -0.10    0.24
   2  -6  -6    0.08    0.13
   2  -6  -6    0.09    0.22
   2  -6  -5   67.46    2.41
  -2  -6   5   65.59    2.63
   2  -6  -5   65.50    2.58
   2  -6  -5   68.02    2.56
  -2  -6   4   23.26    1.12
   2  -6  -4   22.27    0.93
   2  -6  -3    6.38    0.38
  -2  -6   3    6.68    0.52
   2  -6  -2    3.85    0.29
   2  -6  -2    3.67    0.40
  -2  -6   2    3.40    0.38
  -2  -6   1   25.61    1.15
   2  -6  -1   25.18    1.16
   2  -6  -1   25.30    1.03
   2  -6   0   60.64    2.39
  -2  -6   0   61.10    2.36
   2  -6   0   63.74    2.27
   2  -6   1    6.26    0.48
  -2  -6  -1    6.53    0.46
   2  -6   1    6.44    0.39
   2  -6   2   54.97    2.14
   2  -6   2   56.13    2.04
  -2  -6  -2   52.76    2.08
   2  -6   3   77.15    2.88
   2  -6   3   77.05    2.76
  -2  -6  -3   75.12    2.80
   2  -6   4  115.58    4.15
  -2  -6  -4  114.07    4.08
  -2  -6  -5   24.58    1.04
   2  -6   5   23.87    1.11
   2  -6   6    4.18    0.39
  -2  -6  -7   14.78    0.76
   2  -6   7   13.23    0.71
  -2  -6  -8    2.97    0.33
   2   6   8    3.34    0.44
   2  -6   8    3.13    0.30
   2   6   9    0.91    0.31
   2  -6   9    0.85    0.17
  -2  -6  -9    0.66    0.20
   2   6  10    0.61    0.25
  -2  -6 -10    0.67    0.19
   2   6  11    0.58    0.21
  -2  -6 -11    0.62    0.14
   2   6  12    1.10    0.19
  -2  -7  10    6.21    0.37
   2  -7 -10    6.22    0.33
   2  -7  -9    4.78    0.32
   2  -7  -8   17.12    0.78
  -2  -7   7   20.87    0.96
   2  -7  -7   19.99    0.90
  -2  -7   6    6.83    0.50
   2  -7  -6    6.92    0.45
  -2  -7   5    5.45    0.44
   2  -7  -5    5.27    0.40
   2  -7  -5    4.57    0.41
   2  -7  -4   19.04    0.89
  -2  -7   4   18.60    0.92
  -2  -7   3    0.13    0.22
  -2  -7   2    5.13    0.42
   2  -7  -2    4.89    0.43
  -2  -7   1    6.51    0.46
   2  -7  -1    6.53    0.49
  -2  -7   0   10.53    0.59
   2  -7   0    9.86    0.61
  -2  -7  -1    3.06    0.30
   2  -7   1    2.64    0.33
   2  -7   2    6.64    0.48
  -2  -7  -2    6.43    0.42
  -2  -7  -3    2.61    0.26
   2  -7   3    2.73    0.32
   2  -7   4    3.43    0.33
  -2  -7  -4    3.32    0.27
   2  -7   5    2.25    0.28
   2  -7   6    1.16    0.21
  -2  -7  -6    1.39    0.23
   2   7   6    1.61    0.30
   2   7   7    0.44    0.23
   2  -7   7    0.27    0.13
  -2  -7  -7    0.32    0.18
   2  -7   8    0.51    0.11
  -2  -7  -8    0.30    0.15
   2   7   9    0.06    0.14
  -2  -7  -9    0.17    0.12
   2   7  10    0.40    0.13
  -2  -8   7   15.18    0.64
  -2  -8   6    4.96    0.31
   2  -8  -6    5.13    0.28
  -2  -8   5   12.80    0.59
   2  -8  -5   12.51    0.56
  -2  -8   4   15.70    0.70
   2  -8  -4   15.53    0.67
  -2  -8   3    0.02    0.14
   2  -8  -3    0.24    0.13
  -2  -8   2    4.10    0.29
   2  -8  -2    3.77    0.27
   2  -8  -2    3.40    0.31
  -2  -8   1    0.34    0.14
   2  -8  -1    0.21    0.16
   2  -8  -1    0.45    0.14
   2  -8   0   17.56    0.78
  -2  -8   0   15.78    0.72
   2  -8   1    6.60    0.41
  -2  -8  -1    5.37    0.34
  -2  -8  -2    2.87    0.22
   2  -8   2    3.54    0.29
   2  -8   3    5.12    0.34
   2  -8   4    4.14    0.29
  -2  -8  -4    4.01    0.29
   2   8   5    0.17    0.15
   2  -8   5    0.22    0.12
  -2  -8  -5    0.15    0.13
   2   8   6    0.89    0.16
   2  -8   6    0.82    0.12
  -2  -8  -6    0.82    0.13
   2   8   7    0.24    0.09
   3   0 -16    8.10    0.44
  -3   0  16    8.26    0.57
   3   0 -15    0.08    0.18
  -3   0  15    0.02    0.29
   3   0 -14    1.13    0.25
   3   0 -13    0.14    0.21
  -3   0  12   12.55    0.72
   3   0 -12   12.83    0.74
  -3   0  11    0.02    0.17
   3   0 -11    0.13    0.26
   3   0 -10  299.74   10.28
   3   0  -9   -0.01    0.19
   3   0  -8   40.46    1.58
   3   0  -7   -0.03    0.13
   3   0  -7    0.02    0.09
  -3   0   6  437.30   15.38
   3   0  -6  452.29   15.34
   3   0  -6  466.24   15.33
   3   0  -6  442.62   15.26
  -3   0   6  486.88   15.33
   3   0  -5   -0.04    0.13
   3   0  -5    0.11    0.09
  -3   0   5    0.03    0.08
   3   0  -4  234.95    8.30
  -3   0   4  246.20    8.30
   3   0  -3    0.05    0.07
  -3   0   3    0.01    0.10
  -3   0   3   -0.02    0.06
  -3   0   2  234.68    8.12
  -3   0   2  257.56    8.19
  -3   0   1    0.08    0.07
  -3   0   1    0.03    0.04
  -3   0   0  432.29   14.46
  -3   0  -1    0.03    0.04
  -3   0  -1    0.03    0.04
  -3   0  -2    0.26    0.04
  -3   0  -3    0.02    0.04
   3   0   4   54.61    1.88
  -3   0  -4   50.44    1.80
  -3   0  -5    0.04    0.06
   3   0   5    0.10    0.12
   3   0   6   67.47    2.41
  -3   0  -6   63.94    2.31
   3   0   6   67.96    2.37
   3   0   7   -0.06    0.12
   3   0   8    3.46    0.32
   3   0   9    0.23    0.20
   3   0  10  165.78    5.90
   3   0  11    0.06    0.24
   3   0  12    0.22    0.26
   3   0  13    0.29    0.27
   3   0  14   24.72    1.14
  -3   0 -14   21.65    1.00
   3   0  15    0.03    0.20
  -3   0 -15    0.04    0.17
   3   0  16   19.56    0.90
  -3   0 -16   20.07    0.83
  -3  -1  16    1.67    0.33
  -3   1  16    1.00    0.27
   3   1 -16    1.11    0.20
   3   1 -15    1.66    0.27
  -3  -1  15    1.42    0.37
  -3  -1  14   13.74    0.80
   3  -1 -14   12.37    0.67
   3  -1 -14   13.96    0.76
  -3  -1  14   14.88    0.89
   3   1 -14   13.69    0.77
   3  -1 -13    1.39    0.23
   3   1 -13    1.21    0.30
  -3  -1  13    1.72    0.31
   3  -1 -13    1.29    0.29
   3  -1 -12    1.24    0.24
  -3  -1  12    1.25    0.29
   3  -1 -12    0.84    0.28
  -3  -1  11   16.71    0.88
   3  -1 -11   15.71    0.84
  -3  -1  10  104.80    3.75
   3  -1 -10  100.03    3.72
  -3  -1   9   68.61    2.51
   3  -1  -9   64.22    2.48
  -3  -1   8  211.83    7.21
   3   1  -8  205.49    7.20
   3  -1  -8  208.75    7.19
   3   1  -7    9.98    0.52
   3  -1  -7    9.94    0.51
   3  -1  -7    9.89    0.47
  -3  -1   6   43.04    1.66
   3   1  -6   43.12    1.61
   3  -1  -6   41.55    1.59
   3  -1  -6   42.59    1.55
  -3  -1   6   43.78    1.60
   3   1  -6   42.17    1.59
   3  -1  -6   42.52    1.62
  -3   1   5    3.64    0.27
   3   1  -5    3.34    0.25
  -3  -1   5    3.53    0.26
   3   1  -5    4.02    0.32
  -3   1   4   75.36    2.66
   3   1  -4   73.85    2.65
  -3  -1   4   76.96    2.65
   3   1  -4   74.98    2.73
   3  -1  -3  434.41   14.47
  -3   1   3  429.88   14.53
  -3   1   2    1.29    0.13
   3  -1  -2    1.44    0.09
  -3   1   1   11.32    0.47
  -3  -1   1   11.58    0.49
  -3   1   0   31.55    1.09
  -3  -1   0   29.44    1.13
  -3   1  -1   64.07    2.29
  -3   1  -1   76.22    2.39
  -3   1  -2 1750.06   58.30
  -3   1  -2 1800.05   58.36
  -3  -1  -2 1710.80   58.35
  -3   1  -3  112.27    3.70
  -3  -1  -3  107.76    3.72
   3   1   4  278.56    8.50
   3  -1   4  294.59    8.43
   3   1   5    1.52    0.17
   3   1   5    1.45    0.18
  -3  -1  -5    1.81    0.16
   3   1   5    1.72    0.21
   3  -1   6  333.69   11.39
   3   1   6  346.05   11.44
   3  -1   6  338.07   11.33
   3   1   6  329.62   11.37
  -3  -1  -6  336.77   11.34
   3   1   7   23.95    1.01
   3  -1   7   22.97    0.97
  -3  -1  -7   20.38    0.89
   3  -1   7   23.42    0.91
   3   1   7   22.16    0.94
   3  -1   8   32.04    1.30
   3   1   8   29.83    1.30
   3   1   8   29.80    1.22
   3  -1   8   31.49    1.22
   3  -1   9   91.73    3.41
   3   1   9   92.33    3.44
   3   1   9   91.02    3.32
   3  -1   9   95.61    3.31
   3  -1  10  328.09   11.34
   3   1  10  331.61   11.37
  -3   1 -10  323.37   11.15
   3   1  10  339.11   11.24
   3  -1  11   62.46    2.41
  -3   1 -11   58.94    2.20
   3   1  11   59.75    2.41
   3  -1  12    0.64    0.28
   3   1  12    0.76    0.30
  -3   1 -12    0.50    0.21
  -3  -1 -12    0.80    0.19
   3  -1  13   28.45    1.30
   3   1  13   28.85    1.32
  -3   1 -13   26.13    1.15
  -3  -1 -13   27.25    1.14
   3  -1  14    3.96    0.41
   3   1  14    3.51    0.41
  -3   1 -14    3.34    0.33
  -3  -1 -14    3.56    0.31
   3  -1  15    0.03    0.21
   3   1  15    0.22    0.22
  -3   1 -15    0.10    0.16
  -3  -1 -15    0.26    0.16
   3   1  16    9.19    0.54
  -3   1 -16    9.39    0.48
  -3  -1 -16   10.41    0.48
   3  -1  16    9.95    0.55
  -3  -2  16    0.64    0.29
   3   2 -16    0.07    0.13
   3   2 -15    0.28    0.21
  -3  -2  15    0.86    0.35
   3  -2 -15    0.28    0.20
   3  -2 -14   12.27    0.69
  -3  -2  14   13.49    0.87
   3   2 -14   12.13    0.71
  -3  -2  13   28.18    1.36
   3  -2 -13   28.69    1.28
  -3  -2  13   31.76    1.48
   3   2 -13   27.26    1.31
  -3  -2  12   45.02    1.96
   3  -2 -12   45.59    1.88
   3   2 -12   43.35    1.90
  -3  -2  11   83.15    3.24
   3  -2 -11   81.87    3.14
  -3  -2  11   89.39    3.31
   3  -2 -10   20.49    1.00
  -3  -2  10   21.50    1.07
  -3  -2   9   62.05    2.39
   3  -2  -9   59.71    2.31
  -3  -2   8    2.50    0.31
   3  -2  -8    2.38    0.27
   3  -2  -8    2.14    0.23
  -3  -2   7   60.38    2.35
   3  -2  -7   61.37    2.28
   3  -2  -7   63.04    2.24
  -3  -2   6    2.29    0.26
   3  -2  -6    1.93    0.21
   3  -2  -6    2.14    0.21
  -3   2   5  292.07   10.27
   3  -2  -5  293.17   10.25
   3   2  -5  312.21   10.37
   3  -2  -5  304.72   10.26
  -3  -2   5  327.48   10.36
  -3   2   4  437.20   14.98
   3  -2  -4  443.89   14.98
   3   2  -4  460.59   15.07
   3   2  -3    0.89    0.19
   3  -2  -3    0.77    0.13
  -3  -2   3    0.83    0.11
  -3   2   3    0.71    0.14
   3  -2  -3    0.76    0.14
  -3  -2   2  131.63    4.69
  -3   2   2  134.99    4.63
   3  -2  -2  134.93    4.66
   3  -2  -2  140.69    4.69
  -3  -2   2  132.08    4.59
   3   2  -2  145.75    4.76
   3   2  -1   18.97    0.79
   3  -2  -1   20.43    0.77
  -3  -2   1   18.94    0.69
  -3   2   1   18.11    0.73
  -3  -2   1   17.90    0.80
   3  -2  -1   19.09    0.82
   3   2  -1   18.83    0.85
   3   2   0   52.10    1.77
   3  -2   0   53.13    1.74
  -3   2   0   54.51    1.85
   3   2   1    1.15    0.20
  -3  -2  -1    1.06    0.19
  -3   2  -1    1.51    0.21
  -3   2  -1    1.12    0.14
   3  -2   1    1.22    0.12
   3   2   2   24.23    0.95
   3  -2   2   23.37    0.88
  -3  -2  -2   24.37    0.94
  -3   2  -2   25.71    0.97
   3   2   2   23.67    1.02
  -3   2  -2   22.72    0.91
  -3   2  -3 1455.47   47.83
   3   2   3 1433.86   47.83
   3   2   3 1386.01   47.90
  -3  -2  -3 1474.05   47.77
   3  -2   3 1411.19   47.74
  -3  -2  -4    0.93    0.10
   3   2   4    0.97    0.18
   3   2   4    1.11    0.20
   3  -2   4    0.99    0.11
   3   2   5  590.81   21.31
   3  -2   5  660.51   21.23
   3  -2   6   34.35    1.39
   3   2   6   38.69    1.48
   3   2   6   32.47    1.37
   3  -2   6   37.01    1.32
   3  -2   7   24.70    1.05
   3   2   7   21.58    1.00
   3  -2   7   24.48    0.97
   3  -2   8    2.87    0.31
   3   2   8    3.15    0.36
  -3   2  -8    2.64    0.21
   3   2   8    2.57    0.26
   3  -2   9   37.69    1.54
   3   2   9   38.90    1.61
  -3   2  -9   35.24    1.37
   3   2   9   35.22    1.43
   3  -2  10    0.18    0.25
   3   2  10   -0.02    0.28
  -3   2 -10    0.14    0.16
   3   2  10   -0.08    0.19
   3  -2  11   16.17    0.89
  -3   2 -11   15.29    0.73
   3   2  11   16.51    0.95
   3  -2  12    1.43    0.31
   3   2  12    1.31    0.34
  -3   2 -12    1.28    0.24
  -3  -2 -12    1.42    0.21
   3  -2  13    0.06    0.23
   3   2  13    0.35    0.25
  -3   2 -13    0.15    0.18
  -3  -2 -13    0.13    0.15
   3  -2  14   -0.03    0.23
   3   2  14   -0.05    0.22
  -3   2 -14    0.11    0.18
  -3  -2 -14    0.05    0.15
   3   2  15    9.42    0.60
  -3   2 -15    9.85    0.50
  -3  -2 -15    9.97    0.48
   3  -2  15   10.15    0.59
   3   2  16    3.78    0.31
   3   3 -16   11.73    0.53
   3  -3 -15   17.55    0.76
   3   3 -15   15.46    0.76
   3   3 -14    0.08    0.20
  -3  -3  14    0.12    0.35
   3  -3 -14    0.01    0.18
   3   3 -13   15.14    0.83
   3  -3 -13   15.70    0.82
  -3  -3  13   17.74    1.06
   3  -3 -12   47.07    1.90
   3   3 -12   43.32    1.90
   3  -3 -11  213.61    7.29
  -3  -3  11  211.05    7.47
   3   3 -11  200.20    7.30
   3  -3 -10  114.81    4.17
   3   3 -10  114.30    4.19
   3  -3  -9   17.19    0.89
   3   3  -9   19.12    0.95
   3   3  -8    1.26    0.29
  -3  -3   8    1.09    0.38
   3  -3  -8    1.29    0.22
   3  -3  -8    1.06    0.24
  -3  -3   7   53.70    2.12
   3  -3  -7   52.39    2.02
   3   3  -7   52.20    2.07
   3   3  -6    6.99    0.49
  -3  -3   6    6.92    0.51
   3  -3  -6    6.55    0.42
   3  -3  -5    0.34    0.16
  -3  -3   5    0.66    0.22
   3   3  -5    0.45    0.20
   3  -3  -5    0.66    0.15
   3  -3  -4   80.59    2.95
   3   3  -4   83.72    2.91
  -3  -3   4   76.72    2.99
   3  -3  -4   80.25    2.90
   3   3  -4   87.49    3.02
   3   3  -3    1.60    0.24
  -3   3   3    1.14    0.17
  -3  -3   3    1.17    0.16
   3   3  -3    1.20    0.19
   3  -3  -3    1.30    0.19
  -3  -3   3    1.01    0.21
   3  -3  -3    1.51    0.19
   3   3  -2    2.25    0.23
  -3  -3   2    2.10    0.26
  -3  -3   2    1.43    0.22
   3   3  -2    2.18    0.26
  -3  -3   2    2.39    0.27
  -3   3   2    2.30    0.23
   3  -3  -2    2.12    0.24
   3  -3  -2    2.48    0.23
   3  -3  -2    2.15    0.21
   3   3  -1  196.33    6.31
  -3   3   1  187.48    6.44
   3  -3  -1  186.93    6.33
  -3   3   1  181.85    6.34
   3  -3  -1  186.82    6.37
   3   3  -1  192.08    6.39
   3  -3  -1  191.09    6.33
  -3  -3   1  177.07    6.39
   3  -3   0  120.96    4.14
   3   3   0  126.27    4.13
  -3   3   0  119.81    4.24
   3  -3   0  119.02    4.20
  -3   3   0  116.43    4.17
  -3  -3   0  106.43    4.17
  -3  -3   0  115.04    4.21
   3   3   0  121.74    4.20
   3  -3   0  120.93    4.13
   3  -3   1   48.04    1.80
   3  -3   1   48.43    1.82
   3   3   1   53.72    1.82
  -3  -3  -1   46.75    1.88
  -3   3  -1   50.60    1.90
  -3  -3  -1   47.04    1.85
   3   3   1   53.50    1.91
  -3   3  -1   49.63    1.87
   3   3   2   84.05    2.89
   3  -3   2   78.92    2.90
   3  -3   2   79.16    2.86
  -3  -3  -2   86.05    2.91
  -3   3  -2   82.08    2.96
  -3   3  -3   36.59    1.39
  -3  -3  -3   34.89    1.32
   3   3   3   35.38    1.42
   3   3   4  115.41    4.06
   3   3   5   17.03    0.78
   3  -3   5   16.83    0.79
   3  -3   6   57.75    2.19
  -3  -3  -6   61.21    2.14
   3   3   6   54.32    2.12
   3  -3   7    1.24    0.24
   3   3   7    1.29    0.30
  -3   3  -7    1.25    0.15
  -3  -3  -7    1.25    0.20
   3   3   7    1.08    0.19
   3  -3   8   28.09    1.27
   3   3   8   27.96    1.14
   3   3   8   30.12    1.37
  -3   3  -8   27.44    1.11
  -3  -3  -8   30.32    1.20
   3   3   9   71.59    2.60
   3  -3   9   71.52    2.77
   3   3   9   75.14    2.86
  -3  -3  -9   72.88    2.65
  -3   3  -9   69.37    2.58
   3  -3  10   75.39    2.91
   3   3  10   75.11    2.70
   3   3  10   72.75    2.94
  -3   3 -10   74.03    2.71
  -3  -3 -10   74.43    2.74
   3  -3  11   11.75    0.76
   3   3  11   11.25    0.78
  -3   3 -11   11.98    0.62
  -3  -3 -11   12.41    0.57
  -3  -3 -11   11.80    0.62
   3  -3  12    6.58    0.55
   3   3  12    6.30    0.57
  -3   3 -12    6.62    0.43
  -3  -3 -12    7.13    0.39
  -3   3 -13   13.19    0.65
  -3  -3 -13   13.71    0.61
   3   3  13   14.18    0.83
   3  -3  13   14.54    0.80
   3   3  14    7.03    0.52
  -3  -3 -14    6.78    0.35
   3  -3  14    7.71    0.50
   3   3  15    1.79    0.25
   3   4 -15   15.78    0.67
   3  -4 -15   16.39    0.66
   3  -4 -14   12.28    0.58
   3   4 -14   10.89    0.58
   3  -4 -13    6.05    0.42
   3   4 -13    5.03    0.41
   3   4 -12    2.59    0.32
   3  -4 -12    2.64    0.33
   3   4 -11    1.88    0.32
   3  -4 -11    1.63    0.31
   3   4 -10    0.17    0.23
   3  -4 -10   -0.05    0.25
  -3  -4   9  133.84    4.98
   3  -4  -9  135.97    4.75
   3   4  -9  126.27    4.74
  -3  -4   8   17.32    1.11
   3  -4  -8   18.60    0.84
   3  -4  -8   19.42    0.93
   3   4  -8   17.67    0.93
  -3  -4   7   43.17    1.92
   3  -4  -7   42.91    1.65
   3  -4  -7   42.06    1.72
   3   4  -7   41.92    1.75
  -3  -4   6   15.24    0.95
   3  -4  -6   15.29    0.72
   3  -4  -6   15.25    0.77
   3   4  -6   16.06    0.84
   3   4  -5   39.59    1.62
  -3  -4   5   35.58    1.69
   3  -4  -5   36.69    1.51
   3  -4  -5   38.27    1.56
   3  -4  -5   38.67    1.60
   3   4  -4    9.12    0.46
   3   4  -4    9.65    0.58
   3  -4  -4    8.25    0.49
   3  -4  -4    8.69    0.50
   3  -4  -4    8.30    0.54
   3   4  -3   54.69    1.99
   3  -4  -3   52.61    2.04
   3  -4  -3   56.75    2.12
   3   4  -3   56.56    2.13
   3   4  -2   19.97    0.81
   3  -4  -2   19.64    0.90
   3  -4  -2   18.32    0.85
   3   4  -2   18.51    0.88
   3   4  -1    0.23    0.15
   3  -4  -1    0.17    0.15
   3  -4  -1    0.22    0.18
   3   4   0    1.76    0.21
   3  -4   0    1.63    0.22
  -3  -4   0    1.77    0.22
   3  -4   0    1.46    0.24
   3   4   0    1.63    0.23
   3  -4   1    2.91    0.28
   3   4   1    3.02    0.25
   3  -4   1    2.68    0.32
   3   4   2  182.81    6.00
   3  -4   2  173.54    6.08
   3   4   2  180.62    6.09
   3  -4   3    0.63    0.18
   3   4   3    0.57    0.18
   3  -4   4   24.30    1.05
   3   4   4   24.99    1.03
   3   4   5   50.12    1.87
   3   4   6   21.11    0.89
  -3  -4  -6   23.07    0.99
   3   4   7    3.91    0.49
  -3  -4  -7    4.21    0.36
   3   4   7    3.61    0.27
   3   4   8   21.91    1.20
  -3  -4  -8   22.95    1.02
   3   4   9   62.52    2.72
  -3  -4  -9   71.19    2.56
   3   4  10   -0.02    0.30
  -3  -4 -10    0.48    0.11
  -3  -4 -10    0.29    0.16
   3   4  11    0.58    0.33
  -3  -4 -11    0.73    0.18
   3   4  12    7.34    0.59
   3   4  13    7.51    0.53
   3   4  14    1.15    0.21
  -3  -5  14    0.21    0.13
   3  -5 -13    2.98    0.24
   3   5 -13    2.47    0.21
   3   5 -12    2.22    0.24
   3  -5 -12    2.49    0.26
   3   5 -11   11.32    0.62
   3  -5 -11   12.24    0.64
   3  -5 -10    3.40    0.35
   3   5 -10    3.41    0.35
   3   5  -9   23.91    1.13
   3  -5  -9   26.78    1.17
   3   5  -8   40.45    1.70
   3  -5  -8   41.09    1.60
   3  -5  -8   43.38    1.73
   3   5  -7    0.60    0.23
   3  -5  -7    0.68    0.20
   3  -5  -6   10.26    0.57
   3  -5  -6   11.45    0.65
   3   5  -6   10.63    0.64
   3  -5  -5    4.46    0.34
   3  -5  -5    4.62    0.39
   3   5  -5    4.89    0.40
   3  -5  -5    4.44    0.42
   3  -5  -4   10.26    0.64
   3  -5  -4    9.25    0.53
   3  -5  -4    9.52    0.57
   3   5  -4   10.70    0.59
   3   5  -3    0.04    0.13
   3  -5  -3    0.05    0.22
   3  -5  -3    0.01    0.18
   3   5  -3    0.01    0.15
   3   5  -2   91.75    3.17
   3  -5  -2   87.06    3.26
   3   5  -2   93.20    3.29
   3  -5  -2   91.37    3.36
   3   5  -1   23.20    0.91
  -3  -5   1   21.90    1.02
   3  -5  -1   21.71    0.99
   3  -5  -1   24.51    1.08
   3  -5   0  166.24    5.71
  -3  -5   0  161.37    5.65
   3  -5   0  159.48    5.66
   3  -5   1  213.98    7.29
  -3  -5  -1  209.19    7.21
   3  -5   1  206.62    7.26
   3  -5   2  116.33    4.20
   3  -5   2  118.66    4.22
   3  -5   3  148.08    5.21
   3  -5   3  147.52    5.26
   3  -5   4    7.50    0.49
   3  -5   4    7.97    0.57
   3  -5   5  152.08    5.36
   3  -5   5  153.22    5.45
   3  -5   6   12.22    0.66
  -3  -5  -6   13.73    0.71
   3   5   7   87.79    3.43
  -3  -5  -7   87.70    3.23
  -3  -5  -8   54.01    2.07
   3   5   8   52.49    2.25
   3   5   9   15.41    0.93
  -3  -5  -9   16.31    0.79
   3   5  10   11.88    0.76
  -3  -5 -10   11.35    0.60
   3   5  11    1.50    0.29
   3   5  12    2.33    0.30
   3  -5  12    2.11    0.22
   3   5  13    6.11    0.39
  -3  -6  12   14.21    0.65
   3  -6 -11    3.25    0.25
  -3  -6  10    0.48    0.26
   3  -6 -10    0.47    0.17
   3  -6  -9    0.08    0.15
   3  -6  -8    0.19    0.18
   3  -6  -7    3.83    0.34
  -3  -6   6    1.41    0.33
   3  -6  -6    1.04    0.19
   3  -6  -6    0.84    0.22
   3  -6  -5    0.92    0.28
  -3  -6   5    1.57    0.32
   3  -6  -5    1.31    0.20
   3  -6  -5    1.33    0.24
  -3  -6   4   11.94    0.70
   3  -6  -4   10.66    0.55
   3  -6  -4   11.31    0.62
   3  -6  -4   11.53    0.70
  -3  -6   3    5.19    0.44
   3  -6  -3    5.08    0.35
   3  -6  -3    5.27    0.47
  -3  -6   2    7.40    0.51
   3  -6  -2    7.46    0.45
   3  -6  -2    7.50    0.55
  -3  -6   1   30.21    1.30
   3  -6  -1   30.31    1.25
   3  -6  -1   33.29    1.38
  -3  -6   0   43.36    1.79
   3  -6   0   48.24    1.79
   3  -6   0   48.02    1.89
   3  -6   1   14.61    0.77
  -3  -6  -1   14.18    0.70
   3  -6   1   14.79    0.72
   3  -6   2   19.26    0.92
  -3  -6  -2   18.83    0.85
   3  -6   2   19.97    0.89
   3  -6   3    6.20    0.45
   3  -6   3    6.15    0.43
   3  -6   4  111.59    4.06
   3  -6   4  115.48    4.05
   3  -6   5   48.79    1.94
   3  -6   5   52.53    1.96
   3  -6   6   70.24    2.68
  -3  -6  -6   77.83    2.75
   3  -6   6   73.81    2.71
   3   6   7   22.98    1.14
  -3  -6  -7   22.28    0.99
   3  -6   7   21.88    0.97
   3   6   8    5.26    0.48
  -3  -6  -8    4.85    0.35
   3  -6   8    4.83    0.34
   3   6   9    2.38    0.33
  -3  -6  -9    2.37    0.24
   3   6  10    1.61    0.25
   3   6  11    1.21    0.20
   3   6  12   12.93    0.57
  -3  -7  10    1.48    0.16
  -3  -7   9    0.23    0.14
   3  -7  -9    0.17    0.08
  -3  -7   8    8.48    0.47
   3  -7  -8    7.42    0.39
  -3  -7   7    7.51    0.47
   3  -7  -7    7.24    0.40
  -3  -7   6    0.23    0.20
   3  -7  -6    0.20    0.13
  -3  -7   5    3.47    0.34
   3  -7  -5    3.76    0.29
  -3  -7   4    0.94    0.23
   3  -7  -4    0.73    0.13
   3  -7  -4    0.53    0.15
   3  -7  -3    3.57    0.35
  -3  -7   3    3.78    0.33
   3  -7  -3    3.61    0.24
   3  -7  -3    3.54    0.28
  -3  -7   2    3.14    0.30
   3  -7  -2    3.26    0.23
   3  -7  -2    3.40    0.28
   3  -7  -2    3.81    0.35
   3  -7  -1    1.70    0.28
  -3  -7   1    1.72    0.23
   3  -7  -1    1.53    0.16
  -3  -7   0    2.37    0.24
   3  -7   0    2.22    0.29
   3  -7   0    2.22    0.19
  -3  -7  -1    4.19    0.30
   3  -7   1    4.48    0.28
   3  -7   1    4.48    0.38
   3  -7   2    0.06    0.17
   3  -7   3   13.12    0.67
   3  -7   4    2.18    0.24
   3  -7   5    0.17    0.12
  -3  -7  -5    0.20    0.15
   3   7   6    0.44    0.21
  -3  -7  -6    0.49    0.15
   3   7   7    4.03    0.35
  -3  -7  -7    3.36    0.25
   3   7   8    5.74    0.38
  -3  -7  -8    5.40    0.29
  -3  -8   5    2.36    0.18
  -3  -8   4    4.63    0.27
  -3  -8   3    2.36    0.19
  -3  -8   2    1.83    0.17
   3  -8  -1    1.46    0.19
   3  -8   0    0.35    0.13
   3  -8   1    4.63    0.31
   3  -8   2    1.53    0.18
  -3  -8  -3    7.12    0.37
   3  -8   3    7.32    0.37
   3   8   4    9.68    0.48
  -3  -8  -4    7.93    0.39
   3   8   5    0.07    0.12
  -4   0  16    4.35    0.39
   4   0 -15    0.14    0.13
  -4   0  15   -0.26    0.30
   4   0 -14    2.65    0.30
   4   0 -13   -0.03    0.18
   4   0 -12   18.62    0.95
   4   0 -11    0.19    0.23
   4   0 -10    4.13    0.42
   4   0 -10    5.05    0.40
   4   0  -9    0.05    0.22
   4   0  -9    0.01    0.17
   4   0  -8   88.34    3.14
   4   0  -8   84.79    3.22
   4   0  -7    0.01    0.19
   4   0  -7    0.11    0.13
   4   0  -6   82.02    2.92
   4   0  -6   80.65    2.85
   4   0  -6   87.70    3.05
   4   0  -5    0.03    0.16
   4   0  -5   -0.01    0.08
  -4   0   4  462.55   15.33
  -4   0   4  456.82   15.22
   4   0  -4  438.94   15.38
  -4   0   3    0.29    0.11
   4   0  -3    0.02    0.15
  -4   0   3    0.01    0.05
  -4   0   2  143.83    4.98
  -4   0   2  146.09    5.08
  -4   0   1   -0.01    0.07
   4   0  -1    0.01    0.13
  -4   0   1    0.01    0.03
  -4   0   0 1080.02   36.12
  -4   0   0 1086.16   36.14
  -4   0   0 1085.34   36.05
   4   0   0 1069.25   36.23
  -4   0  -1    0.15    0.06
   4   0   1    0.06    0.15
  -4   0  -2    7.52    0.30
  -4   0  -2    7.79    0.29
  -4   0  -2    7.40    0.30
   4   0   3    0.16    0.12
   4   0   3    0.09    0.15
   4   0   4  272.21    9.57
   4   0   4  303.07    9.65
   4   0   5    0.04    0.14
   4   0   6    0.76    0.19
   4   0   7   -0.02    0.12
   4   0   7   -0.02    0.15
   4   0   8  182.34    6.54
   4   0   8  192.98    6.49
   4   0   9    0.29    0.25
   4   0   9    0.58    0.20
   4   0  10  386.49   13.21
   4   0  11   -0.10    0.21
   4   0  12    0.92    0.24
   4   0  13    0.12    0.18
   4   0  14    3.00    0.31
   4   0  15    0.10    0.14
   4   1 -16   -0.10    0.10
  -4  -1  16    0.30    0.22
  -4   1  16   -0.15    0.19
  -4  -1  15    9.83    0.65
   4   1 -15    8.55    0.52
  -4  -1  14    7.98    0.62
   4   1 -14    7.23    0.51
   4  -1 -13    0.81    0.19
   4   1 -13    1.22    0.29
   4  -1 -12    9.29    0.58
   4  -1 -12    9.27    0.55
   4   1 -12    8.62    0.63
   4  -1 -11   30.17    1.27
   4  -1 -11   27.98    1.23
   4   1 -11   27.91    1.33
   4   1 -10   10.16    0.69
   4  -1 -10   11.31    0.63
   4  -1 -10   10.50    0.61
   4  -1  -9    7.32    0.47
   4   1  -9    6.10    0.52
   4  -1  -9    6.62    0.46
   4  -1  -8   18.82    0.86
   4  -1  -8   18.83    0.79
   4  -1  -8   18.69    0.89
   4   1  -8   19.08    0.97
   4  -1  -7    4.61    0.32
   4  -1  -7    4.75    0.30
   4  -1  -7    4.12    0.34
   4   1  -7    4.49    0.42
   4  -1  -6   25.90    1.03
   4  -1  -6   26.22    1.12
   4   1  -6   28.70    1.22
   4  -1  -5  553.55   18.79
  -4  -1   5  561.17   18.82
   4  -1  -5  555.54   18.86
   4   1  -5  581.50   18.97
  -4  -1   4  327.81   10.94
  -4   1   4  321.00   10.89
   4  -1  -4  313.76   10.90
   4   1  -4  324.89   11.02
   4  -1  -4  315.34   10.86
  -4  -1   4  329.33   10.86
  -4   1   3  492.40   16.92
  -4  -1   3  524.79   16.91
   4  -1  -3  487.72   16.92
  -4  -1   3  518.73   16.98
   4   1  -3  492.45   17.05
  -4   1   2  157.69    5.29
   4   1  -2  151.16    5.41
   4  -1  -2  152.51    5.31
   4  -1  -1    1.84    0.22
   4   1  -1    1.41    0.23
  -4   1   0   70.44    2.49
  -4   1   0   77.51    2.62
  -4  -1   0   74.23    2.53
   4   1   0   66.93    2.64
   4   1   1  103.84    3.62
  -4   1  -1  106.40    3.51
  -4   1  -1  111.63    3.60
   4   1   1  104.83    3.70
   4   1   2    7.44    0.41
  -4  -1  -2    4.73    0.32
  -4   1  -2    8.96    0.31
   4   1   2    6.42    0.45
  -4  -1  -2    6.94    0.35
  -4  -1  -2    7.08    0.32
  -4   1  -2    6.98    0.34
   4  -1   2    7.26    0.37
   4   1   3  150.87    5.50
   4  -1   3  168.86    5.49
   4   1   4    8.98    0.46
   4  -1   4    8.91    0.44
   4   1   5    0.20    0.13
   4   1   5    0.08    0.10
   4  -1   5    0.07    0.11
   4   1   6    7.72    0.46
   4  -1   6    8.28    0.43
   4   1   7   25.40    1.13
   4  -1   7   26.75    1.07
   4   1   7   27.92    1.13
   4  -1   8  128.00    4.71
   4   1   8  129.56    4.75
   4   1   8  132.13    4.69
   4  -1   8  142.75    4.67
   4  -1   9  180.96    6.68
   4  -1   9  204.19    6.63
   4   1   9  184.61    6.71
   4   1   9  193.80    6.64
   4  -1  10   89.26    3.36
   4   1  10   87.85    3.38
   4   1  10   95.30    3.32
   4  -1  11    9.99    0.62
   4   1  11   10.12    0.65
  -4   1 -11    9.74    0.52
   4   1  11    9.90    0.59
   4  -1  12    0.37    0.20
   4   1  12   -0.05    0.21
  -4   1 -12    0.14    0.18
  -4  -1 -12    0.34    0.18
   4  -1  13    1.00    0.23
   4   1  13    0.51    0.22
  -4   1 -13    0.89    0.20
  -4  -1 -13    0.87    0.18
   4  -1  14   12.19    0.65
   4   1  14   11.23    0.66
  -4   1 -14   12.74    0.61
  -4  -1 -14   12.91    0.60
   4  -1  15    6.19    0.38
   4   1  15    6.10    0.40
  -4   1 -15    6.51    0.37
  -4  -1 -15    7.07    0.37
  -4   2  16    1.57    0.22
   4   2 -16    1.69    0.17
  -4  -2  15    6.89    0.55
   4   2 -15    5.58    0.39
   4   2 -14    0.87    0.24
  -4  -2  14    0.97    0.36
   4  -2 -13   10.04    0.58
   4   2 -13    9.49    0.63
   4   2 -12   77.58    3.02
   4  -2 -12   80.04    2.94
   4  -2 -11   26.92    1.18
  -4  -2  11   29.02    1.39
   4  -2 -10   73.79    2.74
  -4  -2  10   79.72    2.93
   4  -2  -9   13.48    0.71
   4   2  -9   13.39    0.80
   4  -2  -8   72.71    2.71
   4  -2  -8   74.83    2.67
   4   2  -8   73.73    2.84
   4  -2  -7   68.95    2.51
   4  -2  -7   73.49    2.50
   4  -2  -6  103.51    3.64
   4  -2  -5  201.80    6.92
  -4  -2   4 2755.23   91.86
  -4  -2   4 2744.10   91.87
   4  -2  -4 2765.43   91.83
  -4   2   3 1145.78   38.53
  -4  -2   3 1140.93   38.55
   4  -2  -3 1175.60   38.56
  -4   2   2  572.02   18.97
   4  -2  -2  582.21   19.05
   4   2  -2  532.52   19.11
  -4   2   1    0.76    0.11
   4  -2  -1    0.42    0.19
  -4  -2   1    0.45    0.13
   4   2  -1    0.49    0.21
  -4   2   0  306.98    9.57
  -4   2   0  280.21    9.40
   4  -2   0  304.67    9.57
   4   2   0  289.99    9.58
   4   2   1    8.47    0.45
  -4   2  -1    8.89    0.46
  -4   2  -1    7.45    0.37
   4   2   1    7.58    0.50
  -4  -2  -1    7.31    0.43
   4   2   2   15.42    0.66
  -4   2  -2   16.12    0.66
   4   2   3   45.26    1.77
   4  -2   3   49.55    1.69
   4   2   3   45.76    1.85
   4   2   4  230.88    7.89
   4  -2   4  239.15    7.82
   4   2   4  215.94    7.95
   4   2   5   16.80    0.79
   4   2   5   18.26    0.84
   4  -2   5   18.99    0.74
   4   2   5   17.98    0.86
   4   2   6    3.84    0.35
   4  -2   6    4.54    0.29
   4   2   6    4.02    0.36
   4   2   7   11.22    0.62
   4  -2   7   10.43    0.52
   4   2   7    9.42    0.55
   4  -2   8   59.17    2.30
   4   2   8   63.28    2.39
   4   2   8   59.25    2.28
   4  -2   8   62.76    2.25
   4  -2   9   49.74    1.96
   4   2   9   51.60    2.03
  -4   2  -9   47.97    1.82
   4   2   9   50.65    1.91
   4  -2  10   12.57    0.72
   4   2  10   13.01    0.67
   4   2  10   12.96    0.77
  -4   2 -10   12.85    0.61
   4  -2  11    4.82    0.41
   4   2  11    4.86    0.46
  -4   2 -11    4.65    0.33
   4   2  11    4.62    0.38
   4  -2  12    0.50    0.21
   4   2  12    0.89    0.27
  -4   2 -12    0.17    0.17
  -4  -2 -12    0.41    0.16
   4  -2  13    9.56    0.58
   4   2  13    9.42    0.61
  -4   2 -13    9.50    0.51
  -4  -2 -13    9.74    0.49
   4  -2  14    0.84    0.18
   4   2  14    1.09    0.22
  -4   2 -14    1.13    0.18
  -4  -2 -14    1.12    0.17
   4   2  15    0.86    0.16
  -4   2 -15    0.83    0.12
  -4  -2 -15    0.87    0.13
  -4  -3  14    0.06    0.32
   4  -3 -14    0.17    0.14
   4  -3 -13   10.94    0.59
   4  -3 -12   37.04    1.51
   4   3 -11    3.65    0.45
   4  -3 -11    4.46    0.39
  -4  -3  11    4.51    0.59
   4   3 -10    1.39    0.33
   4   3 -10    1.25    0.21
  -4  -3  10    1.66    0.44
   4  -3 -10    1.96    0.28
   4   3  -9    0.84    0.31
  -4  -3   9    1.68    0.41
   4  -3  -9    1.33    0.24
   4  -3  -9    1.50    0.24
   4   3  -8    3.79    0.44
   4  -3  -8    3.75    0.34
  -4  -3   8    4.27    0.50
   4  -3  -8    4.57    0.36
   4  -3  -7    4.29    0.34
  -4  -3   7    3.71    0.45
   4  -3  -7    3.72    0.34
   4   3  -7    4.22    0.45
   4   3  -6    8.15    0.59
  -4  -3   6    8.01    0.58
   4  -3  -6    7.29    0.45
   4  -3  -6    7.50    0.45
   4   3  -5   36.30    1.49
  -4  -3   5   36.66    1.57
   4  -3  -5   38.35    1.48
   4   3  -5   39.78    1.63
   4   3  -4   25.11    1.09
  -4  -3   4   24.21    1.15
   4  -3  -4   26.03    1.09
   4   3  -4   28.40    1.23
   4   3  -3   30.02    1.13
  -4  -3   3   22.97    1.13
   4  -3  -3   26.17    1.11
   4  -3  -3   25.32    1.10
   4   3  -3   27.81    1.21
   4   3  -2   17.63    0.78
  -4  -3   2   14.86    0.79
   4  -3  -2   17.00    0.80
   4   3  -2   17.71    0.87
   4  -3  -2   17.40    0.77
   4   3  -1   28.50    1.12
  -4   3   1   26.56    1.12
   4  -3  -1   25.93    1.15
   4  -3  -1   25.88    1.09
   4   3  -1   28.47    1.20
   4   3   0    3.59    0.31
   4   3   0    3.80    0.36
   4  -3   0    2.88    0.25
   4   3   1  123.09    4.27
   4   3   1  121.36    4.39
   4   3   2    0.46    0.25
   4   3   3   93.17    3.40
   4   3   3  101.65    3.52
   4   3   4    0.69    0.21
   4   3   4    0.86    0.24
   4   3   5   -0.03    0.20
   4   3   6    8.96    0.60
   4   3   6    8.93    0.54
   4   3   7   29.91    1.35
   4   3   7   28.58    1.20
   4   3   8   29.28    1.33
  -4   3  -8   27.33    1.08
   4   3   8   27.49    1.15
   4   3   9   51.34    2.11
  -4   3  -9   51.37    1.88
   4   3   9   49.74    1.92
   4  -3  10   10.63    0.66
   4   3  10   11.66    0.74
  -4   3 -10   11.77    0.58
   4   3  10   12.30    0.61
   4  -3  11   40.25    1.66
   4   3  11   39.94    1.74
  -4   3 -11   40.69    1.55
   4  -3  12   10.36    0.59
   4   3  12   10.00    0.65
  -4   3 -12    9.97    0.51
  -4  -3 -12   10.17    0.48
   4   3  13    2.71    0.32
  -4   3 -13    2.88    0.23
  -4  -3 -13    3.32    0.22
   4   3  14   -0.02    0.15
  -4  -3 -14   -0.05    0.08
   4   4 -14    0.38    0.13
   4   4 -13    0.01    0.17
   4  -4 -13    0.04    0.12
   4  -4 -12    3.41    0.30
   4   4 -12    3.22    0.33
   4   4 -11    0.81    0.28
  -4  -4  11    0.74    0.42
   4  -4 -11    0.81    0.21
  -4  -4  10   22.84    1.27
   4  -4 -10   23.04    1.02
   4   4 -10   21.44    1.08
  -4  -4   9   11.91    0.88
   4  -4  -9   11.04    0.63
   4   4  -9   10.15    0.69
   4  -4  -8    3.18    0.32
  -4  -4   8    4.41    0.58
   4   4  -8    4.10    0.44
   4   4  -7   18.63    0.83
  -4  -4   7   19.85    1.13
   4  -4  -7   20.09    0.93
   4   4  -7   20.88    1.04
   4   4  -6    2.58    0.39
   4   4  -6    2.93    0.27
  -4  -4   6    3.12    0.49
   4  -4  -6    2.42    0.27
   4   4  -5   18.98    0.85
   4   4  -5   19.91    1.00
   4   4  -4   13.26    0.64
   4   4  -4   11.46    0.71
   4   4  -3   48.86    1.78
   4   4  -3   49.07    1.90
   4  -4  -3   49.10    1.88
   4   4  -2    6.80    0.42
   4  -4  -2    6.22    0.46
   4   4  -2    6.72    0.49
   4  -4  -2    6.45    0.45
   4   4  -1   11.28    0.58
   4  -4  -1   10.72    0.63
   4   4  -1   11.84    0.66
   4  -4  -1   11.20    0.62
   4   4   0    4.94    0.36
   4  -4   0    5.31    0.44
   4   4   0    5.69    0.44
   4  -4   0    4.76    0.37
   4  -4   1   81.97    3.17
   4  -4   1   86.30    3.27
   4   4   2   13.24    0.63
   4  -4   2   13.07    0.76
   4   4   2   14.21    0.73
   4  -4   2   11.95    0.63
   4   4   3    3.41    0.31
   4   4   3    2.99    0.32
   4   4   4   51.72    1.97
   4   4   5    0.64    0.20
   4   4   6   92.90    3.31
   4   4   6   81.73    3.02
   4   4   7    7.86    0.63
   4   4   7    8.20    0.45
   4   4   8   39.92    1.77
   4   4   8   40.76    1.53
   4   4   9    2.48    0.39
   4   4   9    2.43    0.22
   4   4  10    6.62    0.54
   4   4  11    1.65    0.31
  -4  -4 -11    1.98    0.16
   4   4  12    0.07    0.20
   4   4  13    6.94    0.44
   4   5 -12    0.08    0.11
   4   5 -11    0.49    0.17
   4  -5 -11    0.41    0.14
   4  -5 -10    7.03    0.43
   4   5 -10    7.28    0.47
   4  -5  -9   10.06    0.55
   4   5  -9    9.53    0.58
   4   5  -8    0.52    0.24
   4  -5  -8    0.56    0.20
   4  -5  -8    0.49    0.18
   4  -5  -7   33.43    1.36
   4  -5  -7   31.91    1.31
   4   5  -7   32.40    1.40
   4  -5  -6   37.42    1.50
   4  -5  -6   36.04    1.47
   4   5  -6   38.74    1.57
   4  -5  -5    2.47    0.29
   4   5  -5    2.23    0.31
   4   5  -4    5.30    0.32
   4  -5  -4    4.82    0.38
   4   5  -4    4.71    0.41
   4   5  -3  131.51    4.61
   4  -5  -3  129.96    4.70
   4   5  -3  140.97    4.78
   4  -5  -3  134.98    4.81
   4   5  -2    1.55    0.21
   4  -5  -2    1.54    0.29
  -4  -5   2    1.29    0.24
   4  -5  -2    1.32    0.27
   4   5  -2    1.44    0.27
   4   5  -1   12.62    0.60
  -4  -5   1   11.50    0.62
   4  -5  -1   12.31    0.68
   4   5  -1   13.30    0.70
   4  -5  -1   12.64    0.71
   4   5   0   72.85    2.51
   4  -5   0   65.23    2.60
   4  -5   0   69.07    2.63
   4  -5   1  119.99    4.49
   4  -5   1  124.13    4.49
   4   5   1  132.82    4.48
   4  -5   2  171.30    6.05
   4  -5   2  168.47    5.99
   4   5   2  174.26    5.95
   4  -5   3    5.12    0.47
   4   5   3    4.63    0.34
   4  -5   3    5.39    0.38
   4  -5   4   20.98    1.05
   4  -5   5    0.42    0.27
  -4  -5  -5    0.19    0.15
   4   5   6    5.07    0.51
   4  -5   6    3.81    0.46
   4   5   7   30.82    1.46
   4  -5   7   31.94    1.43
   4   5   8   10.61    0.72
   4  -5   8   11.15    0.70
   4   5   9    0.49    0.27
   4  -5   9    0.34    0.26
   4   5  10   -0.03    0.20
   4  -5  10    0.19    0.21
   4   5  11    1.40    0.24
   4  -5  11    1.13    0.21
   4   5  12    8.77    0.47
  -4  -6  11    0.12    0.14
  -4  -6  10    0.68    0.20
  -4  -6   9   -0.02    0.20
  -4  -6   8    0.89    0.25
  -4  -6   7    3.48    0.36
   4  -6  -7    2.68    0.24
  -4  -6   6   11.21    0.65
   4  -6  -6   10.56    0.54
  -4  -6   5   12.84    0.70
   4  -6  -5   12.46    0.61
  -4  -6   4    1.94    0.29
   4  -6  -4    1.97    0.23
  -4  -6   3    2.87    0.31
   4  -6  -3    2.55    0.26
   4  -6  -3    3.33    0.35
  -4  -6   2   54.36    2.13
   4  -6  -2   57.91    2.13
   4  -6  -2   58.96    2.23
   4  -6  -1    2.36    0.30
  -4  -6   1    2.02    0.23
   4  -6  -1    2.41    0.27
   4  -6   0    3.46    0.33
   4  -6   0    3.09    0.31
   4  -6   1    0.01    0.18
   4  -6   1    0.07    0.18
   4  -6   2    1.76    0.25
   4  -6   2    1.99    0.27
   4  -6   3   34.53    1.38
   4  -6   3   32.58    1.36
   4  -6   4   37.33    1.51
  -4  -6  -5   26.03    1.08
   4  -6   5   25.32    1.11
   4   6   6    6.42    0.52
   4  -6   6    6.06    0.42
   4   6   7    1.53    0.29
   4  -6   7    1.81    0.24
   4   6   8    0.67    0.22
   4  -6   8    1.00    0.18
   4   6   9   -0.04    0.15
   4  -6   9    0.06    0.10
   4   6  10    0.71    0.17
  -4  -7   8   -0.03    0.09
  -4  -7   7   11.70    0.54
  -4  -7   6    3.29    0.26
  -4  -7   5    6.53    0.38
   4  -7  -5    6.16    0.32
  -4  -7   4    0.73    0.16
   4  -7  -4    0.81    0.13
  -4  -7   3    0.08    0.12
   4  -7  -3    0.05    0.10
   4  -7  -2    6.25    0.34
   4  -7  -1    0.13    0.15
   4  -7  -1    0.01    0.11
   4  -7   0    0.11    0.15
   4  -7   0    0.28    0.12
   4  -7   1    0.66    0.16
   4  -7   1    0.84    0.14
   4  -7   2   11.23    0.52
   4  -7   2   11.77    0.57
   4  -7   3    2.97    0.21
  -4  -7  -3    2.68    0.23
   4  -7   4    1.12    0.14
  -4  -7  -4    1.43    0.17
   4   7   5    5.23    0.39
   4   7   6    1.81    0.23
   4   7   7    0.71    0.16
   4   7   8    0.16    0.09
   4   8   2    0.87    0.14
   4   8   3    4.67    0.27
   5   0 -14    3.28    0.26
   5   0 -13    0.09    0.15
   5   0 -12    0.09    0.18
   5   0 -11    0.14    0.21
   5   0 -10   22.70    1.10
   5   0  -9    0.18    0.23
   5   0  -8   55.37    2.22
   5   0  -7    0.04    0.20
   5   0  -6    1.25    0.28
   5   0  -5   -0.05    0.20
   5   0  -4   31.77    1.36
   5   0  -3    0.01    0.17
  -5   0   2    1.20    0.15
   5   0  -2    1.02    0.20
   5   0  -1    0.02    0.17
   5   0   0  757.37   25.47
   5   0   1   -0.01    0.18
   5   0   1   -0.06    0.18
   5   0   2  279.75    9.85
   5   0   2  301.86    9.89
   5   0   3   -0.05    0.19
   5   0   3    0.17    0.16
   5   0   4  335.43   11.61
   5   0   4  356.94   11.70
   5   0   5    0.17    0.20
   5   0   6   17.11    0.79
   5   0   7   -0.08    0.21
   5   0   8  825.61   27.71
   5   0   9    0.08    0.22
   5   0  10   11.09    0.63
  -5   0 -12   58.20    2.13
  -5   0 -13   -0.04    0.15
  -5   0 -14   31.91    1.23
  -5   0 -15    0.05    0.09
   5   1 -15    6.35    0.35
  -5  -1  14   14.07    0.81
   5   1 -14   14.65    0.71
  -5  -1  13   66.54    2.60
   5   1 -13   63.40    2.47
   5   1 -12    2.12    0.33
   5   1 -11   14.95    0.87
   5  -1 -10   41.96    1.69
   5   1 -10   42.68    1.82
   5  -1  -9   20.52    0.96
   5   1  -9   19.76    1.06
   5  -1  -8   21.30    1.00
   5   1  -8   22.15    1.14
   5  -1  -7    5.29    0.33
   5  -1  -7    6.15    0.44
   5   1  -7    5.66    0.52
   5  -1  -6  171.17    5.99
   5  -1  -6  171.93    6.10
   5  -1  -5   30.36    1.17
   5  -1  -5   28.34    1.23
   5  -1  -4   56.80    2.04
   5  -1  -4   54.38    2.08
   5   1  -4   56.08    2.24
   5  -1  -3   30.65    1.17
   5  -1  -3   28.16    1.18
   5   1  -3   28.55    1.30
   5  -1  -2   17.62    0.79
   5  -1  -2   18.88    0.82
   5   1  -2   17.43    0.90
   5  -1  -1   28.74    1.15
   5  -1  -1   27.74    1.10
   5   1   0  112.70    4.04
   5  -1   0  116.33    4.08
   5   1   0  108.92    4.12
   5  -1   0  116.53    3.99
   5   1   1  167.62    5.74
   5  -1   1  154.08    5.70
   5  -1   1  173.99    5.69
   5   1   2  299.17   10.53
   5  -1   2  323.80   10.50
   5   1   2  302.28   10.61
   5   1   3   45.49    1.81
   5  -1   3   50.23    1.80
   5   1   3   47.75    1.87
   5   1   4    5.49    0.39
   5  -1   4    5.56    0.36
   5   1   4    5.71    0.43
   5   1   5   28.40    1.19
   5  -1   5   31.56    1.20
   5   1   5   31.29    1.29
   5  -1   6   21.47    0.91
   5  -1   7    0.96    0.20
   5   1   8   27.97    1.25
   5  -1   8   32.68    1.25
   5   1   9    5.31    0.40
   5  -1   9    5.60    0.40
   5   1  10    5.44    0.42
   5   1  10    6.29    0.45
   5   1  11   11.25    0.65
  -5   1 -11   12.78    0.59
   5   1  11   12.94    0.67
   5   1  12    7.07    0.45
  -5   1 -12    7.28    0.41
  -5  -1 -12    7.20    0.42
   5   1  13    2.54    0.25
  -5   1 -13    2.93    0.25
  -5  -1 -13    3.04    0.25
  -5   1 -14    0.18    0.12
  -5  -1 -14    0.21    0.12
   5   2 -15    4.96    0.30
  -5  -2  14   37.17    1.54
   5   2 -14   32.78    1.37
  -5  -2  13   50.93    2.05
   5   2 -13   46.43    1.91
  -5  -2  12  164.49    5.75
   5   2 -12  154.18    5.65
   5   2 -11    3.92    0.44
   5  -2 -11    4.13    0.33
  -5  -2  11    3.99    0.50
  -5  -2  10   14.70    0.92
   5   2 -10   16.53    0.92
  -5  -2   9   28.88    1.35
   5   2  -9   27.73    1.36
   5   2  -8    0.76    0.31
  -5  -2   8    0.54    0.30
   5  -2  -8    0.66    0.19
  -5  -2   7    3.68    0.42
   5  -2  -7    3.56    0.30
   5   2  -7    4.33    0.48
  -5  -2   6  108.27    3.90
   5  -2  -6  104.17    3.77
   5   2  -6  112.30    4.04
  -5  -2   5   26.28    1.18
   5  -2  -5   26.92    1.11
   5   2  -5   28.70    1.33
  -5  -2   4    9.24    0.54
   5  -2  -4    9.44    0.52
   5   2  -4   10.25    0.69
   5  -2  -3   14.82    0.72
   5  -2  -2   15.86    0.76
   5  -2  -1    2.55    0.31
   5   2   0  111.58    4.04
   5  -2   0  117.00    4.12
   5   2   1   54.53    2.02
   5  -2   1   51.83    2.11
   5   2   2   10.35    0.69
   5   2   2   13.19    0.64
   5   2   3   21.48    0.95
   5  -2   3   22.71    0.87
   5   2   3   20.70    1.02
   5   2   4   49.96    1.90
   5  -2   4   51.68    1.83
   5   2   4   48.56    1.97
   5   2   5    1.62    0.26
   5   2   5    1.77    0.31
   5  -2   5    1.97    0.19
   5   2   6   23.55    1.02
   5  -2   6   23.17    0.94
   5   2   6   22.56    1.06
   5   2   7   34.35    1.46
   5  -2   7   37.67    1.40
   5   2   7   34.92    1.47
   5   2   8  135.31    4.93
   5  -2   8  140.90    4.82
   5   2   8  138.58    4.89
   5   2   9   29.73    1.29
  -5   2  -9   29.27    1.15
   5   2   9   30.03    1.24
   5   2  10    6.00    0.45
  -5   2 -10    5.95    0.36
   5   2  10    6.22    0.43
   5   2  11    9.82    0.58
  -5   2 -11    9.53    0.49
   5   2  11   10.57    0.55
   5   2  12    5.32    0.39
  -5   2 -12    5.20    0.34
  -5  -2 -12    5.95    0.34
   5   2  13    7.81    0.45
  -5   2 -13    8.53    0.42
  -5  -2 -13    8.77    0.42
  -5  -2 -14    0.36    0.11
   5   3 -14    0.18    0.13
  -5  -3  13    3.11    0.45
  -5  -3  12    4.96    0.55
  -5  -3  11   29.28    1.44
   5   3 -10    0.19    0.17
  -5  -3  10    0.25    0.33
   5   3  -9    2.80    0.30
  -5  -3   9    2.86    0.45
   5   3  -8   -0.21    0.24
  -5  -3   8   -0.02    0.30
   5  -3  -8    0.01    0.19
   5   3  -7   16.47    0.83
  -5  -3   7   16.95    0.95
   5  -3  -7   17.00    0.79
   5   3  -7   16.28    0.96
   5   3  -6   28.37    1.22
  -5  -3   6   27.81    1.33
   5  -3  -6   27.91    1.18
   5   3  -6   28.97    1.37
   5   3  -5    5.67    0.45
  -5  -3   5    5.10    0.48
   5  -3  -5    5.75    0.41
   5   3  -5    5.87    0.56
   5   3  -4   33.74    1.40
  -5  -3   4   32.37    1.46
   5  -3  -4   35.40    1.40
   5   3  -4   34.19    1.53
   5   3  -3    7.10    0.49
   5  -3  -3    7.60    0.50
   5   3  -3    6.88    0.56
   5   3  -2    6.44    0.47
   5  -3  -2    6.50    0.47
   5   3  -2    7.28    0.56
   5   3  -1   36.39    1.43
   5  -3  -1   34.14    1.47
   5   3  -1   35.20    1.54
   5  -3   0   64.98    2.55
   5   3   0   68.16    2.59
   5  -3   1   17.53    0.93
   5   3   2  143.80    4.97
   5   3   2  144.15    5.11
   5  -3   2  138.02    5.12
   5   3   3  167.25    5.73
   5   3   3  162.27    5.82
   5   3   4    3.03    0.38
   5   3   4    3.14    0.33
   5   3   4    4.01    0.35
   5   3   5    6.33    0.45
   5   3   5    5.81    0.47
   5   3   6    0.87    0.22
   5   3   6    0.64    0.24
   5   3   7   19.17    0.94
   5   3   7   18.48    0.88
   5   3   8    0.02    0.17
   5   3   8    0.01    0.17
   5   3   9    7.89    0.55
   5   3   9    8.76    0.48
   5   3  10    0.71    0.20
   5   3  10    0.38    0.16
   5   3  11    0.27    0.17
   5   3  12    0.34    0.16
  -5  -3 -12    0.33    0.11
   5   3  13    8.10    0.44
  -5  -3 -13    9.64    0.40
   5   4 -13    3.09    0.24
   5   4 -12    1.81    0.24
   5   4 -11    0.15    0.19
   5   4 -10    0.84    0.24
   5   4  -9   11.10    0.69
   5   4  -8   -0.02    0.25
   5   4  -8    0.02    0.14
   5  -4  -8    0.06    0.19
   5   4  -7    0.25    0.27
   5   4  -7    0.32    0.17
   5  -4  -7    0.46    0.22
   5   4  -6   17.32    0.80
   5  -4  -6   17.65    0.83
   5   4  -6   17.93    0.95
   5   4  -5    3.79    0.34
   5  -4  -5    3.91    0.35
   5   4  -5    3.29    0.41
   5   4  -4    6.30    0.43
   5  -4  -4    6.70    0.46
   5   4  -4    6.16    0.53
   5   4  -3    1.07    0.27
   5  -4  -3    0.93    0.27
   5   4  -3    0.99    0.30
   5   4  -2  139.99    4.94
   5   4  -2  143.76    5.09
   5   4  -1   57.98    2.20
   5   4  -1   61.01    2.35
   5   4   0  333.61   11.33
   5   4   1  156.17    5.39
   5   4   1  153.82    5.51
   5   4   2    1.74    0.32
   5   4   2    1.87    0.28
   5   4   3    1.20    0.27
   5  -4   4   69.80    2.96
   5   4   4   82.96    2.88
   5   4   5    3.16    0.37
   5   4   5    3.05    0.32
   5   4   6    2.05    0.31
   5   4   6    2.56    0.26
   5   4   7   36.04    1.56
   5   4   7   36.02    1.40
   5   4   8   22.06    1.10
   5   4   8   24.59    0.97
   5   4   9    0.61    0.21
   5   4   9    0.49    0.13
   5   4  10    0.52    0.19
   5   4  11   14.96    0.69
  -5  -4 -11   13.48    0.54
   5   4  12    5.27    0.33
   5  -4  12    5.99    0.39
   5   5 -11   10.00    0.48
   5   5 -10    8.85    0.48
   5   5  -9   10.97    0.59
   5   5  -8   -0.08    0.17
   5   5  -7    2.23    0.29
   5   5  -6   10.24    0.47
   5   5  -6   10.24    0.62
   5   5  -5    0.14    0.13
   5   5  -5    0.53    0.23
   5   5  -4   25.89    1.02
  -5  -5   4   25.50    1.12
   5  -5  -4   23.81    1.09
   5   5  -4   28.10    1.20
   5   5  -3    6.74    0.40
   5  -5  -3    6.40    0.46
   5   5  -3    6.58    0.50
   5   5  -2   44.58    1.69
   5  -5  -2   43.70    1.79
   5   5  -2   48.15    1.85
   5   5  -1   73.49    2.61
   5  -5  -1   71.05    2.71
   5   5   0    5.21    0.37
   5   5   0    5.56    0.44
   5  -5   0    5.37    0.45
   5  -5   0    4.26    0.35
   5  -5   1   18.86    0.94
   5   5   1   19.40    0.90
   5  -5   2   35.25    1.49
   5   5   2   34.71    1.40
   5  -5   3    3.81    0.40
   5   5   3    3.66    0.31
   5  -5   4    2.24    0.36
   5   5   4    2.45    0.24
   5   5   5    2.52    0.34
   5  -5   5    2.58    0.39
   5   5   5    2.44    0.21
   5   5   6   34.93    1.43
   5  -5   6   31.67    1.41
   5   5   6   30.60    1.18
   5   5   7    8.90    0.58
   5  -5   7    8.86    0.59
   5   5   8    1.71    0.26
   5  -5   8    1.67    0.29
   5   5   9    1.11    0.21
   5  -5   9    1.26    0.26
   5   5  10    7.46    0.43
   5  -5  10    8.25    0.47
   5  -5  11    0.93    0.14
  -5  -6   9    1.65    0.17
  -5  -6   8    2.90    0.25
  -5  -6   7    0.34    0.15
  -5  -6   6    0.89    0.18
   5  -6  -6    0.81    0.17
  -5  -6   5    6.71    0.41
   5  -6  -5    7.51    0.41
   5  -6  -4    8.29    0.45
   5  -6  -3   14.03    0.68
   5   6  -3   15.82    0.71
   5  -6  -2    6.33    0.41
   5   6  -2    6.94    0.41
   5   6  -1    1.78    0.20
   5  -6  -1    1.58    0.23
   5  -6   0   -0.07    0.18
   5  -6   1    8.40    0.50
   5  -6   2    9.51    0.55
   5  -6   3   31.02    1.27
   5   6   4   23.32    1.03
   5  -6   4   20.62    0.94
   5   6   5   37.32    1.48
   5  -6   5   34.43    1.40
   5   6   6   12.85    0.66
   5  -6   6   12.44    0.61
   5   6   7    1.35    0.21
   5  -6   7    1.52    0.20
   5   6   8    2.96    0.23
   5  -6   8    2.90    0.22
   5  -7  -4    0.08    0.09
   5  -7  -3    0.08    0.09
   5  -7  -2   -0.06    0.10
   5  -7  -1    3.34    0.22
   5  -7   0    2.29    0.19
   5  -7   1    0.82    0.13
   5   7   2   49.46    1.79
   5  -7   2   46.39    1.70
   5   7   3   15.97    0.71
   5  -7   3   15.95    0.64
   5   7   4   20.21    0.82
   5  -7   4   19.61    0.75
   5   7   5   18.64    0.76
  -6   0  14    0.28    0.20
  -6   0  13   -0.02    0.24
   6   0 -12    0.49    0.14
   6   0 -11   -0.02    0.15
   6   0 -10    4.13    0.37
   6   0  -9    0.05    0.19
   6   0  -8   78.53    2.97
   6   0  -7   -0.03    0.20
   6   0  -6   26.84    1.23
   6   0  -5    0.03    0.22
   6   0  -4    1.73    0.29
   6   0  -3   -0.08    0.22
   6   0  -2    9.53    0.60
   6   0  -1   -0.09    0.23
   6   0   0   67.62    2.57
   6   0   0   69.28    2.56
   6   0   1    0.04    0.22
   6   0   1   -0.01    0.21
   6   0   2   44.46    1.78
   6   0   2   48.72    1.81
   6   0   3   -0.01    0.17
   6   0   3   -0.01    0.20
   6   0   4    3.78    0.36
   6   0   5   -0.05    0.20
   6   0   6  322.53   10.98
   6   0   7    0.38    0.23
   6   0   8  332.92   11.33
   6   0   9   -0.18    0.20
   6   0  10    1.27    0.23
  -6   0 -11    0.04    0.12
  -6   0 -12    2.64    0.22
  -6   0 -13   -0.02    0.10
  -6  -1  14   24.26    1.05
  -6   1  14   21.88    1.01
  -6  -1  13   22.51    1.02
   6   1 -13   19.50    0.86
  -6  -1  12   17.86    0.89
   6   1 -12   14.22    0.75
   6   1 -11    2.87    0.34
  -6  -1  11    3.79    0.42
   6   1 -10    1.84    0.31
  -6  -1  10    2.06    0.35
   6   1  -9    8.99    0.63
   6   1  -8    3.34    0.43
   6  -1  -7   37.72    1.44
   6   1  -7   41.32    1.73
   6  -1  -6   80.32    2.86
   6   1  -6   82.94    3.13
   6  -1  -5    0.20    0.12
   6   1  -5   -0.04    0.25
   6  -1  -4   14.95    0.68
   6  -1  -4   15.53    0.75
   6   1  -4   16.20    0.90
   6  -1  -3    3.29    0.28
   6  -1  -3    3.69    0.32
   6   1  -3    2.98    0.40
   6   1  -2   70.45    2.69
   6  -1  -2   70.49    2.59
   6   1  -2   69.30    2.76
   6  -1  -2   73.61    2.60
   6  -1  -1    1.92    0.22
   6   1  -1    1.37    0.33
   6  -1  -1    1.97    0.24
   6   1  -1    2.39    0.36
   6   1   0   18.24    0.86
   6  -1   0   15.55    0.82
   6  -1   0   19.20    0.86
   6  -1   0   16.45    0.76
   6   1   0   17.98    0.90
   6   1   1   18.77    0.87
   6  -1   1   15.65    0.80
   6  -1   1   19.05    0.92
   6  -1   1   18.48    0.80
   6   1   1   18.79    0.93
   6   1   2   68.14    2.63
   6  -1   2   70.79    2.74
   6  -1   2   76.12    2.60
   6   1   2   69.51    2.69
   6   1   3    9.00    0.54
   6  -1   3    9.65    0.50
   6   1   3    9.78    0.60
   6   1   4    6.08    0.41
   6  -1   4    6.35    0.39
   6   1   4    6.70    0.50
   6  -1   5   13.63    0.67
   6   1   5   15.48    0.79
   6  -1   6    1.24    0.21
   6   1   6    1.03    0.27
   6  -1   7  216.41    7.25
   6   1   7  205.08    7.30
   6  -1   8   19.04    0.85
   6  -1   9   25.77    1.06
  -6   1 -10    3.38    0.25
  -6   1 -11    3.48    0.25
  -6   1 -12    6.17    0.33
  -6   1 -13    0.49    0.11
  -6  -2  13    0.79    0.26
   6   2 -13    0.48    0.15
   6   2 -12   12.04    0.58
   6   2 -12   13.21    0.68
   6   2 -11    2.31    0.31
   6   2 -11    1.63    0.25
  -6  -2  11    2.36    0.37
  -6  -2  10    4.80    0.47
   6   2 -10    3.93    0.41
   6   2  -9    3.63    0.43
  -6  -2   9    4.14    0.44
  -6  -2   8   14.11    0.79
   6  -2  -8   12.83    0.62
   6   2  -8   13.56    0.83
  -6  -2   7   26.51    1.20
   6  -2  -7   25.48    1.05
   6   2  -7   24.54    1.27
  -6  -2   6  166.78    5.76
   6  -2  -6  157.79    5.62
   6   2  -6  168.81    5.89
   6   2  -5  139.32    5.08
   6  -2  -5  142.12    4.98
   6   2  -5  150.09    5.23
   6  -2  -4   51.28    1.89
   6   2  -4   53.25    2.11
   6  -2  -3    0.12    0.18
   6   2  -3    0.29    0.30
   6   2  -2    0.18    0.32
   6  -2  -2   -0.04    0.20
   6   2  -1   52.96    2.05
   6  -2  -1   52.54    2.04
   6   2  -1   51.51    2.18
   6   2   0    0.83    0.31
   6  -2   0    0.33    0.25
   6   2   1   36.37    1.43
   6  -2   1   37.91    1.54
   6   2   2    9.41    0.57
   6  -2   2   10.08    0.68
   6   2   3    1.46    0.28
   6   2   4    0.55    0.22
   6  -2   4    0.57    0.13
   6  -2   5   25.81    0.99
   6   2   5   22.64    1.13
   6   2   6   28.23    1.25
   6  -2   6   29.32    1.13
   6  -2   7   19.89    0.83
   6   2   7   19.18    0.92
  -6   2  -8    7.71    0.39
   6   2   8    7.58    0.50
  -6   2  -9    2.81    0.21
   6   2   9    2.89    0.29
  -6   2 -10    0.58    0.12
   6   2  10    0.72    0.19
  -6   2 -11    3.96    0.25
  -6  -2 -12    0.17    0.10
  -6  -2 -13   26.45    0.97
   6   3 -13    0.21    0.12
   6   3 -12    8.39    0.47
   6   3 -11    3.51    0.23
  -6  -3  11    4.08    0.44
   6   3 -11    3.55    0.35
   6   3 -10    1.56    0.20
  -6  -3  10    1.77    0.38
   6   3 -10    1.50    0.29
   6   3  -9    9.53    0.53
  -6  -3   9   10.92    0.72
   6   3  -8    1.27    0.26
  -6  -3   8    1.98    0.38
   6  -3  -8    1.66    0.22
   6   3  -7  100.53    3.73
  -6  -3   7  104.56    3.89
   6  -3  -7  106.96    3.70
   6   3  -6  236.87    8.23
  -6  -3   6  232.37    8.34
   6  -3  -6  244.12    8.18
   6   3  -5  385.07   13.16
   6  -3  -5  388.48   13.13
   6   3  -4   89.68    3.30
   6  -3  -4   90.47    3.27
   6   3  -3    5.61    0.47
   6  -3  -3    5.44    0.44
   6   3  -3    5.46    0.56
   6   3  -2    2.44    0.36
   6  -3  -2    2.78    0.34
   6   3  -2    2.94    0.45
   6  -3  -1   58.49    2.30
   6   3  -1   61.23    2.43
   6  -3   0   18.32    0.92
   6   3   0   16.73    0.96
   6   3   1    2.61    0.46
   6  -3   1    2.99    0.41
   6   3   2   37.08    1.49
   6  -3   2   37.38    1.65
   6   3   2   38.55    1.62
   6   3   3    2.76    0.38
   6   3   3    2.90    0.32
   6  -3   3    3.04    0.43
   6  -3   4   30.68    1.45
   6   3   4   32.28    1.38
   6   3   5   43.30    1.75
   6   3   6   20.39    0.93
   6   3   7    4.29    0.35
   6   3   8    0.25    0.17
   6   3   9    2.75    0.25
   6   3  10    2.91    0.24
  -6  -3 -11    3.18    0.20
  -6  -3 -12    0.37    0.08
   6  -3  12    0.20    0.16
   6   4 -12    0.07    0.09
   6   4 -11    0.60    0.15
   6   4 -10    1.41    0.23
   6   4  -9   13.44    0.56
   6   4  -9   14.02    0.71
   6   4  -8   16.36    0.71
   6  -4  -8   18.05    0.76
   6   4  -8   16.50    0.84
   6   4  -7   17.78    0.78
   6  -4  -7   18.05    0.82
   6   4  -7   18.36    0.92
   6   4  -6    7.66    0.46
   6  -4  -6    8.53    0.50
   6   4  -6    8.73    0.59
   6   4  -5    3.13    0.31
   6  -4  -5    2.50    0.29
   6   4  -5    2.61    0.38
   6   4  -4   52.31    2.00
   6  -4  -4   51.55    2.02
   6   4  -4   55.75    2.16
   6   4  -3    0.21    0.24
   6  -4  -3    0.08    0.23
   6   4  -3    0.39    0.31
   6   4  -2   18.32    0.86
   6  -4  -2   17.54    0.90
   6   4  -2   19.98    1.01
   6   4  -1  171.58    5.86
   6  -4  -1  164.97    5.93
   6   4   0   45.26    1.72
   6  -4   0   42.50    1.80
   6   4   0   45.71    1.86
   6   4   1   77.14    2.89
   6  -4   1   81.06    3.03
   6   4   1   84.89    3.03
   6   4   2    0.37    0.24
   6  -4   2    0.37    0.28
   6   4   3    1.40    0.28
   6  -4   3    1.47    0.33
   6  -4   4    2.82    0.43
   6   4   4    3.47    0.33
   6   4   5    2.30    0.26
   6   4   6    2.24    0.24
   6   4   7   10.29    0.50
   6   4   8    8.30    0.41
   6   4   9   20.01    0.78
  -6  -4 -10   13.25    0.52
   6  -4  11    7.16    0.40
   6   5 -10    2.19    0.18
   6   5  -9    0.52    0.15
   6   5  -8   13.44    0.65
   6  -5  -7   12.97    0.61
   6   5  -7   13.78    0.68
   6   5  -6    0.19    0.10
   6  -5  -6    0.28    0.17
   6   5  -6    0.21    0.18
   6   5  -5    0.13    0.12
   6  -5  -5    0.19    0.18
   6   5  -5    0.36    0.21
   6   5  -4   12.57    0.56
   6  -5  -4   11.74    0.61
   6   5  -3   20.38    0.84
   6   5  -2    0.01    0.23
   6   5  -2    0.03    0.16
   6   5  -1    1.57    0.29
   6   5  -1    1.40    0.23
   6   5   0    6.97    0.46
   6   5   1    2.57    0.28
   6   5   2    0.58    0.19
   6  -5   3    5.33    0.44
   6   5   3    6.07    0.38
   6  -5   4    7.41    0.51
   6   5   4    7.97    0.41
   6  -5   5    2.17    0.29
   6   5   5    1.68    0.17
   6  -5   6    8.15    0.51
   6   5   6    7.88    0.36
   6  -5   7    5.85    0.40
   6  -5   8    0.53    0.17
   6  -5   9    7.69    0.40
   6   6  -7    0.83    0.11
   6  -6  -6    7.03    0.35
   6   6  -6    7.23    0.36
   6  -6  -5    7.74    0.38
   6   6  -5    7.39    0.39
   6  -6  -4    3.10    0.23
   6   6  -4    3.16    0.24
   6  -6  -3    5.97    0.33
   6   6  -3    5.59    0.33
   6  -6  -2    1.85    0.21
   6   6  -2    1.70    0.18
   6  -6  -1    1.40    0.19
   6   6  -1    1.55    0.17
   6  -6   0   13.29    0.62
   6  -6   1    0.16    0.15
   6  -6   2    5.90    0.36
   6  -6   3    0.34    0.15
   6  -6   4    0.85    0.17
   6  -6   5    9.68    0.47
   6  -6   6    3.54    0.24
   6  -6   7    0.02    0.08
   6  -7  -3    2.71    0.16
   6  -7  -2   10.19    0.42
   6  -7  -1    1.90    0.14
   6  -7   0    0.94    0.10
   6  -7   1   15.64    0.60
   7   0 -13   -0.10    0.11
  -7   0  12    9.82    0.54
  -7   0  11   -0.12    0.19
  -7   0  10    0.11    0.19
   7   0  -9    0.10    0.14
   7   0  -8   92.70    3.36
   7   0  -7    0.27    0.20
   7   0  -6   38.16    1.58
   7   0  -5    0.14    0.20
   7   0  -4    0.30    0.20
   7   0  -3    0.04    0.21
   7   0  -3   -0.20    0.32
   7   0  -2  133.25    4.86
   7   0  -2  137.11    4.81
   7   0  -1    0.03    0.21
   7   0  -1    0.06    0.29
   7   0   0  326.90   11.26
   7   0   0  331.51   11.22
   7   0   1    0.02    0.20
   7   0   1   -0.05    0.21
   7   0   2    0.83    0.20
   7   0   2    0.56    0.21
   7   0   3    0.14    0.15
   7   0   3   -0.03    0.19
   7   0   4   25.11    1.06
   7   0   5   -0.03    0.18
   7   0   6    1.46    0.23
   7   0   7    0.17    0.17
   7   0   8    5.19    0.35
   7   0   9   -0.09    0.16
  -7   0 -10    0.56    0.12
  -7   0 -11    0.07    0.09
   7   1 -12    0.49    0.15
  -7  -1  12    0.49    0.18
  -7   1  12    0.74    0.18
   7   1 -12    0.50    0.11
   7   1 -11    9.47    0.52
  -7  -1  11   10.88    0.59
   7   1 -11    9.57    0.50
  -7  -1  10    1.45    0.25
   7   1 -10    1.11    0.20
  -7  -1   9    0.06    0.18
   7   1  -9    0.17    0.18
   7   1  -8   12.54    0.71
   7   1  -7    4.30    0.41
   7   1  -6    0.26    0.22
   7   1  -5    1.14    0.35
   7   1  -5    1.34    0.32
   7   1  -4    0.48    0.31
   7   1  -4    0.94    0.32
   7   1  -3    1.29    0.34
   7   1  -3    2.28    0.37
   7   1  -2   47.23    1.87
   7  -1  -2   43.54    1.85
   7   1  -2   47.44    1.90
   7   1  -1   48.33    1.84
   7  -1  -1   41.12    1.77
   7  -1  -1   44.29    1.72
   7  -1  -1   44.51    1.69
   7   1  -1   49.71    1.90
   7   1   0   12.62    0.72
   7  -1   0   10.57    0.63
   7  -1   0   11.64    0.59
   7   1   0   11.38    0.71
   7   1   1    9.57    0.59
   7  -1   1    9.84    0.57
   7  -1   1   10.49    0.52
   7   1   1    9.45    0.62
   7   1   2   54.93    2.13
   7  -1   2   58.64    2.20
   7  -1   2   56.26    2.06
   7   1   2   55.11    2.18
   7   1   3   10.49    0.59
   7  -1   3   12.51    0.70
   7  -1   3   11.31    0.55
   7   1   3   12.83    0.69
   7   1   4   11.81    0.59
   7  -1   4   12.35    0.73
   7  -1   4   11.63    0.57
   7   1   4   12.95    0.69
   7  -1   5    1.06    0.29
   7  -1   5    1.17    0.19
   7   1   5    0.71    0.25
   7  -1   6  310.75   10.58
   7   1   6  315.48   10.66
   7  -1   7    2.87    0.25
   7   1   7    2.67    0.30
   7  -1   8   22.59    0.93
   7   1   8   23.21    0.97
  -7   1  -9    1.30    0.14
   7   1   9    1.11    0.20
  -7   1 -10   35.05    1.30
   7   1  10   37.22    1.37
  -7   1 -11    1.79    0.14
  -7  -1 -11    1.98    0.16
   7  -1  11    1.90    0.21
  -7  -1 -12    2.63    0.16
   7   2 -12    7.01    0.36
   7   2 -11    0.12    0.13
   7   2 -11    0.04    0.14
   7   2 -10    2.20    0.24
  -7  -2  10    2.29    0.28
   7   2 -10    2.28    0.27
   7   2  -9    0.18    0.20
   7   2  -9    0.19    0.20
   7   2  -8    6.59    0.47
   7   2  -8    6.58    0.51
   7   2  -7    0.33    0.26
   7  -2  -7    0.45    0.12
   7   2  -7    0.45    0.26
   7   2  -6    5.94    0.49
   7  -2  -6    5.65    0.35
   7   2  -6    6.53    0.54
   7  -2  -5    7.58    0.42
   7   2  -5    8.20    0.63
   7  -2  -4    7.20    0.42
   7   2  -4    6.51    0.60
   7   2  -3    0.42    0.31
   7  -2  -3    0.28    0.16
   7   2  -3    0.36    0.29
   7   2  -2    5.37    0.45
   7  -2  -2    5.09    0.39
   7   2  -1   16.62    0.83
   7  -2  -1   15.68    0.79
   7   2  -1   16.38    0.93
   7   2   0    0.18    0.33
   7   2   0    0.72    0.27
   7  -2   0    0.72    0.21
   7   2   1    0.70    0.32
   7   2   1    0.84    0.26
   7  -2   1    0.94    0.24
   7   2   2    7.04    0.47
   7  -2   2    7.73    0.53
   7   2   2    6.43    0.53
   7   2   3    0.12    0.19
   7  -2   3    0.02    0.24
   7   2   3    0.11    0.31
   7  -2   4    0.63    0.27
   7  -2   5    0.52    0.26
   7  -2   6   12.62    0.76
   7  -2   6   12.27    0.54
   7  -2   7    4.92    0.47
   7  -2   8    0.28    0.25
   7   2   8    0.10    0.15
   7  -2   9    1.46    0.28
   7   2   9    1.52    0.20
   7  -2  10    5.63    0.39
   7   2  10    5.14    0.31
  -7  -2 -11    1.80    0.15
   7  -2  11    2.09    0.21
   7   3 -11    5.45    0.33
   7   3 -10    0.43    0.11
   7   3 -10    0.44    0.17
   7   3  -9    0.23    0.14
   7   3  -9    0.15    0.19
   7   3  -8   23.16    0.94
   7   3  -8   22.03    1.04
   7   3  -7    5.61    0.39
   7  -3  -7    5.53    0.34
   7   3  -7    5.44    0.47
   7   3  -6   18.48    0.85
   7  -3  -6   19.01    0.81
   7   3  -6   16.86    0.94
   7   3  -5    0.15    0.24
   7  -3  -5   -0.11    0.16
   7   3  -4   10.93    0.61
   7  -3  -4   10.03    0.55
   7   3  -3   81.19    3.05
   7  -3  -3   86.37    3.05
   7  -3  -2  200.93    6.97
   7  -3  -1   28.56    1.24
   7   3   0   50.82    1.97
   7  -3   0   52.38    2.03
   7   3   1   22.85    0.97
   7  -3   1   23.13    1.04
   7   3   2   35.04    1.38
   7  -3   2   36.40    1.50
   7   3   2   33.18    1.47
   7   3   3    4.25    0.34
   7  -3   3    4.31    0.42
   7   3   3    4.23    0.42
   7  -3   4    1.48    0.31
   7   3   4    1.43    0.30
   7  -3   5   12.28    0.71
   7   3   5   10.79    0.59
   7  -3   6   34.19    1.42
   7   3   6   30.49    1.27
   7  -3   7    2.83    0.35
   7   3   7    2.87    0.25
   7  -3   8    0.20    0.21
   7   3   8    0.21    0.13
   7  -3   9    8.33    0.50
   7   3   9    8.11    0.40
  -7  -3 -10    3.79    0.20
   7  -3  10    3.68    0.29
   7   4 -10    1.54    0.17
   7   4  -9    0.93    0.17
   7   4  -8    1.09    0.13
   7   4  -8    1.23    0.21
   7   4  -7   15.91    0.68
   7  -4  -7   17.47    0.71
   7   4  -7   17.61    0.82
   7   4  -6    0.64    0.17
   7  -4  -6    0.71    0.17
   7   4  -6    0.85    0.24
   7   4  -5   16.40    0.72
   7  -4  -5   15.93    0.73
   7   4  -5   17.50    0.86
   7   4  -4   33.10    1.28
   7  -4  -4   32.34    1.29
   7   4  -3   24.49    1.02
   7  -4  -3   24.46    1.04
   7   4  -3   24.10    1.13
   7   4  -2   24.92    1.03
   7  -4  -2   24.27    1.05
   7   4  -2   24.17    1.14
   7   4  -1   36.43    1.42
   7  -4  -1   35.35    1.47
   7   4  -1   38.48    1.54
   7  -4   0   51.04    1.98
   7   4   0   51.76    2.00
   7  -4   1    4.19    0.39
   7   4   1    4.65    0.39
   7  -4   2   33.40    1.38
   7   4   2   33.26    1.36
   7  -4   3    0.86    0.23
   7   4   3    1.13    0.23
   7  -4   4    3.40    0.34
   7   4   4    3.66    0.30
   7  -4   5    0.31    0.20
   7   4   5    0.19    0.15
   7  -4   6    2.41    0.29
   7   4   6    2.50    0.21
   7  -4   7    4.90    0.36
   7   4   7    4.84    0.27
   7  -4   8    0.09    0.14
   7   4   8   -0.02    0.07
   7  -4   9    0.89    0.14
   7   5  -8    0.12    0.09
   7   5  -7    1.34    0.17
   7   5  -6    0.02    0.14
   7  -5  -6    0.20    0.11
   7   5  -5    2.30    0.24
   7  -5  -5    2.64    0.21
   7   5  -4    2.38    0.19
   7  -5  -4    2.58    0.22
   7   5  -4    2.60    0.26
   7   5  -3    2.67    0.21
   7  -5  -3    3.21    0.25
   7   5  -3    3.11    0.28
   7  -5  -2    7.70    0.42
   7   5  -2    7.68    0.44
   7  -5  -1    3.66    0.30
   7   5  -1    4.35    0.31
   7   5   0    0.08    0.13
   7  -5   0    0.16    0.16
   7  -5   1    2.24    0.25
   7   5   1    2.57    0.23
   7  -5   2    5.39    0.37
   7   5   2    5.37    0.32
   7  -5   3   -0.06    0.16
   7   5   3   -0.03    0.09
   7   5   4    0.46    0.10
   7   5   5    4.29    0.22
   7  -6   0   11.10    0.48
   7  -6   1    0.90    0.12
   7  -6   2    0.09    0.09
   7  -6   3    0.44    0.10
   8   0 -10   16.34    0.71
   8   0  -9    0.13    0.18
   8   0  -8   44.97    1.73
   8   0  -7   -0.14    0.26
   8   0  -6    2.62    0.34
   8   0  -5   -0.01    0.25
   8   0  -4    4.92    0.42
   8   0  -4    4.57    0.32
   8   0  -3    0.02    0.14
   8   0  -3    0.05    0.24
   8   0  -2   15.71    0.79
   8   0  -2   15.60    0.72
   8   0  -1    0.23    0.21
   8   0  -1    0.14    0.16
   8   0   0    6.50    0.42
   8   0   0    6.26    0.40
   8   0   1   -0.04    0.14
   8   0   1    0.01    0.15
   8   0   2    7.87    0.44
   8   0   3   -0.05    0.14
   8   0   4   53.03    1.94
   8   0   5    0.09    0.13
   8   0   6   38.14    1.42
   8   0   7    0.06    0.11
   8   0   8    0.40    0.11
  -8   0  -9    0.13    0.07
   8  -1 -11    1.75    0.16
   8   1 -10    1.08    0.16
   8  -1 -10    0.99    0.17
   8  -1  -9   10.76    0.54
   8   1  -8    0.22    0.12
   8  -1  -8   -0.01    0.19
   8   1  -7    0.18    0.14
   8   1  -7    0.11    0.22
   8  -1  -7    0.19    0.21
   8   1  -6    0.03    0.16
   8   1  -6    0.15    0.22
   8  -1  -6   -0.08    0.23
   8   1  -5    0.89    0.24
   8   1  -5    0.74    0.26
   8  -1  -5    0.92    0.27
   8   1  -4    0.38    0.21
   8   1  -4    0.74    0.28
   8  -1  -4    0.64    0.25
   8   1  -3    1.68    0.28
   8   1  -3    1.90    0.31
   8  -1  -3    1.76    0.27
   8   1  -2   16.69    0.79
   8  -1  -2   14.61    0.73
   8   1  -2   14.56    0.76
   8   1  -1    0.20    0.19
   8   1  -1    0.40    0.23
   8  -1  -1    0.46    0.18
   8   1   0   22.10    0.97
   8   1   0   21.47    0.98
   8   1   1    0.87    0.22
   8   1   1    1.12    0.25
   8   1   2    0.07    0.16
   8  -1   2    0.01    0.09
   8   1   2   -0.01    0.20
   8  -1   3   25.87    1.00
   8   1   3   27.47    1.11
   8  -1   4    2.76    0.20
   8   1   4    2.87    0.28
   8  -1   5  124.46    4.21
   8   1   5  120.58    4.28
   8  -1   6   15.50    0.64
   8   1   6   16.37    0.69
   8   1   7   24.91    0.98
   8   1   8    1.04    0.15
   8   2 -10    0.46    0.10
   8  -2 -10    0.19    0.09
   8   2  -9    0.17    0.11
   8   2  -9    0.19    0.13
   8  -2  -9    0.10    0.12
   8   2  -8   -0.05    0.14
   8   2  -8    0.09    0.15
   8  -2  -8    0.02    0.14
   8   2  -7    4.37    0.32
   8  -2  -7    3.22    0.29
   8   2  -7    3.92    0.32
   8   2  -6    0.24    0.20
   8  -2  -6    0.33    0.17
   8   2  -5    0.12    0.23
   8  -2  -5    0.08    0.16
   8   2  -4    0.42    0.25
   8   2  -4    0.45    0.24
   8  -2  -4    0.31    0.16
   8   2  -3   20.74    0.92
   8   2  -3   19.46    0.97
   8   2  -2    8.30    0.50
   8   2  -2    7.18    0.52
   8   2  -1    0.31    0.25
   8   2  -1    0.39    0.22
   8  -2  -1    0.24    0.12
   8   2   0   10.56    0.55
   8  -2   0    9.58    0.50
   8   2   1    0.80    0.21
   8  -2   1    1.25    0.19
   8   2   1    0.78    0.25
   8   2   2   15.23    0.68
   8  -2   2   14.89    0.70
   8   2   2   13.54    0.74
   8  -2   3   16.71    0.77
   8   2   3   16.42    0.79
   8  -2   4   52.01    1.94
   8   2   4   50.91    1.92
   8  -2   5    5.15    0.35
   8   2   5    5.29    0.35
   8  -2   6   30.66    1.24
   8   2   6   32.41    1.22
   8  -2   7    6.76    0.38
   8  -2   8    0.51    0.11
   8   3  -9    1.46    0.16
   8   3  -8   29.71    1.06
   8   3  -8   27.01    1.11
   8   3  -7   61.37    2.17
   8   3  -7   60.77    2.24
   8   3  -6    2.39    0.26
   8   3  -6    1.43    0.20
   8   3  -5    3.05    0.27
   8  -3  -5    3.24    0.22
   8   3  -5    3.43    0.34
   8  -3  -4    6.91    0.37
   8   3  -4    7.38    0.49
   8  -3  -3   71.22    2.54
   8   3  -3   71.58    2.66
   8   3  -2   35.38    1.36
   8  -3  -2   34.04    1.33
   8   3  -2   35.41    1.45
   8   3  -1   32.78    1.24
   8  -3  -1   31.69    1.24
   8   3  -1   29.81    1.32
   8   3   0    3.07    0.28
   8  -3   0    2.84    0.27
   8   3   1    1.18    0.20
   8  -3   1    1.11    0.20
   8  -3   2    3.38    0.29
   8  -3   3    2.44    0.26
   8  -3   4    1.97    0.23
   8   3   4    1.91    0.21
   8  -3   5    0.14    0.14
   8   3   5    0.11    0.12
   8  -3   6    1.04    0.16
   8   3   6    0.99    0.15
   8  -3   7    0.72    0.12
   8   3   7    0.76    0.12
   8   3   8    1.28    0.12
   8   4  -7   36.58    1.35
   8   4  -6   51.46    1.79
   8   4  -5    0.15    0.11
   8  -4  -5    0.51    0.10
   8   4  -4    0.12    0.12
   8  -4  -4    0.27    0.11
   8   4  -3    0.05    0.16
   8   4  -3    0.09    0.12
   8  -4  -3   -0.06    0.10
   8   4  -2    0.84    0.20
   8   4  -2    1.13    0.17
   8  -4  -2    1.31    0.16
   8  -4  -1   11.56    0.53
   8   4  -1   10.84    0.55
   8  -4   0    1.16    0.17
   8   4   0    0.84    0.18
   8  -4   1    2.32    0.22
   8   4   1    2.47    0.24
   8  -4   2    0.26    0.14
   8   4   2    0.17    0.13
   8  -4   3    0.52    0.14
   8   4   3    0.67    0.13
   8  -4   4    0.61    0.13
   8   4   4    0.64    0.12
   8  -4   5    0.23    0.11
   8   4   5    0.21    0.08
   8  -4   6    1.91    0.15
   8   5  -4    0.05    0.08
   8  -5  -3    5.67    0.26
   8   5  -3    5.16    0.27
   8  -5  -2   -0.01    0.07
   8   5  -2    0.17    0.09
   8  -5  -1    8.22    0.36
   8   5  -1    7.72    0.36
   8  -5   0    0.57    0.10
   8   5   0    0.61    0.10
   8  -5   1    0.15    0.08
   8   5   1    0.11    0.06
   8  -5   2    0.50    0.10
   8  -5   3    0.21    0.07
   9   0  -8    0.76    0.11
   9   0  -7    0.04    0.10
   9   0  -6    0.47    0.13
   9   0  -5    0.11    0.13
   9   0  -4    0.32    0.13
   9   0  -3    0.08    0.13
   9   0  -2    6.35    0.35
   9   0  -1    0.19    0.11
   9   0   1   -0.01    0.08
   9   0   2    7.79    0.35
   9   0   3    0.10    0.07
   9   0   4   79.07    2.72
   9   0   5    0.02    0.06
   9   1  -8    4.93    0.25
   9   1  -7    0.80    0.13
   9   1  -6    0.21    0.12
   9  -1  -6    0.05    0.08
   9   1  -5    4.21    0.27
   9  -1  -5    3.54    0.23
   9   1  -4    3.00    0.24
   9   1  -4    2.58    0.19
   9   1  -3   36.65    1.31
   9   1  -3   32.28    1.27
   9   1  -2   19.84    0.80
   9   1  -2   18.65    0.78
   9   1  -1    5.70    0.33
   9   1  -1    6.27    0.35
   9   1   0    1.57    0.17
   9   1   0    1.60    0.18
   9   1   1    2.50    0.20
   9   1   2    2.50    0.20
   9   1   3    0.40    0.11
   9   1   4    1.08    0.13
   9   1   5    0.16    0.08
   9   1   6   -0.03    0.06
   9   2  -6    5.85    0.29
   9   2  -5   16.88    0.63
   9   2  -5   13.17    0.60
   9   2  -4   79.00    2.56
   9   2  -4   67.16    2.55
   9   2  -3   10.96    0.48
   9   2  -3    9.57    0.48
   9   2  -2   27.15    1.02
   9   2  -2   26.03    1.05
   9   2  -1    3.29    0.24
   9   2  -1    3.52    0.27
   9   2   0   21.49    0.81
   9   2   0   19.55    0.84
   9   2   1    0.13    0.12
   9   2   2    0.67    0.14
   9   2   3    0.64    0.12
   9   2   4   71.85    2.50
   9   2   5    7.91    0.35
   9   3  -5   18.40    0.71
   9   3  -4   18.71    0.73
   9   3  -3    4.05    0.22
   9   3  -3    3.86    0.25
   9   3  -2    0.29    0.10
   9   3  -2    0.32    0.12
   9   3  -1    4.74    0.29
   9   3   0    2.92    0.22
   9   3   1    0.82    0.12
   9   3   2    0.16    0.10
   0   0   0    0.00    0.00


TITL 20210126A in P2(1)/c
REM P2(1)/c (#14 in standard setting)
CELL 1.54184   7.979844   7.252305  14.358658  90.0000  92.4580  90.0000
ZERR   24.00   0.000134   0.000123   0.000215   0.0000   0.0015   0.0000
LATT  1
SYMM -x, y+1/2,-z+1/2
SFAC C H N
UNIT 24.00 24.00 24.00
TREF
HKLF 4
END
_computing_structure_solution     'SHELXT 2014/5 (Sheldrick, 2014)'
;
_shelx_hkl_checksum              9186
_olex2_submission_special_instructions 'No special instructions were received'
_oxdiff_exptl_absorpt_empirical_details
;
Empirical correction (ABSPACK) includes:
- Absorption correction using spherical harmonics
- Frame scaling
;
_oxdiff_exptl_absorpt_empirical_full_max 2.090
_oxdiff_exptl_absorpt_empirical_full_min 0.490
loop_
_space_group_symop_operation_xyz
'x, y, z'
'-x, y+1/2, -z+1/2'
'-x, -y, -z'
'x, -y-1/2, z-1/2'
loop_
_atom_site_label
_atom_site_type_symbol
_atom_site_fract_x
_atom_site_fract_y
_atom_site_fract_z
_atom_site_U_iso_or_equiv
_atom_site_adp_type
_atom_site_occupancy
_atom_site_site_symmetry_order
_atom_site_calc_flag
_atom_site_refinement_flags_posn
_atom_site_refinement_flags_adp
_atom_site_refinement_flags_occupancy
_atom_site_disorder_assembly
_atom_site_disorder_group
C15 C 0.05375(16) 0.4443(2) 0.52887(9) 0.0422(4) Uani 1 1 d . . . . .
C9 C 0.10777(17) 0.5082(2) 0.61910(10) 0.0483(4) Uani 1 1 d . . . . .
C12 C 0.10656(18) 0.2693(2) 0.49727(11) 0.0480(4) Uani 1 1 d . . . . .
N3 N 0.4917(2) 0.8030(3) 0.64042(13) 0.0780(5) Uani 1 1 d . . . . .
N4 N 0.7165(2) 0.2551(3) 0.62122(13) 0.0767(5) Uani 1 1 d . . . . .
C10 C 0.0515(2) 0.6853(3) 0.64883(12) 0.0587(5) Uani 1 1 d . . . . .
H10 H 0.086147 0.728563 0.707515 0.070 Uiso 1 1 calc R U . . .
C11 C -0.0502(2) 0.7905(3) 0.59396(13) 0.0574(5) Uani 1 1 d . . . . .
H11 H -0.084741 0.904581 0.615635 0.069 Uiso 1 1 calc R U . . .
C13 C 0.2112(2) 0.1617(2) 0.55629(13) 0.0591(5) Uani 1 1 d . . . . .
H13 H 0.245993 0.046284 0.536520 0.071 Uiso 1 1 calc R U . . .
C8 C 0.2140(2) 0.3962(3) 0.67435(11) 0.0595(5) Uani 1 1 d . . . . .
H8 H 0.252111 0.437435 0.732812 0.071 Uiso 1 1 calc R U . . .
C6 C 0.6356(2) 0.3644(3) 0.58513(12) 0.0577(5) Uani 1 1 d . . . . .
C4 C 0.5335(2) 0.5093(3) 0.54268(12) 0.0591(5) Uani 1 1 d . . . . .
C5 C 0.5070(2) 0.6768(3) 0.59551(13) 0.0589(5) Uani 1 1 d . . . . .
C7 C 0.2632(2) 0.2251(3) 0.64343(13) 0.0633(5) Uani 1 1 d . . . . .
H7 H 0.332232 0.151685 0.681808 0.076 Uiso 1 1 calc R U . . .
loop_
_atom_site_aniso_label
_atom_site_aniso_U_11
_atom_site_aniso_U_22
_atom_site_aniso_U_33
_atom_site_aniso_U_23
_atom_site_aniso_U_13
_atom_site_aniso_U_12
C15 0.0353(7) 0.0505(8) 0.0411(7) 0.0018(6) 0.0061(5) -0.0032(6)
C9 0.0404(7) 0.0635(10) 0.0410(8) 0.0003(6) 0.0040(6) -0.0038(6)
C12 0.0405(8) 0.0501(8) 0.0538(9) 0.0015(7) 0.0079(6) -0.0025(6)
N3 0.0759(12) 0.0784(12) 0.0792(11) -0.0163(9) -0.0032(9) 0.0024(9)
N4 0.0614(10) 0.0860(12) 0.0819(11) 0.0266(9) -0.0074(8) 0.0113(8)
C10 0.0531(9) 0.0753(12) 0.0478(8) -0.0159(8) 0.0016(7) -0.0033(8)
C11 0.0540(9) 0.0571(10) 0.0615(10) -0.0141(8) 0.0069(7) -0.0001(7)
C13 0.0519(9) 0.0532(9) 0.0727(11) 0.0098(8) 0.0083(8) 0.0044(7)
C8 0.0518(9) 0.0832(13) 0.0432(8) 0.0088(8) -0.0002(7) -0.0023(8)
C6 0.0470(9) 0.0679(11) 0.0576(9) 0.0118(8) -0.0029(7) 0.0015(8)
C4 0.0470(9) 0.0664(11) 0.0637(10) 0.0095(8) -0.0004(7) -0.0007(7)
C5 0.0516(9) 0.0657(11) 0.0592(10) -0.0031(8) -0.0011(7) -0.0017(8)
C7 0.0543(10) 0.0735(12) 0.0618(10) 0.0226(9) 0.0002(8) 0.0043(8)
loop_
_atom_type_symbol
_atom_type_description
_atom_type_scat_dispersion_real
_atom_type_scat_dispersion_imag
_atom_type_scat_source
C C 0.0181 0.0091 'International Tables Vol C Tables 4.2.6.8 and 6.1.1.4'
H H 0.0000 0.0000 'International Tables Vol C Tables 4.2.6.8 and 6.1.1.4'
N N 0.0311 0.0180 'International Tables Vol C Tables 4.2.6.8 and 6.1.1.4'
loop_
_geom_angle_atom_site_label_1
_geom_angle_atom_site_label_2
_geom_angle_atom_site_label_3
_geom_angle
_geom_angle_site_symmetry_1
_geom_angle_site_symmetry_3
_geom_angle_publ_flag
C15 C15 C9 119.84(17) 3_566 . ?
C12 C15 C15 120.19(16) . 3_566 ?
C12 C15 C9 119.97(14) . . ?
C15 C9 C10 118.45(14) . . ?
C8 C9 C15 118.67(15) . . ?
C8 C9 C10 122.89(15) . . ?
C15 C12 C11 118.50(14) . 3_566 ?
C13 C12 C15 118.86(15) . . ?
C13 C12 C11 122.65(16) . 3_566 ?
C9 C10 H10 119.2 . . ?
C11 C10 C9 121.57(15) . . ?
C11 C10 H10 119.2 . . ?
C12 C11 H11 119.3 3_566 . ?
C10 C11 C12 121.45(16) . 3_566 ?
C10 C11 H11 119.3 . . ?
C12 C13 H13 119.6 . . ?
C7 C13 C12 120.71(17) . . ?
C7 C13 H13 119.6 . . ?
C9 C8 H8 119.5 . . ?
C7 C8 C9 120.95(16) . . ?
C7 C8 H8 119.5 . . ?
N4 C6 C4 177.4(2) . . ?
C6 C4 C5 118.62(15) . . ?
C4 C4 C6 120.9(2) 3_666 . ?
C4 C4 C5 120.4(2) 3_666 . ?
N3 C5 C4 176.2(2) . . ?
C13 C7 C8 120.84(16) . . ?
C13 C7 H7 119.6 . . ?
C8 C7 H7 119.6 . . ?
loop_
_geom_bond_atom_site_label_1
_geom_bond_atom_site_label_2
_geom_bond_distance
_geom_bond_site_symmetry_2
_geom_bond_publ_flag
C15 C15 1.419(3) 3_566 ?
C15 C9 1.425(2) . ?
C15 C12 1.418(2) . ?
C9 C10 1.431(2) . ?
C9 C8 1.397(2) . ?
C12 C11 1.434(2) 3_566 ?
C12 C13 1.401(2) . ?
N3 C5 1.129(3) . ?
N4 C6 1.133(2) . ?
C10 H10 0.9300 . ?
C10 C11 1.344(3) . ?
C11 H11 0.9300 . ?
C13 H13 0.9300 . ?
C13 C7 1.380(3) . ?
C8 H8 0.9300 . ?
C8 C7 1.380(3) . ?
C6 C4 1.448(2) . ?
C4 C4 1.323(3) 3_666 ?
C4 C5 1.453(3) . ?
C7 H7 0.9300 . ?
loop_
_geom_torsion_atom_site_label_1
_geom_torsion_atom_site_label_2
_geom_torsion_atom_site_label_3
_geom_torsion_atom_site_label_4
_geom_torsion
_geom_torsion_site_symmetry_1
_geom_torsion_site_symmetry_2
_geom_torsion_site_symmetry_3
_geom_torsion_site_symmetry_4
_geom_torsion_publ_flag
C15 C15 C9 C10 -0.2(2) 3_566 . . . ?
C15 C15 C9 C8 -179.78(15) 3_566 . . . ?
C15 C15 C12 C11 0.6(2) 3_566 . . 3_566 ?
C15 C15 C12 C13 -179.30(15) 3_566 . . . ?
C15 C9 C10 C11 0.1(2) . . . . ?
C15 C9 C8 C7 -1.4(2) . . . . ?
C15 C12 C13 C7 -0.5(2) . . . . ?
C9 C15 C12 C11 -179.85(13) . . . 3_566 ?
C9 C15 C12 C13 0.3(2) . . . . ?
C9 C10 C11 C12 -0.3(3) . . . 3_566 ?
C9 C8 C7 C13 1.2(3) . . . . ?
C12 C15 C9 C10 -179.78(13) . . . . ?
C12 C15 C9 C8 0.6(2) . . . . ?
C12 C13 C7 C8 -0.3(3) . . . . ?
C10 C9 C8 C7 179.04(16) . . . . ?
C11 C12 C13 C7 179.66(16) 3_566 . . . ?
C8 C9 C10 C11 179.71(17) . . . . ?
