#------------------------------------------------------------------------------
#$Date: 2021-12-15 11:08:30 +0200 (Wed, 15 Dec 2021) $
#$Revision: 271440 $
#$URL: file:///home/coder/svn-repositories/cod/cif/1/56/57/1565764.cif $
#------------------------------------------------------------------------------
#
# This file is available in the Crystallography Open Database (COD),
# http://www.crystallography.net/
#
# All data on this site have been placed in the public domain by the
# contributors.
#
data_1565764
loop_
_publ_author_name
'Savchenkov, Anton V.'
'Vologzhanina, Anna V.'
'Pushkin, Denis V.'
'Serezhkina, Larisa B.'
'Serezhkin, Viktor N.'
_publ_section_title
;
 Highly conjugated systems with pedal motion in uranyl crotonate compounds
 with 1,2-bis(4-pyridyl)ethylene as a neutral ligand or a counter cation
;
_journal_name_full               'Inorganica Chimica Acta'
_journal_page_first              119089
_journal_paper_doi               10.1016/j.ica.2019.119089
_journal_volume                  498
_journal_year                    2019
_chemical_formula_moiety         'C32 H30 N4 O6 U'
_chemical_formula_sum            'C32 H30 N4 O6 U'
_chemical_formula_weight         804.63
_space_group_crystal_system      triclinic
_space_group_IT_number           2
_space_group_name_Hall           '-P 1'
_space_group_name_H-M_alt        'P -1'
_atom_sites_solution_hydrogens   geom
_atom_sites_solution_primary     dual
_cell_angle_alpha                96.608(3)
_cell_angle_beta                 91.184(3)
_cell_angle_gamma                99.148(3)
_cell_formula_units_Z            1
_cell_length_a                   7.5075(12)
_cell_length_b                   9.1655(14)
_cell_length_c                   11.1631(17)
_cell_measurement_reflns_used    4868
_cell_measurement_temperature    120
_cell_measurement_theta_max      30.56
_cell_measurement_theta_min      2.27
_cell_volume                     752.7(2)
_computing_molecular_graphics    'Olex2 (Dolomanov et al., 2009)'
_computing_publication_material  'Olex2 (Dolomanov et al., 2009)'
_computing_structure_refinement  'XL (Sheldrick, 2008)'
_computing_structure_solution    'ShelXT (Sheldrick, 2015)'
_diffrn_ambient_temperature      120
_diffrn_measured_fraction_theta_full 1.000
_diffrn_measured_fraction_theta_max 0.990
_diffrn_measurement_device_type  'Bruker APEX-II CCD'
_diffrn_measurement_method       '\f and \w scans'
_diffrn_radiation_type           MoK\a
_diffrn_radiation_wavelength     0.71073
_diffrn_reflns_av_R_equivalents  0.0540
_diffrn_reflns_av_unetI/netI     0.0736
_diffrn_reflns_Laue_measured_fraction_full 1.000
_diffrn_reflns_Laue_measured_fraction_max 0.990
_diffrn_reflns_limit_h_max       10
_diffrn_reflns_limit_h_min       -10
_diffrn_reflns_limit_k_max       13
_diffrn_reflns_limit_k_min       -13
_diffrn_reflns_limit_l_max       16
_diffrn_reflns_limit_l_min       -16
_diffrn_reflns_number            10156
_diffrn_reflns_point_group_measured_fraction_full 1.000
_diffrn_reflns_point_group_measured_fraction_max 0.990
_diffrn_reflns_theta_full        25.242
_diffrn_reflns_theta_max         30.769
_diffrn_reflns_theta_min         1.838
_diffrn_standards_number         0
_exptl_absorpt_coefficient_mu    5.442
_exptl_absorpt_correction_T_max  0.7461
_exptl_absorpt_correction_T_min  0.2654
_exptl_absorpt_correction_type   multi-scan
_exptl_absorpt_process_details
;
SADABS-2014/5 (Bruker,2014/5) was used for absorption correction.
wR2(int) was 0.1368 before and 0.0618 after correction.
The Ratio of minimum to maximum transmission is 0.3557.
The \l/2 correction factor is 0.00150.
;
_exptl_crystal_colour            yellow
_exptl_crystal_colour_primary    yellow
_exptl_crystal_density_diffrn    1.775
_exptl_crystal_description       prism
_exptl_crystal_F_000             390
_exptl_crystal_size_max          0.24
_exptl_crystal_size_mid          0.19
_exptl_crystal_size_min          0.11
_refine_diff_density_max         3.528
_refine_diff_density_min         -2.762
_refine_diff_density_rms         0.215
_refine_ls_extinction_coef       .
_refine_ls_extinction_method     none
_refine_ls_goodness_of_fit_ref   1.036
_refine_ls_hydrogen_treatment    constr
_refine_ls_matrix_type           full
_refine_ls_number_parameters     197
_refine_ls_number_reflns         4654
_refine_ls_number_restraints     0
_refine_ls_restrained_S_all      1.036
_refine_ls_R_factor_all          0.0361
_refine_ls_R_factor_gt           0.0358
_refine_ls_shift/su_max          0.000
_refine_ls_shift/su_mean         0.000
_refine_ls_structure_factor_coef Fsqd
_refine_ls_weighting_details
'w=1/[\s^2^(Fo^2^)+(0.0290P)^2^] where P=(Fo^2^+2Fc^2^)/3'
_refine_ls_weighting_scheme      calc
_refine_ls_wR_factor_gt          0.0796
_refine_ls_wR_factor_ref         0.0799
_reflns_Friedel_coverage         0.000
_reflns_Friedel_fraction_full    .
_reflns_Friedel_fraction_max     .
_reflns_number_gt                4640
_reflns_number_total             4654
_reflns_threshold_expression     'I > 2\s(I)'
_cod_data_source_file            ICA-2019-498-119089.cif
_cod_data_source_block           sam232
_cod_database_code               1565764
_shelx_space_group_comment
;
The symmetry employed for this shelxl refinement is uniquely defined
by the following loop, which should always be used as a source of
symmetry information in preference to the above space-group names.
They are only intended as comments.
;
_shelx_estimated_absorpt_t_max   0.586
_shelx_estimated_absorpt_t_min   0.355
_olex2_refinement_description
;
1. Fixed Uiso
 At 1.2 times of:
  All C(H) groups
 At 1.5 times of:
  All C(H,H,H) groups
2.a Aromatic/amide H refined with riding coordinates:
 C1(H1), C2(H2), C4(H4), C5(H5), C6(H6), C7(H7), C9(H9), C10(H10), C11(H11),
 C12(H12), C14(H14), C15(H15)
2.b Idealised Me refined as rotating group:
 C16(H16A,H16B,H16C)
;
_shelx_res_file
;
TITL sam232_a.res in P-1
REM Old TITL sam232 in P1
REM SHELXT solution in P-1
REM R1 0.043, Rweak 0.276, Alpha 0.038, Orientation as input
REM Formula found by SHELXT: C34 O6 U N2
CELL 0.71073 7.5075 9.1655 11.1631 96.608 91.184 99.148
ZERR 1 0.0012 0.0014 0.0017 0.003 0.003 0.003
LATT 1
SFAC C H N O U
UNIT 32 30 4 6 1

L.S. 4 0 0
PLAN  20
SIZE 0.24 0.19 0.11
TEMP -153.15
list 4
fmap 2 53
acta
REM <olex2.extras>
REM <HklSrc "%.\\sam232.hkl">
REM </olex2.extras>

WGHT    0.029000
FVAR       0.60834
U1    5    0.000000    0.000000    1.000000    10.50000    0.01016    0.01221 =
         0.00768   -0.00062   -0.00003    0.00073
O1    4   -0.127998    0.145462    1.028379    11.00000    0.01806    0.01687 =
         0.01623    0.00069   -0.00114    0.00319
O2    4   -0.036927    0.024581    0.782227    11.00000    0.01988    0.01970 =
         0.01194    0.00053   -0.00161   -0.00370
O3    4   -0.231308   -0.145615    0.852765    11.00000    0.01503    0.02346 =
         0.01138    0.00161   -0.00167   -0.00367
N1    3    0.258174    0.168737    0.913211    11.00000    0.01250    0.01910 =
         0.00852    0.00136    0.00095    0.00212
N2    3    1.329106    0.629130    0.599628    11.00000    0.02368    0.02471 =
         0.02764   -0.00029    0.00595   -0.00558
C1    1    0.411829    0.115784    0.886542    11.00000    0.01618    0.01471 =
         0.01616    0.00330    0.00018    0.00380
AFIX  43
H1    2    0.417516    0.014933    0.896059    11.00000   -1.20000
AFIX   0
C2    1    0.561451    0.201501    0.845989    11.00000    0.01163    0.01789 =
         0.01949    0.00152    0.00030    0.00412
AFIX  43
H2    2    0.667103    0.159359    0.828611    11.00000   -1.20000
AFIX   0
C3    1    0.557774    0.349954    0.830480    11.00000    0.01321    0.01771 =
         0.01323    0.00290    0.00107    0.00029
C4    1    0.399802    0.404932    0.859711    11.00000    0.01959    0.01644 =
         0.02247    0.00266    0.00581    0.00197
AFIX  43
H4    2    0.391336    0.505875    0.852413    11.00000   -1.20000
AFIX   0
C5    1    0.255241    0.312230    0.899397    11.00000    0.01425    0.02223 =
         0.02115    0.00285    0.00364    0.00655
AFIX  43
H5    2    0.148234    0.351884    0.917885    11.00000   -1.20000
AFIX   0
C6    1    0.713946    0.443324    0.785874    11.00000    0.01500    0.01569 =
         0.01944    0.00187    0.00414    0.00120
AFIX  43
H6    2    0.722029    0.548401    0.800320    11.00000   -1.20000
AFIX   0
C7    1    0.845986    0.387428    0.725625    11.00000    0.01551    0.01564 =
         0.02018    0.00092    0.00351   -0.00195
AFIX  43
H7    2    0.832453    0.282132    0.709308    11.00000   -1.20000
AFIX   0
C8    1    1.007976    0.472823    0.682901    11.00000    0.01362    0.01424 =
         0.01564   -0.00068    0.00124    0.00119
C9    1    1.072385    0.621931    0.726404    11.00000    0.02149    0.01428 =
         0.02122   -0.00323    0.00292    0.00122
AFIX  43
H9    2    1.007980    0.673968    0.784910    11.00000   -1.20000
AFIX   0
C10   1    1.230139    0.692308    0.683432    11.00000    0.02773    0.01536 =
         0.02934   -0.00403    0.00446   -0.00712
AFIX  43
H10   2    1.271878    0.792828    0.715440    11.00000   -1.20000
AFIX   0
C11   1    1.266927    0.487021    0.558155    11.00000    0.01782    0.02482 =
         0.02426    0.00015    0.00784    0.00035
AFIX  43
H11   2    1.333821    0.438673    0.498947    11.00000   -1.20000
AFIX   0
C12   1    1.110535    0.405647    0.596273    11.00000    0.01836    0.01558 =
         0.02033   -0.00330    0.00460   -0.00056
AFIX  43
H12   2    1.073510    0.304732    0.563550    11.00000   -1.20000
AFIX   0
C13   1   -0.173229   -0.077812    0.764940    11.00000    0.01317    0.01472 =
         0.01221   -0.00151    0.00126    0.00341
C14   1   -0.267582   -0.119319    0.645445    11.00000    0.01450    0.01961 =
         0.01260   -0.00132   -0.00046    0.00236
AFIX  43
H14   2   -0.360821   -0.203433    0.634418    11.00000   -1.20000
AFIX   0
C15   1   -0.226054   -0.042495    0.552581    11.00000    0.01395    0.02066 =
         0.01412    0.00126    0.00087    0.00206
AFIX  43
H15   2   -0.130122    0.039516    0.564776    11.00000   -1.20000
AFIX   0
C16   1   -0.319450   -0.076103    0.430901    11.00000    0.02400    0.03060 =
         0.01412    0.00309   -0.00038    0.00735
AFIX 137
H16A  2   -0.230794   -0.091779    0.369477    11.00000   -1.50000
H16B  2   -0.379004    0.007631    0.414514    11.00000   -1.50000
H16C  2   -0.409881   -0.166228    0.428810    11.00000   -1.50000
AFIX   0
HKLF 4

REM  sam232_a.res in P-1
REM R1 =  0.0358 for    4640 Fo > 4sig(Fo)  and  0.0361 for all    4654 data
REM    197 parameters refined using      0 restraints

END

WGHT      0.0291      0.0000

REM Highest difference peak  3.528,  deepest hole -2.762,  1-sigma level  0.215
Q1    1   0.0766 -0.0021  0.9463  11.00000  0.05    3.53
Q2    1   0.0885 -0.0249  1.0381  11.00000  0.05    3.41
Q3    1   0.0777  0.0799  1.0082  11.00000  0.05    1.67
Q4    1   0.0353 -0.0857  0.9553  11.00000  0.05    1.30
Q5    1  -0.1435 -0.0916  0.9283  11.00000  0.05    0.97
Q6    1  -0.0890  0.1404  1.1383  11.00000  0.05    0.88
Q7    1  -0.1951  0.0077  1.0165  11.00000  0.05    0.88
Q8    1   0.1831  0.1134  0.8576  11.00000  0.05    0.78
Q9    1   0.0749  0.0390  0.8364  11.00000  0.05    0.77
Q10   1  -0.1009  0.0618  0.8960  11.00000  0.05    0.75
Q11   1  -0.2658 -0.0991  0.2604  11.00000  0.05    0.71
Q12   1   0.1385 -0.0063  0.8672  11.00000  0.05    0.70
Q13   1   0.0514  0.1006  0.9415  11.00000  0.05    0.70
Q14   1   0.1462 -0.0596  0.8160  11.00000  0.05    0.70
Q15   1   0.3183  0.1350  0.8685  11.00000  0.05    0.68
Q16   1   0.0389  0.1053  0.8587  11.00000  0.05    0.67
Q17   1   1.1568  0.8618  0.7525  11.00000  0.05    0.65
Q18   1   0.2151  0.0346  0.8196  11.00000  0.05    0.63
Q19   1   0.3211  0.0814  0.8159  11.00000  0.05    0.60
Q20   1   0.3716 -0.0810  0.9792  11.00000  0.05    0.60
;
_shelx_res_checksum              88344
_shelx_hkl_file
;
  -1   0   0 3200.28  220.28
  -1   0   0 3477.05  220.38
  -1   0   0 3270.37  220.88
   1   0   0 3753.42  220.38
   1   0   0 3707.23  220.38
   1   0   0 3743.43  220.88
  -2   0   0  224.98   17.80
  -2   0   0  229.88   18.90
  -2   0   0  224.98   17.60
  -3   0   0 2001.80  125.29
  -3   0   0 1982.80  125.39
  -3   0   0 1801.32  126.59
  -4   0   0 1940.01  123.09
  -4   0   0 1645.24  124.19
  -4   0   0 1984.50  122.99
  -5   0   0  871.81   69.89
  -5   0   0  986.60   67.99
  -5   0   0  939.61   67.49
  -6   0   0  247.98   28.30
  -6   0   0  268.87   31.80
  -6   0   0  295.37   30.10
  -7   0   0  891.91   67.79
  -7   0   0  818.82   67.09
  -7   0   0  847.32   70.69
  -8   0   0  425.06   50.79
   8   0   0  590.64   44.10
  -9   0   0  340.97   50.69
   9   0   0  443.46   38.40
   9   0   0  430.06   37.00
 -10   0   0  113.69   31.30
  10   0   0  166.78   24.70
  10  -1   0  185.28   27.70
   9  -1   0  451.45   37.50
  -9   1   0  368.46   47.00
  -9   1   0  339.47   46.90
   8  -1   0  542.35   39.50
  -8   1   0  382.76   43.80
  -8   1   0  391.06   44.60
  -7   1   0  180.88   26.90
  -7   1   0  144.59   25.30
  -7   1   0  171.48   27.80
  -6   1   0  867.81   67.49
  -6   1   0  827.62   66.79
  -6   1   0  954.50   68.29
  -5   1   0 1590.74  112.09
  -5   1   0 1727.33  111.89
  -5   1   0 1597.54  112.19
  -4   1   0 1349.96   99.59
  -4   1   0 1589.04   99.79
  -4   1   0 1510.15  100.49
  -3   1   0  192.58   17.80
  -3   1   0  194.98   17.70
  -3   1   0  187.08   18.10
  -2   1   0 1024.70   66.09
  -2   1   0  956.20   65.69
  -2   1   0 1031.60   66.89
   1  -1   0 3182.98  212.78
  -1   1   0 3683.33  214.98
  -1   1   0 3399.06  213.98
   0  -1   0 2790.72  163.88
   0  -1   0 2640.94  163.88
   0  -1   0 2537.75  163.68
   0   1   0 2246.88  163.68
   0   1   0 2837.92  163.68
  -1  -1   0 1583.94  104.79
  -1  -1   0 1682.93  106.89
   1   1   0 1648.83  104.49
   1   1   0 1745.63  105.79
  -2  -1   0 1811.92  118.09
  -2  -1   0 1966.60  121.29
   2   1   0 1793.22  117.89
  -3  -1   0 2238.08  150.58
  -3  -1   0 2350.26  146.99
   3   1   0 2269.27  145.69
  -4  -1   0 1293.67   94.49
  -4  -1   0 1403.76   89.89
   4   1   0 1308.77   87.49
  -5  -1   0  785.02   65.89
  -5  -1   0  809.62   60.19
   5   1   0  869.91   57.39
  -6  -1   0  403.76   43.30
  -6  -1   0  391.46   36.20
   6   1   0  446.36   33.40
  -7  -1   0  714.83   56.79
  -7  -1   0  599.44   62.49
   7   1   0  754.12   52.19
  -8  -1   0  231.68   39.50
   8   1   0  314.57   29.70
  -9  -1   0  277.97   46.20
   9   1   0  352.76   34.10
 -10  -1   0  180.98   43.00
  10   1   0  287.57   30.80
  10  -2   0  334.87   37.40
 -10   2   0  277.57   46.60
   9  -2   0  212.08   27.10
  -9   2   0  135.69   32.40
   8  -2   0  500.25   38.10
   8  -2   0  456.55   40.30
  -8   2   0  387.36   50.89
  -7   2   0  758.82   64.19
  -7   2   0  792.12   62.29
  -6   2   0 1104.89   78.79
  -6   2   0 1080.99   76.39
  -6   2   0  943.41   77.99
  -5   2   0 1493.55  103.29
  -5   2   0 1431.46  105.59
  -5   2   0 1643.64  105.69
  -4   2   0 1080.49   80.89
  -4   2   0 1221.98   79.29
  -4   2   0 1168.38   80.29
   3  -2   0  997.10   64.49
  -3   2   0  961.90   69.19
  -3   2   0 1031.10   68.29
   2  -2   0 1454.75   87.09
  -2   2   0 1322.37   89.69
  -2   2   0 1322.87   90.89
   1  -2   0 8692.63  531.85
  -1   2   0 8450.75  531.75
  -1   2   0 8479.25  533.35
   0  -2   0 4007.20  255.47
   0  -2   0 4145.99  255.57
   0   2   0 4066.49  255.97
  -1  -2   0  638.14   46.00
  -1  -2   0  647.24   42.90
   1   2   0  700.63   42.90
   1   2   0  662.53   45.30
  -2  -2   0 2950.00  192.68
  -2  -2   0 2933.61  188.48
   2   2   0 3076.89  189.88
  -3  -2   0 3780.42  255.87
  -3  -2   0 3990.40  261.67
   3   2   0 4388.06  256.67
  -4  -2   0 1229.18   84.79
  -4  -2   0 1245.28   92.29
   4   2   0 1320.77   84.29
  -5  -2   0  452.65   45.70
  -5  -2   0  482.15   39.20
   5   2   0  538.35   37.70
  -6  -2   0  605.34   61.49
  -6  -2   0  735.63   54.49
   6   2   0  766.72   52.09
  -7  -2   0  330.97   48.80
  -7  -2   0  447.16   39.70
   7   2   0  418.26   34.30
  -8  -2   0  299.67   50.09
   8   2   0  393.26   33.30
  -9  -2   0  328.47   53.39
   9   2   0  232.18   27.00
 -10  -2   0  340.97   62.59
  10   2   0  450.95   39.60
  10  -3   0  267.07   34.10
 -10   3   0  247.48   47.50
   9  -3   0  290.07   33.80
  -9   3   0  236.48   42.10
   8  -3   0  215.58   27.30
  -8   3   0  198.38   34.30
   7  -3   0  190.68   24.00
   7  -3   0  197.18   19.30
  -7   3   0  120.19   28.60
   6  -3   0 1079.69   70.99
   6  -3   0 1048.70   75.39
  -6   3   0 1040.30   80.49
   5  -3   0 1250.87   80.79
  -5   3   0 1212.28   88.59
   4  -3   0  354.46   25.10
  -4   3   0  338.27   31.50
   3  -3   0 1247.68   75.59
   3  -3   0 1073.29   79.39
  -3   3   0 1203.08   80.69
   2  -3   0 1705.53  122.69
   2  -3   0 1966.90  119.29
  -2   3   0 1889.71  119.49
  -2   3   0 1986.10  123.19
   1  -3   0 4644.44  256.57
   1  -3   0 3428.36  257.97
  -1   3   0 4149.38  258.27
   0  -3   0 1704.83  111.09
   0  -3   0 1872.91  111.49
   0   3   0 1582.14  111.49
  -1  -3   0 1229.28   78.99
  -1  -3   0 1123.99   74.99
   1   3   0 1167.48   78.19
  -2  -3   0 2979.20  200.28
  -2  -3   0 3219.58  194.58
   2   3   0 3036.80  197.58
  -3  -3   0 1499.75  102.59
  -3  -3   0 1673.03  110.79
   3   3   0 1598.44  104.39
  -4  -3   0 1179.38   84.19
  -4  -3   0 1239.28   93.69
   4   3   0 1385.36   85.79
  -5  -3   0  616.24   48.00
  -5  -3   0  621.24   60.19
   5   3   0  743.73   49.20
  -6  -3   0  645.24   50.99
  -6  -3   0  474.25   58.39
   6   3   0  654.73   46.20
  -7  -3   0  317.07   51.19
   7   3   0  374.96   32.60
  -8  -3   0  156.88   39.10
   8   3   0  204.68   24.50
  -9  -3   0  284.77   57.89
   9   3   0  407.06   36.70
  10  -4   0  279.77   35.90
 -10   4   0  141.39   38.10
   9  -4   0  278.87   34.80
  -9   4   0  243.68   46.60
   8  -4   0  471.55   43.80
  -8   4   0  450.55   56.59
   7  -4   0  596.24   49.90
  -7   4   0  593.54   57.29
   6  -4   0  701.83   45.80
   6  -4   0  623.14   51.69
  -6   4   0  593.14   56.09
   5  -4   0  821.72   62.89
   5  -4   0  894.61   57.09
  -5   4   0  836.82   66.69
   4  -4   0 1729.03  122.19
   4  -4   0 1959.60  116.49
  -4   4   0 1765.52  124.29
   3  -4   0 1702.43  104.09
   3  -4   0 1490.45  109.39
  -3   4   0 1724.63  110.99
   2  -4   0 2074.29  144.99
  -2   4   0 2377.56  145.49
   1  -4   0 2251.47  145.19
   1  -4   0 2281.77  148.39
  -1   4   0 2304.27  147.99
   0  -4   0  164.58   16.10
   0  -4   0  183.38   16.00
   0   4   0  115.89   16.30
  -1  -4   0 1481.05   96.89
  -1  -4   0 1496.85  101.19
   1   4   0 1535.25  100.99
  -2  -4   0 2058.99  129.99
  -2  -4   0 1918.31  136.89
   2   4   0 2144.09  135.09
  -3  -4   0 1776.62  117.09
  -3  -4   0 1748.13  125.79
   3   4   0 1908.41  120.89
  -4  -4   0 1574.34  117.79
  -4  -4   0 1592.94  105.59
   4   4   0 1661.83  108.29
  -5  -4   0  967.60   88.79
   5   4   0 1177.68   76.99
  -6  -4   0  752.12   79.49
   6   4   0  952.30   64.59
  -7  -4   0  203.08   46.10
   7   4   0  263.47   27.50
  -8  -4   0  207.48   49.10
   8   4   0  288.37   28.60
  -9  -4   0  372.26   66.89
   9   4   0  311.07   34.00
  10  -5   0  325.47   41.80
 -10   5   0  358.26   60.29
   9  -5   0  308.67   38.00
  -9   5   0  271.67   51.19
   8  -5   0  194.08   28.60
  -8   5   0  147.99   36.90
   7  -5   0  648.04   53.79
  -7   5   0  592.14   60.69
   6  -5   0  477.45   42.70
  -6   5   0  475.45   48.00
   5  -5   0  294.17   20.90
   5  -5   0  303.17   30.20
  -5   5   0  273.77   34.30
   4  -5   0  373.06   24.30
   4  -5   0  327.47   31.10
  -4   5   0  318.07   33.70
   3  -5   0 1549.05  107.99
  -3   5   0 1629.24  108.59
   2  -5   0 2321.47  171.08
   2  -5   0 2944.91  166.98
  -2   5   0 2549.54  171.48
   1  -5   0 1533.25  110.09
   1  -5   0 1896.51  107.59
  -1   5   0 1445.16  109.39
   0  -5   0 1714.33  100.89
   0  -5   0 1475.45  100.19
   0   5   0 1292.07  100.69
  -1  -5   0 1121.09   76.49
  -1  -5   0 1052.49   71.39
   1   5   0 1044.70   75.89
  -2  -5   0 1497.05  109.79
  -2  -5   0 1533.05  101.39
   2   5   0 1709.73  108.39
  -3  -5   0  483.45   37.00
  -3  -5   0  574.14   49.40
   3   5   0  522.75   42.50
  -4  -5   0  404.86   46.70
   4   5   0  432.46   36.90
  -5  -5   0  761.42   77.49
   5   5   0  921.81   64.29
  -6  -5   0  500.85   68.09
   6   5   0  595.04   46.30
  -7  -5   0  187.78   45.50
   7   5   0  240.68   26.50
  -8  -5   0  253.17   57.39
   8   5   0  282.67   30.10
  -9  -5   0  255.67   60.49
   9   5   0  302.27   34.00
  10  -6   0   88.19   25.60
 -10   6   0   73.69   43.50
   9  -6   0  440.56   47.70
  -9   6   0  425.96   61.89
   8  -6   0  435.06   46.30
  -8   6   0  489.75   60.39
   7  -6   0  364.06   40.00
  -7   6   0  368.26   49.30
   6  -6   0  298.37   33.90
  -6   6   0  323.77   42.70
   5  -6   0  362.36   34.10
  -5   6   0  275.77   37.40
   4  -6   0 1238.78   88.09
  -4   6   0 1214.98   89.69
   3  -6   0  790.72   49.60
   3  -6   0  694.33   56.99
  -3   6   0  698.93   57.49
   2  -6   0 1515.55   86.89
   2  -6   0 1126.39   91.19
  -2   6   0 1230.88   91.79
   1  -6   0  976.20   62.59
   1  -6   0  865.51   66.29
  -1   6   0  820.72   65.49
   0  -6   0 1742.83  111.39
   0  -6   0 1658.23  111.39
   0   6   0 1534.85  112.89
  -1  -6   0 1499.85  104.29
  -1  -6   0 1687.13  110.29
   1   6   0 1585.64  109.99
  -2  -6   0  542.95   40.10
  -2  -6   0  560.04   50.09
   2   6   0  634.84   49.10
  -3  -6   0  935.91   79.89
  -3  -6   0 1025.40   67.79
   3   6   0 1000.90   74.29
  -4  -6   0 1315.37  108.69
   4   6   0 1439.76   98.39
  -5  -6   0  778.12   81.49
   5   6   0  928.41   66.79
  -6  -6   0  235.28   50.99
   6   6   0  295.57   30.70
  -7  -6   0  372.26   68.59
   7   6   0  466.25   41.00
  -8  -6   0  426.66   76.59
   8   6   0  488.35   43.40
   9  -7   0  336.47   45.50
  -9   7   0  368.76   59.79
   8  -7   0  551.64   54.49
  -8   7   0  543.75   66.79
   7  -7   0  426.96   44.20
  -7   7   0  361.36   52.79
   6  -7   0  312.87   35.60
  -6   7   0  314.57   42.40
   5  -7   0  486.05   45.70
  -5   7   0  535.25   50.39
   4  -7   0  721.03   62.29
  -4   7   0  908.31   66.89
   3  -7   0  344.27   24.90
   3  -7   0  310.17   33.10
  -3   7   0  306.47   34.50
   2  -7   0  941.61   56.69
   2  -7   0  690.63   61.69
  -2   7   0  714.93   62.39
   1  -7   0 1263.57   80.29
   1  -7   0 1055.49   83.39
  -1   7   0 1126.89   84.69
   0  -7   0  981.90   73.09
   0  -7   0 1107.69   73.79
   0   7   0  909.71   75.19
  -1  -7   0 1125.19   78.49
  -1  -7   0  967.10   71.29
   1   7   0 1029.30   78.29
  -2  -7   0  396.16   41.50
  -2  -7   0  357.86   29.60
   2   7   0  382.66   38.70
  -3  -7   0 1005.80   80.49
   3   7   0  875.71   71.79
  -4  -7   0  416.06   58.49
   4   7   0  545.35   46.50
  -5  -7   0  482.05   68.19
   5   7   0  557.64   49.10
  -6  -7   0  210.68   52.39
   6   7   0  220.58   29.40
  -7  -7   0  273.67   62.89
   7   7   0  238.58   30.60
  -8  -7   0  445.46   87.29
   8   7   0  560.94   48.50
   9  -8   0  186.18   34.80
  -9   8   0  143.09   40.10
   8  -8   0  186.88   34.00
  -8   8   0  168.38   40.80
   7  -8   0  236.28   34.60
  -7   8   0  211.08   42.80
   6  -8   0  354.26   41.50
  -6   8   0  333.57   45.30
   5  -8   0  682.13   57.29
  -5   8   0  616.54   60.19
   4  -8   0  196.88   28.90
  -4   8   0  245.18   33.00
   3  -8   0  510.35   47.60
  -3   8   0  564.54   50.19
   2  -8   0  673.23   46.90
   2  -8   0  579.44   53.09
  -2   8   0  620.04   54.99
   1  -8   0  804.12   66.39
   1  -8   0  888.11   61.89
  -1   8   0  790.92   67.29
   0  -8   0  861.81   63.49
   0  -8   0  772.92   62.29
   0   8   0  800.12   67.09
  -1  -8   0  667.93   52.29
  -1  -8   0  723.83   58.79
   1   8   0  676.73   59.99
  -2  -8   0 1130.59   94.09
   2   8   0 1308.87   93.69
  -3  -8   0  668.93   65.79
   3   8   0  624.54   56.99
  -4  -8   0  387.96   57.29
   4   8   0  416.46   43.20
  -5  -8   0  149.88   44.50
   5   8   0  255.77   32.90
  -6  -8   0  381.66   67.89
   6   8   0  398.36   41.50
  -7  -8   0  501.55   81.29
   7   8   0  401.96   44.10
   8  -9   0  153.88   32.60
  -8   9   0  125.39   41.60
   7  -9   0  379.26   46.00
  -7   9   0  325.17   53.09
   6  -9   0  348.47   43.70
  -6   9   0  370.16   49.10
   5  -9   0  594.64   55.59
  -5   9   0  662.63   62.69
   4  -9   0  310.17   38.60
  -4   9   0  366.36   44.20
   3  -9   0  235.18   32.60
  -3   9   0  270.47   36.10
   2  -9   0  480.75   45.80
  -2   9   0  443.26   46.80
   1  -9   0  239.38   34.60
   1  -9   0  263.27   28.30
  -1   9   0  260.07   36.60
   0  -9   0  363.86   37.50
   0  -9   0  309.77   36.70
   0   9   0  347.17   43.40
  -1  -9   0  465.45   46.00
   1   9   0  419.06   48.70
  -2  -9   0  771.42   72.09
   2   9   0  776.92   68.69
  -3  -9   0  899.81   82.59
   3   9   0  857.91   74.09
  -4  -9   0  615.74   73.99
   4   9   0  674.33   60.19
  -5  -9   0  221.78   49.90
   5   9   0  185.58   33.70
  -6  -9   0  149.49   52.79
   6   9   0  189.98   31.20
   8 -10   0  147.89   32.00
  -8  10   0  200.88   46.30
   7 -10   0  205.28   36.90
  -7  10   0  179.48   40.80
   6 -10   0  200.98   33.40
  -6  10   0  258.27   44.20
   5 -10   0  301.17   41.30
  -5  10   0  491.15   56.19
   4 -10   0  210.48   32.40
  -4  10   0  248.58   40.10
   3 -10   0  446.46   47.20
  -3  10   0  494.75   53.29
   2 -10   0  458.85   46.80
  -2  10   0  362.76   48.30
   1 -10   0  315.47   41.20
  -1  10   0  391.06   47.30
   0 -10   0  499.55   48.40
   0  10   0  472.85   53.79
  -1 -10   0  339.07   42.90
   1  10   0  324.87   44.80
  -2 -10   0  515.85   57.49
   2  10   0  503.25   55.99
  -3 -10   0  232.48   44.60
   3  10   0  205.38   36.70
  -4 -10   0  201.48   48.20
   4  10   0  280.97   40.10
  -5 -10   0  324.77   64.49
   5  10   0  365.06   45.70
   7 -11   0  141.29   31.40
  -7  11   0   54.19   33.40
   6 -11   0  239.38   37.90
  -6  11   0  259.87   48.40
   5 -11   0  250.57   36.40
  -5  11   0  275.07   48.10
   4 -11   0  240.18   35.80
  -4  11   0  251.47   43.10
   3 -11   0  392.06   46.80
  -3  11   0  329.67   49.99
   2 -11   0  261.97   38.20
  -2  11   0  314.97   46.50
  -1  11   0  236.78   42.50
   0  11   0  209.18   40.50
  -1 -11   0  371.26   49.10
   1  11   0  321.07   49.50
  -2 -11   0  543.65   62.69
   2  11   0  568.14   61.89
  -3 -11   0  427.66   60.69
   3  11   0  347.27   49.00
  -4 -11   0  200.78   51.39
   4  11   0  164.48   37.00
   5 -12   0   57.49   23.80
  -5  12   0   26.40   31.60
   4 -12   0  127.99   29.40
  -4  12   0  177.28   40.30
   3 -12   0  180.98   33.30
  -3  12   0  189.98   39.10
  -2  12   0  249.38   43.30
  -1  12   0  182.48   40.30
   0  12   0  206.28   41.60
   1  12   0  319.87   50.29
   2  12   0  125.39   37.20
  -2  13   0  113.69   38.50
  -1  13   0  508.05   68.09
  -1  13  -1  183.68   45.70
  -2  13  -1   29.80   33.60
  -3  13  -1  136.59   42.10
   2  12  -1  164.08   39.70
   1  12  -1  207.08   45.70
   0  12  -1  271.77   46.40
  -1  12  -1  392.26   54.49
  -2  12  -1  188.28   40.00
   2 -12   1  170.18   34.70
  -3  12  -1  240.88   44.00
   3 -12   1  294.97   44.20
  -4  12  -1  239.28   43.00
   4 -12   1  229.48   38.20
  -5  12  -1  216.58   42.70
   5 -12   1  120.99   29.90
   4  11  -1  285.37   43.50
  -4 -11   1  309.37   57.89
   3  11  -1  271.57   43.10
  -3 -11   1  229.78   48.50
   2  11  -1  191.08   37.60
  -2 -11   1  169.28   35.40
   1  11  -1  312.97   47.50
  -1 -11   1  300.27   42.00
   0  11  -1  211.08   40.50
  -1  11  -1  216.18   39.80
   1 -11   1  203.88   35.30
  -2  11  -1  237.08   40.60
   2 -11   1  177.28   33.10
  -3  11  -1  330.27   48.80
   3 -11   1  387.36   46.40
  -4  11  -1  503.05   60.09
   4 -11   1  440.16   49.70
  -5  11  -1   91.69   32.70
   5 -11   1   86.89   26.80
  -6  11  -1  191.48   45.10
   6 -11   1   98.69   27.20
  -7  11  -1  194.98   43.10
   7 -11   1  123.69   31.70
   5  10  -1  229.78   36.40
  -5 -10   1  185.88   53.59
   4  10  -1  468.65   52.59
  -4 -10   1  525.65   69.99
   3  10  -1  389.56   50.29
  -3 -10   1  429.76   57.39
   2  10  -1  483.15   53.69
  -2 -10   1  470.95   54.89
   1  10  -1  197.98   34.80
  -1 -10   1  159.18   28.00
   0  10  -1  264.67   41.20
   0 -10   1  347.47   36.50
   0 -10   1  311.97   39.50
  -1  10  -1  434.86   48.10
   1 -10   1  354.46   44.90
  -2  10  -1  259.57   39.20
   2 -10   1  225.38   35.70
  -3  10  -1  409.06   49.10
   3 -10   1  370.56   45.30
  -4  10  -1  420.76   53.79
   4 -10   1  461.15   49.90
  -5  10  -1  654.63   64.59
   5 -10   1  524.25   53.99
  -6  10  -1  366.36   53.49
   6 -10   1  318.67   43.40
  -7  10  -1  209.28   45.10
   7 -10   1  207.88   35.80
   8 -10   1  201.08   36.00
   6   9  -1  149.19   27.20
  -6  -9   1   64.99   40.80
   5   9  -1  472.85   47.90
  -5  -9   1  382.16   64.09
   4   9  -1  397.26   43.80
  -4  -9   1  309.07   52.69
   3   9  -1  349.57   44.10
  -3  -9   1  380.76   51.49
   2   9  -1  345.37   43.80
  -2  -9   1  302.47   41.40
   1   9  -1  458.65   50.69
  -1  -9   1  547.75   48.80
  -1  -9   1  468.05   43.60
   0   9  -1  787.02   62.99
   0  -9   1  636.74   53.99
   0  -9   1  621.24   55.39
  -1   9  -1  201.98   31.70
   1  -9   1  193.28   23.90
   1  -9   1  270.67   35.10
  -2   9  -1  432.36   44.50
   2  -9   1  374.16   42.30
  -3   9  -1  516.95   49.20
   3  -9   1  435.56   46.70
  -4   9  -1  234.08   36.30
   4  -9   1  260.37   34.20
  -5   9  -1   92.99   27.90
   5  -9   1   62.79   22.30
  -6   9  -1  234.78   41.50
   6  -9   1  285.57   38.00
  -7   9  -1  420.96   57.29
   7  -9   1  359.96   45.40
  -8   9  -1  149.88   45.00
   8  -9   1  103.39   29.00
   7   8  -1  190.28   29.60
  -7  -8   1  176.78   57.49
   6   8  -1  319.67   38.50
  -6  -8   1  274.67   55.99
   5   8  -1  467.05   43.10
  -5  -8   1  268.17   54.49
   4   8  -1  448.46   44.20
  -4  -8   1  353.96   53.09
   3   8  -1  347.07   39.40
  -3  -8   1  337.17   45.50
   2   8  -1 1204.98   89.19
  -2  -8   1 1165.48   89.59
  -2  -8   1 1100.39   88.69
   1   8  -1  432.36   44.50
  -1  -8   1  482.55   39.00
  -1  -8   1  414.16   41.00
   0   8  -1  534.75   50.69
   0  -8   1  540.25   45.10
   0  -8   1  610.74   48.70
  -1   8  -1  588.24   53.69
   1  -8   1  584.94   52.79
   1  -8   1  659.73   47.20
  -2   8  -1  388.36   40.30
   2  -8   1  384.76   30.30
   2  -8   1  429.66   42.80
  -3   8  -1  604.84   52.39
   3  -8   1  541.05   50.49
  -4   8  -1  524.25   49.40
   4  -8   1  456.95   45.90
  -5   8  -1  720.53   66.49
   5  -8   1  778.52   63.29
  -6   8  -1  316.57   44.70
   6  -8   1  329.27   39.30
  -7   8  -1  362.16   51.59
   7  -8   1  365.36   44.00
  -8   8  -1  275.97   53.19
   8  -8   1  362.86   43.90
  -9   8  -1  305.47   60.09
   9  -8   1  335.07   45.50
   8   7  -1  377.36   40.10
  -8  -7   1  304.47   67.39
   7   7  -1  339.27   37.60
  -7  -7   1  295.57   61.89
   6   7  -1  567.54   48.90
  -6  -7   1  425.46   69.69
   5   7  -1  627.14   51.89
  -5  -7   1  529.55   69.29
   4   7  -1  563.54   47.90
  -4  -7   1  460.75   55.49
   3   7  -1  448.96   41.30
  -3  -7   1  363.46   44.30
   2   7  -1  258.77   31.90
  -2  -7   1  261.57   33.10
  -2  -7   1  213.08   22.70
   1   7  -1  859.01   61.69
  -1  -7   1  693.03   54.69
  -1  -7   1  729.93   58.69
   0   7  -1 1023.00   77.29
   0  -7   1 1019.10   73.39
   0  -7   1 1082.39   76.49
  -1   7  -1  612.34   51.49
   1  -7   1  622.24   45.60
   1  -7   1  648.94   53.09
  -2   7  -1  518.45   46.50
   2  -7   1  526.45   47.20
   2  -7   1  570.64   38.60
  -3   7  -1  563.54   48.10
   3  -7   1  522.75   47.10
  -4   7  -1  152.88   26.00
   4  -7   1  135.69   23.40
  -5   7  -1  511.85   51.69
   5  -7   1  543.35   47.60
  -6   7  -1  396.86   47.80
   6  -7   1  327.57   37.00
  -7   7  -1  268.57   45.60
   7  -7   1  275.47   35.70
  -8   7  -1  432.66   60.39
   8  -7   1  414.76   45.30
  -9   7  -1  370.16   61.59
   9  -7   1  337.07   42.40
   8   6  -1  193.18   26.50
  -8  -6   1  155.58   45.40
   7   6  -1  298.77   30.80
  -7  -6   1  202.88   45.70
   6   6  -1  673.53   51.19
  -6  -6   1  483.35   70.19
   5   6  -1  563.24   46.40
  -5  -6   1  505.05   59.19
   4   6  -1  389.76   35.80
  -4  -6   1  300.47   43.70
   3   6  -1 1375.76   93.69
  -3  -6   1 1286.37   87.49
  -3  -6   1 1257.27   97.99
   2   6  -1  450.55   40.90
  -2  -6   1  475.75   42.60
  -2  -6   1  463.15   34.90
   1   6  -1  989.50   70.79
  -1  -6   1  898.31   65.99
  -1  -6   1  986.70   69.69
   0   6  -1 1384.26   96.49
   0  -6   1 1454.35   93.59
   0  -6   1 1307.07   94.69
  -1   6  -1 1486.45  103.29
   1  -6   1 1534.45   98.39
   1  -6   1 1468.65  103.99
  -2   6  -1 1115.09   78.69
   2  -6   1 1011.40   78.89
   2  -6   1 1135.49   71.39
  -3   6  -1  674.93   53.09
   3  -6   1  645.24   52.89
  -4   6  -1  924.81   72.19
   4  -6   1  947.11   69.59
  -5   6  -1  152.08   27.20
   5  -6   1  132.99   21.90
  -6   6  -1  363.16   45.60
   6  -6   1  374.06   37.70
  -7   6  -1  508.75   56.19
   7  -6   1  482.25   46.00
  -8   6  -1  648.34   72.49
   8  -6   1  645.24   56.89
  -9   6  -1  430.36   65.29
   9  -6   1  466.55   46.90
 -10   6  -1   72.59   36.30
  10  -6   1   93.49   25.60
  -9  -5   1  226.78   61.69
   8   5  -1  312.77   31.50
  -8  -5   1  175.08   45.90
   7   5  -1  518.35   42.20
  -7  -5   1  440.56   64.69
   6   5  -1  666.83   47.80
  -6  -5   1  418.16   62.99
   5   5  -1 1254.57   80.39
  -5  -5   1  904.41   89.49
   4   5  -1  790.02   60.49
  -4  -5   1  907.31   59.59
  -4  -5   1  705.73   68.29
   3   5  -1  252.07   26.20
  -3  -5   1  197.38   30.40
  -3  -5   1  275.27   23.10
   2   5  -1  738.53   54.29
  -2  -5   1  720.43   56.19
  -2  -5   1  689.33   49.30
   1   5  -1 1257.37   85.29
  -1  -5   1 1227.08   84.89
  -1  -5   1 1202.58   81.79
   0   5  -1  842.22   57.49
   0  -5   1  733.93   54.29
   0  -5   1  785.22   55.99
  -1   5  -1  150.48   16.40
   1  -5   1  129.49   12.70
   1  -5   1  128.79   17.90
  -2   5  -1 1527.85  100.59
   2  -5   1 1488.25   93.79
   2  -5   1 1409.96  101.09
  -3   5  -1 1419.76   95.99
   3  -5   1 1345.87   95.59
  -4   5  -1  919.41   68.49
   4  -5   1  900.31   66.69
  -5   5  -1  427.86   42.40
   5  -5   1  442.86   38.60
  -6   5  -1  368.16   45.20
   6  -5   1  409.56   37.50
  -7   5  -1  595.64   60.29
   7  -5   1  552.54   48.50
  -8   5  -1  257.57   44.30
   8  -5   1  339.17   35.70
  -9   5  -1  134.19   40.50
   9  -5   1  198.58   29.50
 -10   5  -1   85.99   38.50
  10  -5   1   84.89   22.30
   9   4  -1  192.18   28.90
  -9  -4   1  134.59   48.90
   8   4  -1  187.98   23.20
  -8  -4   1  203.68   44.90
   7   4  -1  507.15   40.60
  -7  -4   1  424.56   60.79
   6   4  -1 1138.29   72.89
  -6  -4   1  833.42   85.79
   5   4  -1  756.02   51.69
  -5  -4   1  697.53   52.09
  -5  -4   1  537.85   59.89
   4   4  -1 1311.37   86.99
  -4  -4   1 1347.07   87.19
  -4  -4   1 1100.39   93.39
   3   4  -1 1688.93  109.49
  -3  -4   1 1678.73  107.39
  -3  -4   1 1502.65  113.89
   2   4  -1  774.62   55.59
  -2  -4   1  767.52   58.09
  -2  -4   1  769.02   52.19
   1   4  -1 1292.07   85.19
  -1  -4   1 1247.48   82.49
  -1  -4   1 1241.18   85.59
   0   4  -1 1551.34  101.99
   0  -4   1 1559.94  101.59
   0  -4   1 1515.15  100.49
  -1   4  -1 1634.64  103.99
   1  -4   1 1532.55  100.19
   1  -4   1 1549.45  104.69
  -2   4  -1 1772.12  115.59
  -2   4  -1 1855.71  109.59
   2  -4   1 1594.94  115.79
   2  -4   1 1725.33  109.39
  -3   4  -1  897.21   66.59
   3  -4   1  963.70   66.49
  -4   4  -1  496.65   43.30
   4  -4   1  468.15   40.40
   4  -4   1  524.85   35.50
   4  -4   1  530.35   33.40
  -5   4  -1  509.55   46.80
   5  -4   1  439.16   40.70
   5  -4   1  585.94   36.10
  -6   4  -1  599.14   57.99
   6  -4   1  748.43   46.80
   6  -4   1  625.84   52.49
  -7   4  -1  502.25   52.19
   7  -4   1  501.65   43.20
  -8   4  -1  399.26   56.09
   8  -4   1  421.56   39.30
  -9   4  -1  384.86   57.99
   9  -4   1  430.16   41.00
 -10   4  -1  269.57   53.39
  10  -4   1  282.57   35.80
 -10  -3   1  125.89   44.70
   9   3  -1  364.26   33.50
  -9  -3   1  231.68   51.19
   8   3  -1  339.67   31.00
  -8  -3   1  266.97   46.90
   7   3  -1  477.95   37.10
  -7  -3   1  355.86   54.09
   6   3  -1  487.15   35.80
  -6  -3   1  442.86   39.80
  -6  -3   1  354.86   49.99
   5   3  -1  773.52   51.99
  -5  -3   1  742.13   55.29
  -5  -3   1  608.84   61.49
   4   3  -1 1789.82  109.09
  -4  -3   1 1658.33  110.59
  -4  -3   1 1453.55  116.19
   3   3  -1 1403.06   93.59
  -3  -3   1 1446.06   93.89
  -3  -3   1 1375.06   99.39
   2   3  -1 2698.53  170.08
  -2  -3   1 2772.72  168.08
  -2  -3   1 2438.36  172.38
   1   3  -1 1665.33  105.89
  -1  -3   1 1614.34  103.99
  -1  -3   1 1591.14  106.79
   0   3  -1  369.26   28.70
   0  -3   1  419.66   29.00
   0  -3   1  385.16   28.20
  -1   3  -1 1781.22  123.29
  -1   3  -1 2075.99  120.99
   1  -3   1 1975.60  120.79
   1  -3   1 1788.62  124.39
  -2   3  -1  841.82   56.89
   2  -3   1  796.62   57.19
  -3   3  -1 1295.17   91.59
   3  -3   1 1399.26   85.49
   3  -3   1 1160.28   90.19
   3  -3   1 1493.25   85.59
  -4   3  -1 1403.66   94.29
   4  -3   1 1369.26   86.39
   4  -3   1 1284.17   90.99
  -5   3  -1  888.01   65.99
   5  -3   1  816.42   60.59
  -6   3  -1  904.91   69.19
   6  -3   1  812.22   61.49
  -7   3  -1  331.17   44.90
   7  -3   1  368.66   34.70
   7  -3   1  421.96   30.60
  -8   3  -1  263.77   41.20
   8  -3   1  261.77   28.50
  -9   3  -1  137.49   37.10
   9  -3   1  156.68   24.00
 -10   3  -1  113.39   38.00
  10  -3   1  171.98   26.90
 -10  -2   1  278.07   51.59
   9   2  -1  310.07   30.50
  -9  -2   1  265.57   48.60
   8   2  -1  567.34   42.30
  -8  -2   1  401.46   58.49
   7   2  -1  735.33   53.59
  -7  -2   1  692.93   68.59
  -7  -2   1  773.02   60.59
   6   2  -1  831.82   55.09
  -6  -2   1  642.74   65.49
  -6  -2   1  786.12   60.09
   5   2  -1  911.71   58.89
  -5  -2   1  768.42   68.19
  -5  -2   1  827.42   62.79
   4   2  -1 1317.97   82.29
  -4  -2   1 1118.39   89.59
  -4  -2   1 1252.57   85.49
   3   2  -1  350.06   24.50
  -3  -2   1  310.87   26.10
  -3  -2   1  248.88   28.20
   2   2  -1 2643.14  160.68
  -2  -2   1 2324.87  163.58
  -2  -2   1 2575.84  160.48
   1   2  -1 4252.67  260.87
  -1  -2   1 3853.31  262.17
  -1  -2   1 4321.37  259.87
   0   2  -1 1660.63  101.29
   0  -2   1 1555.34  101.09
   0  -2   1 1534.55  101.09
  -1   2  -1  797.12   45.70
  -1   2  -1  682.23   48.30
   1  -2   1  655.53   49.00
  -2   2  -1 1360.36   76.59
  -2   2  -1 1135.79   79.49
   2  -2   1 1166.48   75.89
   2  -2   1 1132.59   79.59
  -3   2  -1 1193.78   80.09
  -3   2  -1 1182.98   77.29
   3  -2   1 1168.08   78.69
  -4   2  -1  394.06   30.30
  -4   2  -1  283.67   25.90
   4  -2   1  320.27   26.20
  -5   2  -1 1258.67   90.49
  -5   2  -1 1426.26   94.79
   5  -2   1 1328.37   89.49
  -6   2  -1  804.72   64.89
  -6   2  -1  880.71   69.19
   6  -2   1  969.10   63.49
  -7   2  -1  480.15   45.10
  -7   2  -1  531.25   50.69
   7  -2   1  602.24   44.10
  -8   2  -1  359.16   39.30
  -8   2  -1  343.27   45.70
   8  -2   1  411.76   34.80
  -9   2  -1  120.09   29.70
   9  -2   1  172.08   24.30
 -10   2  -1  219.18   43.60
  10  -2   1  318.17   34.00
 -10  -1   1  273.67   51.59
   9   1  -1  423.86   35.40
  -9  -1   1  318.17   50.39
   8   1  -1  482.95   37.60
  -8  -1   1  409.16   55.29
  -8  -1   1  446.16   45.00
   7   1  -1  425.56   33.00
  -7  -1   1  361.06   43.50
  -7  -1   1  365.06   39.80
   6   1  -1  858.41   55.19
  -6  -1   1  756.42   60.99
  -6  -1   1  689.73   63.99
   5   1  -1  867.41   54.29
  -5  -1   1  707.63   58.89
  -5  -1   1  733.53   62.79
   4   1  -1 1546.65   95.29
  -4  -1   1 1417.16  102.69
  -4  -1   1 1408.56   99.59
   3   1  -1 2945.31  170.38
  -3  -1   1 2465.35  175.68
  -3  -1   1 2609.84  173.08
   2   1  -1 2790.22  164.38
  -2  -1   1 2594.84  166.08
  -2  -1   1 2401.46  168.08
   1   1  -1 5888.11  351.46
  -1  -1   1 5698.43  351.76
  -1  -1   1 5293.37  353.66
   0   1  -1 2939.41  192.28
   0   1  -1 3188.88  191.48
   0  -1   1 3190.88  191.48
   0  -1   1 2912.91  191.58
  -1   1  -1 3728.63  257.47
  -1   1  -1 4207.88  256.37
   1  -1   1 3888.11  257.97
   1  -1   1 4607.14  256.37
  -2   1  -1  288.27   22.30
  -2   1  -1  300.37   21.00
   2  -1   1  277.17   21.40
  -3   1  -1  587.54   40.70
  -3   1  -1  549.05   39.30
   3  -1   1  517.35   38.10
  -4   1  -1 1128.59   73.49
  -4   1  -1  963.10   71.79
  -5   1  -1  631.14   48.30
  -5   1  -1  523.75   46.10
   5  -1   1  629.14   43.20
  -6   1  -1  552.94   50.69
  -6   1  -1  674.53   52.99
   6  -1   1  650.33   46.30
  -7   1  -1  251.77   32.90
  -7   1  -1  238.98   33.60
   7  -1   1  274.67   25.70
  -8   1  -1  561.44   55.29
  -8   1  -1  533.55   54.19
   8  -1   1  622.94   46.50
  -9   1  -1  271.07   39.60
  -9   1  -1  231.48   39.10
   9  -1   1  319.67   30.80
  10  -1   1  279.17   36.40
  10   0  -1  211.98   29.90
   9   0  -1  355.96   31.10
  -9   0   1  270.77   44.30
  -9   0   1  241.68   39.40
   8   0  -1  648.84   47.20
  -8   0   1  557.44   55.99
  -8   0   1  565.24   57.39
  -7   0   1  999.70   80.79
  -7   0   1 1019.60   78.79
  -7   0   1 1009.90   75.99
  -6   0   1  308.27   32.50
  -6   0   1  282.67   33.40
  -6   0   1  313.37   29.40
  -5   0   1 1335.77   96.49
  -5   0   1 1319.37   91.39
  -5   0   1 1376.46   95.39
  -4   0   1  565.74   44.90
  -4   0   1  560.64   43.40
  -4   0   1  533.45   40.60
  -3   0   1  529.35   36.60
  -3   0   1  511.65   40.30
  -3   0   1  507.95   38.70
  -2   0   1 3949.00  254.97
  -2   0   1 4077.59  251.87
   1   0  -1 1934.21  115.99
   1   0  -1 1711.53  117.09
  -1   0   1 2040.30  116.19
  -1   0   1 1714.33  117.59
   0   0  -1 2216.78  158.28
   0   0  -1 2784.02  158.08
   0   0  -1 2570.64  158.08
   0   0   1 2546.95  157.98
  -1   0  -1 1507.75   93.89
  -1   0  -1 1466.65   93.79
   1   0   1 1435.86   92.69
  -2   0  -1 2221.48  140.99
  -2   0  -1 2179.88  140.89
  -3   0  -1 1074.59   71.99
  -3   0  -1 1070.29   70.49
  -3   0  -1 1024.00   72.29
  -4   0  -1 1663.03  109.69
  -4   0  -1 1615.54  110.79
  -4   0  -1 1611.84  107.69
  -5   0  -1 1021.40   71.69
  -5   0  -1  978.30   73.39
  -5   0  -1  930.61   68.59
  -6   0  -1  437.26   43.70
  -6   0  -1  445.06   40.60
  -7   0  -1  341.67   40.40
  -7   0  -1  344.77   38.40
   7   0   1  434.66   32.50
  -8   0  -1  274.17   41.80
   8   0   1  379.16   31.90
   8   0   1  380.06   34.30
  -9   0  -1  165.48   36.70
   9   0   1  295.17   32.00
 -10   0  -1  204.18   47.00
  10   0   1  279.57   33.40
  10  -1  -1  287.67   34.30
   9  -1  -1  559.34   42.20
  -9   1   1  333.67   47.80
  -8   1   1  431.56   46.50
  -8   1   1  395.36   42.50
  -7   1   1  857.41   70.49
  -7   1   1  839.62   66.99
  -7   1   1  878.61   70.09
  -6   1   1 1323.97   96.29
  -6   1   1 1257.97   96.69
  -6   1   1 1404.46   94.49
  -5   1   1 1541.75  100.39
  -5   1   1 1390.56  101.99
  -5   1   1 1470.75  103.29
  -4   1   1 1028.10   75.09
  -4   1   1 1102.99   73.19
  -4   1   1 1066.59   75.79
  -3   1   1  684.53   48.40
  -3   1   1  772.52   51.29
  -3   1   1  667.13   50.79
   2  -1  -1 3650.53  239.38
  -2   1   1 3806.42  239.78
  -2   1   1 3998.10  241.98
   1  -1  -1 4591.34  273.17
   1  -1  -1 4225.18  272.47
  -1   1   1 4287.67  272.37
  -1   1   1 4339.97  273.47
   0  -1  -1 4146.59  275.07
   0   1   1 5018.50  273.87
   0   1   1 3992.60  274.37
  -1  -1  -1  741.43   48.60
   1   1   1  681.73   46.90
  -2  -1  -1 3085.19  190.38
  -2  -1  -1 2914.01  194.18
   2   1   1 3333.87  189.98
   2   1   1 2773.42  191.48
  -3  -1  -1 2103.69  138.79
  -3  -1  -1 2204.58  134.09
   3   1   1 1984.60  134.39
  -4  -1  -1  623.94   48.50
  -4  -1  -1  585.14   41.90
   4   1   1  563.34   41.60
  -5  -1  -1  301.97   34.70
  -5  -1  -1  342.37   28.70
   5   1   1  347.77   27.80
  -6  -1  -1  143.49   19.60
  -6  -1  -1  146.09   26.10
   6   1   1  154.28   18.60
  -7  -1  -1 1001.80   90.99
   7   1   1 1164.68   80.19
   7   1   1 1217.48   78.09
  -8  -1  -1  360.16   51.59
   8   1   1  463.35   38.30
  -9  -1  -1  156.28   37.00
   9   1   1  270.17   29.00
 -10  -1  -1  175.48   40.90
  10   1   1  247.28   30.50
  10  -2  -1  286.57   35.30
   9  -2  -1  398.36   35.30
   9  -2  -1  363.76   39.90
  -9   2   1  350.56   46.20
   8  -2  -1  321.07   28.10
  -8   2   1  252.57   39.30
  -8   2   1  225.28   34.40
   7  -2  -1  248.88   23.10
  -7   2   1  240.08   31.90
  -7   2   1  240.88   33.90
   6  -2  -1 1096.49   73.09
  -6   2   1 1063.39   78.79
  -6   2   1 1054.19   82.49
   5  -2  -1 1428.76   93.49
  -5   2   1 1447.96   98.19
  -5   2   1 1383.66  100.89
   4  -2  -1  772.22   51.79
  -4   2   1  727.03   57.49
  -4   2   1  779.42   55.09
   3  -2  -1 1789.42  111.89
  -3   2   1 1710.53  113.99
  -3   2   1 1734.03  116.29
   2  -2  -1 6151.78  373.96
  -2   2   1 5942.81  375.36
  -2   2   1 5844.31  376.86
   1  -2  -1 1543.45   99.29
  -1   2   1 1554.24   99.99
  -1   2   1 1572.44  100.49
   0  -2  -1   77.19    7.90
   0  -2  -1   92.79   10.30
   0   2   1  106.89    9.70
  -1  -2  -1 1851.81  117.39
  -1  -2  -1 1977.70  122.79
   1   2   1 1826.12  120.89
  -2  -2  -1 2843.92  180.88
  -2  -2  -1 2844.62  187.38
   2   2   1 3063.99  180.48
   2   2   1 2790.62  183.98
  -3  -2  -1 3228.08  215.68
  -3  -2  -1 3396.56  208.08
   3   2   1 3279.27  210.38
  -4  -2  -1  660.13   53.49
  -4  -2  -1  645.24   44.20
   4   2   1  612.74   45.50
  -5  -2  -1  400.36   43.30
  -5  -2  -1  436.06   33.80
   5   2   1  460.45   34.70
  -6  -2  -1  562.24   44.20
  -6  -2  -1  537.95   55.59
   6   2   1  604.44   44.10
  -7  -2  -1  240.58   41.20
   7   2   1  302.17   28.00
  -8  -2  -1  128.09   36.80
   8   2   1  176.48   22.40
  -9  -2  -1  247.38   53.19
   9   2   1  292.87   31.00
 -10  -2  -1  372.46   62.59
  10   2   1  393.76   38.50
  10  -3  -1  403.46   43.80
   9  -3  -1  236.58   32.90
  -9   3   1  164.38   37.70
   8  -3  -1  833.42   57.79
  -8   3   1  714.83   69.59
   7  -3  -1 1239.68   78.19
  -7   3   1 1053.29   90.09
  -7   3   1 1056.99   86.89
   6  -3  -1 1073.09   67.99
  -6   3   1  944.81   75.29
  -6   3   1  908.61   76.69
   5  -3  -1  966.90   61.89
  -5   3   1  820.22   69.39
  -5   3   1  910.41   68.59
   4  -3  -1  937.81   58.89
  -4   3   1  800.42   65.19
  -4   3   1  860.21   63.49
   3  -3  -1 4576.34  273.77
  -3   3   1 4234.88  279.07
  -3   3   1 4238.48  277.17
   2  -3  -1 2483.15  160.68
  -2   3   1 2588.34  163.38
  -2   3   1 2574.54  164.78
   1  -3  -1  536.65   33.50
   1  -3  -1  382.06   32.60
  -1   3   1  463.85   33.50
   0  -3  -1 1322.97   84.39
   0  -3  -1 1240.78   82.29
   0   3   1 1217.98   83.49
  -1  -3  -1 3166.38  208.68
  -1  -3  -1 3069.69  202.98
   1   3   1 3049.59  206.98
   1   3   1 3666.23  203.98
  -2  -3  -1 2770.72  187.98
  -2  -3  -1 3236.58  197.08
   2   3   1 3064.89  192.78
  -3  -3  -1  858.61   54.69
  -3  -3  -1  892.51   65.99
   3   3   1  786.52   58.49
  -4  -3  -1 1533.95  109.19
  -4  -3  -1 1466.25   96.09
   4   3   1 1488.45   99.39
  -5  -3  -1 1019.30   66.49
  -5  -3  -1  948.51   80.39
   5   3   1  953.30   68.29
  -6  -3  -1  433.46   53.39
   6   3   1  528.85   40.70
  -7  -3  -1  414.36   56.69
   7   3   1  431.26   36.40
  -8  -3  -1  190.08   46.20
   8   3   1  185.78   24.00
  -9  -3  -1  164.98   42.60
   9   3   1  186.78   25.00
  10  -4  -1  274.87   38.10
 -10   4   1  164.48   46.00
   9  -4  -1  329.17   39.30
  -9   4   1  270.47   48.00
   8  -4  -1  356.16   37.50
  -8   4   1  297.07   44.20
   7  -4  -1  326.17   26.70
   7  -4  -1  292.17   35.10
  -7   4   1  254.77   40.20
   6  -4  -1  934.31   58.89
  -6   4   1  710.93   68.29
  -6   4   1  839.52   69.89
   5  -4  -1  452.15   31.90
  -5   4   1  395.76   39.90
  -5   4   1  435.06   40.50
   4  -4  -1 1413.16   84.89
  -4   4   1 1279.77   91.29
  -4   4   1 1166.98   92.39
   3  -4  -1 3757.42  227.08
  -3   4   1 3755.52  232.38
  -3   4   1 3280.37  232.78
   2  -4  -1 2492.15  146.09
   2  -4  -1 2058.99  147.99
  -2   4   1 2280.27  148.99
   1  -4  -1 1517.05   92.59
   1  -4  -1 1275.97   92.39
  -1   4   1 1385.36   93.49
   0  -4  -1  352.76   28.70
   0  -4  -1  340.47   26.60
   0   4   1  295.87   27.40
  -1  -4  -1 1575.14  101.49
  -1  -4  -1 1639.54  108.09
   1   4   1 1549.74  105.99
  -2  -4  -1 1702.33  108.29
  -2  -4  -1 1700.93  118.29
   2   4   1 1736.63  114.59
  -3  -4  -1  623.64   52.29
  -3  -4  -1  560.24   38.40
   3   4   1  596.94   44.70
  -4  -4  -1  414.06   44.90
  -4  -4  -1  437.96   29.70
   4   4   1  400.96   34.80
  -5  -4  -1  449.95   50.99
   5   4   1  470.45   38.00
  -6  -4  -1  767.52   75.89
   6   4   1  783.32   57.69
  -7  -4  -1  323.17   51.99
   7   4   1  299.37   30.10
  -8  -4  -1  103.49   45.00
   8   4   1  223.08   26.70
  -9  -4  -1  354.06   61.79
   9   4   1  320.97   33.70
  10  -5  -1  441.36   49.50
 -10   5   1  318.87   60.69
   9  -5  -1  423.36   45.20
  -9   5   1  292.67   51.29
   8  -5  -1  615.04   55.19
  -8   5   1  574.24   62.79
   7  -5  -1  741.23   58.69
  -7   5   1  669.73   66.79
   6  -5  -1  410.36   38.70
  -6   5   1  383.76   42.60
   5  -5  -1  614.14   41.50
   5  -5  -1  633.04   49.99
  -5   5   1  570.54   51.79
   4  -5  -1 1281.07   90.99
   4  -5  -1 1338.97   84.09
  -4   5   1 1267.27   92.29
   3  -5  -1 2606.84  185.68
   3  -5  -1 3101.09  181.38
  -3   5   1 2821.72  186.98
   2  -5  -1 1195.88   90.59
   2  -5  -1 1501.55   88.69
  -2   5   1 1274.17   91.49
   1  -5  -1  955.70   71.49
   1  -5  -1 1142.09   71.09
  -1   5   1  966.80   72.39
   0  -5  -1 2804.22  161.98
   0  -5  -1 2314.37  158.88
   0   5   1 2243.48  160.68
  -1  -5  -1 2307.77  153.58
  -1  -5  -1 2647.14  161.68
   1   5   1 2309.27  158.98
  -2  -5  -1  751.62   58.29
  -2  -5  -1  646.24   45.60
   2   5   1  738.73   53.89
  -3  -5  -1 1036.60   79.19
  -3  -5  -1  984.70   64.19
   3   5   1  969.90   71.59
  -4  -5  -1 1697.73  124.69
   4   5   1 1604.14  111.69
  -5  -5  -1  504.65   59.49
   5   5   1  560.84   44.70
  -6  -5  -1  490.15   65.19
   6   5   1  508.75   42.50
  -7  -5  -1  201.88   46.30
   7   5   1  296.17   29.90
  -8  -5  -1  256.07   61.19
   8   5   1  240.88   30.10
  -9  -5  -1  126.09   44.90
   9   5   1  138.49   23.60
  10  -6  -1   87.49   29.40
 -10   6   1   79.89   46.20
   9  -6  -1  425.86   51.49
  -9   6   1  475.55   67.19
   8  -6  -1  457.45   49.00
  -8   6   1  479.65   61.19
   7  -6  -1  612.64   54.89
  -7   6   1  586.24   63.19
   6  -6  -1  360.16   36.70
  -6   6   1  320.77   42.60
   5  -6  -1  352.36   34.90
  -5   6   1  415.86   40.90
   4  -6  -1 1292.37   77.19
   4  -6  -1 1041.00   83.49
  -4   6   1 1124.59   85.99
   3  -6  -1  828.92   67.79
   3  -6  -1 1102.79   63.89
  -3   6   1  812.42   68.89
   2  -6  -1  512.65   46.60
   2  -6  -1  716.63   44.80
  -2   6   1  532.55   47.70
   1  -6  -1  971.00   64.89
   1  -6  -1  818.92   65.29
  -1   6   1  913.31   67.39
   0  -6  -1 1942.91  139.19
   0  -6  -1 2438.26  142.79
   0   6   1 1968.80  141.89
  -1  -6  -1 1369.06   96.89
  -1  -6  -1 1546.05  105.29
   1   6   1 1564.24  104.39
  -2  -6  -1  706.63   52.09
  -2  -6  -1  948.31   67.99
   2   6   1  833.62   62.09
  -3  -6  -1  124.89   28.70
   3   6   1  145.69   22.80
  -4  -6  -1  463.35   50.89
   4   6   1  436.06   40.30
  -5  -6  -1  578.44   66.79
   5   6   1  570.04   48.20
  -6  -6  -1  243.28   50.59
   6   6   1  380.96   36.40
  -7  -6  -1  252.77   56.09
   7   6   1  369.06   35.40
  -8  -6  -1  236.08   63.49
   8   6   1  296.77   32.80
   9  -7  -1  385.36   49.00
  -9   7   1  362.86   61.69
   8  -7  -1  394.26   47.90
  -8   7   1  372.06   57.19
   7  -7  -1  492.15   45.20
  -7   7   1  389.56   55.39
   6  -7  -1  408.66   43.30
  -6   7   1  495.85   53.09
   5  -7  -1  386.66   40.10
  -5   7   1  440.16   44.60
   4  -7  -1 1777.52  126.69
  -4   7   1 1916.71  129.89
   3  -7  -1  569.44   47.80
  -3   7   1  571.44   49.70
   2  -7  -1  647.44   53.89
  -2   7   1  722.73   56.79
   1  -7  -1 1541.95   91.59
   1  -7  -1 1074.99   90.89
  -1   7   1 1260.57   93.79
   0  -7  -1 1976.00  129.49
   0  -7  -1 1764.72  126.69
   0   7   1 1937.11  131.39
  -1  -7  -1 1093.79   78.79
  -1  -7  -1  920.01   68.99
   1   7   1 1060.09   77.69
  -2  -7  -1  427.16   48.10
   2   7   1  524.05   45.90
  -3  -7  -1 1908.81  135.69
   3   7   1 1687.73  124.09
  -4  -7  -1  366.46   53.19
   4   7   1  355.26   37.40
  -5  -7  -1  305.37   52.39
   5   7   1  237.28   31.30
  -6  -7  -1  289.47   58.29
   6   7   1  363.26   36.90
  -7  -7  -1  397.06   70.09
   7   7   1  435.46   43.10
   9  -8  -1  308.07   44.80
  -9   8   1  271.27   56.39
   8  -8  -1  370.76   46.20
  -8   8   1  269.47   51.69
   7  -8  -1  215.98   33.80
  -7   8   1  215.08   42.20
   6  -8  -1  559.84   52.39
  -6   8   1  538.15   57.89
   5  -8  -1  698.33   60.49
  -5   8   1  766.22   65.79
   4  -8  -1  180.68   27.00
  -4   8   1  231.38   31.70
   3  -8  -1  104.89   21.60
  -3   8   1  138.39   24.20
   2  -8  -1  453.95   46.40
   2  -8  -1  639.84   44.90
  -2   8   1  546.65   50.59
   1  -8  -1  919.01   76.79
   1  -8  -1 1208.68   76.79
  -1   8   1  948.01   78.39
   0  -8  -1  653.93   55.19
   0  -8  -1  743.03   59.19
   0   8   1  725.03   59.89
  -1  -8  -1  830.72   69.19
   1   8   1  832.42   69.39
  -2  -8  -1  903.81   79.09
   2   8   1  956.30   75.59
  -3  -8  -1  808.82   75.79
   3   8   1  748.33   65.09
  -4  -8  -1  323.17   52.69
   4   8   1  303.57   37.70
  -5  -8  -1  252.17   53.69
   5   8   1  288.27   35.90
  -6  -8  -1  297.27   63.89
   6   8   1  371.06   39.20
  -7  -8  -1  285.37   68.59
   7   8   1  193.28   29.60
   8  -9  -1  113.39   29.40
  -8   9   1  158.78   41.30
   7  -9  -1  448.66   49.60
  -7   9   1  416.66   60.39
   6  -9  -1  428.36   44.90
  -6   9   1  364.56   50.09
   5  -9  -1  656.13   56.99
  -5   9   1  621.74   61.69
   4  -9  -1  738.03   63.39
  -4   9   1  812.52   68.79
   3  -9  -1  442.76   44.90
  -3   9   1  534.75   50.49
   2  -9  -1  447.26   44.80
   2  -9  -1  506.85   45.60
  -2   9   1  498.15   49.60
   1  -9  -1  725.73   55.79
   1  -9  -1  604.44   56.29
  -1   9   1  661.43   60.39
   0  -9  -1  703.43   59.29
   0  -9  -1  667.73   56.49
   0   9   1  622.54   61.19
  -1  -9  -1  732.33   64.09
   1   9   1  594.14   61.19
  -2  -9  -1  936.71   81.79
   2   9   1  823.32   74.09
  -3  -9  -1  312.57   51.39
   3   9   1  361.66   44.30
  -4  -9  -1  251.37   52.59
   4   9   1  215.68   33.70
  -5  -9  -1  392.46   70.69
   5   9   1  357.06   44.20
  -6  -9  -1  477.85   85.59
   6   9   1  416.06   45.10
   8 -10  -1  139.49   34.80
  -8  10   1  107.59   41.60
   7 -10  -1  148.89   30.90
  -7  10   1  264.07   52.49
   6 -10  -1  210.08   34.20
  -6  10   1  219.98   39.30
   5 -10  -1  282.97   37.40
  -5  10   1  284.57   44.10
   4 -10  -1  206.28   32.00
  -4  10   1  254.47   40.60
   3 -10  -1  455.55   48.60
  -3  10   1  527.45   54.69
   2 -10  -1  504.15   49.99
  -2  10   1  584.54   54.79
   1 -10  -1  166.68   30.30
  -1  10   1  256.57   38.30
   0 -10  -1  455.35   47.10
   0  10   1  368.56   49.30
  -1 -10  -1  477.65   52.69
   1  10   1  485.55   54.49
  -2 -10  -1  629.44   69.59
   2  10   1  598.44   61.69
  -3 -10  -1  402.16   59.49
   3  10   1  359.46   47.60
  -4 -10  -1  189.88   48.80
   4  10   1  216.58   36.80
  -5 -10  -1  591.64   85.69
   5  10   1  509.55   53.99
   7 -11  -1  262.17   40.40
  -7  11   1  253.87   53.49
   6 -11  -1  170.68   30.60
  -6  11   1  164.08   38.00
   5 -11  -1  236.28   35.10
  -5  11   1  266.37   45.70
   4 -11  -1  197.08   32.40
  -4  11   1  219.48   41.50
   3 -11  -1  287.57   40.00
  -3  11   1  317.77   47.50
   2 -11  -1  311.67   40.10
  -2  11   1  316.67   48.30
  -1  11   1  566.04   62.59
   0  11   1  427.06   56.69
  -1 -11  -1  447.46   57.09
   1  11   1  435.76   57.29
  -2 -11  -1  428.66   59.79
   2  11   1  385.16   53.09
  -3 -11  -1  108.99   38.70
   3  11   1   91.19   32.60
  -4 -11  -1  452.25   71.59
   4  11   1  339.57   49.00
   5 -12  -1  129.89   27.20
  -5  12   1  130.99   39.60
   4 -12  -1  272.17   38.10
  -4  12   1  330.87   51.29
  -3  12   1  220.18   42.50
  -2  12   1  273.07   46.60
  -1  12   1  178.08   39.90
   0  12   1  467.25   59.89
   1  12   1  313.27   49.70
  -2 -12  -1  108.09   37.60
   2  12   1   76.89   32.50
   0  13  -2  162.78   40.80
  -1  13  -2   70.59   33.50
  -2  13  -2  314.47   54.19
  -3  13  -2  268.17   51.49
   3 -13   2  251.77   42.80
   2  12  -2  323.27   50.19
   1  12  -2  296.57   49.50
   0  12  -2  125.99   36.40
  -1  12  -2  241.48   43.00
  -2  12  -2  198.38   39.10
   2 -12   2  143.79   35.00
  -3  12  -2  398.46   54.89
   3 -12   2  348.67   49.00
  -4  12  -2  222.48   44.00
   4 -12   2  250.57   39.30
  -5  12  -2  190.98   41.10
   5 -12   2  142.89   32.20
   4  11  -2  350.16   47.70
  -4 -11   2  269.47   56.29
   3  11  -2  294.67   45.50
  -3 -11   2  280.87   47.90
   2  11  -2   97.39   31.40
  -2 -11   2  110.89   28.60
   1  11  -2  287.87   44.30
   0  11  -2  105.79   30.30
  -1  11  -2  347.57   47.70
   1 -11   2  297.27   43.30
  -2  11  -2  707.03   67.49
   2 -11   2  628.84   63.49
  -3  11  -2  396.36   51.29
   3 -11   2  333.27   46.90
  -4  11  -2  267.47   44.20
   4 -11   2  278.07   42.20
  -5  11  -2  211.48   41.80
   5 -11   2  235.88   37.40
  -6  11  -2  450.15   62.99
   6 -11   2  373.26   49.20
  -7  11  -2  106.99   43.60
   7 -11   2  158.18   35.10
   5  10  -2  112.89   29.70
  -5 -10   2  109.19   46.20
   4  10  -2  374.76   47.00
  -4 -10   2  315.17   53.79
   3  10  -2  372.56   47.90
  -3 -10   2  360.96   50.59
   2  10  -2  481.35   57.09
  -2 -10   2  504.35   51.69
   1  10  -2  265.27   40.20
  -1 -10   2  300.17   38.00
   0  10  -2  171.78   32.40
   0 -10   2  215.78   31.40
   0 -10   2  244.78   34.60
  -1  10  -2  417.26   47.00
   1 -10   2  409.86   50.29
  -2  10  -2  327.27   41.90
   2 -10   2  244.18   40.40
  -3  10  -2  402.36   48.30
   3 -10   2  307.37   43.30
  -4  10  -2  279.77   42.90
   4 -10   2  230.28   35.20
  -5  10  -2  210.08   41.40
   5 -10   2  244.58   37.10
  -6  10  -2  432.46   59.79
   6 -10   2  381.16   48.00
  -7  10  -2  179.48   43.70
   7 -10   2  226.08   35.90
  -8  10  -2  218.58   49.30
   8 -10   2  267.37   41.00
   6   9  -2  153.68   28.90
  -6  -9   2  122.19   47.90
   5   9  -2  582.04   56.69
  -5  -9   2  541.15   73.79
   4   9  -2  263.27   37.70
  -4  -9   2  255.97   46.00
   3   9  -2  255.07   35.80
  -3  -9   2  218.38   38.70
   2   9  -2  455.55   50.89
  -2  -9   2  485.85   48.30
   1   9  -2  547.35   52.59
  -1  -9   2  559.14   47.20
  -1  -9   2  511.75   48.60
   0   9  -2  525.95   48.10
   0  -9   2  442.36   44.60
   0  -9   2  404.16   38.70
  -1   9  -2  614.34   56.49
   1  -9   2  635.94   50.59
   1  -9   2  626.24   58.39
  -2   9  -2  549.65   51.69
   2  -9   2  530.75   52.29
  -3   9  -2  338.77   41.50
   3  -9   2  343.27   41.40
  -4   9  -2  499.05   51.59
   4  -9   2  492.65   49.80
  -5   9  -2  689.43   65.09
   5  -9   2  618.44   58.59
  -6   9  -2  398.06   54.59
   6  -9   2  471.05   47.60
  -7   9  -2  356.96   52.29
   7  -9   2  263.87   40.10
  -8   9  -2  419.26   62.79
   8  -9   2  354.66   46.00
   7   8  -2  341.57   39.70
  -7  -8   2  194.68   57.59
   6   8  -2  215.78   33.80
  -6  -8   2  257.77   50.29
   5   8  -2  305.17   37.10
  -5  -8   2  242.08   46.20
   4   8  -2  410.36   41.80
  -4  -8   2  321.97   48.70
   3   8  -2  251.07   34.00
  -3  -8   2  221.48   36.20
   2   8  -2  388.66   39.40
  -2  -8   2  308.47   36.80
  -2  -8   2  335.77   32.40
   1   8  -2  440.76   41.60
  -1  -8   2  333.47   35.70
  -1  -8   2  406.86   36.50
   0   8  -2  694.43   55.19
   0  -8   2  689.63   54.09
   0  -8   2  567.54   48.70
  -1   8  -2  472.85   42.80
   1  -8   2  523.15   47.60
   1  -8   2  445.76   36.10
  -2   8  -2  568.84   51.89
   2  -8   2  624.44   53.89
  -3   8  -2  426.26   40.10
   3  -8   2  358.26   38.40
  -4   8  -2  245.68   34.90
   4  -8   2  290.97   36.20
  -5   8  -2  348.27   43.90
   5  -8   2  327.97   37.40
  -6   8  -2  431.46   52.19
   6  -8   2  368.56   41.70
  -7   8  -2  522.35   65.49
   7  -8   2  610.54   55.09
  -8   8  -2  288.37   54.09
   8  -8   2  287.57   39.20
  -9   8  -2  269.17   52.99
   9  -8   2  279.67   39.60
  -8  -7   2  144.79   48.20
   7   7  -2  353.06   39.00
  -7  -7   2  324.57   61.09
   6   7  -2  681.93   55.09
  -6  -7   2  500.45   72.39
   5   7  -2  370.86   39.00
  -5  -7   2  294.27   49.50
   4   7  -2  251.27   31.60
  -4  -7   2  156.08   35.30
   3   7  -2  627.34   49.40
  -3  -7   2  526.05   42.50
  -3  -7   2  490.55   51.49
   2   7  -2 1893.11  125.99
  -2  -7   2 1717.23  119.99
  -2  -7   2 1837.52  126.79
   1   7  -2  371.86   35.80
  -1  -7   2  400.96   33.20
  -1  -7   2  303.77   32.20
   0   7  -2  806.12   57.39
   0  -7   2  635.74   51.79
   0  -7   2  726.03   55.99
  -1   7  -2 1401.76   92.79
   1  -7   2 1224.88   85.79
   1  -7   2 1287.87   93.79
  -2   7  -2  728.43   57.09
   2  -7   2  638.44   57.39
   2  -7   2  739.63   48.10
  -3   7  -2  494.55   45.50
   3  -7   2  511.95   46.10
  -4   7  -2  239.98   33.70
   4  -7   2  244.38   30.70
  -5   7  -2 1129.29   88.39
   5  -7   2 1092.49   82.89
  -6   7  -2  487.25   51.99
   6  -7   2  395.46   42.30
  -7   7  -2  601.04   62.49
   7  -7   2  475.65   47.90
  -8   7  -2  357.86   57.99
   8  -7   2  391.96   42.50
  -9   7  -2  230.48   48.80
   9  -7   2  215.38   33.30
  -8  -6   2  410.76   71.79
   7   6  -2  487.85   42.50
  -7  -6   2  414.46   66.09
   6   6  -2  489.05   40.50
  -6  -6   2  311.97   55.49
   5   6  -2  463.55   39.70
  -5  -6   2  347.67   52.09
   4   6  -2  314.17   33.70
  -4  -6   2  277.57   41.30
  -4  -6   2  332.87   30.40
   3   6  -2  272.47   29.30
  -3  -6   2  213.58   33.20
  -3  -6   2  283.27   25.20
   2   6  -2   64.29   16.40
  -2  -6   2   74.19   17.10
  -2  -6   2   76.09   11.90
   1   6  -2  765.72   56.59
  -1  -6   2  736.23   53.79
  -1  -6   2  720.83   55.89
   0   6  -2  766.42   55.79
   0  -6   2  798.02   56.69
   0  -6   2  671.03   52.09
  -1   6  -2 1159.38   84.09
   1  -6   2 1323.67   86.99
   1  -6   2 1163.18   79.39
  -2   6  -2  994.10   72.79
   2  -6   2  953.80   74.49
   2  -6   2 1040.80   65.29
  -3   6  -2  655.93   52.59
   3  -6   2  643.44   52.69
  -4   6  -2  821.92   64.29
   4  -6   2  794.82   62.19
  -5   6  -2  412.26   40.40
   5  -6   2  333.57   35.40
  -6   6  -2  252.47   39.80
   6  -6   2  333.57   33.90
  -7   6  -2  693.33   67.79
   7  -6   2  660.33   55.99
  -8   6  -2  432.66   59.59
   8  -6   2  420.86   42.60
  -9   6  -2   99.29   40.00
   9  -6   2  144.99   26.70
 -10   6  -2  216.78   56.49
  10  -6   2  252.47   34.60
  -9  -5   2  225.58   56.29
   8   5  -2  334.47   33.00
  -8  -5   2  298.27   59.79
   7   5  -2  549.54   43.20
  -7  -5   2  402.46   63.49
   6   5  -2  474.15   38.70
  -6  -5   2  366.46   55.59
   5   5  -2  727.43   52.99
  -5  -5   2  562.44   61.09
  -5  -5   2  713.33   55.09
   4   5  -2  781.62   53.49
  -4  -5   2  580.84   59.49
  -4  -5   2  650.63   51.69
   3   5  -2 1538.65  103.79
  -3  -5   2 1624.84  101.69
  -3  -5   2 1352.96  107.79
   2   5  -2  786.92   56.39
  -2  -5   2  742.33   52.79
  -2  -5   2  730.13   58.09
   1   5  -2  510.95   38.50
  -1  -5   2  446.46   37.90
  -1  -5   2  486.05   36.40
   0   5  -2 1279.27   87.79
   0  -5   2 1225.28   85.99
   0  -5   2 1387.46   88.69
  -1   5  -2 1084.39   75.09
   1  -5   2 1137.99   77.29
   1  -5   2 1058.19   71.39
  -2   5  -2 1005.00   73.29
  -2   5  -2 1087.99   66.49
   2  -5   2  998.10   74.39
  -3   5  -2  597.44   48.70
   3  -5   2  630.14   48.90
  -4   5  -2 1182.38   84.39
   4  -5   2 1118.89   81.69
  -5   5  -2  667.93   55.29
   5  -5   2  597.94   49.90
  -6   5  -2  727.83   64.69
   6  -5   2  727.23   57.09
  -7   5  -2  618.34   59.39
   7  -5   2  524.05   46.80
  -8   5  -2  334.87   50.59
   8  -5   2  370.96   36.90
  -9   5  -2  459.05   66.79
   9  -5   2  382.06   39.80
 -10   5  -2  314.97   61.49
  10  -5   2  312.17   38.90
  -9  -4   2   49.90   32.00
   8   4  -2  609.34   45.20
  -8  -4   2  396.66   67.99
   7   4  -2  387.96   34.60
   6   4  -2  359.36   30.00
  -6  -4   2  252.27   43.50
  -6  -4   2  337.87   36.00
   5   4  -2  691.63   47.70
  -5  -4   2  600.34   50.49
  -5  -4   2  530.85   55.99
   4   4  -2  663.43   47.40
  -4  -4   2  644.44   49.10
  -4  -4   2  532.55   54.49
   3   4  -2  975.00   66.29
  -3  -4   2 1004.70   65.69
  -3  -4   2  810.82   69.89
   2   4  -2  763.82   53.49
  -2  -4   2  783.72   51.89
  -2  -4   2  677.83   56.09
   1   4  -2  569.34   41.70
  -1  -4   2  512.85   42.50
  -1  -4   2  625.44   41.20
   0   4  -2 1018.90   66.59
   0  -4   2  952.30   66.69
   0  -4   2  955.50   65.79
  -1   4  -2  599.04   44.30
   1  -4   2  588.84   45.60
   1  -4   2  637.64   41.40
  -2   4  -2 1353.46   88.99
   2  -4   2 1265.47   89.69
  -3   4  -2  974.10   72.19
   3  -4   2 1051.89   71.99
  -4   4  -2  994.40   70.39
   4  -4   2  892.01   66.89
  -5   4  -2  705.93   59.89
   5  -4   2  811.22   49.00
   5  -4   2  663.53   55.49
  -6   4  -2  787.42   64.59
   6  -4   2  758.92   57.99
  -7   4  -2  478.35   54.39
   7  -4   2  588.34   46.80
  -8   4  -2   -4.00   22.60
   8  -4   2   37.30   15.10
  -9   4  -2  160.38   38.20
   9  -4   2  175.58   25.60
 -10   4  -2  389.16   63.79
  10  -4   2  437.76   41.90
  -9  -3   2  478.05   67.49
   8   3  -2  420.16   33.50
  -8  -3   2  269.67   51.99
   7   3  -2  459.55   35.30
  -7  -3   2  350.06   52.19
  -7  -3   2  386.26   41.90
   6   3  -2  797.92   51.39
  -6  -3   2  506.25   61.69
  -6  -3   2  699.23   56.99
   5   3  -2  495.95   36.50
  -5  -3   2  418.76   47.10
  -5  -3   2  486.35   42.60
   4   3  -2 1161.18   74.39
  -4  -3   2  933.61   81.89
  -4  -3   2 1133.59   77.99
   3   3  -2 1397.76   94.29
  -3  -3   2 1542.65   96.09
  -3  -3   2 1315.37  100.19
   2   3  -2  836.22   57.69
  -2  -3   2  883.01   57.49
  -2  -3   2  800.92   61.59
   1   3  -2 1576.14   96.79
  -1  -3   2 1477.95   96.39
  -1  -3   2 1389.86   98.79
   0   3  -2  897.91   58.79
   0  -3   2  861.31   58.99
   0  -3   2  876.51   59.39
  -1   3  -2 1902.21  119.59
  -1   3  -2 1982.30  122.19
  -1   3  -2 1757.62  118.89
   1  -3   2 1932.51  123.39
  -2   3  -2 1240.78   80.69
   2  -3   2 1148.99   80.89
  -3   3  -2  858.51   63.39
  -3   3  -2  899.91   57.39
   3  -3   2  847.02   62.49
   3  -3   2  939.31   56.79
  -4   3  -2 1666.13  108.29
  -4   3  -2 1528.15  101.39
   4  -3   2 1546.65  105.09
  -5   3  -2 1135.59   80.19
  -5   3  -2 1031.50   71.99
   5  -3   2 1051.79   74.09
  -6   3  -2  870.41   64.99
  -6   3  -2  939.11   73.99
   6  -3   2  956.60   66.09
  -7   3  -2  490.95   49.00
   7  -3   2  385.96   35.60
  -8   3  -2  454.85   54.69
   8  -3   2  392.96   36.50
  -9   3  -2  514.65   67.99
   9  -3   2  622.84   49.30
 -10   3  -2  261.17   51.69
  10  -3   2  335.37   36.10
  -9  -2   2  519.25   66.39
   8   2  -2  487.65   38.50
  -8  -2   2  397.06   59.29
  -8  -2   2  506.65   51.19
   7   2  -2  224.18   22.00
  -7  -2   2  218.58   31.10
  -7  -2   2  192.38   36.40
   6   2  -2  350.46   27.40
  -6  -2   2  328.47   35.10
  -6  -2   2  256.57   39.30
   5   2  -2  682.13   45.40
  -5  -2   2  598.64   51.59
  -5  -2   2  608.84   56.69
   4   2  -2 1515.05   92.39
  -4  -2   2 1250.27  100.29
  -4  -2   2 1410.86   97.59
   3   2  -2 1105.69   70.69
  -3  -2   2 1072.39   73.59
  -3  -2   2 1000.90   77.39
   2   2  -2 2285.47  145.09
  -2  -2   2 2383.26  146.39
  -2  -2   2 2148.39  149.69
   1   2  -2 2049.09  131.49
  -1  -2   2 2117.59  135.09
  -1  -2   2 2065.39  132.29
   0   2  -2 2512.35  157.18
   0  -2   2 2458.85  157.78
  -1   2  -2   54.89    7.60
  -1   2  -2   52.79    5.20
   1  -2   2   37.60    7.50
   1  -2   2   45.70    4.60
  -2   2  -2   89.99    7.40
  -2   2  -2   60.09   10.30
   2  -2   2   83.49   11.00
   2  -2   2   75.99    6.90
  -3   2  -2 1220.58   84.39
  -3   2  -2 1282.67   80.89
   3  -2   2 1218.08   82.99
  -4   2  -2  613.44   43.90
  -4   2  -2  586.74   47.30
   4  -2   2  624.74   44.50
  -5   2  -2  906.11   70.39
  -5   2  -2 1129.59   76.49
   5  -2   2 1052.79   70.19
  -6   2  -2 1023.60   74.49
  -6   2  -2  854.21   67.69
   6  -2   2  953.00   65.89
  -7   2  -2  316.07   40.20
  -7   2  -2  299.57   32.90
   7  -2   2  313.47   28.40
  -8   2  -2  169.98   32.30
  -8   2  -2  178.88   27.10
   8  -2   2  191.98   23.20
  -9   2  -2  346.57   52.99
   9  -2   2  426.36   36.70
 -10   2  -2  266.87   49.90
  10   1  -2  513.75   49.80
  -9  -1   2  385.66   54.29
   8   1  -2  514.65   38.40
  -8  -1   2  485.95   51.89
  -8  -1   2  404.86   55.29
   7   1  -2  618.74   42.90
  -7  -1   2  514.55   52.89
  -7  -1   2  525.35   55.99
   6   1  -2 1262.07   80.79
  -6  -1   2 1186.78   93.69
  -6  -1   2 1144.09   90.49
   5   1  -2  284.27   21.30
  -5  -1   2  247.08   31.70
  -5  -1   2  212.78   31.70
   4   1  -2  437.96   31.00
  -4  -1   2  421.06   40.30
  -4  -1   2  448.76   37.60
   3   1  -2 1101.39   71.89
  -3  -1   2 1091.69   79.59
  -3  -1   2 1144.29   77.09
   2   1  -2 2208.98  138.19
  -2  -1   2 2231.08  144.09
  -2  -1   2 2132.39  141.19
   1   1  -2 1835.42  125.69
   1   1  -2 2015.40  123.59
  -1  -1   2 1993.70  125.59
  -1  -1   2 2037.00  123.79
   0   1  -2 1133.49   73.29
   0   1  -2 1100.99   72.49
   0  -1   2 1192.08   73.49
  -1   1  -2 7142.79  426.96
  -1   1  -2 7178.98  426.46
   1  -1   2 6088.09  426.46
   1  -1   2 6902.71  426.86
  -2   1  -2 1903.81  120.79
  -2   1  -2 1861.41  121.89
   2  -1   2 1892.41  121.29
  -3   1  -2  768.12   55.19
  -3   1  -2  815.62   53.89
   3  -1   2  738.13   52.69
  -4   1  -2  945.41   65.89
  -4   1  -2  959.40   67.49
   4  -1   2  902.11   62.99
  -5   1  -2 1207.08   89.59
  -5   1  -2 1298.77   91.99
   5  -1   2 1355.06   86.39
  -6   1  -2  762.82   60.49
  -6   1  -2  645.34   56.99
   6  -1   2  780.32   52.59
  -7   1  -2  353.36   39.40
  -7   1  -2  341.67   37.70
   7  -1   2  347.27   29.60
  -8   1  -2  378.86   51.89
  -8   1  -2  467.05   49.50
   8  -1   2  548.45   40.70
  -9   1  -2  358.36   48.70
  10  -1   2  467.65   47.40
  10   0  -2  544.65   50.69
   9   0  -2  357.86   45.60
   9   0  -2  464.45   41.40
  -9   0   2  491.65   56.19
   8   0  -2  362.06   31.40
  -8   0   2  365.76   48.90
  -7   0   2  816.62   69.19
  -7   0   2  761.52   67.79
  -6   0   2  421.26   36.20
  -6   0   2  460.25   43.50
  -6   0   2  395.16   41.60
  -5   0   2  478.15   45.90
  -5   0   2  561.24   48.20
  -5   0   2  568.24   41.40
  -4   0   2 1069.99   79.09
  -4   0   2 1071.29   78.09
  -4   0   2 1102.99   72.79
  -3   0   2 1733.83  107.19
  -3   0   2 1551.04  100.49
  -3   0   2 1415.26  104.39
   2   0  -2  972.00   59.19
   2   0  -2  888.51   60.79
  -2   0   2  834.62   61.99
  -2   0   2  940.61   58.79
   1   0  -2 1631.24  105.89
  -1   0   2 1684.53  106.39
   0   0  -2 1040.60   63.39
   0   0  -2  967.50   64.29
   0   0   2  963.10   63.39
  -1   0  -2  745.53   50.29
  -1   0  -2  820.42   51.29
   1   0   2  702.73   48.50
  -2   0  -2  851.91   60.39
  -2   0  -2  877.51   60.29
   2   0   2  927.61   58.09
  -3   0  -2 1222.08   83.29
  -3   0  -2 1234.78   83.49
   3   0   2 1218.68   79.79
  -4   0  -2  454.25   39.00
  -4   0  -2  505.75   39.80
   4   0   2  471.05   34.10
  -5   0  -2  418.76   38.40
  -5   0  -2  400.46   38.10
   5   0   2  431.16   31.70
  -6   0  -2  627.74   54.49
  -6   0  -2  510.85   51.09
   6   0   2  694.63   45.50
  -7   0  -2  203.28   34.30
  -7   0  -2  182.68   30.60
   7   0   2  233.88   22.10
  -8   0  -2  905.71   85.09
   8   0   2 1076.09   73.09
   8   0   2 1078.59   76.49
   9   0   2  560.34   49.50
  10   0   2  193.98   30.30
  10  -1  -2  260.07   30.60
   9  -1  -2  393.26   36.00
  -9   1   2  349.87   49.90
   8  -1  -2  439.36   35.70
  -8   1   2  381.26   49.20
  -8   1   2  331.57   38.70
   7  -1  -2 1147.49   69.99
  -7   1   2  816.02   70.79
  -7   1   2  870.81   77.99
   6  -1  -2  553.74   40.60
  -6   1   2  490.45   48.70
  -6   1   2  509.15   42.60
   5  -1  -2 1101.39   74.39
  -5   1   2 1105.19   75.69
  -5   1   2 1065.09   81.19
   4  -1  -2 1167.48   79.39
  -4   1   2 1205.78   79.79
  -4   1   2 1212.08   85.29
   3  -1  -2 1931.71  126.99
  -3   1   2 1982.60  126.59
  -3   1   2 2019.70  130.89
   2  -1  -2  990.30   65.49
  -2   1   2 1009.30   67.59
  -2   1   2  984.80   64.39
   1  -1  -2  487.85   33.80
  -1   1   2  490.25   34.30
  -1   1   2  497.15   32.60
   0  -1  -2 6281.77  380.76
   0   1   2 5705.73  378.46
   0   1   2 6219.28  379.16
  -1  -1  -2  662.13   47.60
  -1  -1  -2  697.83   43.00
   1   1   2  650.83   45.10
   1   1   2  674.23   42.80
  -2  -1  -2 1572.94  108.29
   2   1   2 1788.22  102.79
   2   1   2 1489.25  104.99
  -3  -1  -2 1688.93  113.29
   3   1   2 1525.75  108.49
   3   1   2 1786.12  106.59
  -4  -1  -2 1413.66  103.19
   4   1   2 1400.16   97.29
   4   1   2 1578.24   95.19
  -5  -1  -2  615.04   55.59
   5   1   2  641.44   48.30
   5   1   2  698.03   45.80
  -6  -1  -2  183.38   30.70
   6   1   2  222.48   19.60
   6   1   2  197.48   22.50
  -7  -1  -2  565.84   61.79
   7   1   2  674.33   52.59
   7   1   2  747.63   49.80
  -8  -1  -2  378.56   52.99
   8   1   2  411.16   38.90
  -9  -1  -2  302.47   52.59
   9   1   2  446.86   39.90
 -10  -1  -2  234.38   47.90
  10   1   2  234.78   33.30
  10  -2  -2  337.37   40.40
   9  -2  -2  451.25   36.90
  -9   2   2  428.06   58.09
  -9   2   2  257.87   41.80
   8  -2  -2  635.74   44.40
  -8   2   2  441.96   49.10
  -8   2   2  471.05   55.89
   7  -2  -2  684.53   47.90
  -7   2   2  548.25   51.29
  -7   2   2  629.04   60.49
   6  -2  -2  515.85   38.10
  -6   2   2  456.65   41.70
  -6   2   2  528.55   48.90
   5  -2  -2  974.50   65.69
  -5   2   2  976.40   69.19
  -5   2   2  921.01   73.79
   4  -2  -2 2497.85  153.98
  -4   2   2 2383.76  155.78
  -4   2   2 2282.77  159.68
   3  -2  -2  425.46   30.60
  -3   2   2  426.96   34.90
  -3   2   2  416.06   31.80
   2  -2  -2  541.45   39.10
  -2   2   2  590.54   41.80
  -2   2   2  593.74   39.70
   1  -2  -2  622.04   43.10
  -1   2   2  630.44   42.80
  -1   2   2  639.54   43.40
   0  -2  -2  955.40   64.99
   0   2   2  963.20   63.59
   0   2   2  947.31   61.69
  -1  -2  -2 2460.75  143.39
  -1  -2  -2 2212.68  149.88
   1   2   2 2185.68  147.09
  -2  -2  -2 2457.75  164.28
   2   2   2 2533.95  160.28
  -3  -2  -2 1593.54  108.59
   3   2   2 1579.74   97.69
   3   2   2 1496.65  102.39
  -4  -2  -2  319.37   37.50
   4   2   2  358.36   31.10
   4   2   2  435.76   27.50
  -5  -2  -2  639.34   60.19
   5   2   2  602.34   49.99
   5   2   2  780.32   47.20
  -6  -2  -2  292.37   42.90
   6   2   2  392.16   28.20
   6   2   2  292.27   29.90
  -7  -2  -2  514.35   56.79
   7   2   2  462.65   40.20
  -8  -2  -2  365.76   54.79
   8   2   2  365.26   35.20
  -9  -2  -2  212.58   45.70
   9   2   2  284.17   33.30
 -10  -2  -2  228.08   51.89
  10   2   2  264.77   33.00
  10  -3  -2  606.24   57.69
  -9   3   2  225.48   39.20
   8  -3  -2  406.06   32.50
  -8   3   2  248.78   43.30
  -8   3   2  338.77   43.50
   7  -3  -2  565.84   41.40
  -7   3   2  480.85   54.59
  -7   3   2  538.55   50.49
   6  -3  -2  574.54   41.50
  -6   3   2  512.05   50.19
  -6   3   2  558.84   47.80
   5  -3  -2 1303.67   81.59
  -5   3   2 1128.59   89.79
  -5   3   2 1171.88   86.29
   4  -3  -2 2291.77  142.19
  -4   3   2 2235.48  145.89
  -4   3   2 2074.39  148.29
   3  -3  -2 3338.67  206.28
  -3   3   2 3169.58  210.78
  -3   3   2 3245.18  208.58
   2  -3  -2 1123.99   77.39
  -2   3   2 1213.98   79.09
  -2   3   2 1231.58   80.49
   1  -3  -2  703.53   47.90
  -1   3   2  711.13   48.20
  -1   3   2  651.73   47.40
   0  -3  -2  877.11   61.99
   0   3   2  847.42   60.39
   0   3   2  918.71   58.59
  -1  -3  -2  310.47   21.40
  -1  -3  -2  340.67   21.90
  -1  -3  -2  297.77   28.70
   1   3   2  297.97   25.90
  -2  -3  -2 1595.54  108.59
   2   3   2 1529.15  103.19
  -3  -3  -2 1306.17   91.09
   3   3   2 1173.58   82.99
  -4  -3  -2  514.65   51.19
   4   3   2  613.34   36.30
   4   3   2  478.55   41.80
  -5  -3  -2  848.12   73.39
   5   3   2  822.02   59.99
  -6  -3  -2  704.93   68.19
   6   3   2  649.14   50.59
  -7  -3  -2  306.97   49.99
   7   3   2  301.27   30.20
  -8  -3  -2  201.68   46.00
   8   3   2  265.87   30.50
  -9  -3  -2  277.77   52.99
   9   3   2  251.27   30.30
  10  -4  -2  277.87   40.20
   9  -4  -2  494.65   48.00
  -9   4   2  312.87   49.70
  -8   4   2  720.93   67.69
  -8   4   2  683.23   70.59
   7  -4  -2  286.47   23.90
  -7   4   2  181.38   35.00
  -7   4   2  185.28   31.10
   6  -4  -2  614.84   41.70
  -6   4   2  454.15   51.39
  -6   4   2  537.75   49.90
   5  -4  -2 1557.74   96.79
  -5   4   2 1498.95  104.19
  -5   4   2 1298.27  105.29
   4  -4  -2 1484.05   89.09
  -4   4   2 1255.37   93.59
  -4   4   2 1272.37   95.89
   3  -4  -2  795.02   52.39
  -3   4   2  727.43   57.29
  -3   4   2  787.52   56.29
   2  -4  -2  720.83   50.39
  -2   4   2  746.73   53.09
  -2   4   2  737.03   53.29
   1  -4  -2 2003.80  124.69
  -1   4   2 1788.72  124.69
   0  -4  -2 1744.63  124.69
   0  -4  -2 2191.98  129.79
   0   4   2 1901.91  127.49
  -1  -4  -2 1665.83  113.89
  -1  -4  -2 1698.43  105.69
   1   4   2 1583.64  110.49
  -2  -4  -2  732.73   58.29
   2   4   2  690.93   52.49
  -3  -4  -2  456.45   43.80
   3   4   2  392.16   33.50
  -4  -4  -2 1202.18   91.59
   4   4   2 1084.49   78.49
  -5  -4  -2  444.66   53.39
   5   4   2  482.95   39.10
  -6  -4  -2  261.37   45.40
   6   4   2  236.68   26.30
  -7  -4  -2  338.77   58.09
   7   4   2  392.36   35.60
  -8  -4  -2  154.68   42.90
   8   4   2  221.68   27.70
  -9  -4  -2  231.88   54.89
   9   4   2  187.18   27.20
  10  -5  -2  589.24   61.09
   9  -5  -2  492.55   51.19
  -9   5   2  381.06   57.39
   8  -5  -2  558.14   52.39
  -8   5   2  434.66   59.89
   7  -5  -2  286.97   34.90
  -7   5   2  241.58   39.80
   6  -5  -2  500.45   35.50
  -6   5   2  429.76   47.60
  -6   5   2  418.66   48.20
   5  -5  -2 1229.18   77.79
  -5   5   2 1069.59   88.19
  -5   5   2 1176.78   87.59
   4  -5  -2 1305.87   82.89
  -4   5   2 1238.98   90.19
  -4   5   2 1226.48   91.29
   3  -5  -2  693.53   46.50
  -3   5   2  625.04   51.09
  -3   5   2  676.43   51.39
   2  -5  -2  738.83   58.39
   2  -5  -2  929.31   57.99
  -2   5   2  791.22   60.19
   1  -5  -2 2033.30  124.89
   1  -5  -2 1653.73  122.89
  -1   5   2 1958.90  126.09
   0  -5  -2  499.15   38.00
   0  -5  -2  535.05   41.80
   0   5   2  443.16   40.10
  -1  -5  -2 1028.20   72.29
  -1  -5  -2  909.21   62.09
   1   5   2  899.01   68.29
  -2  -5  -2  732.93   48.20
  -2  -5  -2  756.62   62.29
  -2  -5  -2  765.32   48.40
   2   5   2  786.62   57.99
  -3  -5  -2  382.06   43.00
   3   5   2  365.76   34.20
  -4  -5  -2  509.25   54.59
   4   5   2  463.15   40.50
  -5  -5  -2  689.53   70.89
   5   5   2  685.33   53.69
  -6  -5  -2  654.93   73.59
   6   5   2  619.14   50.59
  -7  -5  -2  169.48   46.40
   7   5   2  228.18   27.40
  -8  -5  -2  363.46   64.69
   8   5   2  363.56   36.60
  10  -6  -2  322.67   47.10
   9  -6  -2  413.36   49.80
  -9   6   2  307.37   55.39
   8  -6  -2  489.15   49.99
  -8   6   2  342.47   54.09
   7  -6  -2  596.84   54.49
  -7   6   2  567.84   59.09
   6  -6  -2  826.32   67.19
  -6   6   2  856.41   72.69
   5  -6  -2  920.21   61.79
   5  -6  -2  953.20   70.99
  -5   6   2  908.71   73.09
   4  -6  -2  395.66   29.80
   4  -6  -2  393.66   36.30
  -4   6   2  413.66   38.70
   3  -6  -2 1145.09   73.09
   3  -6  -2  984.20   76.49
  -3   6   2 1095.69   78.99
   2  -6  -2 1067.69   67.39
   2  -6  -2  825.42   67.49
  -2   6   2  961.00   70.69
   1  -6  -2 1170.98   82.89
  -1   6   2 1213.08   85.69
   0  -6  -2 1968.60  122.79
   0  -6  -2 1673.73  117.79
   0   6   2 1680.13  120.99
  -1  -6  -2  815.82   64.49
  -1  -6  -2  776.12   53.99
   1   6   2  779.32   61.19
  -2  -6  -2  621.54   53.99
   2   6   2  546.45   47.50
  -3  -6  -2  249.18   39.30
   3   6   2  284.17   30.90
  -4  -6  -2  748.03   73.89
   4   6   2  740.63   58.79
  -5  -6  -2  355.86   54.09
   5   6   2  323.07   34.20
  -6  -6  -2  331.97   58.29
   6   6   2  289.07   32.60
  -7  -6  -2  313.77   58.89
   7   6   2  280.87   32.20
  -8  -6  -2  147.09   45.90
   8   6   2  203.28   28.00
   9  -7  -2  535.45   58.49
   8  -7  -2  370.66   47.30
  -8   7   2  337.27   51.19
   7  -7  -2  390.76   44.00
  -7   7   2  372.66   50.19
   6  -7  -2  701.23   58.39
  -6   7   2  609.84   61.09
   5  -7  -2  586.94   52.49
  -5   7   2  660.33   57.09
   4  -7  -2  493.45   44.60
   4  -7  -2  539.95   38.30
  -4   7   2  492.55   47.00
   3  -7  -2   61.49   11.90
   3  -7  -2   61.09   15.60
  -3   7   2   48.00   16.30
   2  -7  -2 1101.69   69.49
   2  -7  -2  848.82   70.09
  -2   7   2  903.71   72.89
   1  -7  -2 1049.99   85.59
   1  -7  -2 1405.76   88.39
  -1   7   2 1220.18   89.89
   0  -7  -2  960.60   75.29
   0  -7  -2 1214.38   81.39
   0   7   2 1051.49   80.39
  -1  -7  -2 1066.29   80.09
  -1  -7  -2  967.20   68.09
   1   7   2  980.00   76.29
  -2  -7  -2  547.35   55.69
   2   7   2  549.74   49.50
  -3  -7  -2  597.44   60.69
   3   7   2  481.25   46.80
  -4  -7  -2  424.56   57.79
   4   7   2  336.17   37.30
  -5  -7  -2  196.58   48.10
   5   7   2  256.27   31.70
  -6  -7  -2  160.28   49.90
   6   7   2  168.08   26.90
  -7  -7  -2  434.56   80.79
   7   7   2  393.06   40.30
   9  -8  -2  332.57   49.60
  -9   8   2  291.47   57.79
   8  -8  -2  354.16   44.10
  -8   8   2  238.38   46.30
   7  -8  -2  444.76   49.00
  -7   8   2  416.36   54.99
   6  -8  -2  814.52   67.99
  -6   8   2  807.12   73.49
   5  -8  -2  683.53   56.09
  -5   8   2  589.64   58.39
   4  -8  -2  619.74   56.59
  -4   8   2  822.52   62.89
   3  -8  -2  663.13   44.70
   3  -8  -2  488.15   47.50
  -3   8   2  467.25   49.50
   2  -8  -2  785.02   54.89
   2  -8  -2  621.54   55.69
  -2   8   2  674.93   59.49
   1  -8  -2  693.43   53.69
   1  -8  -2  572.24   50.89
  -1   8   2  630.84   56.39
   0  -8  -2  579.94   49.50
   0  -8  -2  649.04   54.99
   0   8   2  650.03   57.09
  -1  -8  -2  502.75   51.69
   1   8   2  532.55   50.99
  -2  -8  -2  264.97   42.30
   2   8   2  249.97   34.80
  -3  -8  -2  846.82   81.69
   3   8   2  804.72   68.09
  -4  -8  -2  488.35   65.59
   4   8   2  314.07   40.10
  -5  -8  -2  379.46   67.19
   5   8   2  314.87   38.90
  -6  -8  -2  194.78   60.89
   6   8   2  195.08   29.20
  -7  -8  -2  133.49   60.59
   7   8   2  195.78   29.40
   8  -9  -2  152.78   35.20
  -8   9   2  156.48   38.90
   7  -9  -2  319.87   41.90
  -7   9   2  196.18   39.70
   6  -9  -2  595.04   56.49
  -6   9   2  626.94   63.69
   5  -9  -2  365.76   39.80
  -5   9   2  314.07   43.10
   4  -9  -2   99.09   22.30
  -4   9   2  116.89   26.90
   3  -9  -2  405.56   40.50
  -3   9   2  429.36   45.70
   2  -9  -2  903.61   60.59
   2  -9  -2  602.34   59.69
  -2   9   2  741.73   65.99
   1  -9  -2  522.05   47.10
   1  -9  -2  474.25   44.80
  -1   9   2  490.85   50.49
   0  -9  -2  320.07   41.00
   0   9   2  357.16   43.80
  -1  -9  -2  820.02   70.09
   1   9   2  697.03   66.99
  -2  -9  -2  646.14   68.09
   2   9   2  670.53   62.09
  -3  -9  -2  326.77   56.59
   3   9   2  270.47   38.70
  -4  -9  -2  230.98   52.19
   4   9   2  210.48   33.80
  -5  -9  -2  181.48   52.59
   5   9   2  164.68   29.60
  -6  -9  -2  427.26   79.09
   6   9   2  277.47   38.00
   7 -10  -2  407.16   50.19
  -7  10   2  382.36   55.59
   6 -10  -2  220.58   34.50
  -6  10   2  263.17   45.10
   5 -10  -2  299.97   37.10
  -5  10   2  237.08   40.30
   4 -10  -2  433.26   46.20
  -4  10   2  473.25   55.29
   3 -10  -2  496.25   48.50
  -3  10   2  496.75   54.29
   2 -10  -2  566.04   51.89
  -2  10   2  616.04   60.29
   1 -10  -2  339.17   40.20
  -1  10   2  314.57   43.20
   0 -10  -2  528.75   51.89
   0  10   2  474.35   54.39
  -1 -10  -2  418.36   51.69
   1  10   2  329.17   47.40
  -2 -10  -2  288.67   48.60
   2  10   2  267.87   41.00
  -3 -10  -2  502.95   69.69
   3  10   2  488.95   54.59
  -4 -10  -2  437.16   71.09
   4  10   2  438.86   52.09
  -5 -10  -2  352.66   75.79
   5  10   2  383.36   48.30
   6 -11  -2  167.08   31.20
  -6  11   2  207.18   45.40
   5 -11  -2  231.78   34.90
  -5  11   2  282.47   45.00
   4 -11  -2  181.38   31.30
  -4  11   2  192.68   39.60
   3 -11  -2  458.35   48.20
  -3  11   2  493.45   59.69
  -2  11   2  347.17   50.49
  -1  11   2  305.17   47.90
   0 -11  -2  308.27   47.50
   0  11   2  361.26   51.89
  -1 -11  -2  109.99   31.80
   1  11   2   62.29   30.30
  -2 -11  -2  153.48   43.80
   2  11   2  168.58   38.90
  -3 -11  -2  205.38   52.99
   3  11   2  122.99   33.80
   5 -12  -2  113.69   25.70
  -5  12   2  125.19   34.90
   4 -12  -2  184.58   32.40
  -4  12   2  278.07   47.60
  -3  12   2  336.57   53.19
  -2  12   2  411.26   57.19
  -1  12   2  335.07   50.99
   0  12   2  679.73   72.69
   1  12   2  336.87   51.99
  -2 -12  -2  304.87   55.09
  -1  13  -3  245.78   47.40
  -2  13  -3  509.65   65.69
  -3  13  -3   40.50   30.10
   3 -13   3   23.10   28.40
   2  12  -3  152.28   37.00
   1  12  -3   48.10   26.70
   0  12  -3  316.07   49.10
  -1  12  -3  531.35   62.69
   1 -12   3  433.46   58.99
  -2  12  -3  209.28   42.30
   2 -12   3  294.67   47.60
  -3  12  -3  178.28   39.00
   3 -12   3  182.58   37.60
  -4  12  -3  226.58   45.00
   4 -12   3  205.28   39.80
  -5  12  -3  341.07   54.39
   5 -12   3  322.57   47.00
   4  11  -3  248.68   40.00
  -4 -11   3  250.57   49.99
   3  11  -3  421.66   54.19
  -3 -11   3  496.15   60.69
   2  11  -3  240.68   40.30
  -2 -11   3  286.77   41.40
   1  11  -3  308.87   44.60
   0  11  -3  296.97   44.30
   0 -11   3  346.07   45.60
  -1  11  -3  419.46   50.39
   1 -11   3  359.06   50.39
  -2  11  -3  202.08   37.50
   2 -11   3  246.18   39.50
  -3  11  -3  281.97   42.20
   3 -11   3  192.98   36.20
  -4  11  -3  346.07   50.69
   4 -11   3  353.06   48.40
  -5  11  -3  333.87   51.69
   5 -11   3  346.17   45.20
  -6  11  -3  301.67   52.79
   6 -11   3  331.67   46.70
  -7  11  -3  227.48   55.29
   7 -11   3  228.38   38.00
   5  10  -3  231.28   36.20
  -5 -10   3  198.78   46.10
   4  10  -3  684.63   62.19
  -4 -10   3  561.74   70.69
   3  10  -3  320.67   41.50
  -3 -10   3  229.08   40.00
   2  10  -3  108.39   28.50
  -2 -10   3  141.19   29.40
   1  10  -3  318.87   43.50
  -1 -10   3  391.76   41.40
  -1 -10   3  382.96   38.90
   0  10  -3  597.74   56.09
   0 -10   3  542.55   53.79
  -1  10  -3  731.43   61.99
   1 -10   3  586.64   61.09
  -2  10  -3  255.37   36.80
   2 -10   3  203.38   35.80
  -3  10  -3  306.57   43.20
   3 -10   3  355.56   45.10
  -4  10  -3  620.94   65.59
   4 -10   3  722.53   64.09
  -5  10  -3  239.68   43.50
   5 -10   3  249.88   38.60
  -6  10  -3  288.27   49.70
   6 -10   3  211.98   35.30
  -7  10  -3  131.09   41.20
   7 -10   3  156.48   32.60
  -8  10  -3  143.69   41.50
   8 -10   3  142.29   31.50
   6   9  -3  150.58   31.20
  -6  -9   3  170.68   47.00
   5   9  -3  239.58   36.10
  -5  -9   3  290.97   51.09
   4   9  -3  506.75   51.09
  -4  -9   3  403.06   56.89
   3   9  -3  322.97   41.60
  -3  -9   3  339.37   45.70
   2   9  -3  328.67   39.10
  -2  -9   3  297.07   32.30
  -2  -9   3  283.57   37.70
   1   9  -3  662.13   58.69
  -1  -9   3  649.64   55.49
  -1  -9   3  697.53   56.99
   0   9  -3  807.62   68.29
   0  -9   3  924.81   70.99
   0  -9   3  806.12   62.39
  -1   9  -3  422.06   43.20
   1  -9   3  403.16   44.80
  -2   9  -3  156.48   26.30
   2  -9   3  118.19   27.10
  -3   9  -3  551.44   53.49
   3  -9   3  552.84   54.29
  -4   9  -3  563.94   56.29
   4  -9   3  565.44   54.99
  -5   9  -3  619.54   61.89
   5  -9   3  576.34   55.69
  -6   9  -3  496.05   62.39
   6  -9   3  544.75   52.89
  -7   9  -3  264.47   46.10
   7  -9   3  279.07   39.50
  -8   9  -3  378.76   58.39
   8  -9   3  368.26   46.90
  -7  -8   3  116.09   43.60
   6   8  -3  455.55   43.60
  -6  -8   3  319.87   58.49
   5   8  -3  691.43   55.39
  -5  -8   3  455.55   67.39
   4   8  -3  343.27   38.80
  -4  -8   3  374.06   50.49
   3   8  -3  313.27   38.00
  -3  -8   3  298.47   41.60
  -3  -8   3  330.37   31.90
   2   8  -3  485.05   45.70
  -2  -8   3  443.06   38.90
  -2  -8   3  435.76   43.30
   1   8  -3 1097.89   78.29
  -1  -8   3  913.81   74.29
  -1  -8   3 1083.69   76.09
   0   8  -3  915.71   72.19
   0  -8   3  907.41   67.69
   0  -8   3 1041.80   74.89
  -1   8  -3  433.36   41.30
   1  -8   3  411.06   43.40
   1  -8   3  439.66   34.20
  -2   8  -3  416.06   41.50
   2  -8   3  424.66   43.50
  -3   8  -3  608.04   53.99
   3  -8   3  576.54   54.19
  -4   8  -3  532.55   54.09
   4  -8   3  610.94   53.49
  -5   8  -3  164.08   31.30
   5  -8   3  191.18   28.80
  -6   8  -3  584.34   60.39
   6  -8   3  650.13   56.69
   7  -8   3  520.45   50.69
  -8   8  -3  104.19   39.00
   8  -8   3  212.58   32.80
  -9   8  -3  158.68   45.80
   9  -8   3  160.18   31.80
  -8  -7   3   -1.80   40.80
  -7  -7   3  265.87   56.69
   6   7  -3  334.07   34.90
  -6  -7   3  236.38   49.40
   5   7  -3  433.56   40.80
  -5  -7   3  283.87   49.90
   4   7  -3  322.77   35.00
  -4  -7   3  294.97   31.50
  -4  -7   3  247.58   40.90
   3   7  -3   58.09   16.70
  -3  -7   3   88.59   21.10
  -3  -7   3   63.49   15.10
   2   7  -3 1172.78   81.59
  -2  -7   3 1111.09   78.19
  -2  -7   3 1039.50   81.89
   1   7  -3  932.51   68.09
  -1  -7   3  904.11   66.89
  -1  -7   3  863.11   66.49
   0   7  -3  865.21   66.49
   0  -7   3  878.31   63.69
   0  -7   3  958.50   68.99
  -1   7  -3  684.23   55.99
   1  -7   3  708.43   58.89
   1  -7   3  760.12   51.29
  -2   7  -3 1277.67   85.89
  -2   7  -3 1067.09   77.49
   2  -7   3 1250.27   88.19
  -3   7  -3 1269.97   91.79
   3  -7   3 1220.68   91.09
  -4   7  -3  299.47   38.90
   4  -7   3  360.96   36.10
  -5   7  -3  616.64   59.49
   5  -7   3  646.14   53.29
  -6   7  -3  421.96   51.69
   6  -7   3  378.36   40.20
  -7   7  -3  305.17   49.30
   7  -7   3  366.46   38.70
  -8   7  -3  280.87   51.39
   8  -7   3  270.07   35.20
  -9   7  -3  355.66   59.69
   9  -7   3  380.26   41.90
  -8  -6   3  262.77   59.19
   7   6  -3  492.35   60.29
  -7  -6   3  300.17   58.39
   6   6  -3  671.23   51.39
  -6  -6   3  517.55   62.79
   5   6  -3  380.76   36.20
  -5  -6   3  279.67   45.60
   4   6  -3  643.54   49.00
  -4  -6   3  506.55   54.99
  -4  -6   3  595.04   48.40
   3   6  -3  733.73   58.99
  -3  -6   3  725.13   63.49
  -3  -6   3  847.02   57.99
   2   6  -3  655.53   50.09
  -2  -6   3  621.64   48.10
  -2  -6   3  650.53   52.59
   1   6  -3  675.73   51.69
  -1  -6   3  647.54   51.69
  -1  -6   3  728.93   52.19
   0   6  -3 1018.90   71.79
   0  -6   3  988.40   69.89
   0  -6   3 1029.50   73.29
  -1   6  -3  981.20   71.79
   1  -6   3 1088.79   67.99
   1  -6   3  908.61   73.59
  -2   6  -3  843.12   53.39
  -2   6  -3  853.81   61.79
   2  -6   3  718.83   62.59
  -3   6  -3  952.40   71.39
   3  -6   3  942.11   71.49
  -4   6  -3  505.75   46.00
   4  -6   3  485.85   43.50
  -5   6  -3 1493.85  107.89
   5  -6   3 1401.86  102.09
  -6   6  -3  593.14   55.89
   6  -6   3  540.85   48.00
  -7   6  -3  279.87   45.30
   7  -6   3  272.77   32.90
  -8   6  -3  321.27   52.79
   8  -6   3  346.37   36.60
  -9   6  -3  409.66   63.39
   9  -6   3  399.06   41.00
 -10   6  -3  348.67   61.49
  10  -6   3  265.37   35.70
  -9  -5   3   84.29   38.40
  -8  -5   3  184.68   47.40
   7   5  -3  386.26   35.40
  -7  -5   3  283.07   53.99
   6   5  -3  390.36   33.20
  -6  -5   3  245.78   45.90
   5   5  -3  710.33   51.39
  -5  -5   3  654.23   53.79
  -5  -5   3  508.45   59.69
   4   5  -3  680.03   47.60
  -4  -5   3  620.74   48.60
  -4  -5   3  457.25   51.09
   3   5  -3  748.43   57.29
  -3  -5   3  829.42   57.99
  -3  -5   3  784.42   63.89
   2   5  -3  498.75   38.80
  -2  -5   3  460.75   41.90
  -2  -5   3  522.15   38.50
   1   5  -3  920.81   63.49
  -1  -5   3  926.31   63.89
  -1  -5   3  866.61   64.79
   0   5  -3  835.82   59.99
   0  -5   3  827.52   59.39
   0  -5   3  902.91   61.79
  -1   5  -3 1744.13  115.09
   1  -5   3 1713.53  117.19
  -2   5  -3 1878.51  110.59
  -2   5  -3 1699.43  117.49
   2  -5   3 1621.24  118.49
  -3   5  -3 1225.38   89.09
   3  -5   3 1291.57   89.19
  -4   5  -3 1392.36   98.39
   4  -5   3 1341.67   95.49
  -5   5  -3  509.55   46.90
   5  -5   3  514.45   43.60
  -6   5  -3  483.95   48.00
   6  -5   3  385.26   37.30
  -7   5  -3  299.07   44.30
   7  -5   3  315.07   32.70
  -8   5  -3  410.96   56.09
   8  -5   3  414.26   39.30
  -9   5  -3  355.16   59.79
   9  -5   3  374.06   37.80
 -10   5  -3  303.97   60.39
  10  -5   3  339.17   36.60
  -9  -4   3  315.87   60.09
  -8  -4   3  226.18   46.80
   7   4  -3  401.26   33.60
  -7  -4   3  258.97   48.20
   6   4  -3  262.67   25.50
  -6  -4   3  246.88   32.20
  -6  -4   3  145.89   34.70
   5   4  -3  725.63   51.29
  -5  -4   3  709.33   57.09
  -5  -4   3  593.24   60.19
   4   4  -3  832.52   56.49
  -4  -4   3  668.73   63.49
  -4  -4   3  770.22   58.89
   3   4  -3 1021.90   71.09
  -3  -4   3 1121.49   72.49
  -3  -4   3  927.31   76.39
   2   4  -3 1475.45   96.09
  -2  -4   3 1406.76  100.89
  -2  -4   3 1466.25   96.69
   1   4  -3 1476.55   99.69
  -1  -4   3 1582.74  103.09
  -1  -4   3 1513.85  100.69
   0   4  -3  990.40   69.09
   0  -4   3 1078.19   69.89
   0  -4   3 1009.60   70.49
  -1   4  -3  324.27   25.90
  -1   4  -3  289.77   22.10
   1  -4   3  314.67   27.70
  -2   4  -3 2291.97  146.59
  -2   4  -3 2380.66  153.28
  -2   4  -3 2371.66  146.59
   2  -4   3 2324.87  153.98
  -3   4  -3 1374.36   92.69
   3  -4   3 1284.17   91.39
  -4   4  -3 1793.22  120.19
   4  -4   3 1679.53  116.69
  -5   4  -3 1932.41  131.39
   5  -4   3 1832.92  125.99
  -6   4  -3  555.24   52.99
   6  -4   3  544.25   44.40
  -7   4  -3  366.46   47.20
   7  -4   3  342.47   33.00
  -8   4  -3  411.26   57.29
   8  -4   3  462.05   40.30
  -9   4  -3  458.85   65.29
   9  -4   3  464.85   41.90
 -10   4  -3  186.08   55.19
  10  -4   3  194.88   27.30
  -9  -3   3  195.88   47.00
  -8  -3   3  267.77   46.80
   7   3  -3  224.78   21.90
  -7  -3   3  102.19   32.90
  -7  -3   3  170.98   31.20
   6   3  -3  520.45   37.20
  -6  -3   3  341.47   51.49
  -6  -3   3  456.35   46.20
   5   3  -3  818.32   53.49
  -5  -3   3  753.02   60.59
  -5  -3   3  595.24   62.99
   4   3  -3 1225.08   79.59
  -4  -3   3 1253.37   84.69
  -4  -3   3 1019.90   87.69
   3   3  -3 1297.87   88.49
  -3  -3   3 1271.47   95.99
  -3  -3   3 1445.56   91.79
   2   3  -3  387.86   26.20
  -2  -3   3  314.17   27.10
  -2  -3   3  305.27   30.90
   1   3  -3 1604.14  102.89
  -1  -3   3 1494.65  103.99
  -1  -3   3 1704.53  107.29
   0   3  -3 1350.56  100.49
   0   3  -3 1753.62  101.49
   0  -3   3 1599.14  102.39
  -1   3  -3  637.94   45.70
  -1   3  -3  646.54   43.40
   1  -3   3  681.93   47.30
  -2   3  -3  470.85   37.20
  -2   3  -3  495.95   32.70
   2  -3   3  495.55   32.00
   2  -3   3  487.75   37.80
  -3   3  -3 1052.49   70.59
  -3   3  -3 1179.68   77.69
   3  -3   3 1101.79   76.09
  -4   3  -3 2577.74  162.28
  -4   3  -3 2344.47  154.48
   4  -3   3 2396.36  158.58
  -5   3  -3  746.73   56.79
  -5   3  -3  888.41   66.29
   5  -3   3  889.71   60.19
  -6   3  -3  535.45   42.00
  -6   3  -3  505.85   50.89
   6  -3   3  581.34   43.50
  -7   3  -3  566.04   59.79
   7  -3   3  667.93   49.50
  -8   3  -3  442.06   57.09
   8  -3   3  462.95   39.40
  -9   3  -3  355.56   54.99
   9  -3   3  432.36   39.00
 -10   3  -3   98.89   34.90
  10   2  -3  474.65   53.19
   9   2  -3  693.03   60.89
  -8  -2   3  331.67   44.30
  -8  -2   3  253.97   43.60
   7   2  -3  305.27   24.80
  -7  -2   3  189.08   38.10
  -7  -2   3  224.78   35.60
   6   2  -3  283.37   24.10
  -6  -2   3  304.07   38.00
  -6  -2   3  243.08   39.30
   5   2  -3  854.41   54.59
  -5  -2   3  599.84   64.19
  -5  -2   3  869.51   65.59
   4   2  -3  785.52   50.79
  -4  -2   3  653.93   59.19
  -4  -2   3  739.03   57.09
   3   2  -3  789.72   52.19
  -3  -2   3  765.82   56.39
  -3  -2   3  749.62   59.99
   2   2  -3 3999.10  261.37
  -2  -2   3 4279.47  264.67
  -2  -2   3 4251.27  268.77
   1   2  -3 2105.79  156.48
   1   2  -3 2681.73  154.68
  -1  -2   3 2556.94  156.88
   0   2  -3 1017.40   70.69
   0   2  -3 1135.19   70.39
   0  -2   3 1098.89   71.49
  -1   2  -3 2952.80  217.98
  -1   2  -3 3708.23  217.68
   1  -2   3 3709.03  219.48
  -2   2  -3 2549.44  155.48
  -2   2  -3 2344.47  157.38
   2  -2   3 2430.86  157.48
  -3   2  -3 1384.66   86.99
  -3   2  -3 1327.87   90.29
   3  -2   3 1255.67   88.39
  -4   2  -3 2031.10  135.59
  -4   2  -3 2060.29  131.49
   4  -2   3 1958.20  131.79
  -5   2  -3  856.71   63.09
  -5   2  -3  859.41   67.69
   5  -2   3  920.31   62.29
  -6   2  -3  427.36   38.60
  -6   2  -3  530.35   46.20
   6  -2   3  424.06   35.60
  -7   2  -3  495.75   48.90
  -7   2  -3  619.74   57.89
   7  -2   3  681.83   47.30
  -8   2  -3  774.62   77.39
   8  -2   3  913.41   64.19
  -9   2  -3  345.97   56.79
   9  -2   3  511.05   41.40
 -10   2  -3  106.19   35.20
  10   1  -3  296.37   38.00
   9   1  -3  392.46   42.10
  -9  -1   3  343.77   52.89
   8   1  -3  370.16   36.70
  -8  -1   3  320.77   47.50
   7   1  -3  307.17   25.70
  -7  -1   3  312.07   43.20
  -7  -1   3  259.57   41.30
   6   1  -3  813.22   54.79
  -6  -1   3  744.33   68.29
  -6  -1   3  816.82   67.29
   5   1  -3  349.17   26.80
  -5  -1   3  361.96   39.20
  -5  -1   3  386.76   37.70
   4   1  -3  588.84   39.80
  -4  -1   3  629.04   48.90
  -4  -1   3  537.65   49.80
   3   1  -3  354.46   24.80
  -3  -1   3  355.06   31.20
   2   1  -3 1861.01  127.89
   2   1  -3 2016.30  124.19
  -2  -1   3 2042.10  128.89
   1   1  -3 2934.71  183.28
   1   1  -3 2827.92  186.58
  -1  -1   3 2805.72  183.38
  -1  -1   3 3211.08  186.98
   0   1  -3  548.35   40.20
   0   1  -3  618.54   39.00
   0  -1   3  610.14   40.30
  -1   1  -3   75.29    9.20
  -1   1  -3   73.79    9.00
   1  -1   3   72.69    8.30
  -2   1  -3  779.22   55.39
  -2   1  -3  792.22   55.79
   2  -1   3  857.41   54.79
  -3   1  -3 2831.92  185.18
  -3   1  -3 2889.41  183.98
   3  -1   3 2853.21  182.58
  -4   1  -3  777.82   55.39
  -4   1  -3  686.53   56.39
   4  -1   3  771.12   52.49
  -5   1  -3  684.13   56.69
  -5   1  -3  750.02   56.19
   5  -1   3  719.73   51.09
  -6   1  -3  889.21   72.99
  -6   1  -3  858.11   70.29
   6  -1   3 1017.00   65.49
  -7   1  -3  999.40   91.49
  -7   1  -3 1153.08   91.09
   7  -1   3 1398.16   84.19
  -8   1  -3  498.95   52.29
  -8   1  -3  477.85   54.79
   8  -1   3  570.24   43.10
  -9   1  -3  140.49   36.70
  10  -1   3  267.37   39.90
  10   0  -3  397.06   41.60
 -10   0   3  286.67   59.79
   9   0  -3  275.37   32.20
  -9   0   3  262.87   47.20
   8   0  -3  277.67   26.50
   8   0  -3  349.37   32.70
  -8   0   3  284.47   43.00
   7   0  -3  545.65   42.70
   7   0  -3  490.45   37.40
  -7   0   3  468.75   52.19
   6   0  -3 1680.13  101.49
  -6   0   3 1404.66  108.89
  -6   0   3 1314.37   98.79
   5   0  -3  663.53   47.90
  -5   0   3  606.24   45.70
  -5   0   3  631.84   54.29
   4   0  -3  535.45   39.40
  -4   0   3  480.25   36.40
  -4   0   3  557.04   45.30
   3   0  -3 1054.69   71.39
  -3   0   3 1077.69   74.79
  -3   0   3 1042.70   68.29
   2   0  -3 2398.16  130.39
   2   0  -3 1880.01  133.79
  -2   0   3 1961.40  135.49
  -2   0   3 2027.70  130.39
   1   0  -3  972.20   65.19
  -1   0   3  980.80   65.39
  -1   0   3 1032.00   61.79
  -1   0   3  942.11   61.69
   0   0  -3 1010.00   57.99
   0   0  -3  783.22   58.59
   0   0   3  856.21   57.69
  -1   0  -3 7866.11  554.94
  -1   0  -3 9999.00  555.04
   1   0   3 8739.83  552.54
  -2   0  -3 1395.26   94.69
  -2   0  -3 1440.66   94.09
   2   0   3 1408.96   90.59
  -3   0  -3 1506.05  106.59
  -3   0  -3 1497.85  105.99
   3   0   3 1720.63  102.59
  -4   0  -3 1116.59   84.99
  -4   0  -3 1197.28   85.99
   4   0   3 1295.57   80.49
  -5   0  -3  421.66   40.30
  -5   0  -3  367.86   38.80
   5   0   3  473.05   33.20
  -6   0  -3  726.93   62.59
  -6   0  -3  611.44   60.49
   6   0   3  866.71   54.29
  -7   0  -3  463.05   51.99
  -7   0  -3  544.25   54.49
   7   0   3  646.54   44.30
   8   0   3 1122.99   83.19
  -9   0  -3  346.57   52.49
   9   0   3  453.05   43.00
  10   0   3  311.47   39.60
  10  -1  -3  275.97   33.70
 -10   1   3  275.17   52.79
   9  -1  -3  213.88   27.50
  -9   1   3  172.58   41.60
   8  -1  -3  490.25   39.80
  -8   1   3  442.06   58.99
  -8   1   3  374.86   53.59
   7  -1  -3  688.43   48.50
  -7   1   3  576.24   48.90
  -7   1   3  517.85   58.59
   6  -1  -3  121.49   15.90
  -6   1   3   69.79   14.60
  -6   1   3   47.90   17.90
   5  -1  -3  680.93   48.50
  -5   1   3  622.14   47.50
  -5   1   3  685.23   55.99
   4  -1  -3 1012.50   67.39
  -4   1   3  979.00   65.69
  -4   1   3  930.21   72.19
   3  -1  -3  952.70   62.29
  -3   1   3  871.11   65.39
  -3   1   3  899.11   59.99
   2  -1  -3  464.15   33.60
  -2   1   3  466.05   31.20
  -2   1   3  448.86   35.30
   1  -1  -3  555.24   38.10
  -1   1   3  539.65   35.70
  -1   1   3  514.35   37.80
   0  -1  -3 2464.05  153.08
   0   1   3 2554.34  150.88
   0   1   3 2132.39  150.28
  -1  -1  -3 1090.99   76.89
   1   1   3 1178.38   71.89
   1   1   3 1097.79   73.89
  -2  -1  -3 1972.20  135.59
   2   1   3 2130.79  128.49
   2   1   3 2001.20  131.59
  -3  -1  -3 1645.44  119.89
   3   1   3 1626.34  114.99
   3   1   3 1960.30  112.19
  -4  -1  -3 1026.20   81.79
   4   1   3  943.41   75.19
   4   1   3 1308.47   73.39
  -5  -1  -3  436.06   43.20
   5   1   3  399.46   34.40
  -6  -1  -3  692.23   63.09
   6   1   3  573.84   52.19
   6   1   3  807.72   50.29
  -7  -1  -3  731.73   70.39
   7   1   3  792.12   59.49
  -8  -1  -3  493.15   63.29
   8   1   3  501.65   44.80
  -9  -1  -3  230.98   45.90
   9   1   3  199.98   28.80
 -10  -1  -3  278.97   56.19
  10   1   3  323.17   38.70
 -10   2   3  219.98   53.99
   9  -2  -3  492.95   42.30
  -9   2   3  544.25   66.59
   8  -2  -3  215.78   23.70
  -8   2   3  182.78   29.40
  -8   2   3  191.58   36.80
   7  -2  -3  660.83   49.60
  -7   2   3  651.33   63.89
  -7   2   3  661.33   53.89
   6  -2  -3 1480.75   90.49
  -6   2   3 1196.68   99.89
  -6   2   3 1230.48   91.79
   5  -2  -3 1170.78   74.89
  -5   2   3 1089.59   83.49
  -5   2   3 1004.00   75.39
   4  -2  -3 1182.38   76.49
  -4   2   3 1098.89   82.39
  -4   2   3 1102.79   76.69
   3  -2  -3 1178.08   78.69
  -3   2   3 1187.78   82.69
  -3   2   3 1183.58   78.49
   2  -2  -3 1582.14  102.79
  -2   2   3 1494.25  104.29
  -2   2   3 1643.54  101.99
   1  -2  -3  266.77   22.40
  -1   2   3  288.97   21.60
  -1   2   3  272.37   21.90
   0  -2  -3 1428.06   96.29
   0   2   3 1487.75   94.49
   0   2   3 1425.96   92.69
  -1  -2  -3 1149.19   70.39
  -1  -2  -3 1141.99   77.69
   1   2   3 1071.09   70.19
   1   2   3 1077.59   73.79
  -2  -2  -3 1852.41  126.79
   2   2   3 1882.31  121.79
  -3  -2  -3 1913.41  129.79
   3   2   3 1829.12  116.49
   3   2   3 1904.31  116.49
   3   2   3 1820.02  122.29
  -4  -2  -3  925.11   78.09
   4   2   3  884.81   69.39
   4   2   3 1118.59   64.69
  -5  -2  -3 1022.80   87.99
   5   2   3  950.60   77.19
   5   2   3 1298.87   73.69
  -6  -2  -3  898.11   81.69
   6   2   3  979.10   69.19
  -7  -2  -3 1043.50   88.79
   7   2   3  913.41   70.39
  -8  -2  -3  232.28   44.80
   8   2   3  279.67   32.20
  -9  -2  -3  361.16   58.59
   9   2   3  294.47   35.70
  -9   3   3  340.67   57.89
   8  -3  -3  273.67   27.20
  -8   3   3  222.18   33.50
  -8   3   3  253.27   45.80
   7  -3  -3  215.58   21.30
  -7   3   3  117.29   29.90
  -7   3   3  189.98   27.90
   6  -3  -3  371.46   28.90
  -6   3   3  329.97   34.40
  -6   3   3  244.68   39.00
   5  -3  -3 1327.47   85.49
  -5   3   3 1241.08   94.59
  -5   3   3 1213.48   88.79
   4  -3  -3  897.71   59.49
  -4   3   3  820.42   65.39
  -4   3   3  833.82   61.49
   3  -3  -3  383.26   28.70
  -3   3   3  361.46   29.40
  -3   3   3  366.16   32.70
   2  -3  -3 1237.98   82.19
  -2   3   3 1195.48   83.49
  -2   3   3 1280.97   82.69
   1  -3  -3  766.52   51.49
  -1   3   3  700.63   50.39
  -1   3   3  702.33   49.70
   0  -3  -3 1519.25  101.29
   0   3   3 1514.25   99.19
   0   3   3 1464.75   96.19
  -1  -3  -3 1049.59   78.69
  -1  -3  -3 1206.68   70.99
   1   3   3 1016.60   74.69
  -2  -3  -3  791.92   58.59
   2   3   3  657.83   50.69
  -3  -3  -3 1354.46   97.99
   3   3   3 1267.27   88.29
  -4  -3  -3  439.66   46.60
   4   3   3  427.76   35.60
  -5  -3  -3  438.16   50.79
   5   3   3  465.15   38.40
  -6  -3  -3  525.85   58.69
   6   3   3  475.65   41.30
  -7  -3  -3  436.56   62.39
   7   3   3  440.76   39.70
  -8  -3  -3  198.58   44.10
   8   3   3  193.88   26.60
  -9  -3  -3  329.57   60.69
   9   3   3  264.37   32.90
  10  -4  -3  621.84   63.49
  -9   4   3  279.37   50.79
  -8   4   3  271.97   41.40
  -8   4   3  339.27   52.69
   7  -4  -3  584.94   43.80
  -7   4   3  547.35   53.39
  -7   4   3  532.85   58.29
   6  -4  -3  785.02   52.29
  -6   4   3  607.94   57.89
  -6   4   3  703.53   62.89
   5  -4  -3  654.73   45.40
  -5   4   3  567.64   52.89
  -5   4   3  625.64   51.29
   4  -4  -3  727.23   48.90
  -4   4   3  629.94   54.79
  -4   4   3  681.53   52.59
   3  -4  -3 1621.94  106.59
  -3   4   3 1590.94  110.99
  -3   4   3 1684.53  109.69
   2  -4  -3 1095.09   73.79
  -2   4   3 1137.29   75.79
  -2   4   3 1052.49   75.19
   1  -4  -3 1111.29   77.59
  -1   4   3 1111.29   75.99
  -1   4   3 1182.78   78.19
   0  -4  -3 1265.67   89.99
   0   4   3 1248.58   88.09
   0   4   3 1349.86   84.99
  -1  -4  -3  562.24   38.00
  -1  -4  -3  544.45   46.90
   1   4   3  543.45   43.00
  -2  -4  -3 1022.00   75.69
   2   4   3  926.11   68.59
  -3  -4  -3  595.64   53.79
   3   4   3  508.05   42.40
  -4  -4  -3 1103.19   90.29
   4   4   3 1059.29   76.09
  -5  -4  -3 1626.14  129.09
   5   4   3 1653.33  111.89
  -6  -4  -3  773.42   79.79
   6   4   3  756.92   58.29
  -7  -4  -3  488.15   71.99
   7   4   3  464.45   41.80
  -8  -4  -3  223.58   52.99
   8   4   3  229.58   29.80
  -9  -4  -3  247.08   63.79
   9   4   3  314.97   35.00
  10  -5  -3  298.77   45.30
   9  -5  -3  383.96   49.30
  -8   5   3  234.68   44.70
  -8   5   3  320.77   46.10
  -7   5   3  365.56   46.70
  -7   5   3  372.86   49.70
   6  -5  -3 1211.28   75.79
  -6   5   3 1019.10   84.69
  -6   5   3  997.80   87.99
   5  -5  -3  473.45   35.90
  -5   5   3  448.56   46.00
  -5   5   3  526.25   45.80
   4  -5  -3  324.17   25.30
  -4   5   3  312.37   32.50
  -4   5   3  276.37   30.10
   3  -5  -3  551.74   39.00
  -3   5   3  481.05   42.80
  -3   5   3  535.75   42.80
   2  -5  -3  920.31   65.39
  -2   5   3  966.90   67.29
  -2   5   3  959.10   68.29
   1  -5  -3 1134.49   87.09
   1  -5  -3 1546.35   91.59
  -1   5   3 1295.87   90.89
   0  -5  -3  577.94   45.60
   0  -5  -3  684.93   51.79
   0   5   3  677.33   50.29
  -1  -5  -3  707.13   60.09
  -1  -5  -3  757.32   49.99
   1   5   3  716.13   55.59
  -2  -5  -3  540.05   50.99
   2   5   3  493.55   42.60
  -3  -5  -3  632.24   60.49
   3   5   3  580.04   48.20
  -4  -5  -3  213.48   40.20
   4   5   3  206.68   25.80
  -5  -5  -3  285.47   50.19
   5   5   3  303.27   31.50
  -6  -5  -3  679.63   73.99
   6   5   3  637.04   52.69
  -7  -5  -3  300.37   60.59
   7   5   3  380.46   37.00
  -8  -5  -3  233.78   57.09
   8   5   3  162.98   25.90
  10  -6  -3  704.23   73.19
   9  -6  -3  200.78   38.20
   8  -6  -3  404.46   46.70
  -8   6   3  266.37   44.50
   7  -6  -3  712.03   62.39
  -7   6   3  672.73   67.59
  -6   6   3  576.84   54.99
   5  -6  -3  339.97   26.60
  -5   6   3  328.07   35.60
  -5   6   3  259.07   36.30
   4  -6  -3  133.59   15.50
  -4   6   3  162.18   24.50
  -4   6   3  138.69   23.10
   3  -6  -3 1059.69   77.69
   3  -6  -3 1169.08   75.29
  -3   6   3 1053.39   79.69
   2  -6  -3  943.71   71.89
   2  -6  -3 1155.48   72.89
  -2   6   3  975.10   74.89
   1  -6  -3 1073.19   83.59
   1  -6  -3 1413.76   87.69
  -1   6   3 1220.78   87.89
   0  -6  -3  692.23   52.79
   0  -6  -3  689.53   57.59
   0   6   3  795.22   57.89
  -1  -6  -3  987.00   74.79
  -1  -6  -3  909.61   62.09
   1   6   3  881.21   69.19
  -2  -6  -3  891.81   73.59
   2   6   3  799.12   64.19
  -3  -6  -3  388.66   52.09
   3   6   3  366.76   36.70
  -4  -6  -3  765.62   77.69
   4   6   3  733.23   59.29
  -5  -6  -3  430.06   65.39
   5   6   3  429.66   40.80
  -6  -6  -3  335.17   63.89
   6   6   3  400.46   39.00
  -7  -6  -3  169.08   57.69
   7   6   3  287.87   33.40
  -8  -6  -3  300.07   72.29
   8   6   3  359.56   38.50
   9  -7  -3  315.87   48.30
   8  -7  -3  529.25   54.39
  -8   7   3  393.36   57.69
   7  -7  -3 1129.79   88.59
  -7   7   3 1080.59   92.99
   6  -7  -3  437.96   44.40
  -6   7   3  430.96   50.39
   5  -7  -3  216.08   29.50
  -5   7   3  255.27   34.20
   4  -7  -3  504.35   45.80
   4  -7  -3  583.34   40.80
  -4   7   3  511.55   49.80
   3  -7  -3  501.35   44.40
   3  -7  -3  615.14   42.80
  -3   7   3  497.65   47.60
   2  -7  -3  194.08   26.00
   2  -7  -3  264.97   25.30
  -2   7   3  235.68   30.20
   1  -7  -3  535.35   43.90
   1  -7  -3  399.26   39.50
  -1   7   3  553.04   46.30
   0  -7  -3  949.51   66.09
   0  -7  -3  719.13   57.69
   0   7   3  718.23   62.79
  -1  -7  -3  554.84   53.49
   1   7   3  548.05   49.50
  -2  -7  -3  688.63   64.79
   2   7   3  610.04   54.49
  -3  -7  -3  252.07   44.80
   3   7   3  225.28   30.40
  -4  -7  -3  554.84   73.19
   4   7   3  556.04   49.80
  -5  -7  -3  509.75   72.89
   5   7   3  424.06   42.80
  -6  -7  -3  306.47   65.59
   6   7   3  277.47   34.80
  -7  -7  -3  221.18   61.89
   7   7   3  189.38   29.10
   9  -8  -3  253.17   42.40
   8  -8  -3  415.46   51.59
  -8   8   3  299.67   52.19
   7  -8  -3  512.25   51.69
  -7   8   3  402.36   56.79
   6  -8  -3  345.47   40.10
  -6   8   3  276.47   40.60
   5  -8  -3  259.67   33.80
  -5   8   3  238.28   36.10
   4  -8  -3  702.73   57.39
  -4   8   3  716.13   61.19
   3  -8  -3  375.26   40.20
   3  -8  -3  506.75   38.00
  -3   8   3  423.46   43.90
   2  -8  -3  576.94   51.59
   2  -8  -3  737.93   53.59
  -2   8   3  673.83   57.69
   1  -8  -3  393.26   37.90
   1  -8  -3  454.15   40.50
  -1   8   3  373.46   42.50
   0  -8  -3  675.43   58.99
   0   8   3  668.93   59.79
  -1  -8  -3  810.22   68.89
   1   8   3  696.13   63.49
  -2  -8  -3  533.45   57.79
   2   8   3  427.56   44.10
  -3  -8  -3  780.82   78.89
   3   8   3  678.73   61.89
  -4  -8  -3  141.59   43.80
   4   8   3  149.88   27.50
  -5  -8  -3  210.78   48.90
   5   8   3  146.49   28.20
  -6  -8  -3  275.27   65.59
   6   8   3  243.18   33.80
   8  -9  -3  390.96   51.19
  -8   9   3  353.06   57.39
   7  -9  -3  226.68   36.70
  -7   9   3  182.98   41.40
   6  -9  -3  241.88   35.10
  -6   9   3  199.88   37.30
   5  -9  -3  364.46   39.00
  -5   9   3  308.47   43.50
   4  -9  -3  400.26   42.30
  -4   9   3  519.45   49.60
   3  -9  -3  341.37   38.20
  -3   9   3  424.26   47.20
   2  -9  -3  314.97   39.30
   2  -9  -3  544.75   42.90
  -2   9   3  472.45   47.70
   1  -9  -3  432.16   45.70
   1  -9  -3  456.95   45.60
  -1   9   3  462.85   48.60
   0  -9  -3  150.18   29.90
   0   9   3  147.49   29.70
  -1  -9  -3  336.27   46.60
   1   9   3  346.77   44.10
  -2  -9  -3  370.46   54.09
   2   9   3  438.16   47.70
  -3  -9  -3  417.36   62.79
   3   9   3  466.75   49.40
  -4  -9  -3  411.46   66.09
   4   9   3  343.87   43.40
  -5  -9  -3  304.27   66.09
   5   9   3  266.77   37.80
   7 -10  -3  325.67   44.60
  -7  10   3  361.06   55.79
   6 -10  -3  145.69   30.00
  -6  10   3  185.18   36.50
   5 -10  -3  237.48   34.40
  -5  10   3  307.57   43.20
   4 -10  -3  503.65   48.60
  -4  10   3  488.05   53.39
   3 -10  -3  222.08   30.90
  -3  10   3  262.57   41.30
   2 -10  -3  215.68   35.10
  -2  10   3  260.57   39.20
   1 -10  -3  328.47   40.90
  -1  10   3  288.57   43.10
   0 -10  -3  336.57   47.00
   0  10   3  403.86   49.00
  -1 -10  -3  351.26   49.90
   1  10   3  387.96   48.20
  -2 -10  -3  323.47   51.29
   2  10   3  295.27   42.70
  -3 -10  -3  327.37   57.59
   3  10   3  289.87   42.20
  -4 -10  -3  246.88   58.49
   4  10   3   98.29   29.60
   6 -11  -3   59.09   23.60
  -6  11   3   66.39   31.60
   5 -11  -3  257.97   35.60
  -5  11   3  274.27   45.50
   4 -11  -3  248.08   33.40
  -4  11   3  272.57   42.30
  -3  11   3  483.15   58.89
  -2  11   3  457.55   58.39
  -1  11   3  225.38   41.00
   0 -11  -3  307.87   45.90
   0  11   3  353.96   49.70
  -1 -11  -3  415.06   55.99
   1  11   3  304.07   48.90
  -2 -11  -3  306.17   51.49
   2  11   3  208.18   42.10
  -3 -11  -3  216.48   49.00
   3  11   3  211.18   40.60
  -4  12   3   81.19   29.80
  -3  12   3  179.18   39.80
  -2  12   3  204.78   43.60
  -1  12   3  267.57   48.70
   0  12   3  193.58   46.00
   1  12   3   95.79   34.80
  -1  13  -4  175.98   44.30
  -2  13  -4  253.17   48.10
   2 -13   4  261.37   48.60
   2  12  -4  149.09   35.80
   1  12  -4  127.99   33.30
   0  12  -4  285.47   43.80
  -1  12  -4  166.58   37.30
   1 -12   4  187.98   37.80
  -2  12  -4  315.87   48.40
   2 -12   4  263.97   46.70
  -3  12  -4  226.18   43.90
   3 -12   4  183.38   40.10
  -4  12  -4  195.18   44.90
   4 -12   4  194.78   37.70
  -5  12  -4  242.48   51.09
   5 -12   4  222.58   42.00
   4  11  -4  240.58   38.10
  -4 -11   4  193.68   42.90
   3  11  -4  203.18   36.20
  -3 -11   4  224.88   40.40
   2  11  -4  209.98   36.30
  -2 -11   4  239.88   38.70
   1  11  -4  343.57   45.50
   0  11  -4  323.67   43.70
   0 -11   4  371.86   48.90
  -1  11  -4  271.17   39.70
   1 -11   4  254.37   44.30
  -2  11  -4  133.69   29.70
   2 -11   4  126.69   33.80
  -3  11  -4  227.78   39.30
   3 -11   4  223.48   41.40
  -4  11  -4  350.56   49.70
   4 -11   4  346.17   47.40
  -5  11  -4  263.27   46.80
   5 -11   4  321.67   46.10
  -6  11  -4   47.20   29.80
   6 -11   4   34.90   22.70
  -7  11  -4   91.89   42.70
  -5 -10   4  308.07   54.09
   4  10  -4  377.86   46.60
  -4 -10   4  411.56   56.19
   3  10  -4  316.17   41.00
  -3 -10   4  259.87   40.80
   2  10  -4  293.37   38.80
  -2 -10   4  310.87   40.80
   1  10  -4  864.41   72.69
  -1 -10   4  918.11   73.19
  -1 -10   4  838.72   67.99
   0  10  -4  326.47   41.60
   0 -10   4  387.36   46.60
  -1  10  -4  248.18   34.90
   1 -10   4  205.28   36.70
  -2  10  -4  300.97   41.90
   2 -10   4  438.36   52.19
  -3  10  -4  308.87   44.70
   3 -10   4  392.36   48.40
  -4  10  -4  508.85   56.69
   4 -10   4  483.75   54.09
  -5  10  -4  322.77   49.50
   5 -10   4  283.27   40.40
  -6  10  -4  445.96   63.19
   6 -10   4  467.05   51.19
  -7  10  -4  189.38   48.80
   7 -10   4  267.97   39.10
  -6  -9   4  350.96   61.29
   5   9  -4  251.57   35.00
  -5  -9   4  217.38   44.20
   4   9  -4  333.27   40.80
  -4  -9   4  270.97   44.60
   3   9  -4  315.87   37.70
  -3  -9   4  286.17   40.30
   2   9  -4  645.84   58.49
  -2  -9   4  649.64   58.69
  -2  -9   4  703.63   55.99
   1   9  -4  454.35   46.30
  -1  -9   4  486.95   46.90
  -1  -9   4  468.75   42.30
   0   9  -4  258.17   34.00
   0  -9   4  301.87   29.60
   0  -9   4  308.57   38.70
  -1   9  -4  494.45   46.50
   1  -9   4  463.75   50.09
  -2   9  -4  234.78   32.60
   2  -9   4  222.88   34.90
  -3   9  -4  487.45   49.80
   3  -9   4  521.55   53.39
  -4   9  -4  444.06   50.29
   4  -9   4  468.85   49.10
  -5   9  -4  149.69   34.80
   5  -9   4  213.08   33.00
  -6   9  -4  199.48   41.40
   6  -9   4  218.68   34.90
  -7   9  -4  172.38   42.70
   7  -9   4  257.27   36.30
  -8   9  -4  346.07   55.09
   8  -9   4  229.38   36.90
  -7  -8   4  229.58   58.79
  -6  -8   4  188.18   47.50
   5   8  -4  626.64   52.79
  -5  -8   4  423.86   62.19
   4   8  -4  203.48   29.90
  -4  -8   4  214.88   37.30
   3   8  -4  325.87   36.20
  -3  -8   4  318.17   40.90
  -3  -8   4  276.47   32.20
   2   8  -4  988.20   76.09
  -2  -8   4 1006.10   77.89
  -2  -8   4 1059.49   76.49
   1   8  -4 1972.70  133.49
  -1  -8   4 1893.11  132.29
  -1  -8   4 1981.10  134.29
   0   8  -4  493.75   43.90
   0  -8   4  456.65   38.80
   0  -8   4  475.55   45.40
  -1   8  -4  440.06   41.60
   1  -8   4  467.05   46.20
  -2   8  -4  887.61   69.79
   2  -8   4  886.61   73.39
  -3   8  -4  688.93   60.79
   3  -8   4  733.83   62.49
  -4   8  -4  442.86   47.10
   4  -8   4  402.36   41.30
  -5   8  -4  267.27   40.80
   5  -8   4  305.27   34.20
  -6   8  -4  600.04   60.69
   6  -8   4  483.85   47.60
  -7   8  -4  428.16   57.99
   7  -8   4  408.36   44.30
  -8   8  -4  330.57   53.49
   8  -8   4  262.37   36.00
  -9   8  -4  146.79   49.30
   9  -8   4  104.69   25.60
  -7  -7   4  399.16   65.29
  -6  -7   4  424.16   60.59
   5   7  -4  382.96   36.20
  -5  -7   4  263.97   44.90
   4   7  -4  333.47   33.80
  -4  -7   4  269.27   30.50
  -4  -7   4  258.77   39.60
   3   7  -4  617.64   49.99
  -3  -7   4  577.84   48.70
  -3  -7   4  585.34   54.09
   2   7  -4  884.31   65.29
  -2  -7   4  844.82   67.79
  -2  -7   4  903.01   66.29
   1   7  -4  229.58   25.50
  -1  -7   4  215.78   25.00
  -1  -7   4  260.57   29.50
   0   7  -4  566.64   46.10
   0  -7   4  600.34   48.90
   0  -7   4  533.45   43.20
  -1   7  -4  837.92   61.69
  -1   7  -4  987.50   67.99
   1  -7   4  923.61   70.29
  -2   7  -4  996.30   72.79
   2  -7   4  926.11   75.09
  -3   7  -4  667.43   57.49
   3  -7   4  712.23   58.69
  -4   7  -4  366.46   41.90
   4  -7   4  410.56   40.40
  -5   7  -4  193.28   36.30
   5  -7   4  324.07   36.20
  -6   7  -4  525.15   59.29
   6  -7   4  587.34   50.89
  -7   7  -4  380.66   53.89
   7  -7   4  330.77   37.90
  -8   7  -4  206.48   47.20
   8  -7   4  172.48   28.10
  -9   7  -4  286.77   55.29
   9  -7   4  276.07   37.00
  -8  -6   4  240.68   50.29
  -7  -6   4  431.26   64.59
   6   6  -4  572.84   46.40
  -6  -6   4  399.36   59.49
   5   6  -4  401.86   36.80
  -5  -6   4  281.57   46.00
  -5  -6   4  424.16   40.60
   4   6  -4  547.75   42.70
  -4  -6   4  428.66   49.30
  -4  -6   4  478.15   43.50
   3   6  -4 1084.39   76.09
  -3  -6   4 1087.09   76.99
  -3  -6   4 1017.80   81.99
   2   6  -4 2261.87  146.49
  -2  -6   4 2271.97  147.59
  -2  -6   4 2115.09  150.08
   1   6  -4  299.17   28.00
  -1  -6   4  321.47   30.00
  -1  -6   4  290.07   29.50
   0   6  -4  743.33   55.69
   0  -6   4  750.92   58.39
   0  -6   4  787.12   55.49
  -1   6  -4 1991.80  136.69
  -1   6  -4 2277.27  141.79
   1  -6   4 2144.09  144.39
  -2   6  -4 1716.63  126.19
  -2   6  -4 1960.90  119.09
   2  -6   4 1888.21  129.29
  -3   6  -4  838.62   67.69
   3  -6   4  934.61   68.79
  -4   6  -4  262.17   34.10
   4  -6   4  284.97   29.90
  -5   6  -4  964.10   78.19
   5  -6   4  952.20   71.89
  -6   6  -4  282.17   41.50
   6  -6   4  254.17   31.30
  -7   6  -4  308.57   48.50
   7  -6   4  293.17   33.50
  -8   6  -4  316.37   51.59
   8  -6   4  267.47   33.60
  -9   6  -4  355.76   59.49
   9  -6   4  383.46   39.60
  -9  -5   4   46.20   43.30
  -8  -5   4  207.68   45.90
  -7  -5   4  463.75   63.29
   6   5  -4  500.55   39.00
  -6  -5   4  435.16   45.40
  -6  -5   4  274.67   49.90
   5   5  -4  277.97   27.60
  -5  -5   4  214.68   37.80
  -5  -5   4  246.38   32.30
   4   5  -4 1083.79   73.69
  -4  -5   4  983.20   83.49
  -4  -5   4 1040.20   77.19
   3   5  -4 1429.66  100.99
  -3  -5   4 1569.24  103.69
  -3  -5   4 1557.34  109.99
   2   5  -4  396.96   29.90
  -2  -5   4  361.96   32.20
  -2  -5   4  319.47   34.10
   1   5  -4  686.73   49.50
  -1  -5   4  696.43   51.59
  -1  -5   4  691.33   52.89
   0   5  -4 1335.67   83.89
   0   5  -4 1098.89   82.19
   0  -5   4 1292.97   85.89
  -1   5  -4 1962.80  128.79
  -1   5  -4 1886.71  125.19
   1  -5   4 2010.40  131.59
  -2   5  -4  701.93   55.59
  -2   5  -4  759.72   49.00
   2  -5   4  752.02   57.49
  -3   5  -4 1161.48   84.59
   3  -5   4 1183.68   84.49
  -4   5  -4 1226.78   93.99
   4  -5   4 1352.86   92.29
  -5   5  -4  790.62   64.49
   5  -5   4  722.23   58.09
  -6   5  -4  384.66   45.40
   6  -5   4  317.57   33.20
  -7   5  -4  323.27   46.10
   7  -5   4  324.97   33.20
  -8   5  -4  450.35   58.59
   8  -5   4  391.06   38.30
  -9   5  -4  198.08   48.40
   9  -5   4  132.29   23.10
 -10   5  -4  204.88   48.10
  10  -5   4  163.08   27.40
   9   4  -4  441.56   52.39
  -8  -4   4  258.37   49.80
  -7  -4   4  234.58   44.30
  -7  -4   4  336.27   43.30
   6   4  -4  459.15   34.10
  -6  -4   4  364.16   41.30
  -6  -4   4  235.58   42.10
   5   4  -4 1275.07   81.39
  -5  -4   4 1130.19   87.59
  -5  -4   4 1051.59   93.29
   4   4  -4 1421.06   89.59
  -4  -4   4 1286.87   93.59
  -4  -4   4 1210.78   99.59
   3   4  -4 1613.24  110.69
  -3  -4   4 1696.43  120.29
  -3  -4   4 1793.82  114.79
   2   4  -4  670.23   46.80
  -2  -4   4  658.23   53.29
  -2  -4   4  677.83   49.50
   1   4  -4  530.85   37.40
  -1  -4   4  502.85   39.40
   0   4  -4 2397.36  141.19
   0   4  -4 1964.90  140.19
   0  -4   4 2181.68  142.79
  -1   4  -4 1499.35   94.09
  -1   4  -4 1437.06   96.59
   1  -4   4 1389.76   98.09
  -2   4  -4 1200.48   83.99
  -2   4  -4 1231.08   78.49
   2  -4   4 1210.58   84.89
  -3   4  -4 2213.38  135.59
  -3   4  -4 2068.39  143.69
   3  -4   4 1965.30  142.59
   3  -4   4 2278.27  135.39
  -4   4  -4 1657.73  111.29
  -4   4  -4 1905.31  122.99
   4  -4   4 1789.52  119.19
  -5   4  -4  715.03   59.59
   5  -4   4  675.93   53.09
  -6   4  -4  491.45   51.39
   6  -4   4  541.45   43.70
  -7   4  -4  513.95   55.59
   7  -4   4  491.85   42.10
  -8   4  -4  434.66   59.89
   8  -4   4  494.75   43.00
  -9   4  -4  322.47   57.39
   9  -4   4  343.37   36.00
 -10   4  -4  202.98   51.19
  10  -4   4  235.58   29.60
   9   3  -4  212.18   35.00
  -8  -3   4  477.15   53.79
  -7  -3   4  195.18   38.90
  -7  -3   4  399.26   47.00
   6   3  -4  273.97   24.50
  -6  -3   4  235.68   36.40
  -6  -3   4  215.58   38.10
   5   3  -4  592.14   41.20
  -5  -3   4  442.56   51.59
  -5  -3   4  551.64   49.50
   4   3  -4 1220.68   79.69
  -4  -3   4 1240.48   86.29
  -4  -3   4 1080.89   90.39
   3   3  -4 2182.48  136.49
  -3  -3   4 2195.98  141.49
  -3  -3   4 1980.40  145.89
   2   3  -4 1553.84  100.09
  -2  -3   4 1559.74  103.69
   1   3  -4 2559.34  177.48
   1   3  -4 3053.79  175.28
  -1  -3   4 2650.14  177.38
   0   3  -4 2673.63  162.38
   0   3  -4 2433.26  162.58
   0  -3   4 2521.35  163.88
  -1   3  -4  992.80   66.59
  -1   3  -4  935.21   64.59
   1  -3   4 1018.40   67.79
  -2   3  -4 1453.45   99.29
  -2   3  -4 1512.85   95.79
   2  -3   4 1472.85   99.39
  -3   3  -4  990.30   71.79
  -3   3  -4 1039.10   66.69
   3  -3   4  972.90   70.59
  -4   3  -4 1218.68   88.39
  -4   3  -4 1271.67   81.59
   4  -3   4 1192.58   84.89
  -5   3  -4  729.73   61.29
  -5   3  -4  771.92   54.39
   5  -3   4  792.22   56.99
  -6   3  -4  655.23   58.99
  -6   3  -4  632.54   48.70
   6  -3   4  643.14   49.30
  -7   3  -4  610.84   64.99
   7  -3   4  759.22   54.39
  -8   3  -4  185.88   41.20
   8  -3   4  228.88   25.40
  -9   3  -4  158.38   41.90
   9  -3   4  257.17   29.30
 -10   3  -4  105.09   43.00
  10   2  -4  216.78   35.10
   9   2  -4  445.96   46.70
   8   2  -4  257.27   34.20
  -8  -2   4  260.97   42.80
   7   2  -4  497.25   43.70
  -7  -2   4  368.06   50.09
   6   2  -4  849.22   56.99
  -6  -2   4  750.72   69.59
   5   2  -4 1067.29   65.99
  -5  -2   4 1009.10   76.39
  -5  -2   4  770.02   76.59
   4   2  -4 1091.09   72.69
  -4  -2   4 1121.39   81.19
   3   2  -4  884.21   62.49
   3   2  -4  855.51   56.39
  -3  -2   4  839.82   62.59
   2   2  -4  521.75   41.00
   2   2  -4  556.84   35.80
  -2  -2   4  533.25   40.50
   1   2  -4 3871.41  226.38
   1   2  -4 3267.87  229.28
  -1  -2   4 3667.33  229.58
   0   2  -4 2569.04  162.28
   0   2  -4 2549.04  160.68
   0  -2   4 2494.65  162.48
  -1   2  -4  936.41   60.79
  -1   2  -4  871.61   60.79
   1  -2   4  896.81   61.29
  -2   2  -4 2665.03  174.78
  -2   2  -4 2676.53  173.28
   2  -2   4 2803.12  174.58
  -3   2  -4 2789.82  178.08
  -3   2  -4 2692.13  180.48
   3  -2   4 2830.12  178.98
  -4   2  -4 1163.98   86.19
  -4   2  -4 1202.08   82.49
   4  -2   4 1257.77   82.89
  -5   2  -4  496.95   40.60
  -5   2  -4  461.55   44.60
   5  -2   4  531.15   39.60
  -6   2  -4 1383.16  105.39
  -6   2  -4 1419.96  100.89
   6  -2   4 1493.55   97.89
  -7   2  -4  980.10   78.49
  -7   2  -4  974.30   84.99
   7  -2   4 1150.78   75.09
  -8   2  -4  368.26   52.49
   8  -2   4  518.55   41.00
  -9   2  -4  170.18   39.60
 -10   2  -4   84.29   32.10
  10   1  -4  270.37   37.10
   9   1  -4  531.15   49.90
  -9  -1   4  545.65   67.59
   8   1  -4  447.56   42.50
  -8  -1   4  422.56   55.39
   7   1  -4  369.86   36.10
  -7  -1   4  348.17   47.80
   6   1  -4  632.14   46.00
   6   1  -4  704.83   53.29
  -6  -1   4  688.83   61.69
   5   1  -4  905.21   70.79
   5   1  -4 1037.00   65.29
  -5  -1   4 1002.30   77.59
   4   1  -4  695.53   58.09
   4   1  -4  868.91   53.39
  -4  -1   4  835.62   63.49
   3   1  -4  915.21   64.29
   3   1  -4  900.41   58.69
  -3  -1   4  938.61   66.59
   2   1  -4 2834.02  189.48
  -2  -1   4 3080.09  190.58
   1   1  -4 2966.60  185.48
  -1  -1   4 2902.81  189.48
  -1  -1   4 3033.10  185.58
   0   1  -4 2594.54  162.68
   0   1  -4 2562.04  164.98
   0  -1   4 2578.14  164.28
  -1   1  -4 1505.45   97.49
  -1   1  -4 1460.95   96.39
   1  -1   4 1482.35   96.09
  -2   1  -4 3167.18  214.98
  -2   1  -4 3653.73  215.78
   2  -1   4 3293.47  213.28
  -3   1  -4 1385.96  101.39
  -3   1  -4 1499.35  101.29
   3  -1   4 1611.24   99.19
  -4   1  -4  299.27   31.50
  -4   1  -4  328.27   30.80
   4  -1   4  333.97   27.20
  -5   1  -4  558.54   53.09
  -5   1  -4  722.93   54.69
   5  -1   4  713.23   49.10
  -6   1  -4  985.70   79.79
  -6   1  -4 1002.80   82.29
   6  -1   4 1154.98   74.09
  -7   1  -4  824.42   69.69
  -7   1  -4  712.73   70.29
   7  -1   4  917.41   61.39
  -8   1  -4  259.27   38.30
  -8   1  -4  225.58   40.40
  -9   1  -4  340.57   52.79
  10  -1   4  456.85   51.29
  10   0  -4  181.38   28.00
 -10   0   4  170.98   43.90
   9   0  -4  152.78   24.90
  -9   0   4  132.59   37.70
   8   0  -4  356.06   35.20
  -8   0   4  341.47   52.69
   7   0  -4  534.55   44.40
   7   0  -4  507.55   39.40
  -7   0   4  549.95   57.49
   6   0  -4 1000.40   68.09
   6   0  -4 1094.69   74.69
  -6   0   4 1007.60   83.69
   5   0  -4  149.49   19.40
  -5   0   4  187.28   29.00
   4   0  -4 1199.18   81.09
  -4   0   4 1194.98   85.69
  -4   0   4 1140.59   76.39
   3   0  -4 1028.70   79.09
   3   0  -4 1358.76   74.79
  -3   0   4 1048.80   82.09
   2   0  -4 1479.25  100.19
  -2   0   4 1571.54  102.09
   1   0  -4 2614.84  176.78
  -1   0   4 2829.82  177.08
  -1   0   4 2801.12  172.88
  -1   0   4 2806.42  172.88
   0   0  -4  673.33   49.60
   0   0   4  744.13   48.20
  -1   0  -4 6055.19  405.76
  -1   0  -4 6808.82  404.96
   1   0   4 6445.95  402.66
  -2   0  -4 3290.57  208.48
  -2   0  -4 3278.47  209.88
   2   0   4 3177.88  204.48
  -3   0  -4  774.72   59.29
  -3   0  -4  834.22   60.99
   3   0   4  826.52   54.59
  -4   0  -4  346.07   37.10
  -4   0  -4  399.56   39.00
   4   0   4  530.45   33.70
  -5   0  -4 1470.05  118.59
  -5   0  -4 1635.94  120.59
   5   0   4 1959.80  113.19
  -6   0  -4 1574.34  118.59
  -6   0  -4 1317.17  115.69
   6   0   4 1920.01  109.59
  -7   0  -4  420.36   48.90
  -7   0  -4  377.46   50.19
   7   0   4  569.84   42.00
  -8   0  -4  323.47   47.20
   8   0   4  363.56   38.90
  -9   0  -4  289.57   48.40
   9   0   4  342.97   41.10
  10   0   4  298.27   40.50
  10  -1  -4  239.08   32.40
 -10   1   4  429.66   60.99
   9  -1  -4  167.38   25.40
  -9   1   4  151.58   39.80
   8  -1  -4  442.56   39.50
  -8   1   4  379.86   54.09
   7  -1  -4  927.61   68.39
  -7   1   4  972.90   83.89
   6  -1  -4  860.51   60.59
  -6   1   4  831.22   71.79
  -6   1   4  782.32   58.39
   5  -1  -4  859.81   57.59
  -5   1   4  742.23   54.19
  -5   1   4  740.63   64.99
   4  -1  -4 1110.99   72.29
  -4   1   4 1021.60   77.59
  -4   1   4  991.00   68.29
   3  -1  -4 1560.84   97.59
  -3   1   4 1385.56  100.29
  -3   1   4 1428.06   93.49
   2  -1  -4  412.56   32.80
  -2   1   4  408.76   34.40
  -2   1   4  464.25   29.70
   1  -1  -4  461.65   33.10
  -1   1   4  436.76   29.60
  -1   1   4  392.86   31.90
   0  -1  -4 1298.87   85.39
   0   1   4 1249.47   82.69
   0   1   4 1263.67   82.29
  -1  -1  -4 5080.19  335.17
   1   1   4 5780.52  330.07
   1   1   4 4926.21  331.47
  -2  -1  -4 2832.32  188.68
   2   1   4 2839.92  183.98
   2   1   4 2936.61  180.58
  -3  -1  -4 1192.08   86.19
   3   1   4 1211.98   76.09
   3   1   4 1142.59   80.29
  -4  -1  -4  834.22   71.99
   4   1   4  875.91   66.19
   4   1   4 1048.30   62.19
  -5  -1  -4 1371.96  111.89
   5   1   4 1382.96  104.19
   5   1   4 1791.32  101.19
  -6  -1  -4 1199.18   93.29
   6   1   4 1113.69   81.99
  -7  -1  -4  128.79   34.30
   7   1   4  123.99   21.60
  -8  -1  -4  661.63   69.19
   8   1   4  622.64   54.49
  -9  -1  -4  448.46   67.89
   9   1   4  580.04   53.29
 -10   2   4  135.69   38.60
   9  -2  -4  245.88   28.10
  -9   2   4  237.38   51.69
   8  -2  -4  382.76   34.80
  -8   2   4  292.07   51.69
   7  -2  -4  336.97   30.90
  -7   2   4  224.88   40.40
  -7   2   4  332.97   32.50
   6  -2  -4  148.09   19.00
  -6   2   4   90.59   27.00
  -6   2   4  154.88   19.60
   5  -2  -4  993.80   67.59
  -5   2   4  915.61   66.69
  -5   2   4  982.20   76.89
   4  -2  -4 1659.83  105.89
  -4   2   4 1537.95  104.39
  -4   2   4 1564.14  111.19
   3  -2  -4 1127.19   74.29
  -3   2   4 1097.19   72.59
  -3   2   4 1034.40   77.29
   2  -2  -4 1117.59   73.19
  -2   2   4 1096.69   70.99
  -2   2   4 1001.80   73.89
   1  -2  -4 1582.74  100.69
  -1   2   4 1423.36   97.89
  -1   2   4 1543.75   99.39
   0  -2  -4 3040.60  189.08
   0   2   4 2818.02  185.58
   0   2   4 2896.21  184.48
  -1  -2  -4 1333.37   90.59
   1   2   4 1266.47   82.29
   1   2   4 1280.87   85.59
  -2  -2  -4  909.81   51.89
  -2  -2  -4  708.53   59.29
   2   2   4  701.83   54.19
   2   2   4  747.13   49.50
  -3  -2  -4  796.42   64.49
   3   2   4  835.92   50.69
   3   2   4  724.63   56.29
  -4  -2  -4 2233.28  149.99
   4   2   4 1979.20  139.29
   4   2   4 2151.28  132.69
  -5  -2  -4 1249.07   95.49
   5   2   4 1145.49   82.69
  -6  -2  -4  440.66   51.69
   6   2   4  407.16   38.00
  -7  -2  -4  458.85   61.89
   7   2   4  477.65   43.10
  -8  -2  -4  318.77   53.29
   8   2   4  356.06   37.90
  -9  -2  -4  362.26   58.79
   9   2   4  320.67   38.60
 -10   3   4  232.68   60.49
  -9   3   4  452.95   66.19
   8  -3  -4  310.67   30.80
  -8   3   4  299.57   52.49
   7  -3  -4  655.63   46.70
  -7   3   4  511.25   50.89
  -7   3   4  574.54   61.89
   6  -3  -4  573.44   42.20
  -6   3   4  508.75   44.70
  -6   3   4  460.75   52.89
   5  -3  -4  955.60   64.59
  -5   3   4  795.12   71.79
  -5   3   4  937.71   66.79
   4  -3  -4 1799.42  111.09
  -4   3   4 1613.44  111.59
  -4   3   4 1574.04  116.39
   3  -3  -4  554.64   40.20
  -3   3   4  511.35   42.60
  -3   3   4  539.55   40.00
   2  -3  -4 1160.48   78.89
  -2   3   4 1145.49   78.19
  -2   3   4 1193.58   79.99
   1  -3  -4 1014.80   66.39
  -1   3   4  877.31   64.29
  -1   3   4  952.50   64.09
   0  -3  -4 1683.13  110.39
   0   3   4 1559.14  104.19
   0   3   4 1643.54  107.29
  -1  -3  -4 2120.09  149.09
   1   3   4 2264.87  144.99
   1   3   4 2255.97  139.99
  -2  -3  -4 1153.28   91.49
   2   3   4 1318.87   85.39
  -3  -3  -4  961.10   79.29
   3   3   4 1024.30   70.29
  -4  -3  -4 1177.58   98.49
   4   3   4 1333.17   88.49
  -5  -3  -4 1963.90  149.09
   5   3   4 2044.90  135.19
  -6  -3  -4  562.64   62.49
   6   3   4  527.65   45.50
  -7  -3  -4  225.08   45.90
   7   3   4  213.88   28.60
  -8  -3  -4  349.96   61.39
   8   3   4  404.56   40.00
  -9  -3  -4  348.67   63.89
   9   3   4  285.27   36.50
 -10   4   4  307.87   57.69
  -9   4   4  296.77   54.89
   8  -4  -4  473.65   40.40
  -8   4   4  485.25   62.49
   7  -4  -4  390.56   32.00
  -7   4   4  287.37   47.80
  -7   4   4  334.67   42.00
   6  -4  -4  234.08   22.40
  -6   4   4  201.48   29.80
  -6   4   4  156.58   32.30
   5  -4  -4  770.22   52.89
  -5   4   4  718.73   57.99
  -5   4   4  662.93   61.19
   4  -4  -4  673.23   48.20
  -4   4   4  653.63   54.09
  -4   4   4  642.34   50.79
   3  -4  -4 1034.80   68.09
  -3   4   4  998.70   69.59
  -3   4   4  909.11   70.29
   2  -4  -4  951.20   68.89
  -2   4   4 1029.00   69.99
  -2   4   4 1026.40   69.89
   1  -4  -4 1055.19   75.49
  -1   4   4 1081.59   74.99
  -1   4   4 1103.59   73.09
   0  -4  -4 1876.31  131.99
   0   4   4 1967.70  125.69
   0   4   4 2023.30  130.09
  -1  -4  -4  243.28   32.30
   1   4   4  297.07   26.40
  -2  -4  -4  360.96   43.00
   2   4   4  485.45   37.50
  -3  -4  -4  983.00   83.99
   3   4   4 1110.19   75.69
  -4  -4  -4  926.11   80.79
   4   4   4  949.51   68.29
  -5  -4  -4  614.34   66.19
   5   4   4  606.64   49.30
  -6  -4  -4  287.57   50.69
   6   4   4  343.17   32.10
  -7  -4  -4  559.74   78.19
   7   4   4  647.14   52.79
  -8  -4  -4  316.37   63.69
   8   4   4  317.97   36.20
  -9  -4  -4  197.28   62.09
   9   4   4  266.37   34.90
  10  -5  -4  278.27   47.10
  -9   5   4  429.46   68.39
  -8   5   4  371.36   54.09
   7  -5  -4  286.27   26.90
  -7   5   4  263.87   38.80
  -7   5   4  202.28   41.80
   6  -5  -4  600.14   44.20
  -6   5   4  565.24   56.99
  -6   5   4  535.75   53.09
   5  -5  -4  626.64   44.10
  -5   5   4  559.24   53.29
  -5   5   4  554.84   49.90
   4  -5  -4  452.25   34.20
  -4   5   4  435.96   41.20
  -4   5   4  411.66   39.10
   3  -5  -4  518.75   40.90
  -3   5   4  585.54   45.30
  -3   5   4  562.94   45.10
   2  -5  -4 1874.01  126.29
  -2   5   4 1906.61  128.09
  -2   5   4 1954.40  127.09
   1  -5  -4 1960.40  128.89
  -1   5   4 1911.61  128.79
  -1   5   4 1886.11  125.39
   0  -5  -4 1027.30   71.89
   0  -5  -4  831.12   63.09
   0   5   4 1011.40   69.19
  -1  -5  -4  903.61   71.99
  -1  -5  -4  885.31   60.49
   1   5   4  918.91   66.79
  -2  -5  -4  601.14   55.79
   2   5   4  612.84   48.40
  -3  -5  -4  663.13   65.09
   3   5   4  657.43   52.59
  -4  -5  -4 1248.68   98.09
   4   5   4 1002.90   78.49
  -5  -5  -4  838.02   79.69
   5   5   4  754.62   60.89
  -6  -5  -4  291.57   54.39
   6   5   4  316.97   34.20
  -7  -5  -4  572.14   80.99
   7   5   4  510.65   47.20
  -8  -5  -4  326.87   69.39
   8   5   4  345.27   37.90
   9  -6  -4  248.08   44.20
  -7   6   4  365.16   47.80
  -7   6   4  373.96   52.79
   6  -6  -4  427.76   32.90
  -6   6   4  336.97   45.40
  -6   6   4  344.77   43.40
   5  -6  -4  454.15   34.10
  -5   6   4  381.76   41.00
  -5   6   4  402.36   42.40
   4  -6  -4  301.07   26.30
  -4   6   4  280.77   34.30
  -4   6   4  297.67   32.70
   3  -6  -4  403.46   32.20
  -3   6   4  384.06   36.40
  -3   6   4  378.66   35.40
   2  -6  -4  274.17   27.60
  -2   6   4  310.57   31.10
  -2   6   4  318.57   28.40
   1  -6  -4  902.21   61.99
   1  -6  -4  675.53   55.49
  -1   6   4  844.62   61.89
   0  -6  -4  625.54   48.90
   0  -6  -4  746.33   57.09
   0   6   4  663.33   53.99
  -1  -6  -4  909.81   73.69
   1   6   4  870.21   67.89
  -2  -6  -4  892.61   78.09
   2   6   4  897.71   68.59
  -3  -6  -4  931.91   83.49
   3   6   4  879.81   68.89
  -4  -6  -4  375.26   56.89
   4   6   4  422.26   40.30
  -5  -6  -4  270.87   51.79
   5   6   4  291.67   34.70
  -6  -6  -4  420.66   69.09
   6   6   4  450.25   43.20
  -7  -6  -4  417.46   73.59
   7   6   4  343.17   38.80
  -8  -6  -4  282.27   76.69
   9  -7  -4  295.37   47.80
   8  -7  -4  433.56   54.09
   7  -7  -4  466.45   48.70
  -7   7   4  351.16   52.69
   6  -7  -4  541.85   49.80
  -6   7   4  471.75   50.89
   5  -7  -4  496.15   41.60
   5  -7  -4  346.17   32.80
  -5   7   4  383.26   42.90
   4  -7  -4  245.78   24.20
   4  -7  -4  295.47   31.10
  -4   7   4  227.18   31.50
   3  -7  -4 1306.07   99.29
   3  -7  -4 1555.04   98.69
  -3   7   4 1469.65  103.99
   2  -7  -4  625.74   54.29
   2  -7  -4  834.92   57.09
  -2   7   4  786.62   60.89
   1  -7  -4  403.56   38.30
   1  -7  -4  544.05   43.50
  -1   7   4  499.85   45.10
   0  -7  -4  569.04   46.90
   0  -7  -4  632.34   54.09
   0   7   4  627.34   53.39
  -1  -7  -4  816.92   74.69
   1   7   4  988.40   72.39
  -2  -7  -4  725.33   71.09
   2   7   4  756.72   61.59
  -3  -7  -4  276.87   47.10
   3   7   4  233.58   31.40
  -4  -7  -4  752.62   83.09
   4   7   4  778.02   63.49
  -5  -7  -4  205.98   52.59
   5   7   4  294.07   35.10
  -6  -7  -4  311.27   65.39
   6   7   4  405.56   41.60
  -7  -7  -4  266.37   67.59
   7   7   4  329.07   39.40
   8  -8  -4  288.47   43.50
   7  -8  -4  264.37   39.30
  -7   8   4  308.97   48.80
   6  -8  -4  181.48   31.40
  -6   8   4  142.79   32.80
   5  -8  -4  418.56   41.70
  -5   8   4  389.76   44.20
   4  -8  -4  644.44   50.49
   4  -8  -4  611.24   52.09
  -4   8   4  619.04   56.19
   3  -8  -4   92.99   16.10
   3  -8  -4   94.79   17.70
  -3   8   4   93.59   22.00
   2  -8  -4  263.27   27.20
   2  -8  -4  175.58   24.50
  -2   8   4  268.17   34.10
   1  -8  -4  489.45   44.70
   1  -8  -4  415.86   39.60
  -1   8   4  436.16   45.20
   0  -8  -4  502.35   51.39
   0   8   4  607.44   53.49
  -1  -8  -4  372.76   49.20
   1   8   4  504.75   47.80
  -2  -8  -4  512.85   61.19
   2   8   4  595.84   54.09
  -3  -8  -4  717.83   75.49
   3   8   4  631.24   58.79
  -4  -8  -4  441.26   68.39
   4   8   4  448.86   47.00
  -5  -8  -4  203.68   51.49
   5   8   4  205.08   32.20
  -6  -8  -4   87.19   51.39
   6   8   4  151.48   27.90
   8  -9  -4  170.28   36.60
   7  -9  -4  129.39   30.10
  -7   9   4   99.59   33.80
   6  -9  -4  466.75   47.50
  -6   9   4  416.86   53.89
   5  -9  -4  374.06   39.30
  -5   9   4  311.27   43.30
   4  -9  -4  485.15   44.60
  -4   9   4  465.75   49.80
   3  -9  -4  543.65   46.50
   3  -9  -4  418.36   42.00
  -3   9   4  468.15   48.90
   2  -9  -4  286.77   32.10
   2  -9  -4  274.47   30.40
  -2   9   4  296.57   39.00
   1  -9  -4  298.67   37.60
  -1   9   4  273.47   37.90
   0  -9  -4  393.66   47.30
   0   9   4  511.25   50.49
  -1  -9  -4  521.95   56.49
   1   9   4  433.86   50.19
  -2  -9  -4  361.86   54.89
   2   9   4  373.36   46.40
  -3  -9  -4  680.13   83.29
   3   9   4  626.84   60.69
  -4  -9  -4  300.77   64.49
   4   9   4  344.57   43.60
  -5  -9  -4  210.48   64.89
   5   9   4  306.37   40.10
   7 -10  -4   85.39   28.40
  -7  10   4  102.49   33.90
   6 -10  -4  143.19   28.00
  -6  10   4  181.98   38.80
   5 -10  -4  221.68   33.80
  -5  10   4  243.88   40.70
   4 -10  -4  291.37   35.50
  -4  10   4  296.97   43.30
   3 -10  -4  270.27   34.60
  -3  10   4  334.07   42.80
  -2  10   4  383.86   48.10
   1 -10  -4  426.76   44.40
  -1  10   4  343.87   47.30
   0 -10  -4  223.68   36.90
   0  10   4  133.89   30.60
  -1 -10  -4  339.97   49.40
   1  10   4  287.37   42.60
  -2 -10  -4  213.18   45.10
   2  10   4  148.99   32.10
  -3 -10  -4  270.77   57.39
   3  10   4  274.37   40.70
  -4 -10  -4  255.77   60.39
   4  10   4  264.27   40.00
   6 -11  -4  225.88   34.60
  -6  11   4  211.58   41.30
   5 -11  -4  172.68   28.80
  -5  11   4  176.58   35.10
   4 -11  -4  194.48   30.40
  -4  11   4  213.08   40.00
  -3  11   4  195.78   36.80
  -2  11   4  242.08   40.40
  -1  11   4  279.27   44.90
   0 -11  -4  367.36   50.69
   0  11   4  316.97   48.30
  -1 -11  -4  375.06   55.19
   1  11   4  301.97   47.50
  -2 -11  -4  346.87   57.89
   2  11   4  354.16   50.19
  -3  12   4  281.87   45.90
  -2  12   4  186.38   38.40
  -1  12   4  259.47   46.00
   0  12   4  202.88   46.60
   2  12  -5  226.28   38.70
   1  12  -5  273.47   42.70
   0  12  -5  262.47   42.40
   0 -12   5  250.57   50.29
  -1  12  -5  146.79   34.80
   1 -12   5  224.48   45.00
  -2  12  -5  236.28   41.90
   2 -12   5  218.78   43.10
  -3  12  -5  118.39   34.50
   3 -12   5   73.19   33.60
  -4  12  -5  153.18   38.40
   4 -12   5  173.48   40.50
  -5  12  -5  265.97   50.49
   5 -12   5  185.38   38.40
  -4 -11   5  261.77   46.80
   3  11  -5  290.27   40.90
  -3 -11   5  338.17   47.50
   2  11  -5  241.18   37.90
   1  11  -5   86.19   24.00
  -1 -11   5  111.39   29.00
   0  11  -5  294.77   40.90
   0 -11   5  307.27   43.70
  -1  11  -5  138.89   29.50
   1 -11   5  155.18   34.70
  -2  11  -5  202.38   34.60
   2 -11   5  211.78   39.80
  -3  11  -5  335.67   47.20
   3 -11   5  373.86   52.49
  -4  11  -5  192.18   39.00
   4 -11   5  287.17   44.10
  -5  11  -5  347.37   52.99
   5 -11   5  345.87   49.50
  -6  11  -5  145.39   41.80
   6 -11   5  162.48   34.20
  -5 -10   5  128.79   39.40
   4  10  -5  126.99   32.70
  -4 -10   5  110.49   32.70
   3  10  -5  447.66   47.60
  -3 -10   5  395.86   51.49
   2  10  -5  325.77   41.20
  -2 -10   5  363.56   44.00
  -2 -10   5  403.46   43.30
   1  10  -5  356.46   40.80
  -1 -10   5  418.36   45.10
  -1 -10   5  393.16   43.60
   0  10  -5  159.48   28.60
   0 -10   5  209.58   35.40
  -1  10  -5  169.88   29.30
   1 -10   5  156.68   33.50
  -2  10  -5  266.27   38.10
   2 -10   5  257.27   41.70
  -3  10  -5  155.38   32.20
   3 -10   5  173.28   36.40
  -4  10  -5  353.16   48.30
   4 -10   5  284.67   43.00
  -5  10  -5  330.47   51.19
   5 -10   5  309.07   43.50
  -6  10  -5  225.18   46.60
   6 -10   5  298.37   42.00
  -7  10  -5  173.58   46.50
   7 -10   5  142.29   30.50
  -6  -9   5  242.88   51.19
  -5  -9   5  136.99   40.10
   4   9  -5  634.84   54.59
  -4  -9   5  510.75   59.79
   3   9  -5  422.66   41.20
  -3  -9   5  437.16   43.10
  -3  -9   5  360.86   44.60
   2   9  -5  443.16   41.60
  -2  -9   5  406.06   42.30
  -2  -9   5  415.66   43.90
   1   9  -5  583.64   51.39
  -1  -9   5  612.34   51.29
  -1  -9   5  612.54   54.99
   0   9  -5  434.26   42.20
   0  -9   5  391.66   44.60
  -1   9  -5  335.17   37.90
   1  -9   5  429.26   46.40
  -2   9  -5  368.06   40.50
   2  -9   5  389.16   49.10
  -3   9  -5  291.67   39.00
   3  -9   5  337.57   44.10
  -4   9  -5  298.97   42.20
   4  -9   5  297.17   40.70
  -5   9  -5  237.88   40.30
   5  -9   5  219.88   36.00
  -6   9  -5  393.56   55.59
   6  -9   5  353.26   44.00
  -7   9  -5  153.48   41.80
   7  -9   5  214.38   34.20
  -8   9  -5  250.17   49.00
   8  -9   5  209.08   33.90
  -7  -8   5  180.18   51.69
  -6  -8   5  248.18   48.60
  -5  -8   5  165.08   36.10
   4   8  -5  401.06   40.20
  -4  -8   5  404.66   41.80
  -4  -8   5  382.76   49.99
   3   8  -5  537.65   48.10
  -3  -8   5  581.34   49.60
  -3  -8   5  578.54   54.09
   2   8  -5  167.78   23.80
  -2  -8   5  142.29   24.90
  -2  -8   5  172.68   25.90
   1   8  -5  320.37   32.60
  -1  -8   5  289.77   31.70
  -1  -8   5  275.07   34.40
   0   8  -5  425.46   36.90
   0   8  -5  297.17   31.40
   0  -8   5  507.75   43.40
  -1   8  -5  698.43   54.59
   1  -8   5  595.34   57.89
  -2   8  -5  364.16   39.50
   2  -8   5  430.06   44.90
  -3   8  -5  526.65   48.70
   3  -8   5  422.76   47.20
  -4   8  -5  511.45   50.89
   4  -8   5  432.56   47.40
  -5   8  -5  363.56   47.70
   5  -8   5  296.17   39.80
  -6   8  -5  262.97   42.80
   6  -8   5  198.58   32.10
  -7   8  -5  219.68   42.40
   7  -8   5  168.28   30.40
  -8   8  -5  276.47   52.79
   8  -8   5  352.36   41.50
  -7  -7   5  304.57   56.09
  -6  -7   5  217.78   44.70
  -5  -7   5  475.95   58.59
  -5  -7   5  596.24   53.29
   4   7  -5  708.23   50.59
  -4  -7   5  545.85   50.89
  -4  -7   5  519.05   57.49
   3   7  -5  501.25   44.00
  -3  -7   5  543.75   51.49
  -3  -7   5  591.64   48.40
   2   7  -5  601.14   47.70
  -2  -7   5  597.44   49.80
  -2  -7   5  599.04   52.19
   1   7  -5 1075.69   78.29
  -1  -7   5 1158.28   82.49
   0   7  -5  481.25   39.60
   0   7  -5  531.65   42.70
   0  -7   5  508.15   45.80
  -1   7  -5  803.72   57.19
  -1   7  -5  795.42   61.69
   1  -7   5  847.82   66.89
  -2   7  -5  896.31   67.19
   2  -7   5  820.82   69.19
  -3   7  -5  390.76   39.50
   3  -7   5  331.07   38.10
  -4   7  -5  256.37   37.20
   4  -7   5  341.17   36.70
  -5   7  -5  180.78   34.10
   5  -7   5  186.48   28.50
  -6   7  -5  620.84   64.49
   6  -7   5  607.44   53.99
  -7   7  -5  326.97   50.69
   7  -7   5  281.07   35.60
  -8   7  -5  305.07   54.49
   8  -7   5  237.28   34.50
  -9   7  -5  335.07   59.99
   9  -7   5  222.58   32.20
  -7  -6   5  347.27   58.89
  -6  -6   5  309.87   59.29
  -6  -6   5  307.67   51.89
   5   6  -5  594.94   45.20
  -5  -6   5  503.95   49.90
  -5  -6   5  427.16   58.69
   4   6  -5 1005.00   68.69
  -4  -6   5  967.00   73.49
  -4  -6   5  851.41   78.29
   3   6  -5  454.45   37.10
  -3  -6   5  413.06   44.20
  -3  -6   5  493.05   41.00
   2   6  -5  534.85   40.60
  -2  -6   5  560.84   44.40
  -2  -6   5  463.25   45.10
   1   6  -5  108.99   17.80
   1   6  -5  137.59   17.30
  -1  -6   5  141.89   20.40
   0   6  -5 1028.40   68.79
   0   6  -5  852.71   66.29
   0  -6   5 1035.60   72.39
  -1   6  -5 1085.19   76.99
  -1   6  -5 1058.19   73.09
   1  -6   5 1113.19   79.99
  -2   6  -5 1095.79   72.29
  -2   6  -5 1152.58   80.59
   2  -6   5 1055.29   81.59
  -3   6  -5  767.62   56.99
   3  -6   5  600.74   53.99
  -4   6  -5  424.36   42.60
   4  -6   5  378.86   39.30
  -5   6  -5  774.52   65.19
   5  -6   5  659.23   57.39
  -6   6  -5  124.69   29.50
   6  -6   5  132.89   23.00
  -7   6  -5  160.78   35.90
   7  -6   5  181.88   26.50
  -8   6  -5  276.67   51.09
   8  -6   5  312.97   34.50
  -9   6  -5  259.47   50.79
   9  -6   5  252.77   32.70
   8   5  -5  852.41   77.29
  -7  -5   5  218.58   47.20
  -6  -5   5  364.76   55.19
  -6  -5   5  379.56   43.00
   5   5  -5 1108.29   71.19
  -5  -5   5  883.91   84.49
  -5  -5   5  941.21   78.29
   4   5  -5 1509.85   96.69
  -4  -5   5 1312.07  107.99
  -4  -5   5 1451.55  102.99
   3   5  -5  677.83   47.60
  -3  -5   5  607.14   56.09
  -3  -5   5  659.53   51.89
   2   5  -5  581.54   42.80
  -2  -5   5  613.14   47.30
   1   5  -5  926.21   60.59
   1   5  -5  789.62   62.39
  -1  -5   5  890.91   63.89
   0   5  -5 1350.36   97.89
   0   5  -5 1571.94   98.89
   0  -5   5 1509.35  101.89
  -1   5  -5 1346.67   88.89
  -1   5  -5 1200.88   85.19
   1  -5   5 1351.26   91.39
  -2   5  -5  536.55   36.80
  -2   5  -5  511.25   43.30
   2  -5   5  513.35   44.30
  -3   5  -5 1066.29   78.39
  -3   5  -5 1073.39   67.79
   3  -5   5 1007.90   77.29
  -4   5  -5  709.13   62.99
   4  -5   5  840.02   61.39
  -5   5  -5 1016.80   79.49
   5  -5   5  947.91   72.59
  -6   5  -5  312.77   43.10
   6  -5   5  321.67   33.40
  -7   5  -5  284.97   44.20
   7  -5   5  326.57   33.20
  -8   5  -5  353.46   54.49
   8  -5   5  366.66   37.90
  -9   5  -5  217.58   50.59
   9  -5   5  293.37   32.50
   9   4  -5  227.28   39.00
   8   4  -5  266.47   39.10
   7   4  -5  327.67   41.60
  -7  -4   5  293.27   42.30
  -6  -4   5  414.36   45.20
   5   4  -5 1308.87   79.69
  -5  -4   5 1068.39   87.29
  -5  -4   5 1006.80   93.39
   4   4  -5 1284.77   84.79
  -4  -4   5 1286.27   92.69
  -4  -4   5 1246.28   98.49
   3   4  -5  779.42   61.39
   3   4  -5  835.72   55.09
  -3  -4   5  793.42   60.69
   2   4  -5  916.91   69.29
   2   4  -5  996.30   64.59
  -2  -4   5  971.90   68.89
   1   4  -5 1248.38   88.69
   1   4  -5 1380.46   86.29
  -1  -4   5 1272.97   89.29
   0   4  -5 1116.99   81.09
   0   4  -5 1331.87   81.59
   0  -4   5 1183.78   83.49
  -1   4  -5 1083.29   74.59
  -1   4  -5 1168.78   77.29
   1  -4   5 1114.59   78.49
  -2   4  -5  308.27   29.50
  -2   4  -5  324.17   24.80
   2  -4   5  335.87   30.60
  -3   4  -5  443.96   42.80
  -3   4  -5  545.25   36.60
   3  -4   5  538.85   43.30
  -4   4  -5 1069.59   80.59
  -4   4  -5 1131.49   71.19
   4  -4   5  998.00   76.89
  -5   4  -5  648.44   56.39
   5  -4   5  591.04   48.80
  -6   4  -5  288.97   41.10
   6  -4   5  297.17   30.30
  -7   4  -5  420.46   54.19
   7  -4   5  431.36   38.60
  -8   4  -5  517.15   66.49
   8  -4   5  492.25   43.10
  -9   4  -5   76.79   38.10
   9  -4   5   66.29   17.90
 -10   4  -5   59.39   35.70
   9   3  -5  581.24   58.29
   8   3  -5  434.66   46.40
  -8  -3   5  374.36   54.89
   7   3  -5  289.07   36.90
  -7  -3   5  206.38   36.50
   6   3  -5  773.22   64.29
  -6  -3   5  802.42   70.19
   5   3  -5 1707.13  121.39
   5   3  -5 1781.92  113.59
  -5  -3   5 1713.13  123.99
   4   3  -5  702.93   54.29
   4   3  -5  672.73   46.70
  -4  -3   5  686.63   55.99
   3   3  -5  807.82   52.89
   3   3  -5  750.72   59.29
  -3  -3   5  836.52   60.29
   2   3  -5 1837.72  124.79
   2   3  -5 1909.81  119.19
  -2  -3   5 1847.02  123.99
   1   3  -5 2656.63  192.18
   1   3  -5 3338.27  189.78
  -1  -3   5 2953.80  192.88
   0   3  -5 1464.95  109.89
   0   3  -5 1871.41  109.89
   0  -3   5 1730.93  111.69
  -1   3  -5  352.76   28.50
  -1   3  -5  404.46   29.80
   1  -3   5  356.16   30.40
  -2   3  -5 2595.54  167.88
  -2   3  -5 2489.55  164.88
   2  -3   5 2659.43  168.08
  -3   3  -5 1877.31  130.09
  -3   3  -5 1948.31  126.09
   3  -3   5 1990.60  129.29
  -4   3  -5 1013.80   77.19
  -4   3  -5 1091.49   71.59
   4  -3   5 1002.20   73.59
  -5   3  -5  924.91   65.99
  -5   3  -5  894.81   72.69
   5  -3   5  983.00   68.29
  -6   3  -5  569.94   56.09
   6  -3   5  602.14   47.80
  -7   3  -5  566.94   61.19
   7  -3   5  642.24   50.09
  -8   3  -5  252.87   45.90
   8  -3   5  284.17   30.90
  -9   3  -5  162.58   40.20
   9  -3   5  276.47   34.10
 -10   3  -5  178.68   51.29
   9   2  -5  336.47   41.20
  -9  -2   5  221.98   49.50
   8   2  -5  488.55   48.00
  -8  -2   5  481.65   62.29
   7   2  -5  452.35   44.10
  -7  -2   5  434.46   55.49
   6   2  -5  783.62   62.69
  -6  -2   5  777.62   70.49
   5   2  -5  865.81   68.39
   5   2  -5 1004.70   61.99
  -5  -2   5  823.12   72.59
   4   2  -5  466.05   31.80
   4   2  -5  435.16   39.70
  -4  -2   5  486.75   43.10
   3   2  -5 1592.94   92.99
   3   2  -5 1325.27   99.79
  -3  -2   5 1426.36  101.19
   2   2  -5 1667.23  119.69
   2   2  -5 1918.61  113.69
  -2  -2   5 1906.31  114.69
  -2  -2   5 1660.93  119.59
   1   2  -5 2904.71  189.68
   1   2  -5 2909.81  185.18
  -1  -2   5 3039.30  189.78
   0   2  -5 1962.60  132.69
   0   2  -5 2077.39  130.59
   0  -2   5 2098.29  133.09
  -1   2  -5 1345.57   89.39
  -1   2  -5 1345.17   88.59
   1  -2   5 1342.77   89.29
  -2   2  -5  128.89   15.40
  -2   2  -5  139.49   17.10
   2  -2   5  127.59   15.60
  -3   2  -5  169.68   22.60
  -3   2  -5  200.78   20.40
   3  -2   5  213.38   20.30
  -4   2  -5 1350.76   97.59
  -4   2  -5 1478.35  101.99
   4  -2   5 1498.15   97.49
  -5   2  -5  377.16   42.30
  -5   2  -5  474.15   39.80
   5  -2   5  493.05   37.70
  -6   2  -5  552.84   57.49
  -6   2  -5  708.43   54.89
   6  -2   5  707.23   51.59
  -7   2  -5  755.42   65.59
  -7   2  -5  693.43   70.09
   7  -2   5  920.21   61.49
  -8   2  -5  281.67   47.10
   8  -2   5  431.66   36.90
  -9   2  -5  110.49   34.20
 -10   2  -5   77.09   35.30
  10   1  -5  207.88   32.20
 -10  -1   5  201.58   48.80
   9   1  -5  380.26   41.10
  -9  -1   5  356.56   58.09
   8   1  -5  374.76   38.50
  -8  -1   5  324.47   54.09
   7   1  -5  648.74   54.79
  -7  -1   5  688.23   66.59
   6   1  -5  921.31   69.39
  -6  -1   5  907.31   77.69
   5   1  -5 1973.10  115.99
   5   1  -5 1612.24  122.39
  -5  -1   5 1783.62  129.39
   4   1  -5  686.13   43.90
   4   1  -5  637.74   51.59
  -4  -1   5  679.13   55.59
   3   1  -5 1032.50   72.99
  -3  -1   5 1037.00   74.89
   2   1  -5 3081.29  197.08
  -2  -1   5 3027.20  197.68
   1   1  -5 3149.39  175.98
   1   1  -5 2522.95  179.88
  -1  -1   5 2767.62  175.58
  -1  -1   5 2722.73  180.08
   0   1  -5 2198.68  136.09
   0   1  -5 2184.18  138.99
   0  -1   5 2022.40  137.59
  -1   1  -5 2322.87  146.29
  -1   1  -5 2209.38  144.39
   1  -1   5 2206.08  143.89
  -2   1  -5 3678.43  232.98
  -2   1  -5 3657.13  232.18
   2  -1   5 3548.15  229.78
  -3   1  -5  964.90   67.29
  -3   1  -5  907.91   66.59
   3  -1   5  900.81   62.79
  -4   1  -5  625.24   53.49
  -4   1  -5  619.14   52.49
   4  -1   5  732.03   48.50
  -5   1  -5  752.42   67.29
  -5   1  -5  883.81   67.69
   5  -1   5  921.91   61.49
  -6   1  -5  930.11   72.39
  -6   1  -5  679.33   70.09
   6  -1   5 1073.69   66.29
  -7   1  -5  524.75   53.99
  -7   1  -5  494.25   55.59
   7  -1   5  733.73   49.00
  -8   1  -5  240.88   42.30
  -8   1  -5  285.57   41.80
  10  -1   5  304.67   45.20
  10   0  -5  318.37   37.20
 -10   0   5  260.97   58.69
   9   0  -5  367.36   39.00
  -9   0   5  441.86   63.89
   8   0  -5  326.47   34.80
  -8   0   5  346.17   51.49
   7   0  -5  689.53   54.79
  -7   0   5  671.13   68.59
   6   0  -5 1582.54  109.59
  -6   0   5 1604.44  120.59
   5   0  -5  171.08   20.80
   5   0  -5  196.78   15.40
  -5   0   5  230.98   32.90
   4   0  -5  424.06   27.70
   4   0  -5  404.56   34.40
  -4   0   5  411.36   38.70
   3   0  -5 1705.93  113.29
  -3   0   5 1684.33  116.29
   2   0  -5 2012.70  131.29
  -2   0   5 1985.80  132.59
   1   0  -5  865.91   65.09
  -1   0   5  932.01   64.99
  -1   0   5 1017.10   60.89
   0   0  -5 2139.99  134.09
   0   0   5 1957.70  129.99
   0   0   5 2045.60  131.69
  -1   0  -5 2603.14  165.18
  -1   0  -5 2554.74  167.08
   1   0   5 2533.55  162.98
  -2   0  -5 1310.77   90.59
  -2   0  -5 1288.77   88.69
   2   0   5 1309.27   84.59
  -3   0  -5 1240.88   86.99
  -3   0  -5 1208.78   85.29
   3   0   5 1197.78   79.29
  -4   0  -5  730.53   62.89
  -4   0  -5  790.72   64.59
   4   0   5  913.81   56.89
  -5   0  -5  648.24   60.39
  -5   0  -5  754.82   63.49
   5   0   5  850.71   54.39
  -6   0  -5  585.94   56.09
  -6   0  -5  465.55   52.99
   6   0   5  691.93   46.20
  -7   0  -5  424.66   48.20
  -8   0  -5  118.09   30.60
   8   0   5  203.38   30.20
   9   0   5  490.05   51.09
  10  -1  -5  131.49   24.20
 -10   1   5  196.38   55.79
   9  -1  -5  212.88   27.90
  -9   1   5  119.39   39.50
   8  -1  -5  439.36   40.10
  -8   1   5  448.46   61.29
   7  -1  -5  456.85   40.30
  -7   1   5  495.65   59.09
   6  -1  -5 1167.28   83.39
  -6   1   5 1211.28   95.99
   5  -1  -5  939.01   65.99
  -5   1   5  925.01   74.59
  -5   1   5  880.11   60.89
   4  -1  -5 1515.55   98.39
  -4   1   5 1552.74  104.59
  -4   1   5 1336.17   92.39
   3  -1  -5 1667.83  108.29
  -3   1   5 1592.64  102.69
  -3   1   5 1598.84  111.49
   2  -1  -5 1939.61  130.19
  -2   1   5 2053.69  125.89
  -2   1   5 1953.30  131.89
   1  -1  -5 2007.70  126.49
  -1   1   5 1880.31  122.09
  -1   1   5 1871.61  125.39
   0  -1  -5 1759.52  123.89
   0   1   5 1899.21  121.39
   0   1   5 1954.50  120.79
  -1  -1  -5 4087.49  269.87
   1   1   5 4529.65  264.47
   1   1   5 3955.40  265.47
  -2  -1  -5  249.38   28.20
   2   1   5  295.07   20.40
   2   1   5  251.87   23.80
  -3  -1  -5 1072.99   83.49
   3   1   5 1153.38   72.99
   3   1   5 1138.29   78.09
  -4  -1  -5 1522.95  115.49
   4   1   5 1559.04  108.59
   4   1   5 1686.23  102.99
  -5  -1  -5  936.21   81.79
   5   1   5 1016.30   74.49
   5   1   5 1079.29   68.19
  -6  -1  -5  560.44   57.79
   6   1   5  584.84   48.80
  -7  -1  -5  308.47   47.70
   7   1   5  248.88   32.10
  -8  -1  -5  658.03   73.39
   8   1   5  783.42   62.89
  -9  -1  -5  321.97   56.69
   9   1   5  373.46   44.30
 -10   2   5  320.07   64.79
   9  -2  -5  203.28   27.10
  -9   2   5  250.47   52.49
   8  -2  -5  433.36   39.20
  -8   2   5  395.46   59.69
   7  -2  -5  657.03   50.99
  -7   2   5  637.64   66.99
   6  -2  -5  319.27   30.10
  -6   2   5  348.37   45.20
   5  -2  -5  732.53   50.99
  -5   2   5  611.34   58.09
  -5   2   5  640.64   47.90
   4  -2  -5 1797.42  111.19
  -4   2   5 1539.75  115.99
  -4   2   5 1600.14  107.89
   3  -2  -5 1917.81  123.39
  -3   2   5 1765.52  126.29
  -3   2   5 1891.01  120.39
   2  -2  -5  193.48   18.80
  -2   2   5  180.68   16.50
  -2   2   5  193.18   20.60
   1  -2  -5 1494.05   97.19
  -1   2   5 1420.06   93.79
  -1   2   5 1400.26   95.29
   0  -2  -5 2723.33  177.98
   0   2   5 2725.23  174.28
   0   2   5 2711.03  173.38
  -1  -2  -5  862.81   66.99
   1   2   5  926.91   59.59
   1   2   5  904.11   62.49
  -2  -2  -5 1200.18   90.49
   2   2   5 1301.07   79.49
   2   2   5 1182.78   83.99
  -3  -2  -5 1699.63  128.89
   3   2   5 1969.40  115.19
   3   2   5 1721.33  121.29
  -4  -2  -5 1779.02  136.19
   4   2   5 1784.12  126.49
   4   2   5 2032.30  119.49
  -5  -2  -5  555.04   56.39
   5   2   5  495.55   43.50
  -6  -2  -5  262.97   43.50
   6   2   5  233.68   30.00
  -7  -2  -5  220.68   42.10
   7   2   5  175.98   27.60
  -8  -2  -5  412.16   61.59
   8   2   5  401.86   43.00
  -9  -2  -5  254.37   53.69
   9   2   5  377.86   41.50
 -10   3   5  256.97   54.09
   9  -3  -5  620.64   51.19
  -9   3   5  714.73   84.89
   8  -3  -5  297.87   30.20
  -8   3   5  304.97   50.59
   7  -3  -5  467.25   39.00
  -7   3   5  445.56   59.89
   6  -3  -5  703.83   50.99
  -6   3   5  582.44   61.79
  -6   3   5  636.24   51.89
   5  -3  -5  808.42   54.69
  -5   3   5  667.23   54.49
  -5   3   5  688.73   62.49
   4  -3  -5 1205.48   79.39
  -4   3   5 1199.88   79.39
  -4   3   5  997.70   82.99
   3  -3  -5 1196.48   80.49
  -3   3   5 1191.28   79.19
  -3   3   5 1109.79   82.59
   2  -3  -5 2573.64  155.68
  -2   3   5 2304.57  155.18
  -2   3   5 2248.88  152.98
   1  -3  -5 2203.88  145.19
  -1   3   5 2172.18  142.79
  -1   3   5 2227.38  142.69
   0  -3  -5 1432.66   99.29
   0   3   5 1392.46   92.79
   0   3   5 1465.05   95.79
  -1  -3  -5  309.27   33.20
   1   3   5  297.17   27.40
   1   3   5  329.87   22.80
  -2  -3  -5  528.15   51.89
  -2  -3  -5  617.24   40.20
   2   3   5  603.04   38.50
   2   3   5  598.54   45.30
  -3  -3  -5 2147.99  151.18
   3   3   5 2101.89  140.59
  -4  -3  -5 1324.77  103.59
   4   3   5 1271.57   90.19
  -5  -3  -5  395.66   56.39
   5   3   5  469.85   40.30
  -6  -3  -5  759.52   77.39
   6   3   5  730.53   58.99
  -7  -3  -5  756.52   82.79
   7   3   5  771.92   62.49
  -8  -3  -5  475.15   70.39
   8   3   5  345.37   40.40
  -9  -3  -5  193.78   51.29
   9   3   5  163.58   30.20
 -10   4   5  287.27   68.29
  -9   4   5  164.68   48.20
   8  -4  -5  236.18   27.30
  -8   4   5  179.58   41.10
   7  -4  -5  471.35   39.00
  -7   4   5  439.66   58.69
   6  -4  -5  442.36   35.50
  -6   4   5  386.46   41.50
  -6   4   5  367.06   48.50
   5  -4  -5 1073.69   71.99
  -5   4   5  989.10   74.89
  -5   4   5  936.31   79.39
   4  -4  -5  964.00   65.69
  -4   4   5  867.11   66.29
  -4   4   5  920.41   71.19
   3  -4  -5  686.83   50.59
  -3   4   5  707.13   51.19
  -3   4   5  652.83   52.89
   2  -4  -5 1825.42  120.19
  -2   4   5 1754.22  119.39
  -2   4   5 1817.52  119.79
   1  -4  -5 1911.81  126.19
  -1   4   5 1907.71  122.49
  -1   4   5 1797.72  124.09
   0  -4  -5 1009.50   73.79
   0   4   5  978.10   65.89
   0   4   5  989.30   70.29
  -1  -4  -5  444.16   45.50
   1   4   5  520.45   34.70
   1   4   5  522.15   41.50
  -2  -4  -5 1305.17   96.49
   2   4   5 1204.08   86.89
  -3  -4  -5 1439.56  112.79
   3   4   5 1479.85  101.29
  -4  -4  -5  421.56   55.99
   4   4   5  442.86   38.90
  -5  -4  -5  493.65   62.99
   5   4   5  441.36   41.10
  -6  -4  -5  277.77   54.39
   6   4   5  379.76   35.00
  -7  -4  -5  452.85   68.39
   7   4   5  447.16   43.90
  -8  -4  -5  305.67   66.69
   8   4   5  377.26   41.00
  -9   5   5  502.75   75.09
  -8   5   5  493.75   66.79
   7  -5  -5  473.35   37.90
  -7   5   5  354.56   53.39
   6  -5  -5  424.86   34.00
  -6   5   5  365.26   41.40
  -6   5   5  266.27   42.00
   5  -5  -5  372.96   30.70
  -5   5   5  325.27   36.30
  -5   5   5  312.87   40.20
   4  -5  -5  582.94   42.90
  -4   5   5  556.04   46.30
  -4   5   5  500.85   47.80
   3  -5  -5  824.12   59.69
  -3   5   5  830.82   61.99
  -3   5   5  808.32   60.99
   2  -5  -5 1172.78   82.09
  -2   5   5 1163.38   82.79
  -2   5   5 1190.08   81.69
   1  -5  -5 1390.56   97.19
  -1   5   5 1345.27   93.09
  -1   5   5 1474.85   97.29
   0  -5  -5 1170.28   88.79
   0   5   5 1235.18   80.89
   0   5   5 1238.48   86.39
  -1  -5  -5  447.46   33.30
  -1  -5  -5  425.66   43.30
   1   5   5  506.25   40.70
  -2  -5  -5 1669.73  120.09
   2   5   5 1523.45  109.49
  -3  -5  -5 1139.59   95.69
   3   5   5 1124.49   82.19
  -4  -5  -5  375.16   56.09
   4   5   5  403.56   38.60
  -5  -5  -5  465.35   67.09
   5   5   5  440.46   42.20
  -6  -5  -5  481.35   74.79
   6   5   5  545.95   48.40
  -7  -5  -5  457.35   73.99
   7   5   5  509.25   47.80
  -8  -5  -5  219.08   65.79
   8   5   5  238.78   33.20
  -8   6   5  324.57   55.89
  -7   6   5  430.66   55.89
   6  -6  -5  853.11   59.69
  -6   6   5  796.32   69.59
  -6   6   5  753.52   69.39
   5  -6  -5  529.65   40.90
  -5   6   5  540.65   49.10
  -5   6   5  484.75   49.50
   4  -6  -5  388.46   31.90
  -4   6   5  364.36   37.20
  -4   6   5  350.46   35.70
   3  -6  -5  719.63   52.89
  -3   6   5  660.33   55.49
  -3   6   5  705.63   55.29
   2  -6  -5 1599.04  108.59
  -2   6   5 1538.95  110.09
  -2   6   5 1624.24  107.89
   1  -6  -5  649.64   54.09
  -1   6   5  706.03   53.99
  -1   6   5  631.84   48.40
   0  -6  -5  293.27   25.90
   0  -6  -5  278.57   34.80
   0   6   5  309.67   32.00
  -1  -6  -5 1226.68   93.09
   1   6   5 1162.08   86.79
  -2  -6  -5 1328.17  101.09
   2   6   5 1166.48   88.59
  -3  -6  -5  390.26   55.89
   3   6   5  483.45   42.00
  -4  -6  -5   95.29   36.10
   4   6   5   92.39   20.90
  -5  -6  -5  505.95   76.59
   5   6   5  555.54   50.09
  -6  -6  -5  680.43   93.69
   6   6   5  711.23   60.19
  -7  -6  -5  371.56   68.89
   7   6   5  397.76   42.50
   9  -7  -5   75.09   32.90
   8  -7  -5  300.57   45.30
  -7   7   5  396.56   53.59
  -6   7   5  335.87   47.00
  -6   7   5  435.86   47.20
   5  -7  -5  407.56   34.20
  -5   7   5  428.06   43.90
  -5   7   5  361.26   42.00
   4  -7  -5  319.97   29.00
  -4   7   5  323.17   36.60
  -4   7   5  325.37   35.00
   3  -7  -5  833.62   60.29
  -3   7   5  793.92   64.59
   2  -7  -5  268.97   28.90
   2  -7  -5  237.98   26.60
  -2   7   5  333.07   33.70
   1  -7  -5  636.74   51.89
   1  -7  -5  535.25   46.10
  -1   7   5  702.03   54.49
   0  -7  -5  629.04   57.29
   0   7   5  675.13   56.39
   1   7   5 1288.97   95.39
  -2  -7  -5 1389.76  115.19
   2   7   5 1513.35  106.49
  -3  -7  -5  380.16   57.59
   3   7   5  374.76   40.00
  -4  -7  -5  374.76   63.19
   4   7   5  340.67   38.50
  -5  -7  -5  251.37   57.09
   5   7   5  261.87   34.60
  -6  -7  -5  130.79   55.29
   6   7   5  203.48   31.00
  -7  -7  -5  232.68   66.09
   7   7   5  179.58   31.90
   8  -8  -5  333.17   47.90
   7  -8  -5  387.66   48.90
   6  -8  -5  294.67   37.50
  -6   8   5  228.18   37.90
   5  -8  -5  380.46   38.10
  -5   8   5  282.27   40.00
   4  -8  -5  568.64   49.50
   4  -8  -5  603.14   45.30
  -4   8   5  479.75   50.29
   3  -8  -5  681.73   51.79
   3  -8  -5  661.33   52.79
  -3   8   5  581.64   56.09
   2  -8  -5  290.97   31.10
   2  -8  -5  340.97   33.30
  -2   8   5  309.97   39.10
   1  -8  -5  357.76   37.50
  -1   8   5  315.77   40.60
   0  -8  -5  687.93   61.69
   0   8   5  691.73   60.89
  -1  -8  -5  779.62   72.79
   1   8   5  838.82   69.29
  -2  -8  -5  552.74   67.09
   2   8   5  571.44   54.19
  -3  -8  -5  234.88   49.50
   3   8   5  208.18   33.80
  -4  -8  -5  582.64   83.39
   4   8   5  652.83   58.29
  -5  -8  -5  546.15   86.19
   5   8   5  493.05   50.89
  -6  -8  -5  269.77   67.39
   6   8   5  339.07   41.90
   7  -9  -5  232.38   37.40
   6  -9  -5  246.88   36.30
  -6   9   5  210.98   40.30
   5  -9  -5  420.96   42.50
  -5   9   5  366.96   47.70
   4  -9  -5  634.14   52.39
  -4   9   5  520.95   54.39
   3  -9  -5  321.77   31.40
   3  -9  -5  221.58   29.50
  -3   9   5  202.78   35.30
   2  -9  -5  265.77   32.40
  -2   9   5  226.98   36.90
   1  -9  -5  301.47   37.60
  -1   9   5  286.27   39.60
   0  -9  -5  433.06   48.90
   0   9   5  468.65   50.19
  -1  -9  -5  470.45   60.39
   1   9   5  649.04   58.49
  -2  -9  -5  302.67   49.90
   2   9   5  299.67   41.70
  -3  -9  -5  348.77   59.79
   3   9   5  402.96   48.10
  -4  -9  -5  368.86   65.39
   4   9   5  302.77   42.60
  -5  -9  -5  282.77   64.09
   5   9   5  264.87   39.70
   6 -10  -5  314.17   39.70
  -6  10   5  227.88   44.70
   5 -10  -5  141.89   26.70
  -5  10   5  132.79   31.70
   4 -10  -5  254.27   33.10
  -4  10   5  239.58   38.60
  -3  10   5  258.77   40.60
   2 -10  -5  509.55   46.90
  -2  10   5  455.35   54.79
   1 -10  -5  621.24   57.49
  -1  10   5  515.05   58.09
   0 -10  -5  282.37   43.00
   0  10   5  238.98   39.00
  -1 -10  -5  477.75   60.09
   1  10   5  540.15   56.79
  -2 -10  -5  481.35   65.19
   2  10   5  434.06   53.09
  -3 -10  -5  416.16   66.39
   3  10   5  342.77   46.60
  -4 -10  -5  425.26   76.39
   5 -11  -5  156.48   28.10
  -5  11   5  152.98   35.90
  -4  11   5  220.88   37.20
  -3  11   5  102.29   32.40
  -2  11   5  212.78   38.90
  -1  11   5  289.87   44.30
   0 -11  -5  375.96   49.70
   0  11   5  306.17   47.00
  -1 -11  -5  173.88   41.70
   1  11   5  182.88   36.10
  -2 -11  -5   43.70   31.10
   2  11   5   70.89   27.50
   1  12  -6   79.39   27.60
   0  12  -6   65.09   24.00
   0 -12   6   80.29   34.00
  -1  12  -6  146.59   32.80
   1 -12   6  136.39   37.50
  -2  12  -6  299.27   44.10
   2 -12   6  304.47   50.59
  -3  12  -6  146.69   33.90
   3 -12   6  124.09   35.10
  -4  12  -6  272.97   49.20
   4 -12   6  316.67   51.29
   2  11  -6  284.77   39.50
   1  11  -6   98.89   26.30
  -1 -11   6  153.28   32.60
   0  11  -6  219.78   33.40
   0 -11   6  262.97   45.90
  -1  11  -6  213.88   34.60
   1 -11   6  196.88   41.30
  -2  11  -6  247.18   38.90
   2 -11   6  247.38   47.00
  -3  11  -6  219.38   38.30
   3 -11   6  232.08   41.90
  -4  11  -6  349.67   50.39
   4 -11   6  300.87   49.70
  -5  11  -6  255.77   48.00
   5 -11   6  262.57   42.30
  -6  11  -6  146.69   43.40
   6 -11   6  152.98   36.70
   5  10  -6  211.18   38.70
   3  10  -6  275.47   38.30
   3  10  -6  381.06   42.20
   2  10  -6  308.37   37.90
   2  10  -6  319.77   37.50
  -2 -10   6  392.86   46.90
   1  10  -6  211.38   30.90
  -1 -10   6  252.67   37.50
   0  10  -6  149.99   26.10
   0 -10   6  153.38   31.90
  -1  10  -6  131.29   26.60
   1 -10   6  157.58   35.00
  -2  10  -6  298.47   40.40
   2 -10   6  333.47   47.30
  -3  10  -6  244.08   38.30
   3 -10   6  239.18   42.90
  -4  10  -6  235.08   41.70
   4 -10   6  315.67   44.30
  -5  10  -6  221.98   42.70
   5 -10   6  263.37   41.50
  -6  10  -6   96.49   34.60
   6 -10   6   79.69   25.10
  -7  10  -6  269.67   53.79
   7 -10   6  299.97   43.30
   6   9  -6  179.18   38.50
   3   9  -6  319.37   35.70
  -3  -9   6  299.67   39.00
   2   9  -6  229.78   30.10
   2   9  -6  216.88   28.80
  -2  -9   6  223.08   33.00
   1   9  -6  340.77   36.10
   1   9  -6  285.07   31.60
  -1  -9   6  404.56   42.10
   0   9  -6  451.85   43.40
   0  -9   6  504.05   51.09
  -1   9  -6  474.25   44.80
   1  -9   6  453.85   51.09
  -2   9  -6  309.87   38.00
   2  -9   6  287.77   43.10
  -3   9  -6  286.67   38.80
   3  -9   6  306.47   42.00
  -4   9  -6  319.77   45.30
   4  -9   6  396.66   48.00
  -5   9  -6  201.08   39.90
   5  -9   6  183.48   33.70
  -6   9  -6  333.27   55.19
   6  -9   6  437.16   47.60
  -7   9  -6  440.06   63.29
   7  -9   6  367.46   46.50
  -8   9  -6  161.08   46.70
   8  -9   6  177.78   32.20
   6   8  -6  343.87   47.70
  -4  -8   6  363.66   40.20
   3   8  -6  346.37   34.30
  -3  -8   6  367.56   38.70
   2   8  -6  272.57   30.70
   2   8  -6  291.17   31.90
  -2  -8   6  388.56   39.20
   1   8  -6  222.18   26.60
   1   8  -6  220.18   27.10
  -1  -8   6  264.27   34.90
   0   8  -6  357.06   32.30
   0   8  -6  337.17   33.90
   0  -8   6  357.86   40.20
  -1   8  -6  580.04   49.20
   1  -8   6  551.04   54.69
  -2   8  -6  244.68   33.50
   2  -8   6  314.47   40.50
  -3   8  -6  301.87   39.60
   3  -8   6  305.07   39.60
  -4   8  -6  264.87   39.00
   4  -8   6  229.18   36.20
  -5   8  -6  175.78   35.40
   5  -8   6  170.08   30.00
  -6   8  -6  250.27   44.90
   6  -8   6  288.57   37.80
  -7   8  -6  545.85   68.69
   7  -8   6  555.64   52.69
  -8   8  -6  321.87   54.19
   8  -8   6  327.67   40.30
   7   7  -6  157.38   36.00
   6   7  -6  433.16   51.29
  -5  -7   6  407.06   45.80
  -4  -7   6  372.16   39.50
   3   7  -6  248.68   26.90
   3   7  -6  328.47   33.50
  -3  -7   6  244.48   32.70
   2   7  -6  173.88   21.00
   2   7  -6  128.79   21.80
  -2  -7   6  149.49   24.80
   1   7  -6  931.81   73.99
   1   7  -6 1044.30   73.49
  -1  -7   6 1177.18   80.19
   0   7  -6  439.66   40.10
   0   7  -6  489.55   39.70
   0  -7   6  556.24   47.40
  -1   7  -6  576.34   47.70
  -1   7  -6  532.05   41.80
   1  -7   6  553.54   51.09
  -2   7  -6  675.43   55.19
   2  -7   6  624.64   57.09
  -3   7  -6  757.92   64.79
   3  -7   6  810.12   66.29
  -4   7  -6  519.55   52.09
   4  -7   6  500.95   49.20
  -5   7  -6  105.69   29.60
   5  -7   6  107.19   23.00
  -6   7  -6  598.14   63.89
   6  -7   6  559.54   52.19
  -7   7  -6  272.77   50.09
   7  -7   6  297.67   36.30
  -8   7  -6  231.48   50.79
   8  -7   6  211.58   30.70
  -9   7  -6  257.87   59.59
   9  -7   6  204.18   31.30
   8   6  -6  174.08   37.10
   7   6  -6  399.66   50.89
   6   6  -6  627.94   57.69
  -6  -6   6  492.95   56.19
   5   6  -6  742.23   63.79
  -5  -6   6  696.93   63.19
   4   6  -6  262.67   34.20
   4   6  -6  263.37   27.40
  -4  -6   6  264.77   34.10
   3   6  -6  267.57   30.50
   3   6  -6  246.78   24.80
  -3  -6   6  296.07   33.60
   2   6  -6  482.65   44.80
   2   6  -6  578.74   41.70
  -2  -6   6  563.24   46.90
   1   6  -6  345.37   33.60
   1   6  -6  357.26   30.90
  -1  -6   6  430.76   37.20
   0   6  -6  712.53   54.09
   0   6  -6  785.42   55.49
   0  -6   6  708.13   58.79
  -1   6  -6  681.03   53.49
  -1   6  -6  699.13   49.80
   1  -6   6  674.33   56.49
  -2   6  -6  667.53   46.00
  -2   6  -6  668.63   53.69
   2  -6   6  602.94   54.29
  -3   6  -6  611.44   50.09
   3  -6   6  473.15   48.00
  -4   6  -6  468.75   46.00
   4  -6   6  418.96   40.60
  -5   6  -6  204.88   34.70
   5  -6   6  273.87   32.50
  -6   6  -6  789.32   73.19
   6  -6   6  747.23   61.79
  -7   6  -6  349.27   52.39
   7  -6   6  329.07   36.50
  -8   6  -6  149.19   42.00
   8  -6   6  187.98   27.80
  -9   6  -6  278.17   53.59
   9  -6   6  303.87   36.40
   8   5  -6  132.89   33.00
   7   5  -6  542.75   54.89
  -7  -5   6  452.15   57.09
   6   5  -6  725.93   62.19
  -6  -5   6  608.04   61.19
   5   5  -6  615.54   54.89
  -5  -5   6  590.64   54.89
   4   5  -6  649.54   58.69
   4   5  -6  769.72   50.69
  -4  -5   6  672.83   58.39
   3   5  -6  616.14   44.40
   3   5  -6  590.04   51.49
  -3  -5   6  660.03   51.79
   2   5  -6 1018.30   66.49
   2   5  -6  892.81   70.99
  -2  -5   6 1001.30   71.99
   1   5  -6  296.67   24.80
   1   5  -6  251.07   26.30
  -1  -5   6  291.97   29.20
   0   5  -6  368.56   32.80
   0   5  -6  436.16   33.90
   0  -5   6  395.06   36.20
  -1   5  -6  762.52   52.79
  -1   5  -6  653.23   49.10
   1  -5   6  643.74   53.69
  -2   5  -6  906.01   61.29
  -2   5  -6  952.20   67.89
   2  -5   6  836.22   67.69
  -3   5  -6  704.63   47.90
  -3   5  -6  710.03   57.59
   3  -5   6  683.43   56.59
  -4   5  -6  482.15   46.60
   4  -5   6  461.75   42.50
  -5   5  -6 1036.10   82.29
   5  -5   6  992.50   75.59
  -6   5  -6  313.57   44.10
   6  -5   6  287.57   32.00
  -7   5  -6  290.67   45.40
   7  -5   6  239.58   30.80
  -8   5  -6  263.57   45.80
   8  -5   6  253.17   31.20
  -9   5  -6  322.17   58.79
   9  -5   6  349.37   36.70
   9   4  -6  469.15   57.69
   8   4  -6  272.07   39.90
  -8  -4   6  210.68   44.40
   7   4  -6  674.63   59.19
  -7  -4   6  605.24   66.39
   6   4  -6  870.71   71.29
  -6  -4   6  832.12   73.79
   5   4  -6  333.87   37.20
  -5  -4   6  316.27   40.60
   4   4  -6  481.35   36.10
   4   4  -6  553.04   45.70
  -4  -4   6  520.65   46.60
   3   4  -6  670.03   45.50
   3   4  -6  639.84   52.69
  -3  -4   6  668.83   52.99
   2   4  -6 1222.48   74.99
   2   4  -6  993.50   79.89
  -2  -4   6 1147.29   80.69
   1   4  -6 1870.71  114.49
   1   4  -6 1694.73  117.49
  -1  -4   6 1675.03  118.19
   0   4  -6  971.70   69.29
   0   4  -6 1045.50   68.89
   0  -4   6  978.30   70.99
  -1   4  -6  548.75   42.20
  -1   4  -6  528.15   40.50
   1  -4   6  567.34   43.70
  -2   4  -6  527.55   41.40
  -2   4  -6  457.95   36.60
   2  -4   6  540.15   42.40
  -3   4  -6 1393.56   94.39
  -3   4  -6 1459.75  101.09
   3  -4   6 1463.65   99.69
  -4   4  -6  613.04   42.40
  -4   4  -6  516.85   49.60
   4  -4   6  554.04   47.00
  -5   4  -6  481.45   51.69
   5  -4   6  609.94   47.40
  -6   4  -6  658.33   64.99
   6  -4   6  710.53   55.29
  -7   4  -6  295.97   48.10
   7  -4   6  344.87   35.40
  -8   4  -6  299.67   52.19
   8  -4   6  260.17   31.30
  -9   4  -6  189.98   49.90
   9  -4   6  163.48   26.30
   9   3  -6  206.98   36.00
   8   3  -6  231.98   36.20
  -8  -3   6  219.98   42.30
   7   3  -6  697.23   60.49
  -7  -3   6  615.04   67.49
   6   3  -6  630.34   54.69
  -6  -3   6  562.14   57.99
   5   3  -6  708.13   56.09
  -5  -3   6  623.34   58.39
   4   3  -6  490.85   44.60
   4   3  -6  542.05   35.40
  -4  -3   6  429.96   44.60
   3   3  -6 1365.46   82.09
   3   3  -6 1178.58   89.79
  -3  -3   6 1236.88   90.59
   2   3  -6 1718.43  103.19
   2   3  -6 1500.25  109.49
  -2  -3   6 1574.04  109.59
   1   3  -6  376.46   33.70
   1   3  -6  436.16   29.90
  -1  -3   6  407.46   34.50
   0   3  -6  883.11   52.79
   0   3  -6  681.93   53.49
   0  -3   6  687.63   54.39
  -1   3  -6  570.84   43.30
  -1   3  -6  578.54   43.00
   1  -3   6  610.64   44.40
  -2   3  -6  428.76   34.10
  -2   3  -6  433.86   35.90
   2  -3   6  455.35   36.30
  -3   3  -6  510.35   37.50
  -3   3  -6  422.56   40.10
   3  -3   6  493.05   39.50
  -4   3  -6  690.13   51.19
  -4   3  -6  656.13   56.29
   4  -3   6  727.23   53.49
  -5   3  -6  977.00   80.59
  -5   3  -6 1086.79   75.19
   5  -3   6 1065.49   75.79
  -6   3  -6  494.95   56.79
   6  -3   6  698.83   51.09
  -7   3  -6  500.95   56.69
   7  -3   6  628.64   48.40
  -8   3  -6  416.86   60.99
   8  -3   6  522.85   43.70
  -9   3  -6  117.99   36.00
   9   2  -6  199.98   32.10
  -9  -2   6  123.19   35.40
   8   2  -6  914.21   73.29
  -8  -2   6  832.42   86.09
   7   2  -6 1031.60   76.39
  -7  -2   6  889.61   84.89
   6   2  -6  496.15   46.20
  -6  -2   6  507.55   53.09
   5   2  -6  331.57   34.90
  -5  -2   6  326.87   41.20
   4   2  -6  938.51   73.29
  -4  -2   6 1062.69   76.79
   3   2  -6 1740.23  117.69
  -3  -2   6 1703.23  118.49
   2   2  -6 1065.09   79.49
   2   2  -6 1095.09   71.59
  -2  -2   6 1123.89   80.19
  -2  -2   6 1238.58   71.79
   1   2  -6 1999.60  131.19
   1   2  -6 2126.39  137.09
  -1  -2   6 2131.89  136.99
   0   2  -6  934.81   63.09
   0   2  -6  946.31   66.49
   0  -2   6  984.90   66.39
  -1   2  -6  780.82   55.29
  -1   2  -6  752.42   53.49
   1  -2   6  778.02   54.59
  -2   2  -6 1702.33  112.49
  -2   2  -6 1599.94  111.99
   2  -2   6 1746.53  111.59
  -3   2  -6  675.03   50.79
  -3   2  -6  578.94   47.80
   3  -2   6  678.13   47.70
  -4   2  -6  433.06   39.30
  -4   2  -6  478.35   43.10
   4  -2   6  504.65   38.40
  -5   2  -6  777.22   59.19
  -5   2  -6  639.74   59.99
   5  -2   6  786.92   55.79
  -6   2  -6  543.65   59.29
  -6   2  -6  704.13   56.99
   6  -2   6  731.93   52.59
  -7   2  -6  341.07   49.00
   7  -2   6  508.25   40.90
  -8   2  -6  164.68   36.10
  -9   2  -6  230.38   45.80
   9   1  -6  300.87   38.80
  -9  -1   6  385.16   60.59
   8   1  -6  584.54   51.99
  -8  -1   6  519.25   68.39
   7   1  -6  863.21   67.59
  -7  -1   6  817.92   79.19
   6   1  -6  414.76   39.30
  -6  -1   6  385.86   49.60
   5   1  -6  366.86   36.00
  -5  -1   6  381.36   42.00
   4   1  -6  387.36   35.80
  -4  -1   6  402.66   39.50
   3   1  -6 1363.26   93.89
  -3  -1   6 1345.77   96.09
   2   1  -6  904.91   61.79
  -2  -1   6  799.02   62.19
   1   1  -6 1296.47   88.29
  -1  -1   6 1295.97   87.89
   0   1  -6 1849.52  123.29
   0   1  -6 1911.71  119.89
   0  -1   6 1820.22  121.69
  -1   1  -6 1142.19   76.89
  -1   1  -6 1168.88   79.49
   1  -1   6 1121.29   76.39
  -2   1  -6  887.81   64.59
  -2   1  -6  920.81   66.19
   2  -1   6  931.31   62.39
  -3   1  -6  389.96   36.10
  -3   1  -6  393.46   36.20
   3  -1   6  445.76   32.10
  -4   1  -6  646.74   53.39
  -4   1  -6  635.34   52.89
   4  -1   6  649.34   47.10
  -5   1  -6  350.96   39.10
  -5   1  -6  362.96   41.30
   5  -1   6  483.65   35.10
  -6   1  -6  582.34   64.29
  -6   1  -6  784.52   64.99
   6  -1   6  890.81   58.29
  -7   1  -6  441.76   55.29
  -7   1  -6  482.25   51.19
  -8   1  -6  305.47   48.70
   9  -1   6  237.58   38.70
  10   0  -6  152.98   27.20
   9   0  -6  419.76   42.00
  -9   0   6  376.86   59.99
   8   0  -6  770.02   62.79
  -8   0   6  727.73   78.49
   7   0  -6  510.05   45.50
  -7   0   6  534.55   62.59
   6   0  -6  520.45   45.90
  -6   0   6  593.34   56.19
   5   0  -6 1908.91  130.19
  -5   0   6 1937.51  137.89
   4   0  -6 1609.24  113.89
  -4   0   6 1778.02  119.99
   3   0  -6  888.21   63.39
  -3   0   6  848.82   66.29
   2   0  -6 1099.39   75.19
  -2   0   6 1048.30   76.29
   1   0  -6 1272.07   87.29
  -1   0   6 1281.67   81.79
  -1   0   6 1274.57   86.79
   0   0  -6  842.82   62.79
   0   0   6  941.01   60.89
   0   0   6  850.31   58.39
  -1   0  -6  616.24   48.30
   1   0   6  622.14   43.70
  -2   0  -6 2673.03  179.48
  -2   0  -6 2720.53  177.18
   2   0   6 2746.33  172.98
  -3   0  -6  819.82   60.49
  -3   0  -6  770.92   62.09
   3   0   6  789.62   53.69
  -4   0  -6  588.24   53.39
  -4   0  -6  615.14   52.09
   4   0   6  649.74   44.30
  -5   0  -6  538.35   52.19
  -5   0  -6  499.65   52.49
   5   0   6  682.43   44.10
  -6   0  -6  309.17   42.30
  -6   0  -6  418.06   44.50
  -7   0  -6  564.94   58.19
   7   0   6  539.45   51.19
  -8   0  -6  168.48   36.10
   8   0   6  214.58   33.20
   9   0   6  698.73   67.39
  10  -1  -6  202.88   30.00
 -10   1   6  267.77   52.69
   9  -1  -6  298.97   35.80
  -9   1   6  347.47   62.49
   8  -1  -6  475.25   44.00
  -8   1   6  575.74   70.69
   7  -1  -6  481.45   44.30
  -7   1   6  631.24   60.39
   6  -1  -6  623.64   50.09
  -6   1   6  625.44   62.49
   5  -1  -6  112.79   17.90
  -5   1   6  119.19   23.20
   4  -1  -6 1670.93  111.49
  -4   1   6 1687.13  117.59
  -4   1   6 1600.54  103.79
   3  -1  -6 1207.78   85.59
   3  -1  -6 1350.56   78.59
  -3   1   6 1213.18   88.69
  -3   1   6 1166.48   78.49
   2  -1  -6  754.42   55.29
  -2   1   6  783.22   57.29
  -2   1   6  755.62   49.99
   1  -1  -6  886.61   61.59
  -1   1   6  841.82   60.29
  -1   1   6  823.82   56.29
   0  -1  -6  716.53   53.39
   0   1   6  691.43   48.40
   0   1   6  698.03   49.50
  -1  -1  -6 2687.33  180.88
   1   1   6 2715.23  174.68
   1   1   6 2810.62  176.28
  -2  -1  -6  760.02   61.29
   2   1   6  826.22   52.19
   2   1   6  714.33   55.09
  -3  -1  -6  525.75   50.99
   3   1   6  597.14   45.60
   3   1   6  603.64   40.10
  -4  -1  -6  587.04   57.39
   4   1   6  688.43   44.60
   4   1   6  654.13   51.49
  -5  -1  -6  707.43   67.39
   5   1   6  818.82   60.69
  -6  -1  -6  227.18   39.00
   6   1   6  232.38   29.80
  -7  -1  -6   50.39   27.00
   7   1   6  113.99   21.60
  -8  -1  -6  285.67   51.29
   8   1   6  357.06   42.10
  -9  -1  -6  327.87   59.39
   9   1   6  368.86   46.60
  10  -2  -6  226.68   32.40
 -10   2   6  262.17   60.19
   9  -2  -6  322.77   36.30
  -9   2   6  421.76   62.79
   8  -2  -6  645.94   52.99
  -8   2   6  625.14   69.19
   7  -2  -6  331.97   32.60
  -7   2   6  336.37   51.39
   6  -2  -6  673.33   52.29
  -6   2   6  658.53   64.49
   5  -2  -6 1713.63  111.89
  -5   2   6 1534.65  119.59
   4  -2  -6 1315.17   90.69
  -4   2   6 1281.57   96.49
  -4   2   6 1326.37   86.39
   3  -2  -6 1309.77   92.19
  -3   2   6 1422.96   88.39
  -3   2   6 1276.57   95.29
   2  -2  -6 1160.68   75.49
  -2   2   6 1022.10   70.39
  -2   2   6 1018.30   75.09
   1  -2  -6 1265.37   80.99
  -1   2   6 1127.49   76.19
  -1   2   6 1056.79   77.99
   0  -2  -6  530.95   43.10
   0   2   6  453.15   36.90
   0   2   6  559.24   38.30
  -1  -2  -6 1358.16   92.99
   1   2   6 1227.38   83.49
   1   2   6 1274.57   86.19
  -2  -2  -6  927.81   73.49
   2   2   6 1030.60   62.89
   2   2   6  865.91   66.59
  -3  -2  -6 1303.37  101.69
   3   2   6 1229.88   92.89
   3   2   6 1474.35   87.19
  -4  -2  -6  920.81   80.99
   4   2   6 1026.20   71.69
  -5  -2  -6  494.85   55.69
   5   2   6  516.65   45.00
  -6  -2  -6  644.54   70.49
   6   2   6  732.33   57.09
  -7  -2  -6  238.48   46.50
   7   2   6  363.86   36.10
  -8  -2  -6  492.85   70.79
   8   2   6  479.75   49.70
  -9  -2  -6  298.97   60.09
   9   2   6  227.48   36.60
   9  -3  -6  365.66   37.30
  -9   3   6  393.86   67.29
   8  -3  -6  273.07   30.50
  -8   3   6  246.68   46.90
   7  -3  -6  305.67   30.60
  -7   3   6  296.87   49.60
   6  -3  -6  486.65   40.00
  -6   3   6  433.86   48.60
   5  -3  -6  936.71   66.19
  -5   3   6  912.81   65.89
  -5   3   6  836.82   74.29
   4  -3  -6 1302.57   90.39
  -4   3   6 1346.37   89.19
  -4   3   6 1262.87   95.89
   3  -3  -6 1179.78   75.69
  -3   3   6  992.80   76.49
  -3   3   6 1010.30   72.19
   2  -3  -6 1341.37   87.39
  -2   3   6 1274.17   87.09
  -2   3   6 1151.48   83.39
   1  -3  -6 1054.69   74.09
  -1   3   6  996.50   70.09
  -1   3   6 1025.00   70.49
   0  -3  -6  451.15   40.40
   0   3   6  408.36   34.80
   0   3   6  468.35   33.20
  -1  -3  -6  763.62   60.29
   1   3   6  746.33   54.59
   1   3   6  732.33   49.80
  -2  -3  -6  692.63   61.69
   2   3   6  712.83   46.30
   2   3   6  711.93   53.19
  -3  -3  -6  612.84   55.79
   3   3   6  486.95   42.70
  -4  -3  -6  772.62   74.09
   4   3   6  924.31   65.39
  -5  -3  -6  214.18   40.70
   5   3   6  201.08   26.80
  -6  -3  -6  149.79   41.40
   6   3   6  168.88   26.10
  -7  -3  -6  344.47   58.89
   7   3   6  314.67   38.30
  -8  -3  -6  276.47   59.09
   8   3   6  333.67   40.10
  -9   4   6  670.83   87.09
   8  -4  -6  392.36   37.90
  -8   4   6  409.56   61.79
   7  -4  -6  390.06   35.30
  -7   4   6  377.56   53.69
   6  -4  -6  491.45   38.70
  -6   4   6  336.27   48.40
   5  -4  -6  744.63   53.49
  -5   4   6  651.03   59.69
  -5   4   6  663.13   54.99
   4  -4  -6  838.82   59.39
  -4   4   6  749.33   63.99
  -4   4   6  792.82   59.59
   3  -4  -6  976.50   66.19
  -3   4   6  868.61   64.29
  -3   4   6  862.11   67.19
   2  -4  -6 1816.42  119.99
  -2   4   6 1821.22  118.99
  -2   4   6 1681.63  117.79
   1  -4  -6 1115.39   78.29
  -1   4   6 1086.09   75.39
  -1   4   6 1028.40   72.99
   0  -4  -6 1135.09   84.19
   0   4   6 1162.18   80.29
   0   4   6 1131.79   75.79
  -1  -4  -6 1222.38   92.69
   1   4   6 1216.48   79.59
   1   4   6 1248.68   86.29
  -2  -4  -6  760.22   67.09
   2   4   6  746.33   57.49
  -3  -4  -6  718.73   66.09
   3   4   6  620.04   51.89
  -4  -4  -6  249.38   44.00
   4   4   6  254.77   29.00
  -5  -4  -6  681.23   76.49
   5   4   6  766.22   59.69
  -6  -4  -6  711.83   82.09
   6   4   6  723.93   60.19
  -7  -4  -6  376.56   65.69
   7   4   6  365.56   41.00
  -8  -4  -6  280.47   64.99
   8   4   6  263.67   37.50
  -9   5   6  240.38   49.70
  -8   5   6  194.68   47.20
   7  -5  -6  638.14   49.00
  -7   5   6  484.75   63.49
   6  -5  -6  563.24   44.10
  -6   5   6  421.86   54.99
   5  -5  -6  730.33   53.59
  -5   5   6  641.84   56.39
  -5   5   6  685.23   61.59
   4  -5  -6  587.64   46.40
  -4   5   6  615.74   51.69
  -4   5   6  570.34   48.10
   3  -5  -6 1067.39   76.79
  -3   5   6 1139.59   79.09
  -3   5   6 1046.10   77.39
   2  -5  -6  699.83   53.99
  -2   5   6  679.93   53.79
  -2   5   6  700.23   52.09
   1  -5  -6  194.48   25.90
  -1   5   6  201.98   20.20
  -1   5   6  184.98   24.30
   0  -5  -6  897.51   71.89
   0   5   6  912.71   62.59
   0   5   6  960.90   68.69
  -1  -5  -6  980.40   78.49
   1   5   6  953.80   71.59
  -2  -5  -6  715.03   66.19
   2   5   6  668.83   54.99
  -3  -5  -6  313.07   48.60
   3   5   6  299.97   31.00
  -4  -5  -6  315.77   53.89
   4   5   6  372.96   37.60
  -5  -5  -6  308.27   54.59
   5   5   6  336.67   36.60
  -6  -5  -6  228.98   57.69
   6   5   6  351.56   38.40
  -7  -5  -6  441.86   77.49
   7   5   6  403.66   46.10
  -9   6   6  504.65   75.79
  -8   6   6  281.47   50.19
  -7   6   6  339.97   51.09
   6  -6  -6  555.34   44.20
  -6   6   6  519.05   56.89
   5  -6  -6  582.34   44.80
  -5   6   6  544.35   49.90
  -5   6   6  468.35   50.59
   4  -6  -6  689.33   51.49
  -4   6   6  576.74   52.99
  -4   6   6  689.53   55.79
   3  -6  -6  488.35   40.30
  -3   6   6  446.26   40.00
  -3   6   6  431.66   40.30
   2  -6  -6 1149.29   81.09
  -2   6   6 1102.49   81.49
  -2   6   6 1103.29   78.89
   1  -6  -6  945.51   73.59
  -1   6   6 1100.09   74.39
  -1   6   6  911.11   67.69
   0  -6  -6 1258.97   97.59
   0   6   6 1377.66   95.39
  -1  -6  -6 1039.50   86.29
   1   6   6 1107.69   80.69
  -2  -6  -6  655.13   66.39
   2   6   6  641.04   54.59
  -3  -6  -6  397.76   56.69
   3   6   6  345.47   37.60
  -4  -6  -6  225.08   49.00
   4   6   6  197.18   29.20
  -5  -6  -6  360.66   65.39
   5   6   6  450.55   44.60
  -6  -6  -6  243.68   61.29
   6   6   6  209.48   32.80
  -7  -6  -6  140.39   51.09
   7   6   6  243.38   34.00
  -8   7   6  251.97   49.80
  -7   7   6  337.97   51.09
  -6   7   6  470.15   52.09
   5  -7  -6  482.35   38.50
  -5   7   6  439.46   46.40
  -5   7   6  402.56   44.70
   4  -7  -6  468.55   38.70
  -4   7   6  468.85   44.70
  -4   7   6  408.86   43.50
   3  -7  -6  604.04   49.20
  -3   7   6  669.73   51.79
  -3   7   6  574.24   51.89
   2  -7  -6  155.78   22.80
  -2   7   6  140.99   23.60
  -2   7   6  132.59   19.60
   1  -7  -6  270.67   28.10
   1  -7  -6  363.66   36.10
  -1   7   6  272.77   35.00
   0  -7  -6 1026.00   82.49
   0   7   6 1071.79   80.89
  -1  -7  -6  925.01   80.49
   1   7   6  956.90   74.79
  -2  -7  -6  258.27   45.40
   2   7   6  270.47   34.80
  -3  -7  -6  279.17   49.30
   3   7   6  340.37   39.00
  -4  -7  -6  239.38   54.89
   4   7   6  308.67   36.70
  -5  -7  -6  424.16   73.99
   5   7   6  460.15   46.70
  -6  -7  -6  223.98   63.79
   6   7   6  242.68   35.40
   8  -8  -6  361.36   51.19
   7  -8  -6  376.76   46.70
   6  -8  -6  420.76   46.00
   5  -8  -6  671.03   55.49
  -5   8   6  571.74   56.19
   4  -8  -6  551.24   45.90
   4  -8  -6  508.95   42.50
  -4   8   6  458.95   47.90
   3  -8  -6  805.12   56.99
   3  -8  -6  662.93   54.79
  -3   8   6  598.64   58.49
   2  -8  -6  228.18   29.70
   2  -8  -6  156.68   23.00
  -2   8   6  172.88   29.70
   1  -8  -6  464.25   49.00
  -1   8   6  568.64   51.19
   0  -8  -6  776.42   68.39
   0   8   6  800.42   67.69
  -1  -8  -6  731.73   69.19
   1   8   6  706.33   63.59
  -2  -8  -6  412.76   57.69
   2   8   6  459.95   48.20
  -3  -8  -6  270.07   51.29
   3   8   6  247.98   36.60
   4   8   6  699.23   62.99
  -5  -8  -6  240.58   61.49
   5   8   6  219.28   34.80
   7  -9  -6  194.98   36.00
   6  -9  -6  178.18   32.00
   5  -9  -6  392.26   41.00
  -5   9   6  326.27   44.70
   4  -9  -6  432.06   40.70
  -4   9   6  381.96   47.30
   3  -9  -6  244.18   30.30
   3  -9  -6  229.78   29.30
  -3   9   6  212.38   33.50
   2  -9  -6  379.06   39.80
  -2   9   6  431.66   46.40
   1  -9  -6  782.82   69.39
  -1   9   6  951.60   75.39
   0  -9  -6  813.52   68.79
   0   9   6  667.03   66.09
  -1  -9  -6  120.49   33.90
   1   9   6  143.99   31.30
  -2  -9  -6  203.78   45.70
   2   9   6  250.07   38.70
  -3  -9  -6  470.75   69.19
   3   9   6  371.36   49.10
  -4  -9  -6  220.18   60.09
   4   9   6  324.47   43.30
   6 -10  -6  400.06   47.40
   5 -10  -6  365.86   40.10
  -5  10   6  313.97   47.10
   4 -10  -6  317.77   36.70
  -4  10   6  274.27   42.50
  -3  10   6  243.88   38.60
   2 -10  -6  222.68   31.40
  -2  10   6  220.28   38.90
   1 -10  -6  511.85   49.99
  -1  10   6  400.36   53.09
   0 -10  -6  423.96   52.29
   0  10   6  406.26   52.39
  -1 -10  -6  155.58   39.80
   1  10   6  232.18   39.00
  -2 -10  -6  227.68   48.80
   2  10   6  277.97   42.50
  -3 -10  -6  739.43   82.39
   3  10   6  445.46   58.79
  -4  11   6  216.38   38.80
  -3  11   6  229.48   39.70
  -2  11   6  515.25   61.49
  -1  11   6  450.55   57.59
   0 -11  -6  152.08   37.90
   0  11   6  190.88   39.30
  -1 -11  -6  258.47   46.60
   1  11   6  261.87   44.90
   1  12  -7   86.79   26.50
   0  12  -7  116.39   27.10
   0 -12   7  102.29   39.50
  -1  12  -7  186.08   35.00
   1 -12   7  175.78   44.10
  -2  12  -7  169.38   34.20
   2 -12   7  249.68   51.09
  -3  12  -7  342.07   50.19
   3 -12   7  293.37   52.69
  -4  12  -7  167.38   42.00
   1  11  -7  207.68   33.00
  -1 -11   7  217.38   41.60
   0  11  -7  129.69   28.00
   0 -11   7  114.69   31.50
  -1  11  -7  129.39   27.60
   1 -11   7  108.39   32.60
  -2  11  -7  286.47   41.40
   2 -11   7  334.57   52.49
  -3  11  -7  142.89   34.50
   3 -11   7  216.98   43.60
  -4  11  -7  146.89   36.80
   4 -11   7  117.89   34.70
  -5  11  -7  246.08   47.30
   5 -11   7  167.38   37.70
   4  10  -7  250.77   39.10
   3  10  -7  346.97   39.80
  -3 -10   7  298.57   46.30
   2  10  -7  240.98   31.40
   2  10  -7  210.88   44.70
  -2 -10   7  209.88   35.50
   1  10  -7  143.39   25.80
  -1 -10   7  212.28   37.20
   0  10  -7  651.03   57.09
   0 -10   7  618.54   67.29
  -1  10  -7  364.96   40.70
   1 -10   7  317.37   47.60
  -2  10  -7  346.67   43.60
   2 -10   7  387.16   53.39
  -3  10  -7  266.87   40.70
   3 -10   7  305.37   45.80
  -4  10  -7  170.08   35.60
   4 -10   7  169.98   36.60
  -5  10  -7  372.86   55.19
   5 -10   7  362.56   48.20
  -6  10  -7  319.67   52.99
   6 -10   7  287.77   44.30
  -7  10  -7  439.16   66.29
   5   9  -7  276.27   42.20
   4   9  -7  219.28   34.50
  -4  -9   7  177.58   36.70
   3   9  -7  314.27   36.20
  -3  -9   7  254.47   37.20
   2   9  -7  294.37   34.40
   2   9  -7  285.97   33.80
  -2  -9   7  399.86   45.40
   1   9  -7  229.68   29.80
   1   9  -7  205.68   28.00
  -1  -9   7  287.37   39.10
   0   9  -7  120.89   21.60
   0  -9   7  153.58   31.80
  -1   9  -7  362.96   38.80
   1  -9   7  336.67   47.50
  -2   9  -7  593.04   54.69
   2  -9   7  562.44   56.89
  -3   9  -7   95.89   26.30
   3  -9   7  124.09   29.50
  -4   9  -7  222.08   38.30
   4  -9   7  205.88   37.70
  -5   9  -7  577.14   63.89
   5  -9   7  549.54   57.09
  -6   9  -7  483.75   64.69
   6  -9   7  458.35   51.69
  -7   9  -7  211.68   50.49
   7  -9   7  226.38   36.10
   6   8  -7  255.07   42.90
   5   8  -7  219.48   36.90
  -5  -8   7  179.88   34.80
   4   8  -7  454.45   47.50
  -4  -8   7  426.46   49.60
   3   8  -7  234.18   33.00
  -3  -8   7  251.27   34.40
   2   8  -7  223.68   30.50
   2   8  -7  231.28   27.00
  -2  -8   7  229.18   33.10
   1   8  -7  523.05   44.80
   1   8  -7  510.05   45.90
  -1  -8   7  642.74   54.39
   0   8  -7 1014.00   76.09
   0   8  -7 1085.69   78.89
   0  -8   7 1106.29   85.79
  -1   8  -7  713.93   59.19
   1  -8   7  729.03   64.99
  -2   8  -7  367.86   40.40
   2  -8   7  398.86   47.40
  -3   8  -7  295.77   39.10
   3  -8   7  294.77   41.40
  -4   8  -7  340.57   44.60
   4  -8   7  285.97   39.90
  -5   8  -7  635.24   61.79
   5  -8   7  436.66   50.69
  -6   8  -7  276.47   47.20
   6  -8   7  305.37   40.10
  -7   8  -7  194.68   44.60
   7  -8   7  262.97   36.20
  -8   8  -7  231.88   50.89
   8  -8   7  253.57   35.90
   7   7  -7   51.59   27.30
   6   7  -7  342.27   47.00
   5   7  -7  386.96   45.90
  -5  -7   7  414.46   50.19
   4   7  -7  293.97   38.20
  -4  -7   7  318.17   39.10
   3   7  -7  227.98   30.90
  -3  -7   7  269.57   33.60
   2   7  -7  166.58   20.60
   2   7  -7  113.59   20.50
  -2  -7   7  140.59   25.40
   1   7  -7  554.14   42.90
   1   7  -7  451.85   42.40
  -1  -7   7  559.24   49.10
   0   7  -7  457.55   37.80
   0   7  -7  352.26   34.30
   0  -7   7  367.36   41.30
  -1   7  -7  742.03   60.39
  -1   7  -7  747.63   55.09
   1  -7   7  762.12   63.89
  -2   7  -7  466.25   43.30
   2  -7   7  387.66   44.20
  -3   7  -7  383.26   41.40
   3  -7   7  301.27   40.60
  -4   7  -7  660.43   59.09
   4  -7   7  521.15   53.29
  -5   7  -7  551.34   58.09
   5  -7   7  508.55   50.69
  -6   7  -7  341.27   51.49
   6  -7   7  306.77   38.10
  -7   7  -7  132.49   40.60
   7  -7   7  211.48   31.00
  -8   7  -7  360.46   61.69
   8  -7   7  333.37   39.70
   7   6  -7  514.25   57.69
   6   6  -7  410.76   49.30
  -6  -6   7  325.57   46.40
   5   6  -7  521.35   51.19
  -5  -6   7  451.75   49.10
   4   6  -7  535.75   49.20
  -4  -6   7  436.06   46.20
   3   6  -7  433.36   40.40
   3   6  -7  340.77   37.60
  -3  -6   7  347.77   39.90
   2   6  -7  321.87   34.40
   2   6  -7  377.86   30.40
  -2  -6   7  349.87   36.80
   1   6  -7 1058.89   72.59
   1   6  -7  979.50   74.29
  -1  -6   7 1049.79   78.29
   0   6  -7  398.16   34.80
   0   6  -7  335.37   32.30
   0  -6   7  395.66   38.40
  -1   6  -7  687.93   51.19
  -1   6  -7  747.93   55.59
   1  -6   7  643.14   55.89
  -2   6  -7  729.03   52.69
  -2   6  -7  801.62   60.49
   2  -6   7  683.73   60.49
  -3   6  -7  592.24   51.89
   3  -6   7  528.65   50.69
  -4   6  -7 1224.28   89.59
   4  -6   7 1041.00   84.39
  -5   6  -7  483.85   51.99
   5  -6   7  464.35   45.50
  -6   6  -7  712.43   68.39
   6  -6   7  607.54   55.09
  -7   6  -7  212.38   43.40
   7  -6   7  183.38   28.20
  -8   6  -7  394.46   61.49
   8  -6   7  271.67   35.20
  -9   6  -7  254.77   54.69
   9  -6   7  303.97   37.30
   8   5  -7   49.60   29.00
   7   5  -7  346.37   46.00
  -7  -5   7  262.67   43.90
   6   5  -7  512.75   52.09
  -6  -5   7  418.46   55.39
   5   5  -7  356.66   44.50
  -5  -5   7  382.06   43.00
   4   5  -7  187.48   30.60
  -4  -5   7  266.67   34.20
   3   5  -7  475.85   46.40
   3   5  -7  574.34   40.70
  -3  -5   7  496.25   46.30
   2   5  -7  964.30   77.39
   2   5  -7 1152.48   72.69
  -2  -5   7 1051.09   78.99
   1   5  -7  351.96   33.70
   1   5  -7  398.46   31.80
  -1  -5   7  370.26   36.00
   0   5  -7  792.92   58.79
   0   5  -7  855.91   59.09
   0  -5   7  744.93   61.29
  -1   5  -7  569.44   44.60
  -1   5  -7  608.54   47.80
   1  -5   7  595.64   48.30
  -2   5  -7  766.62   56.39
  -2   5  -7  896.81   62.99
   2  -5   7  752.62   62.49
  -3   5  -7  550.04   40.60
  -3   5  -7  580.54   49.30
   3  -5   7  485.45   46.60
  -4   5  -7  670.13   57.99
   4  -5   7  610.64   53.39
  -5   5  -7  732.83   65.69
   5  -5   7  702.53   58.59
  -6   5  -7  299.57   43.50
   6  -5   7  260.07   32.80
  -7   5  -7  314.67   48.60
   7  -5   7  259.57   33.00
  -8   5  -7  257.97   49.30
   8  -5   7  350.16   36.30
  -9   5  -7  361.66   61.89
   9  -5   7  338.97   39.80
   8   4  -7  586.14   60.59
  -8  -4   7  530.55   66.49
   7   4  -7  337.27   43.60
  -7  -4   7  252.47   42.50
   6   4  -7  330.87   41.80
  -6  -4   7  299.67   45.20
   5   4  -7  480.35   45.70
  -5  -4   7  344.77   44.50
   4   4  -7  926.31   71.39
  -4  -4   7  845.22   70.49
   3   4  -7  727.93   57.89
  -3  -4   7  672.43   56.69
   2   4  -7  785.92   64.49
   2   4  -7  927.71   58.49
  -2  -4   7  836.62   64.49
   1   4  -7  479.35   41.70
   1   4  -7  556.54   38.50
  -1  -4   7  500.95   43.10
   0   4  -7  462.15   39.30
   0   4  -7  551.94   38.80
   0  -4   7  483.25   40.70
  -1   4  -7  858.11   60.09
  -1   4  -7  794.32   58.79
   1  -4   7  812.62   60.99
  -2   4  -7  308.57   30.40
  -2   4  -7  255.07   25.30
   2  -4   7  323.97   29.10
  -3   4  -7 1202.88   88.59
  -3   4  -7 1245.38   83.19
   3  -4   7 1210.48   86.79
  -4   4  -7 1744.83  113.79
  -4   4  -7 1693.73  121.49
   4  -4   7 1683.13  118.09
  -5   4  -7 1083.49   88.09
   5  -4   7 1139.19   81.99
  -6   4  -7  349.07   50.99
   6  -4   7  487.95   41.80
  -7   4  -7  445.46   61.49
   7  -4   7  554.24   47.90
  -8   4  -7  364.76   59.39
   8  -4   7  431.36   40.80
  -9   4  -7  287.07   58.29
   9   3  -7  342.67   45.90
  -9  -3   7  292.57   51.89
   8   3  -7  357.16   45.60
  -8  -3   7  307.37   55.59
   7   3  -7  612.94   57.59
  -7  -3   7  553.24   63.19
   6   3  -7  238.28   34.30
  -6  -3   7  190.38   35.20
   5   3  -7  275.47   35.30
  -5  -3   7  260.27   37.80
   4   3  -7  527.15   46.20
  -4  -3   7  453.65   45.50
   3   3  -7  744.53   59.49
  -3  -3   7  758.32   60.09
   2   3  -7 1264.47   88.89
   2   3  -7 1212.38   80.39
  -2  -3   7 1348.07   89.99
   1   3  -7  736.43   54.79
   1   3  -7  744.23   49.00
  -1  -3   7  688.63   54.09
   0   3  -7  940.51   63.49
   0   3  -7  934.41   66.69
   0  -3   7  930.11   67.29
  -1   3  -7  820.82   59.39
  -1   3  -7  825.62   60.39
   1  -3   7  889.61   61.49
  -2   3  -7  369.56   32.60
  -2   3  -7  363.46   31.30
   2  -3   7  395.56   33.20
  -3   3  -7  559.54   44.60
  -3   3  -7  456.05   40.00
   3  -3   7  549.35   42.40
  -4   3  -7  442.06   43.10
  -4   3  -7  450.95   38.50
   4  -3   7  457.75   39.10
  -5   3  -7  724.63   64.39
  -5   3  -7  727.43   58.19
   5  -3   7  788.52   58.49
  -6   3  -7  507.45   55.19
   6  -3   7  573.84   46.90
  -7   3  -7  362.96   55.49
   7  -3   7  535.25   44.70
  -8   3  -7  365.96   59.79
   8  -3   7  528.05   47.80
  -9   3  -7  122.29   39.80
   9   2  -7  357.86   45.00
  -9  -2   7  326.17   62.59
   8   2  -7  499.75   50.39
  -8  -2   7  454.35   65.89
   7   2  -7  210.38   33.50
  -7  -2   7  342.77   49.90
   6   2  -7  274.37   36.30
  -6  -2   7  353.16   46.30
   5   2  -7  455.15   43.50
  -5  -2   7  533.65   50.49
   4   2  -7  636.54   52.49
  -4  -2   7  603.34   52.99
   3   2  -7 1104.19   80.39
  -3  -2   7 1125.29   82.39
   2   2  -7  748.73   58.09
  -2  -2   7  799.02   59.09
   1   2  -7  621.64   50.19
   1   2  -7  687.63   44.50
  -1  -2   7  682.33   50.89
   0   2  -7 1436.46  100.69
   0   2  -7 1468.15   96.79
   0  -2   7 1565.14  100.49
  -1   2  -7  835.12   58.79
  -1   2  -7  852.31   61.29
   1  -2   7  839.92   59.79
  -2   2  -7  829.52   59.99
  -2   2  -7  764.52   58.59
   2  -2   7  836.62   57.99
  -3   2  -7 1008.80   74.69
  -3   2  -7 1028.50   76.09
   3  -2   7 1101.09   73.19
  -4   2  -7  701.83   58.59
  -4   2  -7  753.52   61.69
   4  -2   7  835.22   57.29
  -5   2  -7  724.03   64.69
  -5   2  -7  758.92   61.49
   5  -2   7  805.22   58.39
  -6   2  -7  570.64   53.29
  -6   2  -7  517.15   57.09
   6  -2   7  705.13   50.89
  -7   2  -7  640.74   71.19
   7  -2   7  878.71   62.39
  -8   2  -7  337.97   51.29
  -9   2  -7  273.07   50.39
   9   1  -7  544.65   52.99
  -9  -1   7  544.25   78.69
   8   1  -7  692.03   61.69
  -8  -1   7  787.32   79.09
   7   1  -7  340.47   38.10
  -7  -1   7  334.17   49.80
   6   1  -7  327.77   36.50
  -6  -1   7  370.96   48.80
   5   1  -7  951.40   74.69
  -5  -1   7 1051.99   81.79
   4   1  -7  693.03   55.09
  -4  -1   7  711.23   60.09
   3   1  -7  423.66   38.30
  -3  -1   7  460.15   41.40
   2   1  -7  267.07   27.10
  -2  -1   7  273.17   28.20
   1   1  -7 1243.58   86.19
  -1  -1   7 1242.58   85.79
  -1  -1   7 1241.38   79.69
   0   1  -7 1270.77   78.19
   0   1  -7 1084.59   81.39
   0  -1   7 1147.39   80.09
  -1   1  -7  804.02   56.49
  -1   1  -7  800.62   59.59
   1  -1   7  802.32   56.39
  -2   1  -7  442.26   38.20
  -2   1  -7  390.66   35.30
   2  -1   7  463.55   33.50
  -3   1  -7  892.11   64.99
  -3   1  -7  787.62   64.69
   3  -1   7  893.61   59.99
  -4   1  -7  942.81   77.29
  -4   1  -7 1060.79   79.39
   4  -1   7 1120.19   72.59
  -5   1  -7  353.36   37.40
  -5   1  -7  321.87   40.90
   5  -1   7  355.56   30.70
  -6   1  -7  485.15   47.10
  -6   1  -7  339.37   48.20
   6  -1   7  491.35   38.90
  -7   1  -7  566.64   55.19
  -7   1  -7  401.86   56.29
   9  -1   7  447.26   55.39
   9   0  -7  366.56   41.10
  -9   0   7  467.05   66.89
   8   0  -7  235.78   31.50
  -8   0   7  237.98   49.80
   7   0  -7  251.47   32.40
  -7   0   7  269.87   46.30
   6   0  -7  375.96   38.20
  -6   0   7  424.96   52.79
   5   0  -7 1249.97   89.69
  -5   0   7 1236.38   96.89
   4   0  -7  491.75   42.60
  -4   0   7  509.45   48.20
   3   0  -7  748.93   56.39
  -3   0   7  721.73   59.39
   2   0  -7  468.05   38.20
  -2   0   7  421.26   38.50
   1   0  -7 1182.08   85.09
  -1   0   7 1252.77   79.39
  -1   0   7 1243.68   85.19
   0   0  -7 2223.98  141.49
   0   0   7 2042.10  135.69
   0   0   7 2092.29  138.09
  -1   0  -7  538.95   44.30
   1   0   7  521.15   39.10
   1   0   7  537.55   39.40
  -2   0  -7 1761.32  120.79
   2   0   7 1730.23  113.49
  -3   0  -7  494.25   46.80
  -3   0  -7  547.25   45.10
   3   0   7  547.25   38.50
  -4   0  -7  469.75   43.80
  -4   0  -7  339.57   38.20
   4   0   7  474.15   32.90
  -5   0  -7  352.86   42.20
  -5   0  -7  457.55   46.00
   5   0   7  455.45   33.40
  -6   0  -7  449.76   51.09
   6   0   7  550.84   48.50
  -7   0  -7  544.55   61.19
   7   0   7  526.25   52.19
  -8   0  -7  446.66   58.39
   8   0   7  453.45   50.49
   9   0   7  690.23   67.19
   9  -1  -7  446.16   43.80
  -9   1   7  495.15   70.79
   8  -1  -7  123.89   23.30
  -8   1   7  147.79   39.50
   7  -1  -7  185.98   26.30
  -7   1   7  247.88   42.10
   6  -1  -7 1269.27   92.59
  -6   1   7 1358.66  105.69
   5  -1  -7  834.02   61.69
  -5   1   7  742.63   68.79
   4  -1  -7  644.34   50.59
  -4   1   7  665.13   56.39
   3  -1  -7  717.63   54.59
  -3   1   7  704.33   57.69
   2  -1  -7  754.82   56.09
  -2   1   7  725.43   49.00
  -2   1   7  751.92   57.09
   1  -1  -7  314.97   29.30
  -1   1   7  342.37   24.90
  -1   1   7  290.57   28.60
   0  -1  -7  407.46   35.80
   0   1   7  435.66   33.60
   0   1   7  395.66   31.30
  -1  -1  -7  713.73   56.89
   1   1   7  718.73   50.29
   1   1   7  702.43   51.19
  -2  -1  -7 1460.15  107.09
   2   1   7 1464.75  100.89
   2   1   7 1549.54   97.99
  -3  -1  -7 1404.86  107.09
   3   1   7 1488.95   95.59
   3   1   7 1497.85  100.99
  -4  -1  -7  754.42   66.99
   4   1   7  820.82   53.09
   4   1   7  742.93   59.89
  -5  -1  -7  400.86   48.80
   5   1   7  512.55   42.30
  -6  -1  -7  460.65   53.79
   6   1   7  466.75   44.80
  -7  -1  -7  375.86   55.89
   7   1   7  494.85   47.20
  -8  -1  -7  157.38   42.30
   8   1   7  166.38   31.20
   9   1   7  446.86   54.09
   9  -2  -7  202.68   28.10
  -9   2   7  220.48   50.79
   8  -2  -7  223.78   29.40
  -8   2   7  311.17   49.60
   7  -2  -7  402.56   37.70
  -7   2   7  386.66   56.59
   6  -2  -7  802.42   60.79
  -6   2   7  758.22   72.29
   5  -2  -7  523.95   42.40
  -5   2   7  419.26   49.70
   4  -2  -7  822.62   58.09
  -4   2   7  655.53   62.09
   3  -2  -7  771.62   58.99
  -3   2   7  817.12   53.69
  -3   2   7  745.53   61.69
   2  -2  -7  828.12   57.99
  -2   2   7  753.62   57.59
  -2   2   7  706.13   51.49
   1  -2  -7 1015.50   71.09
  -1   2   7  936.81   67.99
  -1   2   7  933.41   65.19
   0  -2  -7  516.95   45.10
   0   2   7  525.85   39.60
   0   2   7  525.65   39.60
  -1  -2  -7 1038.80   78.59
   1   2   7 1047.90   70.19
   1   2   7 1026.60   71.99
  -2  -2  -7  336.47   38.80
   2   2   7  335.37   31.30
   2   2   7  391.96   27.80
  -3  -2  -7  536.15   55.79
   3   2   7  585.14   48.10
   3   2   7  657.33   42.10
  -4  -2  -7  610.84   62.39
   4   2   7  721.63   54.79
  -5  -2  -7  606.14   64.69
   5   2   7  670.13   54.49
  -6  -2  -7  259.17   48.50
   6   2   7  411.16   40.00
  -7  -2  -7  192.58   43.30
   7   2   7  292.17   35.50
  -8  -2  -7  713.33   83.79
   8   2   7  777.82   67.89
   9  -3  -7  187.68   27.80
  -9   3   7  245.28   57.19
   8  -3  -7  229.88   29.10
  -8   3   7  253.97   51.09
   7  -3  -7  279.47   30.20
  -7   3   7  273.27   46.60
   6  -3  -7  572.34   45.70
  -6   3   7  482.95   54.49
   5  -3  -7  552.74   45.10
  -5   3   7  518.35   53.99
   4  -3  -7 1037.30   71.89
  -4   3   7  853.61   75.39
  -4   3   7 1033.10   77.99
   3  -3  -7 1222.88   80.99
  -3   3   7 1074.19   82.09
  -3   3   7 1074.59   76.19
   2  -3  -7  391.06   34.80
  -2   3   7  333.07   32.70
  -2   3   7  370.06   30.10
   1  -3  -7 1267.47   88.19
  -1   3   7 1226.48   83.29
  -1   3   7 1183.68   83.69
   0  -3  -7  818.92   65.19
   0   3   7  881.11   58.19
   0   3   7  779.72   59.19
  -1  -3  -7  530.25   47.70
   1   3   7  474.75   35.20
   1   3   7  484.75   39.40
  -2  -3  -7  759.22   67.09
   2   3   7  790.92   52.09
   2   3   7  789.02   59.09
  -3  -3  -7  751.32   67.49
   3   3   7  721.43   56.49
  -4  -3  -7  521.75   58.79
   4   3   7  568.54   47.10
  -5  -3  -7  335.37   50.19
   5   3   7  343.47   36.10
  -6  -3  -7  546.45   72.39
   6   3   7  650.83   54.99
  -7  -3  -7  293.47   58.89
   7   3   7  378.56   43.00
  -8  -3  -7  205.48   54.49
   8   3   7  285.77   38.50
  -9   4   7  268.37   54.39
   8  -4  -7  289.27   33.50
  -8   4   7  340.27   55.09
   7  -4  -7  703.43   55.99
  -7   4   7  723.83   73.99
   6  -4  -7  594.54   47.00
  -6   4   7  471.55   60.19
   5  -4  -7  284.37   30.10
  -5   4   7  221.08   36.40
   4  -4  -7  564.84   45.70
  -4   4   7  563.34   45.10
  -4   4   7  529.65   50.09
   3  -4  -7  691.73   48.30
  -3   4   7  502.85   43.70
  -3   4   7  521.55   47.30
   2  -4  -7  809.32   61.69
  -2   4   7  815.22   59.79
  -2   4   7  782.42   58.39
   1  -4  -7  466.45   40.90
  -1   4   7  449.06   36.20
  -1   4   7  470.15   38.60
   0  -4  -7  500.35   46.60
   0   4   7  471.05   36.40
   0   4   7  521.35   41.10
  -1  -4  -7  864.51   72.79
   1   4   7  901.71   59.09
   1   4   7  866.61   65.39
  -2  -4  -7  405.96   45.90
   2   4   7  367.46   35.40
  -3  -4  -7  539.65   55.79
   3   4   7  444.36   41.90
  -4  -4  -7  411.16   57.49
   4   4   7  480.65   42.80
  -5  -4  -7  351.36   57.09
   5   4   7  463.15   42.60
  -6  -4  -7  397.96   63.19
   6   4   7  509.65   46.90
  -7  -4  -7  336.17   64.99
   7   4   7  392.16   43.50
  -8  -4  -7  248.58   63.69
   8   4   7  314.17   41.30
  -9   5   7  271.37   58.79
  -8   5   7  305.57   54.19
   7  -5  -7  657.93   51.89
  -7   5   7  523.45   62.19
   6  -5  -7  352.36   34.10
  -6   5   7  236.68   41.80
   5  -5  -7  740.63   56.69
  -5   5   7  705.43   64.19
   4  -5  -7  622.64   49.99
  -4   5   7  606.04   50.09
  -4   5   7  632.94   54.39
   3  -5  -7  382.06   35.40
  -3   5   7  367.06   35.70
  -3   5   7  356.16   34.30
   2  -5  -7  705.93   54.49
  -2   5   7  604.04   51.69
  -2   5   7  685.33   51.19
   1  -5  -7 1443.96  110.49
  -1   5   7 1655.93  108.79
  -1   5   7 1609.14  105.29
   0  -5  -7 1052.89   83.49
   0   5   7 1118.29   79.09
   0   5   7 1075.19   72.99
  -1  -5  -7  344.87   43.90
   1   5   7  335.47   34.20
  -2  -5  -7  523.95   56.29
   2   5   7  506.05   45.30
  -3  -5  -7  301.17   46.20
   3   5   7  334.47   35.60
  -4  -5  -7  153.88   38.50
   4   5   7  196.08   28.70
  -5  -5  -7  301.57   54.59
   5   5   7  349.96   38.90
  -6  -5  -7  340.87   64.49
   6   5   7  437.36   44.90
  -7  -5  -7  389.86   75.49
   7   5   7  437.46   48.10
  -8   6   7  222.38   48.00
  -7   6   7  395.86   56.39
   6  -6  -7  412.76   36.90
  -6   6   7  336.87   47.90
   5  -6  -7  508.45   42.80
  -5   6   7  475.05   50.19
   4  -6  -7  470.35   39.20
  -4   6   7  478.75   43.10
  -4   6   7  336.17   37.50
   3  -6  -7  201.68   26.30
  -3   6   7  229.58   28.60
  -3   6   7  211.28   27.10
   2  -6  -7  354.46   35.50
  -2   6   7  329.77   32.10
  -2   6   7  342.87   34.20
   1  -6  -7  342.47   38.10
  -1   6   7  382.96   38.00
  -1   6   7  359.26   31.00
   0  -6  -7  830.12   69.39
   0   6   7  828.12   66.09
  -1  -6  -7  397.06   47.50
   1   6   7  411.76   40.20
  -2  -6  -7  411.56   53.39
   2   6   7  430.96   42.10
  -3  -6  -7  306.77   51.39
   3   6   7  408.16   40.20
  -4  -6  -7  357.16   57.39
   4   6   7  347.77   39.70
  -5  -6  -7  316.97   56.59
   5   6   7  260.27   36.80
  -6  -6  -7   93.59   42.90
   6   6   7  121.09   27.50
  -8   7   7  395.96   61.19
  -7   7   7  491.65   61.79
  -6   7   7  531.05   57.19
   5  -7  -7  664.23   52.29
  -5   7   7  633.84   59.19
   4  -7  -7  323.27   32.60
  -4   7   7  246.58   33.70
  -4   7   7  264.27   34.50
   3  -7  -7  169.58   24.50
  -3   7   7  143.49   25.30
  -3   7   7  170.28   23.90
   2  -7  -7 1052.99   78.99
  -2   7   7  990.30   78.49
  -2   7   7 1050.39   74.39
   1  -7  -7  690.23   59.29
  -1   7   7  684.63   58.49
   0  -7  -7  312.87   41.30
   0   7   7  394.46   39.80
  -1  -7  -7  485.35   53.29
   1   7   7  455.95   46.10
  -2  -7  -7  484.25   60.69
   2   7   7  490.75   48.00
  -3  -7  -7  398.16   60.19
   3   7   7  408.16   43.30
  -4  -7  -7  123.39   44.60
   4   7   7   67.09   21.50
  -5  -7  -7  449.16   74.09
   5   7   7  430.46   46.90
  -6  -7  -7  123.99   51.29
   6   7   7  274.17   37.50
  -6   8   7  416.16   51.79
  -5   8   7  324.47   41.30
   4  -8  -7  246.28   29.80
  -4   8   7  207.58   34.20
   3  -8  -7  596.94   50.49
   3  -8  -7  569.24   49.10
  -3   8   7  635.34   56.39
   2  -8  -7  288.77   34.90
  -2   8   7  289.77   37.00
   1  -8  -7  450.75   47.40
  -1   8   7  513.35   49.10
   0  -8  -7  227.88   37.00
   0   8   7  253.87   35.90
  -1  -8  -7  292.57   44.90
   1   8   7  295.47   39.30
  -2  -8  -7  402.96   57.09
   2   8   7  379.46   46.20
  -3  -8  -7  243.18   53.09
   3   8   7  287.87   38.90
  -4  -8  -7  350.96   66.99
   4   8   7  268.37   38.50
  -5  -8  -7  234.08   64.79
   5   8   7  119.49   28.10
   6  -9  -7  257.87   38.30
   5  -9  -7  416.36   43.60
   4  -9  -7  217.48   29.70
  -4   9   7  251.87   37.40
   3  -9  -7  333.37   36.60
  -3   9   7  366.16   44.70
   2  -9  -7  488.15   46.30
  -2   9   7  442.56   49.20
   1  -9  -7  326.67   42.30
  -1   9   7  401.36   46.20
   0  -9  -7  274.47   40.10
   0   9   7  251.47   39.30
  -1  -9  -7  263.37   44.20
   1   9   7  251.87   39.00
  -2  -9  -7  324.67   54.59
   2   9   7  400.96   49.20
  -3  -9  -7  373.66   60.39
   3   9   7  317.37   44.70
  -4  -9  -7  490.75   74.79
   4   9   7  392.06   51.09
   5 -10  -7  140.89   29.40
  -4  10   7  199.38   37.70
  -3  10   7  478.45   55.89
   2 -10  -7  462.05   47.40
  -2  10   7  470.55   56.19
   1 -10  -7  255.57   39.80
  -1  10   7  307.27   43.10
   0 -10  -7  181.08   37.80
   0  10   7  219.18   38.50
  -1 -10  -7  211.08   40.80
   1  10   7  144.39   34.50
  -2 -10  -7  180.18   44.40
   2  10   7  215.08   38.40
  -2  11   7  305.07   47.10
   1 -11  -7  227.38   38.80
  -1  11   7  277.47   44.30
  -1  12  -8  143.99   31.70
   1 -12   8  270.67   48.50
  -2  12  -8  152.18   35.40
   2 -12   8  171.28   41.20
  -2 -11   8  374.06   55.39
  -1 -11   8  182.18   41.10
   0  11  -8  135.79   29.00
   0 -11   8  222.68   44.40
  -1  11  -8  281.27   40.20
   1 -11   8  335.47   54.59
  -2  11  -8  169.68   36.70
   2 -11   8  204.18   42.10
  -3  11  -8   84.59   30.10
   3 -11   8  150.88   40.50
  -4  11  -8  204.68   40.20
   4 -11   8  271.07   44.10
  -5  11  -8  288.97   48.50
   5 -11   8  214.28   44.10
   4  10  -8  135.79   30.50
   3  10  -8  109.39   27.00
  -3 -10   8  173.38   33.10
  -2 -10   8  485.35   58.69
   1  10  -8  134.89   26.00
  -1 -10   8  188.78   39.60
   0  10  -8  317.37   40.00
   0 -10   8  389.86   53.29
  -1  10  -8  315.57   40.40
   1 -10   8  351.16   49.99
  -2  10  -8  257.87   38.80
   2 -10   8  192.78   41.60
  -3  10  -8  193.68   37.70
   3 -10   8  252.27   41.90
  -4  10  -8  255.97   43.10
   4 -10   8  213.38   42.10
  -5  10  -8  368.96   56.79
   5 -10   8  409.46   51.29
  -6  10  -8  242.78   49.10
   6 -10   8  267.27   42.90
   5   9  -8  271.47   42.40
   4   9  -8  182.28   32.40
  -4  -9   8  183.08   35.30
   3   9  -8  457.85   46.40
  -3  -9   8  456.35   51.19
   2   9  -8  293.27   34.60
  -2  -9   8  334.67   44.50
   1   9  -8  355.36   39.20
  -1  -9   8  494.25   51.19
   0   9  -8  567.24   54.59
   0  -9   8  788.02   66.89
  -1   9  -8  350.36   41.90
   1  -9   8  361.06   49.40
  -2   9  -8  223.58   34.30
   2  -9   8  240.78   37.90
  -3   9  -8  227.38   37.30
   3  -9   8  204.78   38.50
  -4   9  -8  394.56   51.59
   4  -9   8  331.77   46.60
  -5   9  -8  268.57   48.60
   5  -9   8  320.77   44.20
  -6   9  -8  150.58   41.10
   6  -9   8  176.98   33.60
  -7   9  -8  213.88   51.39
   7  -9   8  249.78   38.40
   6   8  -8  167.58   37.10
   5   8  -8  189.68   36.30
  -5  -8   8  240.08   39.60
   4   8  -8  152.58   30.60
  -4  -8   8  267.27   38.80
   3   8  -8  289.27   37.80
  -3  -8   8  281.27   40.70
   2   8  -8  298.97   35.50
  -2  -8   8  344.97   43.20
   1   8  -8  291.67   32.80
   1   8  -8  320.57   33.00
  -1  -8   8  376.56   44.10
   0   8  -8  750.42   73.69
   0   8  -8  819.82   64.09
   0  -8   8  822.62   71.39
  -1   8  -8  421.56   43.20
   1  -8   8  386.76   47.50
  -2   8  -8  341.07   41.50
   2  -8   8  272.47   40.20
  -3   8  -8  428.56   47.30
   3  -8   8  384.46   49.90
  -4   8  -8  657.93   65.99
   4  -8   8  676.63   63.39
  -5   8  -8  425.96   55.59
   5  -8   8  353.56   46.20
  -6   8  -8  251.17   45.00
   6  -8   8  158.88   30.90
  -7   8  -8  197.98   47.60
   7  -8   8  220.68   33.70
   6   7  -8  451.05   51.89
  -6  -7   8  372.76   53.09
   5   7  -8  283.87   40.60
  -5  -7   8  261.27   40.60
   4   7  -8  487.75   50.09
  -4  -7   8  505.75   53.59
   3   7  -8  276.77   35.50
  -3  -7   8  241.28   37.50
   2   7  -8  172.18   25.90
  -2  -7   8  237.18   32.20
   1   7  -8  725.13   52.49
   1   7  -8  588.04   51.99
  -1  -7   8  647.44   58.59
   0   7  -8 1134.49   79.69
   0   7  -8 1035.80   77.19
   0  -7   8 1040.10   83.89
  -1   7  -8  469.05   49.10
  -1   7  -8  488.55   43.40
   1  -7   8  375.46   44.70
  -2   7  -8  422.16   42.60
   2  -7   8  356.06   45.30
  -3   7  -8  998.80   75.59
   3  -7   8  787.32   70.79
  -4   7  -8  649.93   63.39
   4  -7   8  674.53   60.49
  -5   7  -8  249.78   43.70
   5  -7   8  299.17   38.40
  -6   7  -8  120.89   39.00
   6  -7   8  137.09   27.10
  -7   7  -8  541.35   71.99
   7  -7   8  560.74   52.79
  -8   7  -8  371.46   63.59
   8  -7   8  372.16   42.20
   7   6  -8   73.69   29.80
  -7  -6   8   59.29   28.40
   6   6  -8  529.55   55.99
  -6  -6   8  435.16   56.59
   5   6  -8  437.66   49.70
  -5  -6   8  468.15   54.39
   4   6  -8  364.86   41.20
  -4  -6   8  330.47   41.80
   3   6  -8  403.66   42.80
  -3  -6   8  503.35   46.80
   2   6  -8  377.06   39.90
  -2  -6   8  526.75   45.80
   1   6  -8 1354.76  101.29
   1   6  -8 1538.55   99.89
  -1  -6   8 1462.75  105.79
   0   6  -8  175.88   23.10
   0   6  -8  250.37   27.00
   0  -6   8  194.28   28.50
  -1   6  -8  285.87   33.20
  -1   6  -8  262.07   26.90
   1  -6   8  250.77   32.60
  -2   6  -8  943.01   70.59
   2  -6   8  795.02   69.39
  -3   6  -8 1472.15  106.29
   3  -6   8 1393.96  104.89
  -4   6  -8  702.23   61.69
   4  -6   8  595.24   56.19
  -5   6  -8   92.19   27.90
   5  -6   8  107.99   23.30
  -6   6  -8  481.75   64.99
   6  -6   8  667.13   55.19
  -7   6  -8  330.37   54.99
   7  -6   8  259.27   35.10
  -8   6  -8  253.07   55.29
   8  -6   8  223.18   31.70
   8   5  -8  292.57   44.50
  -8  -5   8  120.69   52.39
   7   5  -8  626.14   61.99
  -7  -5   8  510.95   64.99
   6   5  -8  412.46   48.40
  -6  -5   8  367.46   50.19
   5   5  -8  500.65   50.69
  -5  -5   8  431.46   49.60
   4   5  -8  357.36   40.20
  -4  -5   8  364.96   43.90
   3   5  -8  576.44   52.69
  -3  -5   8  646.64   54.69
   2   5  -8  852.11   65.79
   2   5  -8  761.02   62.99
  -2  -5   8  829.32   65.59
   1   5  -8  843.92   54.69
   1   5  -8  671.93   57.19
  -1  -5   8  686.53   59.29
   0   5  -8  668.83   47.20
   0   5  -8  509.85   46.00
   0  -5   8  632.04   50.99
  -1   5  -8  580.14   47.40
  -1   5  -8  661.23   50.29
   1  -5   8  609.74   52.09
  -2   5  -8 1257.07   85.79
  -2   5  -8 1213.58   89.79
   2  -5   8 1264.87   91.39
  -3   5  -8 1385.86   98.59
   3  -5   8 1262.87   95.59
  -4   5  -8 1040.70   80.79
   4  -5   8  958.00   76.19
  -5   5  -8  432.46   52.29
   5  -5   8  421.76   42.30
  -6   5  -8  660.03   70.39
   6  -5   8  773.82   61.49
  -7   5  -8  373.46   57.29
   7  -5   8  429.16   42.40
  -8   5  -8  212.18   46.90
   8  -5   8  256.37   34.40
  -9   5  -8  159.08   43.60
   8   4  -8  150.98   33.80
  -8  -4   8  120.29   41.30
   7   4  -8  288.37   41.20
  -7  -4   8  245.38   47.80
   6   4  -8  334.97   43.70
  -6  -4   8  352.96   50.09
   5   4  -8  265.97   35.90
  -5  -4   8  222.28   37.10
   4   4  -8  652.13   56.19
  -4  -4   8  588.24   55.59
   3   4  -8  779.92   65.69
  -3  -4   8  899.51   68.19
   2   4  -8 1181.08   85.29
  -2  -4   8 1155.18   85.79
   1   4  -8  596.14   47.50
   1   4  -8  531.85   40.90
  -1  -4   8  622.24   48.80
   0   4  -8  258.77   23.70
   0   4  -8  252.57   25.70
   0  -4   8  217.38   28.30
  -1   4  -8  650.03   49.10
  -1   4  -8  632.04   49.10
   1  -4   8  647.04   51.99
  -2   4  -8 1508.35  103.59
  -2   4  -8 1458.95  100.89
   2  -4   8 1486.05  103.69
  -3   4  -8  544.65   48.20
  -3   4  -8  542.25   43.40
   3  -4   8  550.24   46.60
  -4   4  -8  185.48   32.00
  -4   4  -8  187.28   30.40
   4  -4   8  238.58   29.00
  -5   4  -8  767.42   68.69
   5  -4   8  767.22   61.49
  -6   4  -8  563.64   63.79
   6  -4   8  698.93   55.49
  -7   4  -8  282.77   51.19
   7  -4   8  443.16   41.00
  -8   4  -8  286.27   53.69
   8  -4   8  365.66   40.80
  -9   4  -8  310.67   62.39
   8   3  -8  277.57   40.30
  -8  -3   8  231.68   47.70
   7   3  -8  507.15   52.99
  -7  -3   8  483.85   63.19
   6   3  -8  304.47   40.10
  -6  -3   8  335.27   46.30
   5   3  -8  201.38   31.30
  -5  -3   8  204.68   34.10
   4   3  -8  849.72   67.89
  -4  -3   8  826.72   69.49
   3   3  -8  997.20   74.59
  -3  -3   8  978.60   76.09
   2   3  -8 1253.17   89.39
  -2  -3   8 1242.98   89.99
   1   3  -8  825.02   63.69
   1   3  -8  870.81   57.19
  -1  -3   8  883.61   64.99
   0   3  -8  844.02   60.89
   0   3  -8  814.62   56.49
   0  -3   8  796.72   60.49
  -1   3  -8 1164.08   78.99
  -1   3  -8 1075.89   76.39
   1  -3   8 1096.29   78.69
  -2   3  -8  775.22   62.39
  -2   3  -8  922.51   63.99
   2  -3   8  881.21   63.29
  -3   3  -8 1460.65  101.89
  -3   3  -8 1449.46  103.99
   3  -3   8 1529.45  102.29
  -4   3  -8  657.63   53.29
  -4   3  -8  680.43   57.99
   4  -3   8  703.43   53.79
  -5   3  -8  611.14   63.39
  -5   3  -8  769.32   60.29
   5  -3   8  845.12   59.79
  -6   3  -8  722.63   73.19
   6  -3   8  907.11   66.09
  -7   3  -8  415.16   60.19
   7  -3   8  546.95   47.60
  -8   3  -8  412.46   62.89
  -9   3  -8  136.49   44.90
   9   2  -8  297.27   43.50
  -9  -2   8  262.57   52.79
   8   2  -8  301.47   40.90
  -8  -2   8  277.47   54.09
   7   2  -8  404.46   45.00
  -7  -2   8  388.96   55.29
   6   2  -8  271.17   36.90
  -6  -2   8  273.27   43.50
   5   2  -8  500.05   45.90
  -5  -2   8  493.75   51.49
   4   2  -8  340.17   35.70
  -4  -2   8  316.67   40.30
   3   2  -8  300.87   31.90
  -3  -2   8  293.57   33.50
   2   2  -8  887.21   68.79
  -2  -2   8  985.90   70.69
   1   2  -8  467.15   43.10
   1   2  -8  619.44   38.50
  -1  -2   8  548.85   44.30
   0   2  -8 1079.29   69.29
   0   2  -8  961.40   73.49
   0  -2   8 1032.10   73.19
  -1   2  -8 1398.16   99.89
  -1   2  -8 1574.84  104.19
   1  -2   8 1561.44  102.09
  -2   2  -8 1233.08   82.39
  -2   2  -8 1030.80   79.09
   2  -2   8 1160.48   78.89
  -3   2  -8  255.47   29.30
  -3   2  -8  298.57   31.10
   3  -2   8  280.87   27.00
  -4   2  -8  338.67   35.80
  -4   2  -8  338.47   37.50
   4  -2   8  377.46   32.80
  -5   2  -8  961.70   86.19
  -5   2  -8 1105.39   84.49
   5  -2   8 1274.17   81.39
  -6   2  -8  395.16   50.89
  -6   2  -8  425.06   45.50
   6  -2   8  522.65   42.20
  -7   2  -8  463.15   59.09
  -8   2  -8  541.65   69.39
  -9   2  -8  211.28   44.60
   9   1  -8  122.19   26.90
  -9  -1   8  156.68   43.50
   8   1  -8  363.86   43.10
  -8  -1   8  404.06   59.99
   7   1  -8  413.66   43.60
  -7  -1   8  395.16   56.19
   6   1  -8  280.57   35.60
  -6  -1   8  290.67   44.30
   5   1  -8  503.05   46.00
  -5  -1   8  471.85   51.39
   4   1  -8 1635.44  114.19
  -4  -1   8 1630.24  118.09
   3   1  -8  933.41   69.89
  -3  -1   8  928.31   72.59
   2   1  -8  317.77   31.90
  -2  -1   8  358.66   33.90
   1   1  -8 1238.18   84.49
  -1  -1   8 1123.59   83.29
  -1  -1   8 1191.68   76.69
   0   1  -8 1524.15  105.59
   0  -1   8 1532.75  103.39
  -1   1  -8 1461.05  101.59
  -1   1  -8 1594.34  106.39
   1  -1   8 1525.75  102.09
  -2   1  -8  782.02   58.19
  -2   1  -8  785.72   61.19
   2  -1   8  789.22   56.09
  -3   1  -8  845.22   68.09
  -3   1  -8  915.91   67.39
   3  -1   8  897.31   61.99
  -4   1  -8  728.33   62.19
  -4   1  -8  749.42   62.49
   4  -1   8  815.72   55.79
  -5   1  -8  577.04   58.99
  -5   1  -8  620.34   60.29
   5  -1   8  819.82   52.69
  -6   1  -8  496.55   51.19
  -6   1  -8  423.26   52.59
  -7   1  -8  476.75   61.89
  -7   1  -8  628.54   61.09
   8  -1   8  730.63   68.89
   9  -1   8  342.27   50.09
   9   0  -8  187.68   31.40
  -9   0   8  236.38   55.59
   8   0  -8  277.47   36.30
  -8   0   8  254.07   51.59
   7   0  -8  340.77   37.60
  -7   0   8  334.67   53.49
   6   0  -8  444.66   43.20
  -6   0   8  471.05   56.39
   5   0  -8 1012.60   77.09
  -5   0   8 1089.89   86.69
   4   0  -8   69.49   17.10
  -4   0   8   64.49   21.50
   3   0  -8  321.07   31.30
  -3   0   8  357.66   36.80
   2   0  -8  716.43   56.99
  -2   0   8  786.92   59.29
   1   0  -8  651.63   53.09
  -1   0   8  709.83   47.20
  -1   0   8  732.33   54.09
   0   0  -8  891.61   65.59
   0   0   8  836.32   58.89
   0   0   8  876.61   62.09
  -1   0  -8 1044.00   75.99
   1   0   8 1013.50   69.69
   1   0   8  981.60   69.49
  -2   0  -8 1239.28   93.19
   2   0   8 1288.67   87.69
   2   0   8 1298.27   85.69
  -3   0  -8  907.01   73.59
   3   0   8  957.70   64.39
   3   0   8  945.41   68.49
  -4   0  -8  784.62   70.59
   4   0   8  935.81   67.49
   4   0   8  903.11   60.79
  -5   0  -8  339.37   45.40
   5   0   8  383.46   38.30
  -6   0  -8  404.96   52.49
   6   0   8  494.75   47.10
  -7   0  -8  516.75   62.59
   7   0   8  598.74   56.09
   8   0   8  432.16   51.99
   9  -1  -8  177.88   28.50
  -9   1   8  241.18   50.19
   8  -1  -8  215.58   29.80
  -8   1   8  164.98   41.70
   7  -1  -8  414.46   41.00
  -7   1   8  421.56   59.19
   6  -1  -8  524.55   47.60
  -6   1   8  614.14   60.89
   5  -1  -8 1177.48   82.59
  -5   1   8 1030.70   88.29
   4  -1  -8  588.34   49.00
  -4   1   8  592.34   53.29
   3  -1  -8  567.84   46.30
  -3   1   8  540.25   49.40
   2  -1  -8  925.11   62.29
  -2   1   8  739.03   52.79
  -2   1   8  795.22   62.09
   1  -1  -8 1032.60   70.69
  -1   1   8  851.41   62.79
  -1   1   8  988.20   68.99
   0  -1  -8  926.61   69.69
   0   1   8  945.91   65.49
   0   1   8  884.21   62.89
  -1  -1  -8  623.24   51.59
   1   1   8  612.24   43.90
   1   1   8  538.45   43.30
  -2  -1  -8 1738.53  130.29
   2   1   8 1934.51  121.19
   2   1   8 1857.61  123.89
  -3  -1  -8  596.44   56.89
   3   1   8  608.94   49.70
   3   1   8  664.13   45.10
  -4  -1  -8  760.42   68.29
   4   1   8  789.22   61.19
  -5  -1  -8  555.34   59.69
   5   1   8  654.23   53.69
  -6  -1  -8  487.35   58.09
   6   1   8  552.44   50.79
  -7  -1  -8  888.51   90.39
   7   1   8 1021.40   79.79
  -8  -1  -8  325.17   56.29
   8   1   8  334.77   44.10
   9  -2  -8  144.59   26.70
  -9   2   8  138.99   49.20
   8  -2  -8  161.18   25.70
  -8   2   8  168.38   44.60
   7  -2  -8  249.48   31.90
  -7   2   8  309.27   49.70
   6  -2  -8  551.54   48.60
  -6   2   8  626.74   60.19
   5  -2  -8  216.18   26.80
  -5   2   8  178.38   34.50
   4  -2  -8  696.73   54.19
  -4   2   8  642.14   59.59
   3  -2  -8 1105.99   77.29
  -3   2   8  985.40   79.29
   2  -2  -8 1028.40   72.09
  -2   2   8 1085.89   73.19
  -2   2   8  849.52   64.39
   1  -2  -8  273.97   30.30
  -1   2   8  306.27   28.20
  -1   2   8  259.97   24.00
   0  -2  -8  451.45   41.80
   0   2   8  461.55   37.50
   0   2   8  496.25   37.40
  -1  -2  -8 1092.59   84.89
   1   2   8 1132.39   76.09
   1   2   8 1107.79   77.69
  -2  -2  -8  628.84   55.59
   2   2   8  596.94   41.50
   2   2   8  499.55   44.10
  -3  -2  -8  781.92   69.79
   3   2   8  781.02   59.69
  -4  -2  -8  605.04   61.39
   4   2   8  608.44   50.89
  -5  -2  -8  714.93   71.89
   5   2   8  750.52   61.09
  -6  -2  -8  472.45   63.49
   6   2   8  547.95   50.69
  -7  -2  -8  323.07   53.09
   7   2   8  308.87   41.00
  -8  -2  -8  136.49   44.40
   8   2   8  178.58   34.50
   9  -3  -8  145.49   25.00
  -9   3   8  180.28   45.40
   8  -3  -8  749.62   60.29
  -8   3   8  755.62   84.39
   7  -3  -8  400.36   39.60
  -7   3   8  485.45   61.49
   6  -3  -8  332.77   34.10
  -6   3   8  305.67   48.20
   5  -3  -8  347.67   34.30
  -5   3   8  320.27   43.90
   4  -3  -8  338.07   32.10
  -4   3   8  330.37   40.60
   3  -3  -8  909.21   67.59
  -3   3   8  863.91   68.69
  -3   3   8  894.01   69.79
   2  -3  -8  691.23   53.39
  -2   3   8  603.74   47.10
  -2   3   8  652.63   51.79
   1  -3  -8  867.31   65.19
  -1   3   8  852.21   60.19
  -1   3   8  802.62   61.19
   0  -3  -8  709.03   59.59
   0   3   8  750.32   51.99
   0   3   8  656.73   52.09
  -1  -3  -8 1170.38   87.99
   1   3   8 1055.39   78.79
   1   3   8 1153.98   75.79
  -2  -3  -8  648.94   59.49
   2   3   8  576.74   47.80
  -3  -3  -8  370.46   50.39
   3   3   8  447.96   39.10
  -4  -3  -8  725.83   74.09
   4   3   8  778.22   60.89
   5   3   8  605.14   53.29
  -6  -3  -8  711.93   83.79
   6   3   8  917.81   70.39
  -7  -3  -8  527.85   76.69
   7   3   8  549.05   54.49
  -8  -3  -8  215.68   54.29
   8   3   8  288.07   41.10
  -9   4   8  329.77   64.59
   8  -4  -8  237.48   30.00
  -8   4   8  234.98   47.10
   7  -4  -8  304.57   33.20
  -7   4   8  265.07   49.99
   6  -4  -8  431.46   40.90
  -6   4   8  372.16   53.49
   5  -4  -8  282.87   31.70
  -5   4   8  319.07   42.50
   4  -4  -8  787.12   59.29
  -4   4   8  693.83   62.79
   3  -4  -8  751.82   54.89
  -3   4   8  666.03   54.99
  -3   4   8  581.64   49.60
   2  -4  -8  596.84   51.49
  -2   4   8  678.73   50.19
  -2   4   8  574.04   47.10
   1  -4  -8  758.42   60.89
  -1   4   8  760.52   57.19
  -1   4   8  762.92   56.39
   0  -4  -8  455.95   44.50
   0   4   8  417.76   36.90
   0   4   8  418.76   33.70
  -1  -4  -8  577.54   55.69
   1   4   8  577.14   40.90
   1   4   8  542.35   47.10
  -2  -4  -8  311.07   44.50
   2   4   8  317.77   32.50
  -3  -4  -8  372.76   52.19
   3   4   8  352.16   36.00
  -4  -4  -8  431.76   60.69
   4   4   8  451.25   43.10
  -5  -4  -8  291.67   54.69
   5   4   8  393.36   40.20
  -6  -4  -8  555.84   76.69
   6   4   8  559.14   53.49
  -7  -4  -8  329.17   68.19
   7   4   8  356.96   44.10
  -8   5   8  491.55   70.89
   7  -5  -8  418.16   40.50
  -7   5   8  299.07   53.99
   6  -5  -8  282.07   33.10
  -6   5   8  261.07   42.20
   5  -5  -8  225.78   28.10
  -5   5   8  221.58   35.80
   4  -5  -8  289.47   32.60
  -4   5   8  334.97   39.20
   3  -5  -8  483.35   42.20
  -3   5   8  549.95   43.60
  -3   5   8  358.66   38.00
   2  -5  -8  500.45   44.30
  -2   5   8  525.95   41.60
  -2   5   8  396.26   38.90
   1  -5  -8  527.55   47.50
  -1   5   8  536.05   44.90
  -1   5   8  536.65   41.70
   0  -5  -8 1043.10   85.39
   0   5   8 1142.09   80.49
   0   5   8 1088.19   74.49
  -1  -5  -8  936.61   80.39
   1   5   8  965.80   72.39
  -2  -5  -8  343.67   48.00
   2   5   8  298.47   34.40
  -3  -5  -8  510.95   64.39
   3   5   8  493.25   46.40
  -4  -5  -8  507.05   68.79
   4   5   8  488.05   47.50
  -5  -5  -8  558.34   79.19
   5   5   8  624.24   55.89
  -6  -5  -8  349.17   63.79
   6   5   8  396.46   44.30
  -7  -5  -8  148.49   58.79
   7   5   8  124.79   28.70
  -8   6   8  327.27   57.19
   7  -6  -8  358.96   43.90
  -7   6   8  324.07   52.59
   6  -6  -8  273.77   33.40
  -6   6   8  283.57   44.20
   5  -6  -8  492.85   43.70
  -5   6   8  453.55   50.29
   4  -6  -8  328.47   35.40
  -4   6   8  380.66   39.70
   3  -6  -8  246.28   31.70
  -3   6   8  317.57   33.40
  -3   6   8  258.17   31.10
   2  -6  -8  379.76   38.80
  -2   6   8  352.26   33.20
  -2   6   8  356.66   36.80
   1  -6  -8  412.46   45.80
  -1   6   8  532.55   45.80
  -1   6   8  481.45   38.70
   0  -6  -8  540.35   55.09
   0   6   8  600.64   51.89
  -1  -6  -8  345.27   47.30
   1   6   8  368.06   38.40
  -2  -6  -8  444.76   56.39
   2   6   8  396.26   41.60
  -3  -6  -8  295.67   52.99
   3   6   8  322.57   38.90
  -4  -6  -8  355.96   61.29
   4   6   8  320.77   41.10
  -5  -6  -8  204.68   54.49
   5   6   8  226.68   35.30
  -6  -6  -8  395.56   71.29
   6   6   8  369.46   46.70
  -7   7   8  235.58   44.50
   6  -7  -8  395.06   41.70
  -6   7   8  459.85   55.59
   5  -7  -8  322.27   34.30
  -5   7   8  316.17   43.80
   4  -7  -8  428.66   41.10
  -4   7   8  431.96   43.20
   3  -7  -8  300.07   34.80
  -3   7   8  294.67   36.70
  -3   7   8  329.87   33.50
   2  -7  -8  679.83   57.49
  -2   7   8  577.94   55.29
  -2   7   8  714.43   53.19
   1  -7  -8  242.68   34.70
  -1   7   8  230.68   33.90
   0  -7  -8  317.17   43.90
   0   7   8  397.86   42.70
  -1  -7  -8  268.07   43.20
   1   7   8  275.77   36.10
  -2  -7  -8  467.25   62.29
   2   7   8  465.25   47.30
  -3  -7  -8  691.13   76.49
   3   7   8  536.35   54.39
  -4  -7  -8  239.18   57.89
   4   7   8  196.18   33.90
  -5  -7  -8  408.56   76.49
   5   7   8  352.36   45.70
  -7   8   8  282.67   49.20
  -6   8   8  264.97   41.30
   5  -8  -8  217.08   43.00
  -5   8   8  218.58   35.00
   4  -8  -8  212.88   29.10
  -4   8   8  221.58   31.80
   3  -8  -8  329.07   37.50
  -3   8   8  367.06   35.90
  -3   8   8  340.87   42.60
   2  -8  -8  289.87   36.80
  -2   8   8  257.07   35.30
   1  -8  -8  265.97   37.70
  -1   8   8  313.57   41.30
   0  -8  -8  453.15   50.19
   0   8   8  380.76   47.20
  -1  -8  -8  349.37   51.39
   1   8   8  448.36   47.10
  -2  -8  -8  324.47   53.19
   2   8   8  296.97   40.50
  -3  -8  -8  396.36   63.59
   3   8   8  367.96   46.40
  -4  -8  -8  249.48   58.89
   4   8   8  262.97   38.40
   6  -9  -8  176.08   32.40
   5  -9  -8  241.88   34.00
   4  -9  -8  437.76   57.99
   3  -9  -8  679.13   58.19
  -3   9   8  591.94   60.69
   2  -9  -8  139.39   28.70
  -2   9   8  103.09   25.70
   1  -9  -8  106.49   25.80
  -1   9   8   87.99   29.10
   0  -9  -8  173.88   35.90
   0   9   8  138.89   31.30
  -1  -9  -8  271.17   49.20
   1   9   8  311.07   42.70
  -2  -9  -8  270.47   53.09
   2   9   8  287.47   41.40
  -3  -9  -8   91.79   45.90
   3   9   8  129.19   30.00
  -3  10   8  218.78   36.20
   2 -10  -8  244.78   36.20
  -2  10   8  188.78   37.50
   1 -10  -8  326.77   44.50
  -1  10   8  362.36   50.59
   0 -10  -8  335.37   48.20
   0  10   8  355.06   50.79
  -1 -10  -8  163.18   41.00
   1  10   8  143.89   34.40
  -1 -11   9  196.18   44.60
   0 -11   9   42.40   32.70
  -1  11  -9  324.67   43.90
   1 -11   9  416.06   61.09
  -2  11  -9  181.78   36.40
   2 -11   9  226.78   44.30
  -3  11  -9  154.08   34.30
   3 -11   9  201.68   42.40
  -4  11  -9  192.38   40.40
   4 -11   9  154.18   41.10
  -3 -10   9  224.48   42.90
  -2 -10   9  367.56   54.89
  -1 -10   9  360.26   52.19
   0  10  -9  241.98   47.10
   0 -10   9  205.28   42.50
  -1  10  -9   93.39   24.60
   1 -10   9   90.09   33.80
  -2  10  -9  116.79   29.90
   2 -10   9   95.49   33.20
  -3  10  -9  143.29   32.30
   3 -10   9  116.59   35.40
  -4  10  -9  160.78   37.60
   4 -10   9  149.79   36.00
  -5  10  -9  316.67   54.49
   5 -10   9  200.58   41.00
   4   9  -9  234.68   36.80
  -4  -9   9  215.48   39.90
   3   9  -9  266.87   39.00
  -3  -9   9  326.07   44.90
   2   9  -9  246.68   34.40
  -2  -9   9  327.87   44.50
  -1  -9   9  297.57   45.50
   0   9  -9  580.64   53.59
   0  -9   9  565.74   61.59
  -1   9  -9  519.35   50.39
   1  -9   9  463.45   58.89
  -2   9  -9  319.67   44.40
   2  -9   9  402.06   51.19
  -3   9  -9  239.98   39.30
   3  -9   9  214.78   40.80
  -4   9  -9  315.07   47.30
   4  -9   9  197.88   38.10
  -5   9  -9  359.16   51.69
   5  -9   9  221.88   40.80
  -6   9  -9  120.99   38.40
   6  -9   9  128.89   31.90
   5   8  -9  311.57   44.20
  -5  -8   9  284.67   43.90
   4   8  -9  313.57   41.60
  -4  -8   9  326.37   47.80
   3   8  -9  330.77   38.80
  -3  -8   9  311.57   43.60
   2   8  -9  276.77   36.20
  -2  -8   9  303.77   42.80
   1   8  -9  328.87   35.60
  -1  -8   9  339.37   45.80
   0   8  -9  301.27   36.00
   0  -8   9  280.57   41.90
  -1   8  -9  362.06   42.10
   1  -8   9  286.77   43.00
  -2   8  -9  686.13   58.69
   2  -8   9  519.45   58.89
  -3   8  -9  310.17   41.90
   3  -8   9  117.19   30.70
  -4   8  -9  273.57   44.50
   4  -8   9  252.07   40.10
  -5   8  -9  297.37   48.70
   5  -8   9  206.48   35.90
  -6   8  -9  224.48   47.80
   6  -8   9  140.69   31.30
  -7   8  -9  170.38   49.30
   7  -8   9  163.38   32.40
   6   7  -9  419.16   52.79
  -6  -7   9  261.97   47.00
   5   7  -9  553.54   55.19
  -5  -7   9  420.96   57.29
   4   7  -9  427.26   47.50
  -4  -7   9  448.96   50.69
   3   7  -9  347.87   41.10
  -3  -7   9  467.75   48.60
   2   7  -9  503.25   48.00
  -2  -7   9  588.94   54.89
   1   7  -9  269.57   31.50
  -1  -7   9  387.06   44.00
   0   7  -9  819.22   62.79
   0   7  -9  786.92   60.79
   0  -7   9  724.43   65.39
  -1   7  -9  450.55   41.60
   1  -7   9  319.97   44.70
  -2   7  -9  586.44   56.29
   2  -7   9  591.34   56.89
  -3   7  -9  746.93   64.89
   3  -7   9  575.14   59.29
  -4   7  -9  481.95   56.69
   4  -7   9  452.95   49.60
  -5   7  -9  353.86   50.69
   5  -7   9  275.07   39.20
  -6   7  -9  221.78   42.30
   6  -7   9  114.49   27.50
  -7   7  -9  359.66   59.39
   7  -7   9  415.16   47.60
   7   6  -9   65.89   26.60
  -7  -6   9   67.09   30.00
   6   6  -9  468.95   55.89
  -6  -6   9  373.36   51.99
   5   6  -9  585.24   58.19
  -5  -6   9  528.35   58.39
   4   6  -9  381.36   43.70
  -4  -6   9  411.06   49.60
   3   6  -9  306.37   38.40
  -3  -6   9  326.17   40.90
   2   6  -9  329.57   37.40
  -2  -6   9  440.16   44.20
   1   6  -9  623.24   53.49
  -1  -6   9  729.03   59.89
   0   6  -9  345.37   33.50
   0   6  -9  283.97   30.90
   0  -6   9  353.66   36.20
  -1   6  -9  821.92   63.99
  -1   6  -9  912.31   68.09
   1  -6   9  856.71   70.49
  -2   6  -9  996.20   70.99
   2  -6   9  742.03   69.29
  -3   6  -9  737.13   60.89
   3  -6   9  580.84   56.89
  -4   6  -9  418.26   50.09
   4  -6   9  361.26   39.50
  -5   6  -9  200.58   38.80
   5  -6   9  196.18   31.40
  -6   6  -9  239.18   45.90
   6  -6   9  243.88   34.80
  -7   6  -9  479.05   66.39
   7  -6   9  356.56   43.70
  -8   6  -9  158.08   48.90
   8  -6   9  167.98   28.90
   7   5  -9  341.67   46.90
  -7  -5   9  224.08   46.20
   6   5  -9  408.66   50.59
  -6  -5   9  389.46   53.09
   5   5  -9  462.95   49.40
  -5  -5   9  411.36   51.89
   4   5  -9  449.26   47.80
  -4  -5   9  497.85   50.59
   3   5  -9 1119.79   84.59
  -3  -5   9 1058.59   85.59
   2   5  -9  726.43   61.99
  -2  -5   9  845.02   65.79
   1   5  -9  581.84   48.50
   1   5  -9  553.64   45.10
  -1  -5   9  595.84   51.69
   0   5  -9  166.38   21.20
   0   5  -9  151.08   22.20
   0  -5   9  148.19   25.40
  -1   5  -9  714.63   56.19
  -1   5  -9  753.62   55.89
   1  -5   9  665.63   58.89
  -2   5  -9  898.91   70.29
  -2   5  -9 1085.49   75.19
   2  -5   9  974.20   75.39
  -3   5  -9  466.25   46.90
   3  -5   9  433.36   41.60
  -4   5  -9  456.45   48.50
   4  -5   9  437.86   43.70
  -5   5  -9  511.85   54.69
   5  -5   9  452.25   45.70
  -6   5  -9  837.52   82.59
   6  -5   9  962.00   73.89
  -7   5  -9  173.58   41.60
   7  -5   9  202.18   32.10
  -8   5  -9  126.49   43.70
   8  -5   9  174.48   29.50
   8   4  -9  239.88   43.40
  -8  -4   9  228.28   45.60
   7   4  -9  491.65   52.09
  -7  -4   9  290.27   52.49
   6   4  -9  613.44   58.89
  -6  -4   9  529.85   64.19
   5   4  -9  459.75   48.70
  -5  -4   9  416.46   52.39
   4   4  -9  460.95   46.50
  -4  -4   9  403.26   46.30
   3   4  -9 1081.39   84.89
  -3  -4   9 1155.18   86.89
   2   4  -9  886.11   67.49
  -2  -4   9  824.32   67.79
   1   4  -9  388.96   36.80
   1   4  -9  380.16   29.90
  -1  -4   9  394.86   38.40
   0   4  -9 1136.09   81.49
   0   4  -9 1121.29   77.39
   0  -4   9 1143.79   82.89
  -1   4  -9 1327.27   89.99
  -1   4  -9 1245.68   91.19
   1  -4   9 1326.87   93.39
  -2   4  -9  759.12   58.09
  -2   4  -9  773.02   58.99
   2  -4   9  745.23   59.69
  -3   4  -9  267.77   28.30
  -3   4  -9  262.07   33.50
   3  -4   9  273.27   30.90
  -4   4  -9  622.64   58.59
   4  -4   9  629.74   52.89
  -5   4  -9  552.24   59.79
   5  -4   9  598.24   51.29
  -6   4  -9  412.06   56.59
   6  -4   9  497.95   47.30
  -7   4  -9  205.58   43.70
   7  -4   9  284.07   34.70
  -8   4  -9  118.39   38.90
   8   3  -9  260.77   41.80
  -8  -3   9  209.78   44.40
   7   3  -9  234.78   38.90
  -7  -3   9  260.47   48.10
   6   3  -9  326.27   41.80
  -6  -3   9  318.67   48.80
   5   3  -9  327.77   42.10
  -5  -3   9  345.57   44.40
   4   3  -9  911.61   73.49
  -4  -3   9  899.61   75.89
   3   3  -9  628.14   52.69
  -3  -3   9  542.85   52.29
   2   3  -9  606.84   50.69
  -2  -3   9  628.64   51.69
   1   3  -9  761.22   62.99
   1   3  -9  895.71   56.09
  -1  -3   9  800.62   64.29
   0   3  -9 1167.98   81.59
   0   3  -9 1141.39   75.59
   0  -3   9 1042.20   80.49
  -1   3  -9 1388.86   96.49
  -1   3  -9 1442.16   99.89
   1  -3   9 1459.05   99.59
  -2   3  -9  392.06   35.80
  -2   3  -9  368.46   34.40
   2  -3   9  389.56   35.00
  -3   3  -9  366.36   36.50
  -3   3  -9  417.86   39.60
   3  -3   9  456.75   37.70
  -4   3  -9  703.03   57.79
  -4   3  -9  603.74   52.29
   4  -3   9  650.23   51.99
  -5   3  -9  621.24   63.09
   5  -3   9  788.12   58.89
  -6   3  -9  523.45   59.39
   6  -3   9  577.74   49.20
  -7   3  -9  199.98   44.70
   7  -3   9  400.46   43.80
  -8   3  -9  349.96   59.19
   8   2  -9  272.57   40.50
  -8  -2   9  230.78   47.50
   7   2  -9  674.53   65.49
  -7  -2   9  815.92   77.89
   6   2  -9  429.56   45.90
  -6  -2   9  364.06   52.29
   5   2  -9  440.66   45.50
  -5  -2   9  448.66   50.69
   4   2  -9  961.40   76.19
  -4  -2   9  988.70   78.59
   3   2  -9  991.70   77.09
  -3  -2   9 1044.80   79.39
   2   2  -9  639.04   51.99
  -2  -2   9  605.74   51.39
   1   2  -9  566.94   48.40
  -1  -2   9  620.54   49.40
   0   2  -9 2613.74  159.98
   0   2  -9 2482.35  165.48
   0  -2   9 2327.27  163.68
  -1   2  -9 1118.79   78.39
  -1   2  -9 1030.60   72.89
   1  -2   9 1013.60   74.39
  -2   2  -9  211.18   24.20
  -2   2  -9  240.18   27.50
   2  -2   9  225.88   23.90
  -3   2  -9  598.94   50.39
  -3   2  -9  487.95   47.60
   3  -2   9  655.63   46.30
  -4   2  -9  620.94   56.69
  -4   2  -9  650.63   59.39
   4  -2   9  780.92   53.99
  -5   2  -9  724.43   61.39
  -5   2  -9  611.44   62.39
   5  -2   9  803.12   56.29
  -6   2  -9  354.86   50.69
   6  -2   9  513.05   42.60
  -7   2  -9  269.97   45.10
  -8   2  -9  349.37   55.89
   8   1  -9  289.27   39.70
  -8  -1   9  296.97   56.19
   7   1  -9  226.48   34.80
  -7  -1   9  251.77   47.00
   6   1  -9  553.14   52.69
  -6  -1   9  569.64   61.29
   5   1  -9  509.65   49.50
  -5  -1   9  588.84   57.89
   4   1  -9  534.55   47.90
  -4  -1   9  517.15   50.09
   3   1  -9  260.47   30.80
  -3  -1   9  285.17   31.90
   2   1  -9  564.54   46.90
  -2  -1   9  519.45   47.20
   1   1  -9 1111.29   83.29
  -1  -1   9 1155.98   76.29
  -1  -1   9 1196.48   83.49
   0   1  -9 2063.79  137.39
   0  -1   9 2140.19  135.49
   0  -1   9 1892.51  130.49
  -1   1  -9 1288.87   92.09
   1  -1   9 1257.67   87.39
  -2   1  -9  731.53   58.29
  -2   1  -9  636.84   52.99
   2  -1   9  740.13   51.89
  -3   1  -9  834.02   67.89
  -3   1  -9  935.41   72.29
   3  -1   9  931.81   63.89
  -4   1  -9  483.45   46.40
  -4   1  -9  394.46   45.50
   4  -1   9  527.25   38.90
  -5   1  -9  422.26   46.40
  -5   1  -9  397.26   46.20
   5  -1   9  460.85   36.70
  -6   1  -9  314.77   42.20
  -6   1  -9  262.27   42.20
   7  -1   9  532.95   56.09
   8  -1   9  320.37   46.30
   9   0  -9  201.18   32.30
   8   0  -9  340.17   41.20
  -8   0   9  358.86   56.79
   7   0  -9  315.47   39.60
  -7   0   9  336.47   53.29
   6   0  -9  401.46   41.60
  -6   0   9  382.06   51.79
   5   0  -9  894.41   71.89
  -5   0   9  963.10   80.99
   4   0  -9 1256.77   92.89
  -4   0   9 1300.47   98.79
   3   0  -9  479.25   42.50
  -3   0   9  511.95   46.10
   2   0  -9  427.36   39.20
  -2   0   9  413.36   40.50
   1   0  -9 1754.82  116.79
  -1   0   9 1661.93  108.49
  -1   0   9 1635.34  115.49
   0   0  -9 1259.17   88.29
   0   0   9 1135.19   80.29
   0   0   9 1233.78   84.29
  -1   0  -9  452.85   42.60
   1   0   9  450.75   36.50
   1   0   9  419.26   35.10
  -2   0  -9  505.95   47.80
   2   0   9  557.94   39.80
   2   0   9  458.65   40.10
  -3   0  -9 1613.34  118.29
   3   0   9 1580.54  111.69
   3   0   9 1687.93  108.19
  -4   0  -9  932.01   81.09
   4   0   9 1044.30   70.39
   4   0   9 1069.99   76.99
  -5   0  -9  432.46   49.00
   5   0   9  481.75   45.30
  -6   0  -9  336.47   47.70
   6   0   9  469.75   46.40
  -7   0  -9  448.06   58.49
   7   0   9  481.45   51.79
   8   0   9  596.64   62.79
   9  -1  -9  234.38   34.30
  -9   1   9  154.88   50.89
   8  -1  -9  150.58   27.80
  -8   1   9  225.08   49.20
   7  -1  -9  292.07   36.30
  -7   1   9  285.57   48.50
   6  -1  -9  526.15   48.40
  -6   1   9  539.95   60.49
   5  -1  -9 1013.40   78.19
  -5   1   9 1074.49   88.49
   4  -1  -9  199.58   27.70
  -4   1   9  209.08   33.00
   3  -1  -9  645.34   54.99
  -3   1   9  727.43   59.69
   2  -1  -9  778.82   62.59
  -2   1   9  834.62   64.39
   1  -1  -9 1220.38   88.79
  -1   1   9 1193.18   80.79
  -1   1   9 1247.48   87.29
   0  -1  -9  857.41   67.49
   0   1   9  835.22   62.49
   0   1   9  858.21   59.79
  -1  -1  -9  289.77   32.80
   1   1   9  296.17   27.50
   1   1   9  297.77   27.80
  -2  -1  -9 1894.41  133.19
   2   1   9 1712.03  124.79
   2   1   9 2000.20  123.49
  -3  -1  -9  721.43   63.09
   3   1   9  753.12   51.49
   3   1   9  666.93   55.49
  -4  -1  -9  364.06   48.30
   4   1   9  423.76   40.90
  -5  -1  -9  520.45   57.19
   5   1   9  541.55   49.50
  -6  -1  -9  556.24   64.19
   6   1   9  656.63   57.69
  -7  -1  -9  248.18   50.29
   7   1   9  196.28   34.20
  -8  -1  -9  110.79   38.70
   8   1   9   96.49   29.30
   8  -2  -9  201.18   29.40
  -8   2   9  200.58   49.90
   7  -2  -9  466.15   44.40
  -7   2   9  465.25   61.79
   6  -2  -9  417.56   42.00
  -6   2   9  518.35   62.39
   5  -2  -9  294.47   33.80
  -5   2   9  349.87   46.90
   4  -2  -9  671.53   54.99
  -4   2   9  642.74   60.29
   3  -2  -9  815.92   65.69
  -3   2   9  895.41   69.99
   2  -2  -9 1315.07   94.09
  -2   2   9 1282.07   94.09
   1  -2  -9  785.82   61.19
  -1   2   9  687.33   52.49
  -1   2   9  784.72   58.09
   0  -2  -9  720.33   59.59
   0   2   9  679.13   53.19
   0   2   9  691.73   51.49
  -1  -2  -9  920.41   73.69
   1   2   9  836.02   64.29
   1   2   9  936.01   64.19
  -2  -2  -9 1184.18   92.09
   2   2   9 1262.67   80.59
   2   2   9 1086.49   82.79
  -3  -2  -9  762.72   68.79
   3   2   9  705.43   56.99
  -4  -2  -9  673.43   67.69
   4   2   9  696.33   56.99
  -5  -2  -9  643.04   71.49
   5   2   9  786.32   62.09
  -6  -2  -9  382.16   57.89
   6   2   9  528.05   49.50
  -7  -2  -9  355.16   57.29
   7   2   9  399.66   47.50
   8  -3  -9  262.47   34.90
  -8   3   9  368.16   57.89
   7  -3  -9  254.37   32.40
  -7   3   9  262.67   49.70
   6  -3  -9  394.96   39.60
  -6   3   9  401.76   55.09
   5  -3  -9  365.56   37.60
  -5   3   9  374.26   48.10
   4  -3  -9  466.45   42.70
  -4   3   9  433.66   47.90
   3  -3  -9  796.62   62.19
  -3   3   9  741.13   63.49
   2  -3  -9  843.32   67.19
  -2   3   9  880.91   66.49
  -2   3   9  836.22   62.99
   1  -3  -9  846.12   66.49
  -1   3   9  773.32   58.69
  -1   3   9  825.92   61.39
   0  -3  -9  328.97   36.70
   0   3   9  396.66   31.70
   0   3   9  294.37   29.90
  -1  -3  -9  447.46   50.09
   1   3   9  471.55   41.50
   1   3   9  531.35   39.00
  -2  -3  -9  587.84   59.09
   2   3   9  572.84   47.50
  -3  -3  -9  423.56   54.39
   3   3   9  431.26   41.30
  -4  -3  -9  493.45   64.79
   4   3   9  603.14   50.69
  -5  -3  -9  981.80   95.29
   5   3   9 1058.59   80.69
  -6  -3  -9  209.78   47.10
   6   3   9  429.96   43.80
  -7  -3  -9  134.99   44.70
   7   3   9  131.99   30.70
   8  -4  -9  449.56   43.80
  -8   4   9  455.25   68.59
   7  -4  -9  246.98   32.90
  -7   4   9  307.97   50.79
   6  -4  -9  278.87   33.30
  -6   4   9  287.97   45.40
   5  -4  -9  216.98   29.40
  -5   4   9  254.07   38.20
   4  -4  -9  619.24   52.39
  -4   4   9  592.84   56.69
   3  -4  -9  772.12   61.39
  -3   4   9  722.53   61.59
   2  -4  -9  542.65   47.50
  -2   4   9  489.35   43.20
  -2   4   9  456.85   40.20
   1  -4  -9 1184.68   92.29
  -1   4   9 1197.48   86.19
  -1   4   9 1288.17   86.69
   0  -4  -9 1296.17   97.29
   0   4   9 1336.87   88.09
   0   4   9 1214.18   90.39
  -1  -4  -9 1054.29   85.49
   1   4   9  999.50   75.59
  -2  -4  -9  527.55   57.19
   2   4   9  467.75   43.10
  -3  -4  -9  396.86   55.89
   3   4   9  444.76   41.50
   4   4   9  678.23   57.99
  -5  -4  -9  410.56   62.39
   5   4   9  411.66   44.00
  -6  -4  -9  219.58   50.79
   6   4   9  309.67   39.50
  -7  -4  -9  177.18   57.59
   7   4   9  306.77   43.40
   8  -5  -9  218.28   31.50
  -8   5   9  238.88   55.59
   7  -5  -9  181.68   28.10
  -7   5   9  168.88   40.20
   6  -5  -9  271.87   33.30
  -6   5   9  265.27   45.20
   5  -5  -9  307.07   34.30
  -5   5   9  265.07   40.60
   4  -5  -9  467.15   43.00
  -4   5   9  400.36   45.00
   3  -5  -9  373.06   38.50
  -3   5   9  337.37   37.10
   2  -5  -9  693.33   57.09
  -2   5   9  550.04   50.19
  -2   5   9  693.73   52.39
   1  -5  -9  410.46   42.30
  -1   5   9  418.66   38.40
  -1   5   9  432.96   36.90
   0  -5  -9  282.97   40.30
   0   5   9  288.27   33.60
  -1  -5  -9  688.23   67.19
   1   5   9  689.03   56.59
  -2  -5  -9  305.77   49.10
   2   5   9  361.96   37.40
  -3  -5  -9  385.56   55.29
   3   5   9  423.16   42.40
  -4  -5  -9  515.15   71.99
   4   5   9  530.25   50.29
  -5  -5  -9  375.56   68.39
   5   5   9  375.56   43.60
  -6  -5  -9  142.89   48.40
   6   5   9  241.98   34.90
   7  -6  -9  370.66   40.90
  -7   6   9  345.97   55.99
   6  -6  -9  330.07   36.20
  -6   6   9  277.67   44.70
   5  -6  -9  467.65   45.30
  -5   6   9  505.75   57.39
   4  -6  -9  387.06   40.40
  -4   6   9  394.36   42.80
   3  -6  -9  346.17   38.20
  -3   6   9  348.67   36.60
   2  -6  -9  307.27   38.30
  -2   6   9  311.17   32.40
  -2   6   9  287.07   32.40
   1  -6  -9  875.91   76.29
  -1   6   9  994.70   73.69
   0  -6  -9  706.23   68.49
   0   6   9  814.32   63.39
  -1  -6  -9  338.17   49.90
   1   6   9  416.86   41.10
  -2  -6  -9  568.44   64.59
   2   6   9  502.65   49.30
  -3  -6  -9  688.63   78.09
   3   6   9  656.43   60.59
  -4  -6  -9  495.85   74.19
   4   6   9  552.54   53.49
  -5  -6  -9  141.39   51.79
   5   6   9  161.98   30.10
  -7   7   9  192.38   43.10
   6  -7  -9  268.97   34.70
  -6   7   9  250.27   42.50
   5  -7  -9  448.06   42.50
  -5   7   9  360.06   48.20
   4  -7  -9  267.87   34.70
  -4   7   9  267.77   35.80
   3  -7  -9  163.08   28.00
  -3   7   9  156.98   24.70
   2  -7  -9  477.55   47.60
  -2   7   9  440.26   44.40
   1  -7  -9  295.97   40.10
  -1   7   9  325.27   39.10
   0  -7  -9  389.26   50.49
   0   7   9  473.45   46.10
  -1  -7  -9  410.56   53.59
   1   7   9  401.56   44.20
  -2  -7  -9  521.85   65.59
   2   7   9  478.05   50.09
  -3  -7  -9  505.85   70.79
   3   7   9  542.35   55.19
  -4  -7  -9  326.07   61.49
   4   7   9  296.07   42.00
  -6   8   9  265.87   45.10
   5  -8  -9  335.77   39.70
  -5   8   9  320.27   44.00
   4  -8  -9  353.16   39.60
  -4   8   9  363.76   43.60
   3  -8  -9  333.37   39.50
   2  -8  -9  508.55   51.89
  -2   8   9  538.85   51.49
   1  -8  -9  154.38   33.80
  -1   8   9  144.89   29.00
   0  -8  -9  188.38   36.80
   0   8   9  176.48   32.30
  -1  -8  -9  346.37   51.99
   1   8   9  389.96   47.60
  -2  -8  -9  532.25   69.29
   2   8   9  527.95   54.99
  -3  -8  -9  572.14   77.49
   3   8   9  519.25   55.89
   5  -9  -9  154.48   28.80
   4  -9  -9  130.59   41.00
   3  -9  -9  340.67   41.50
   2  -9  -9  213.98   35.80
  -2   9   9  230.48   37.40
   1  -9  -9  265.97   41.20
  -1   9   9  312.97   43.10
   0  -9  -9  311.07   45.80
   0   9   9  253.47   39.20
  -1  -9  -9  255.47   47.00
   1   9   9  364.46   47.10
  -2  -9  -9  247.28   50.59
   2   9   9  313.47   44.20
   0 -11  10  203.38   43.80
   1 -11  10   49.60   34.50
  -2  11 -10   63.29   29.10
   2 -11  10   23.30   34.30
  -1 -10  10  216.68   41.70
   0 -10  10  249.58   44.60
   1 -10  10  342.77   55.59
  -2  10 -10  167.98   35.50
   2 -10  10  138.59   35.10
  -3  10 -10  234.18   43.10
   3 -10  10  192.28   44.20
  -4  10 -10  149.79   39.10
   4 -10  10  239.58   42.00
   4   9 -10  129.59   33.00
  -4  -9  10  200.48   41.00
   3   9 -10   61.49   24.10
  -3  -9  10   86.69   29.80
  -2  -9  10  268.37   43.90
  -1  -9  10  276.27   44.60
   0  -9  10  238.98   44.10
  -1   9 -10  140.39   30.40
   1  -9  10   92.39   29.10
  -2   9 -10  195.58   35.00
   2  -9  10  159.68   38.60
  -3   9 -10  322.87   45.90
   3  -9  10  316.37   46.90
  -4   9 -10  158.68   39.00
   4  -9  10   86.09   31.90
  -5   9 -10  147.79   44.00
   5  -9  10  139.39   33.80
  -6   9 -10  208.18   50.89
   6  -9  10  216.08   37.50
   5   8 -10  365.26   49.90
  -5  -8  10  412.56   58.59
   4   8 -10  147.69   30.40
  -4  -8  10  152.68   35.50
   3   8 -10  314.77   41.10
  -3  -8  10  305.07   44.40
   2   8 -10  259.37   34.30
  -2  -8  10  239.38   39.30
   1   8 -10  221.58   30.20
  -1  -8  10  182.48   38.10
   0  -8  10  377.66   48.40
  -1   8 -10  489.05   49.80
   1  -8  10  424.66   54.99
  -2   8 -10  535.35   50.99
   2  -8  10  325.67   48.90
  -3   8 -10  259.67   41.10
   3  -8  10  240.78   40.00
  -4   8 -10  243.38   42.60
   4  -8  10  143.19   33.90
  -5   8 -10  228.28   43.80
   5  -8  10  164.08   33.70
  -6   8 -10  250.67   48.90
   6  -8  10  196.88   37.50
   6   7 -10   79.39   30.50
  -6  -7  10  114.79   30.70
   5   7 -10  339.27   47.50
  -5  -7  10  287.37   46.90
   4   7 -10  315.77   43.60
  -4  -7  10  317.07   44.20
   3   7 -10  238.98   36.50
  -3  -7  10  210.48   37.30
   2   7 -10  254.37   34.60
  -2  -7  10  311.67   42.80
   1   7 -10  182.28   27.20
  -1  -7  10  165.98   29.40
   0   7 -10  550.64   48.20
   0  -7  10  541.25   53.09
  -1   7 -10  363.56   41.70
   1  -7  10  275.17   41.60
  -2   7 -10  489.05   48.50
   2  -7  10  402.96   50.39
  -3   7 -10  428.96   50.69
   3  -7  10  253.57   40.40
  -4   7 -10  337.77   47.10
   4  -7  10  251.27   39.30
  -5   7 -10  258.07   46.70
   5  -7  10  201.48   35.10
  -6   7 -10  110.19   37.10
   6  -7  10  144.69   32.10
  -7   7 -10  183.78   49.70
   7  -7  10  176.38   31.70
   6   6 -10  556.44   60.79
  -6  -6  10  536.35   67.19
   5   6 -10  356.46   46.80
  -5  -6  10  313.27   47.80
   4   6 -10  514.65   53.69
  -4  -6  10  576.64   58.49
   3   6 -10  424.36   46.10
  -3  -6  10  511.05   51.69
   2   6 -10  249.08   33.20
  -2  -6  10  260.07   37.00
   1   6 -10  326.27   35.60
  -1  -6  10  287.37   39.00
   0   6 -10  521.05   46.80
   0   6 -10  642.64   61.99
   0  -6  10  548.95   53.49
  -1   6 -10  307.37   32.90
  -1   6 -10  418.06   37.90
   1  -6  10  269.37   38.90
  -2   6 -10  544.65   48.30
   2  -6  10  438.26   48.20
  -3   6 -10  534.05   51.69
   3  -6  10  454.75   49.50
  -4   6 -10  372.46   48.20
   4  -6  10  324.97   41.60
  -5   6 -10  545.75   66.89
   5  -6  10  552.04   53.69
  -6   6 -10  241.48   46.50
   6  -6  10  207.08   33.70
  -7   6 -10  407.76   62.39
   7  -6  10  404.36   45.70
   7   5 -10  115.59   32.40
  -7  -5  10   81.79   31.60
   6   5 -10  531.85   55.49
  -6  -5  10  357.96   56.49
   5   5 -10  498.85   52.59
  -5  -5  10  393.46   56.69
   4   5 -10  418.06   47.60
  -4  -5  10  457.75   50.49
   3   5 -10  361.66   42.40
  -3  -5  10  457.35   47.30
   2   5 -10  346.17   37.20
  -2  -5  10  301.17   39.00
   1   5 -10  814.52   65.19
  -1  -5  10  852.71   69.09
   0   5 -10  273.47   27.30
   0   5 -10  251.27   29.00
   0  -5  10  250.27   34.70
  -1   5 -10  466.65   39.80
  -1   5 -10  394.06   39.20
   1  -5  10  451.15   43.80
  -2   5 -10  433.36   41.90
  -2   5 -10  411.06   38.00
   2  -5  10  396.56   41.90
  -3   5 -10  438.76   45.70
   3  -5  10  485.15   46.00
  -4   5 -10  305.57   42.10
   4  -5  10  291.47   37.20
  -5   5 -10  118.19   30.70
   5  -5  10  128.99   27.40
  -6   5 -10  374.56   56.09
   6  -5  10  417.26   44.20
  -7   5 -10  158.58   45.00
   7  -5  10  191.88   31.10
  -8   5 -10  185.88   50.09
   7   4 -10  396.36   52.59
  -7  -4  10  324.77   52.99
   6   4 -10  257.07   42.30
  -6  -4  10  272.37   44.30
   5   4 -10  439.96   50.79
  -5  -4  10  479.65   53.59
   4   4 -10  431.46   48.00
  -4  -4  10  468.85   51.09
   3   4 -10  707.03   61.49
  -3  -4  10  710.73   63.09
   2   4 -10  624.34   54.19
  -2  -4  10  621.84   55.89
   1   4 -10  815.32   66.69
  -1  -4  10  925.21   70.39
   0   4 -10  651.33   48.30
   0   4 -10  670.73   53.79
   0  -4  10  659.23   55.89
  -1   4 -10  460.65   40.00
  -1   4 -10  426.06   37.20
   1  -4  10  408.16   40.80
  -2   4 -10  458.05   41.60
  -2   4 -10  456.05   41.20
   2  -4  10  437.86   42.10
  -3   4 -10  257.67   29.40
  -3   4 -10  272.07   34.90
   3  -4  10  260.67   32.00
  -4   4 -10  774.92   66.69
   4  -4  10  757.72   61.89
  -5   4 -10  641.54   67.69
   5  -4  10  847.42   64.59
  -6   4 -10  426.06   58.79
   6  -4  10  545.85   49.00
  -7   4 -10  170.88   41.80
   7  -4  10  319.07   38.30
  -8   4 -10  246.28   52.79
   8   3 -10  483.45   54.69
  -8  -3  10  300.97   56.39
   7   3 -10  329.27   47.90
  -7  -3  10  381.66   58.39
   6   3 -10  611.14   60.09
  -6  -3  10  546.65   67.59
   5   3 -10  512.45   52.29
  -5  -3  10  466.45   57.49
   4   3 -10  630.74   57.39
  -4  -3  10  597.54   59.79
   3   3 -10  323.37   36.10
  -3  -3  10  273.87   36.80
   2   3 -10  399.16   39.00
  -2  -3  10  363.06   40.30
   1   3 -10  876.31   68.89
  -1  -3  10  933.51   70.89
   0   3 -10  759.32   50.29
   0   3 -10  695.93   55.89
   0  -3  10  596.24   54.89
  -1   3 -10  475.95   42.00
  -1   3 -10  433.16   37.30
   1  -3  10  474.15   41.10
  -2   3 -10  405.86   38.80
  -2   3 -10  341.27   35.20
   2  -3  10  404.96   36.40
  -3   3 -10  297.47   32.10
  -3   3 -10  313.47   33.60
   3  -3  10  289.87   30.80
  -4   3 -10  405.16   42.30
  -4   3 -10  329.87   35.90
   4  -3  10  412.66   38.10
  -5   3 -10  317.37   46.80
   5  -3  10  401.56   37.60
  -6   3 -10  284.67   48.70
   6  -3  10  440.76   40.30
  -7   3 -10  333.87   53.19
  -8   3 -10  252.77   49.99
   8   2 -10  214.68   37.50
  -8  -2  10  171.08   40.70
   7   2 -10  375.06   47.30
  -7  -2  10  352.76   54.59
   6   2 -10  446.46   50.59
  -6  -2  10  501.35   60.39
   5   2 -10  548.95   53.09
  -5  -2  10  512.75   57.99
   4   2 -10  426.96   43.50
  -4  -2  10  380.46   47.30
   3   2 -10  499.05   46.90
  -3  -2  10  502.35   49.50
   2   2 -10 1519.45  107.29
  -2  -2  10 1480.05  108.49
   1   2 -10 1156.08   85.99
  -1  -2  10 1197.98   86.59
   0   2 -10  737.03   57.99
   0  -2  10  692.33   55.99
  -1   2 -10  780.82   55.79
  -1   2 -10  746.43   60.59
   1  -2  10  737.33   58.19
  -2   2 -10  466.55   41.90
  -2   2 -10  527.15   46.10
   2  -2  10  500.75   41.20
  -3   2 -10  695.23   58.99
  -3   2 -10  639.84   56.59
   3  -2  10  739.83   54.19
  -4   2 -10  401.56   43.50
  -4   2 -10  402.66   43.40
   4  -2  10  502.05   40.00
  -5   2 -10  234.28   36.30
  -5   2 -10  223.78   33.60
   5  -2  10  277.47   29.40
  -6   2 -10  319.47   45.80
  -7   2 -10  319.47   52.39
   8  -2  10  387.76   53.19
   8   1 -10  333.27   43.30
  -8  -1  10  270.67   54.49
   7   1 -10  552.24   54.59
  -7  -1  10  520.45   69.69
   6   1 -10  564.44   55.59
  -6  -1  10  638.94   65.79
   5   1 -10  626.74   58.29
  -5  -1  10  707.53   66.59
   4   1 -10  437.56   40.70
  -4  -1  10  340.87   46.00
   3   1 -10  254.17   29.40
  -3  -1  10  267.27   36.00
   2   1 -10  978.10   75.29
  -2  -1  10 1008.80   77.19
   1   1 -10  814.72   62.59
  -1  -1  10  751.82   61.39
   0   1 -10  512.25   46.80
   0  -1  10  506.75   39.40
   0  -1  10  593.24   45.40
  -1   1 -10  503.95   44.10
   1  -1  10  409.06   35.70
   1  -1  10  462.95   38.30
  -2   1 -10  738.23   57.89
   2  -1  10  619.04   49.99
   2  -1  10  627.84   49.30
  -3   1 -10  576.54   52.39
   3  -1  10  553.44   43.60
  -4   1 -10  542.65   51.09
   4  -1  10  508.35   40.90
  -5   1 -10  498.45   52.59
  -6   1 -10  152.68   31.30
   6  -1  10  236.78   34.70
   7  -1  10  403.36   49.90
   8  -1  10  283.17   44.10
   8   0 -10  305.47   40.90
  -8   0  10  368.96   57.09
   7   0 -10  366.96   42.20
  -7   0  10  372.06   55.69
   6   0 -10  716.53   62.09
  -6   0  10  723.23   73.89
   5   0 -10  448.66   45.00
  -5   0  10  441.66   54.89
   4   0 -10  777.32   63.99
  -4   0  10  776.92   69.39
   3   0 -10  667.33   55.59
  -3   0  10  640.94   58.99
   2   0 -10 1072.59   77.29
  -2   0  10  944.71   77.39
   1   0 -10  741.43   58.39
  -1   0  10  668.33   56.39
   0   0 -10  613.44   53.99
   0   0  10  645.74   51.29
   0   0  10  630.94   45.90
  -1   0 -10 1026.30   78.79
   1   0  10  957.90   70.19
   1   0  10 1037.20   72.39
  -2   0 -10  683.83   58.19
   2   0  10  622.94   49.50
   2   0  10  613.74   48.10
  -3   0 -10 1076.19   86.49
   3   0  10 1151.58   75.89
   3   0  10 1022.50   78.49
  -4   0 -10  246.48   38.70
   4   0  10  289.27   32.30
  -5   0 -10  184.88   34.50
   5   0  10  257.77   33.80
  -6   0 -10  237.98   40.60
   6   0  10  293.87   39.70
  -7   0 -10  332.07   54.39
   7   0  10  356.16   47.40
   8   0  10  347.37   49.80
   8  -1 -10  268.27   36.90
  -8   1  10  362.86   61.69
   7  -1 -10  274.07   36.40
  -7   1  10  282.67   49.70
   6  -1 -10  293.17   37.50
  -6   1  10  378.86   53.69
   5  -1 -10  677.73   57.89
  -5   1  10  675.23   66.99
   4  -1 -10  273.07   34.00
  -4   1  10  249.38   39.00
   3  -1 -10 1273.77   91.29
  -3   1  10 1184.78   94.09
   2  -1 -10 1433.16  100.39
  -2   1  10 1328.17  100.49
   1  -1 -10  515.65   47.10
  -1   1  10  513.85   45.30
   0  -1 -10  323.67   33.80
   0   1  10  288.67   26.70
   0   1  10  290.07   30.10
  -1  -1 -10  586.44   53.79
   1   1  10  602.74   46.20
   1   1  10  535.85   43.70
  -2  -1 -10  884.31   75.39
   2   1  10  923.31   67.99
   2   1  10  976.50   66.89
  -3  -1 -10  681.93   63.09
   3   1  10  641.74   52.69
  -4  -1 -10  519.65   57.49
   4   1  10  585.84   49.70
  -5  -1 -10  286.37   46.90
   5   1  10  379.46   39.60
  -6  -1 -10  288.47   49.99
   6   1  10  330.77   41.90
  -7  -1 -10  207.18   46.30
   7   1  10  337.77   44.00
   8  -2 -10  210.68   33.10
  -8   2  10  243.98   50.69
   7  -2 -10  519.55   48.80
  -7   2  10  499.75   68.19
   6  -2 -10  537.45   49.90
  -6   2  10  564.74   67.59
   5  -2 -10  509.95   46.80
  -5   2  10  469.75   58.39
   4  -2 -10  400.66   42.00
  -4   2  10  501.25   51.09
   3  -2 -10  979.20   75.59
  -3   2  10  980.00   78.99
   2  -2 -10  891.31   73.09
  -2   2  10  998.10   74.29
   1  -2 -10  422.16   42.30
  -1   2  10  410.26   39.20
   0  -2 -10  520.95   49.60
   0   2  10  513.45   43.90
   0   2  10  500.95   41.00
  -1  -2 -10  517.75   51.69
   1   2  10  557.94   42.90
   1   2  10  476.35   42.00
  -2  -2 -10 1193.88   90.09
   2   2  10 1002.00   76.79
  -3  -2 -10  422.66   50.69
   3   2  10  332.27   35.10
  -4  -2 -10  436.06   56.89
   4   2  10  441.86   42.90
   5   2  10  561.34   52.09
  -6  -2 -10  378.06   58.89
   6   2  10  470.45   48.40
  -7  -2 -10  285.37   58.09
   7   2  10  317.97   42.90
   8  -3 -10  275.97   36.30
  -8   3  10  244.38   52.99
   7  -3 -10  303.57   36.70
  -7   3  10  293.97   50.19
   6  -3 -10  204.48   29.50
  -6   3  10  127.39   35.80
   5  -3 -10  190.98   28.10
  -5   3  10  168.88   36.50
   4  -3 -10  872.91   67.79
  -4   3  10  797.62   72.29
   3  -3 -10 1475.85  105.69
  -3   3  10 1435.06  107.49
   2  -3 -10  808.72   66.59
  -2   3  10  883.71   68.69
   1  -3 -10  276.57   36.70
  -1   3  10  351.46   33.20
  -1   3  10  298.17   29.50
   0  -3 -10 1117.19   88.19
   0   3  10 1031.60   78.99
   0   3  10 1214.28   80.69
  -1  -3 -10  859.51   76.29
   1   3  10  798.72   65.79
   1   3  10 1025.20   66.09
  -2  -3 -10  186.78   35.30
   2   3  10  240.48   28.60
  -3  -3 -10  381.66   52.19
   3   3  10  402.06   39.00
  -4  -3 -10  431.16   59.09
   4   3  10  477.45   45.40
  -5  -3 -10  312.67   57.39
   5   3  10  402.66   42.90
  -6  -3 -10  148.99   42.10
   6   3  10  255.57   37.50
  -7  -3 -10  268.57   56.79
   7   3  10  305.27   42.40
   8  -4 -10  363.76   40.70
  -8   4  10  445.66   67.09
   7  -4 -10  248.58   32.90
  -7   4  10  194.48   44.10
   6  -4 -10  291.67   37.10
  -6   4  10  306.37   50.19
   5  -4 -10  301.67   37.40
  -5   4  10  353.36   47.60
   4  -4 -10  479.75   44.60
  -4   4  10  374.26   48.10
   3  -4 -10  702.33   58.99
  -3   4  10  656.03   58.99
   2  -4 -10  416.56   44.30
  -2   4  10  434.26   41.40
   1  -4 -10  693.93   61.89
  -1   4  10  642.14   53.39
  -1   4  10  737.13   55.59
   0  -4 -10  654.73   60.39
   0   4  10  558.64   50.19
   0   4  10  662.33   49.10
  -1  -4 -10  641.14   61.79
   1   4  10  590.14   51.29
  -2  -4 -10  646.94   65.99
   2   4  10  626.84   54.19
  -3  -4 -10  445.16   57.99
   3   4  10  381.86   40.20
  -4  -4 -10  533.85   66.69
   4   4  10  449.06   46.40
  -5  -4 -10  280.47   57.19
   5   4  10  355.26   42.90
  -6  -4 -10  344.87   60.89
   6   4  10  293.77   41.90
   7  -5 -10  423.56   43.60
  -7   5  10  402.46   61.89
   6  -5 -10  558.84   50.59
  -6   5  10  506.55   63.79
   5  -5 -10  244.58   33.80
  -5   5  10  327.77   46.30
   4  -5 -10  734.73   62.69
  -4   5  10  753.32   66.39
   3  -5 -10  488.55   47.40
  -3   5  10  463.45   46.30
   2  -5 -10  313.07   39.70
  -2   5  10  303.37   33.20
   1  -5 -10  727.93   64.49
  -1   5  10  662.23   56.89
  -1   5  10  749.92   56.09
   0  -5 -10  871.01   74.69
   0   5  10  895.21   69.49
  -1  -5 -10  552.44   57.79
   1   5  10  591.44   50.49
  -2  -5 -10  353.36   50.49
   2   5  10  391.06   39.80
  -3  -5 -10  566.74   65.69
   3   5  10  480.65   48.20
  -4  -5 -10  261.47   49.10
   4   5  10  198.88   32.10
  -5  -5 -10   22.80   36.90
   5   5  10  104.39   28.30
   7  -6 -10   95.19   23.00
  -7   6  10   60.09   35.90
   6  -6 -10  241.78   35.60
  -6   6  10  271.27   46.20
   5  -6 -10  472.65   49.00
  -5   6  10  469.85   56.39
   4  -6 -10  441.96   45.60
  -4   6  10  444.76   49.50
   3  -6 -10  379.66   42.80
  -3   6  10  382.06   40.20
   2  -6 -10  298.17   41.10
  -2   6  10  388.16   36.10
   1  -6 -10  523.05   55.69
  -1   6  10  592.94   51.69
   0  -6 -10  374.96   49.20
   0   6  10  411.66   43.00
  -1  -6 -10  390.56   54.49
   1   6  10  520.75   48.60
  -2  -6 -10  447.66   60.19
   2   6  10  417.76   44.30
  -3  -6 -10  422.06   63.39
   3   6  10  468.05   49.20
  -4  -6 -10  255.67   51.99
   4   6  10  156.68   30.70
  -5  -6 -10  167.88   52.59
   5   6  10  229.18   39.10
   6  -7 -10  279.47   36.90
  -6   7  10  380.76   52.79
   5  -7 -10  461.75   45.40
  -5   7  10  359.16   49.70
   4  -7 -10  385.06   44.80
  -4   7  10  512.85   48.90
   3  -7 -10  230.08   34.20
  -3   7  10  229.08   31.90
   2  -7 -10  202.18   33.80
   1  -7 -10  490.15   53.59
  -1   7  10  456.05   48.20
   0  -7 -10  382.66   53.29
   0   7  10  467.05   48.20
  -1  -7 -10  334.17   52.69
   1   7  10  447.96   45.70
  -2  -7 -10  758.22   79.69
   2   7  10  650.63   61.49
  -3  -7 -10  414.36   67.49
   3   7  10  359.76   45.40
  -4  -7 -10  288.87   60.29
   4   7  10  246.98   38.20
   5  -8 -10  306.87   39.30
  -5   8  10  365.06   46.60
   4  -8 -10  251.07   35.40
  -4   8  10  319.67   53.29
   3  -8 -10  260.77   37.00
   2  -8 -10  639.44   61.39
   1  -8 -10  194.98   35.70
  -1   8  10  164.08   33.20
   0  -8 -10  184.48   39.50
   0   8  10  226.78   35.20
  -1  -8 -10  289.97   48.20
   1   8  10  235.98   38.30
  -2  -8 -10  426.66   66.09
   2   8  10  555.74   55.19
   3  -9 -10  363.76   46.50
   2  -9 -10  301.57   43.10
   1  -9 -10  202.38   38.90
  -1   9  10  393.16   46.90
   0  -9 -10  353.06   50.59
   0   9  10  289.77   42.20
  -1 -10  11  202.88   45.80
   0 -10  11  124.49   35.20
   1 -10  11  244.18   48.20
   2 -10  11  147.69   40.60
  -3  10 -11  178.58   38.60
   3 -10  11  108.09   33.90
   3   9 -11   85.19   25.10
  -3  -9  11   81.19   31.90
  -2  -9  11  300.47   49.40
  -1  -9  11  134.09   34.70
   0  -9  11  197.78   42.10
   1  -9  11  234.68   43.70
  -2   9 -11  330.77   52.59
   2  -9  11  300.17   49.50
  -3   9 -11  271.47   45.50
   3  -9  11  191.38   40.80
  -4   9 -11  147.59   39.00
   4  -9  11  130.19   33.60
   5  -9  11  213.58   40.40
   4   8 -11   86.09   28.00
  -4  -8  11  129.29   33.30
   3   8 -11  144.39   29.60
  -3  -8  11  189.78   39.90
   2   8 -11  246.08   33.90
  -2  -8  11  278.87   44.00
  -1  -8  11  243.78   42.80
   0  -8  11  262.47   42.40
   1  -8  11  330.17   48.40
  -2   8 -11  352.16   46.50
   2  -8  11  247.28   40.50
  -3   8 -11  290.37   43.70
   3  -8  11  142.99   35.50
  -4   8 -11  176.88   39.90
   4  -8  11  207.38   36.80
  -5   8 -11  277.47   51.89
   5  -8  11  259.97   40.70
  -6   8 -11  322.87   60.59
   6  -8  11  173.38   34.50
   5   7 -11  185.18   38.00
  -5  -7  11  160.68   34.40
   4   7 -11  194.28   35.30
  -4  -7  11  154.38   36.70
   3   7 -11  329.27   41.90
  -3  -7  11  285.07   44.30
   2   7 -11  153.78   28.00
  -2  -7  11  199.18   37.40
   1   7 -11   78.89   21.40
  -1  -7  11  124.69   28.80
   0   7 -11  227.88   44.30
   0  -7  11  243.58   40.00
   1  -7  11  538.05   54.49
  -2   7 -11  642.34   59.19
   2  -7  11  513.75   57.79
  -3   7 -11  274.07   42.80
   3  -7  11  192.68   36.50
  -4   7 -11  319.37   49.00
   4  -7  11  289.07   42.20
  -5   7 -11  343.77   55.79
   5  -7  11  334.17   44.20
  -6   7 -11  433.36   60.89
   6  -7  11  254.77   40.30
   6   6 -11  109.29   31.70
  -6  -6  11   72.59   33.60
   5   6 -11  220.08   38.40
  -5  -6  11  261.87   43.70
   4   6 -11  328.27   43.90
  -4  -6  11  307.57   46.40
   3   6 -11  373.96   43.30
  -3  -6  11  376.26   50.79
   2   6 -11  322.97   37.90
  -2  -6  11  348.77   44.60
   1   6 -11  206.58   30.50
  -1  -6  11  169.38   32.70
   0   6 -11  672.03   55.79
   0  -6  11  611.34   60.69
  -1   6 -11  179.68   38.90
  -1   6 -11  149.29   24.80
   1  -6  11  154.48   29.20
  -2   6 -11  237.18   33.40
   2  -6  11  136.69   29.40
  -3   6 -11  392.36   47.70
   3  -6  11  337.67   43.30
  -4   6 -11  458.95   57.29
   4  -6  11  411.96   49.50
  -5   6 -11  317.17   50.99
   5  -6  11  261.67   38.90
  -6   6 -11  248.48   48.60
   6  -6  11  184.58   33.50
  -7   6 -11  399.96   70.39
   7  -6  11  464.95   52.09
   6   5 -11  406.36   54.99
  -6  -5  11  356.16   55.99
   5   5 -11  320.17   46.70
  -5  -5  11  347.67   51.79
   4   5 -11  396.96   49.99
  -4  -5  11  408.86   52.69
   3   5 -11  270.37   38.50
  -3  -5  11  284.17   40.90
   2   5 -11  339.27   37.60
  -2  -5  11  283.57   40.40
   1   5 -11  555.74   49.00
  -1  -5  11  499.35   52.59
   0   5 -11  314.07   33.90
   0  -5  11  320.17   39.10
  -1   5 -11  538.05   45.10
  -1   5 -11  523.45   45.90
   1  -5  11  471.75   48.70
  -2   5 -11  337.17   38.60
  -2   5 -11  300.57   34.30
   2  -5  11  310.27   39.10
  -3   5 -11  381.06   42.50
   3  -5  11  378.26   41.50
  -4   5 -11  422.36   53.19
   4  -5  11  473.65   46.90
  -5   5 -11  467.55   59.19
   5  -5  11  519.65   50.09
  -6   5 -11  421.96   60.29
   6  -5  11  391.06   44.50
  -7   5 -11  209.08   47.00
   7  -5  11  272.77   38.00
   7   4 -11  253.17   43.60
  -7  -4  11  211.48   43.40
   6   4 -11  203.98   39.30
  -6  -4  11  148.89   38.10
   5   4 -11  225.08   37.90
  -5  -4  11  195.28   36.90
   4   4 -11  319.47   42.50
  -4  -4  11  328.77   47.10
   3   4 -11  499.45   49.60
  -3  -4  11  491.45   51.79
   2   4 -11  252.37   33.50
  -2  -4  11  233.48   35.70
   1   4 -11  461.45   43.00
  -1  -4  11  416.86   42.80
   0   4 -11  389.96   36.40
   0  -4  11  267.37   35.80
  -1   4 -11  221.18   29.40
  -1   4 -11  253.67   26.50
   1  -4  11  211.78   30.70
  -2   4 -11  270.67   32.70
  -2   4 -11  320.97   34.00
   2  -4  11  367.56   36.50
  -3   4 -11  373.16   40.70
  -3   4 -11  409.76   40.20
   3  -4  11  436.06   41.60
  -4   4 -11  371.06   46.40
   4  -4  11  377.56   39.40
  -5   4 -11  289.47   43.80
   5  -4  11  318.77   39.40
  -6   4 -11  475.65   64.49
   6  -4  11  656.83   56.89
  -7   4 -11  197.88   49.10
   7   3 -11  226.28   40.20
  -7  -3  11  232.78   48.30
   6   3 -11  518.85   55.69
  -6  -3  11  500.75   63.89
   5   3 -11  334.37   44.30
  -5  -3  11  312.57   48.40
   4   3 -11  184.28   31.20
  -4  -3  11  168.78   32.80
   3   3 -11  859.71   70.09
  -3  -3  11  817.82   72.39
   2   3 -11  815.72   66.99
  -2  -3  11  886.31   71.49
   1   3 -11  692.83   56.89
  -1  -3  11  649.83   57.49
   0   3 -11  489.75   45.90
   0  -3  11  526.25   46.60
  -1   3 -11  463.55   38.90
  -1   3 -11  441.96   43.50
   1  -3  11  518.35   44.20
  -2   3 -11  357.66   37.40
  -2   3 -11  412.96   41.00
   2  -3  11  476.35   40.00
  -3   3 -11  163.28   26.90
  -3   3 -11  172.78   28.50
   3  -3  11  193.78   25.70
  -4   3 -11  466.35   50.89
  -4   3 -11  511.35   49.10
   4  -3  11  528.15   46.50
  -5   3 -11  399.96   52.39
   5  -3  11  509.75   45.50
  -6   3 -11  365.26   50.59
  -7   3 -11  279.17   48.30
   7   2 -11  350.76   47.30
  -7  -2  11  312.67   55.69
   6   2 -11  289.37   42.60
  -6  -2  11  346.97   50.29
   5   2 -11  331.47   42.30
  -5  -2  11  290.07   46.40
   4   2 -11  499.45   48.20
  -4  -2  11  395.46   50.79
   3   2 -11  170.58   28.60
  -3  -2  11  163.48   31.30
   2   2 -11  226.88   31.50
  -2  -2  11  237.38   33.80
   1   2 -11  703.03   56.49
  -1  -2  11  605.64   54.89
   0   2 -11  339.37   38.10
   0  -2  11  332.17   34.90
  -1   2 -11  544.05   47.70
   1  -2  11  464.45   42.70
  -2   2 -11  538.25   49.30
  -2   2 -11  523.75   44.70
   2  -2  11  510.55   44.70
  -3   2 -11  570.74   52.39
  -3   2 -11  485.05   48.20
   3  -2  11  579.64   45.60
  -4   2 -11  261.67   38.30
  -4   2 -11  272.47   38.10
   4  -2  11  320.07   31.70
  -5   2 -11  191.78   33.40
  -5   2 -11  248.28   40.10
   5  -2  11  243.38   28.80
  -6   2 -11  329.67   48.80
   7  -2  11  139.89   33.90
   7   1 -11  524.95   56.89
  -7  -1  11  642.24   74.69
   6   1 -11  455.25   49.99
  -6  -1  11  479.15   63.09
   5   1 -11  220.58   34.10
  -5  -1  11  204.88   36.30
   4   1 -11  496.55   48.20
  -4  -1  11  481.55   53.29
   3   1 -11 1185.18   87.29
  -3  -1  11 1082.19   89.79
   2   1 -11  700.03   58.39
  -2  -1  11  667.93   59.49
   1   1 -11  217.88   30.30
  -1  -1  11  172.08   27.00
   0   1 -11  677.23   57.69
   0  -1  11  721.73   56.59
  -1   1 -11  745.83   60.69
   1  -1  11  664.23   51.79
   1  -1  11  690.43   54.39
  -2   1 -11  501.05   49.70
   2  -1  11  492.55   42.20
   2  -1  11  523.55   42.20
  -3   1 -11  369.06   41.20
   3  -1  11  335.07   31.60
   3  -1  11  299.57   34.00
  -4   1 -11  302.07   43.10
   4  -1  11  410.96   34.70
   4  -1  11  376.96   38.60
  -5   1 -11  439.56   51.09
   5  -1  11  441.36   46.00
   6  -1  11  281.77   40.10
   7  -1  11  216.78   39.60
   7   0 -11  352.16   45.40
  -7   0  11  391.06   58.49
   6   0 -11  179.68   31.60
  -6   0  11  191.78   42.50
   5   0 -11  276.87   37.00
  -5   0  11  245.68   42.00
   4   0 -11  980.40   77.49
  -4   0  11 1026.00   85.39
   3   0 -11  310.37   36.50
  -3   0  11  325.57   42.50
   2   0 -11  384.06   39.00
  -2   0  11  315.37   39.70
   1   0 -11  277.07   35.80
  -1   0  11  307.87   34.00
   0   0 -11  518.15   47.60
   0   0  11  438.56   41.90
  -1   0 -11  668.23   58.59
   1   0  11  677.23   51.79
   1   0  11  588.14   48.20
  -2   0 -11  464.05   47.40
   2   0  11  393.26   37.20
   2   0  11  426.16   37.30
  -3   0 -11  588.74   56.39
   3   0  11  554.54   43.80
   3   0  11  520.15   46.20
  -4   0 -11  264.27   41.20
   4   0  11  288.37   34.70
  -5   0 -11  263.27   43.60
   5   0  11  370.36   41.80
  -6   0 -11  156.48   36.80
   6   0  11  219.18   35.80
   7   0  11  253.77   39.80
   7  -1 -11  318.27   40.40
  -7   1  11  307.27   56.89
   6  -1 -11  254.67   35.90
  -6   1  11  238.18   45.40
   5  -1 -11  606.64   55.49
  -5   1  11  614.74   64.99
   4  -1 -11  988.10   77.69
  -4   1  11  975.80   84.19
   3  -1 -11  545.25   50.99
  -3   1  11  569.04   54.99
   2  -1 -11  221.08   31.40
  -2   1  11  286.07   36.20
   1  -1 -11  481.95   47.40
  -1   1  11  498.55   45.70
   0  -1 -11  519.15   52.69
   0   1  11  586.44   47.90
  -1  -1 -11  657.13   57.79
   1   1  11  607.44   47.50
   1   1  11  513.45   44.70
  -2  -1 -11  397.56   48.40
   2   1  11  411.16   37.50
   2   1  11  465.55   38.00
  -3  -1 -11  820.42   73.09
   3   1  11  773.02   61.59
  -4  -1 -11  362.36   49.60
   4   1  11  363.96   38.40
  -5  -1 -11  305.97   49.00
   5   1  11  378.46   41.20
  -6  -1 -11  186.38   43.50
   6   1  11  336.17   42.40
  -7  -1 -11  204.98   47.50
   7   1  11  256.37   41.90
   7  -2 -11  112.29   25.40
  -7   2  11   94.89   37.10
   6  -2 -11  124.89   26.00
  -6   2  11  140.19   37.30
   5  -2 -11  846.72   68.59
  -5   2  11  873.41   80.89
   4  -2 -11  545.15   52.09
  -4   2  11  585.84   58.89
   3  -2 -11  612.74   55.79
  -3   2  11  655.63   59.49
   2  -2 -11  404.86   42.90
  -2   2  11  399.76   42.90
   1  -2 -11  508.95   52.69
  -1   2  11  638.24   52.79
   0  -2 -11  413.86   48.80
   0   2  11  564.34   45.90
  -1  -2 -11  197.58   35.20
   1   2  11  169.88   23.30
   1   2  11  233.58   26.80
  -2  -2 -11  339.47   47.70
   2   2  11  361.36   35.40
  -3  -2 -11  212.58   40.40
   3   2  11  195.78   27.00
  -4  -2 -11  374.36   51.69
   4   2  11  359.56   38.80
  -5  -2 -11  249.88   48.80
   5   2  11  307.37   38.00
  -6  -2 -11  300.27   54.99
   6   2  11  334.77   44.20
   7  -3 -11  353.86   40.60
  -7   3  11  343.47   59.19
   6  -3 -11  244.18   34.80
  -6   3  11  396.76   55.59
   5  -3 -11  543.95   52.19
  -5   3  11  589.74   62.79
   4  -3 -11  551.74   53.19
  -4   3  11  620.54   60.39
   3  -3 -11  243.98   34.40
  -3   3  11  285.57   38.30
   2  -3 -11  509.05   50.79
  -2   3  11  539.85   51.59
   1  -3 -11  448.76   50.49
  -1   3  11  573.84   48.50
   0  -3 -11  743.53   67.19
   0   3  11  817.52   59.49
   0   3  11  664.53   56.69
  -1  -3 -11  696.73   65.39
   1   3  11  627.54   52.59
  -2  -3 -11  626.64   64.69
   2   3  11  562.74   49.99
  -3  -3 -11  298.07   47.20
   3   3  11  240.88   31.20
  -4  -3 -11  312.27   50.79
   4   3  11  303.37   36.50
  -5  -3 -11  416.56   63.59
   5   3  11  440.16   46.50
  -6  -3 -11  150.88   43.80
   6   3  11  230.88   35.70
   7  -4 -11   88.49   24.30
  -7   4  11  135.59   41.90
   6  -4 -11  249.18   34.20
  -6   4  11  186.48   40.90
   5  -4 -11  581.94   52.09
  -5   4  11  450.65   60.19
   4  -4 -11  334.47   39.40
  -4   4  11  300.17   42.70
   3  -4 -11  327.27   36.80
  -3   4  11  324.77   43.20
   2  -4 -11  449.66   48.20
  -2   4  11  456.05   44.90
   1  -4 -11  683.43   66.69
  -1   4  11  826.62   62.19
   0  -4 -11  498.15   54.39
   0   4  11  490.35   44.10
  -1  -4 -11  234.48   40.70
   1   4  11  199.08   28.60
  -2  -4 -11  292.97   47.10
   2   4  11  197.08   28.40
  -3  -4 -11  249.38   46.40
   3   4  11  250.07   32.70
  -4  -4 -11  242.38   47.90
   4   4  11  267.37   35.20
  -5  -4 -11  289.67   55.79
   5   4  11  260.87   36.90
   6  -5 -11  609.04   59.59
  -6   5  11  728.93   73.59
   5  -5 -11  549.45   53.19
  -5   5  11  593.94   64.89
   4  -5 -11  273.87   37.80
  -4   5  11  341.67   45.20
   3  -5 -11  237.88   37.00
  -3   5  11  302.47   39.10
   2  -5 -11  434.66   50.69
  -2   5  11  561.54   49.20
   1  -5 -11  606.14   60.29
   0  -5 -11  541.15   60.59
   0   5  11  590.54   51.49
  -1  -5 -11  570.34   63.49
   1   5  11  529.05   48.80
  -2  -5 -11  363.56   55.69
   2   5  11  357.06   40.80
  -3  -5 -11  186.48   44.90
   3   5  11  190.08   29.40
  -4  -5 -11  342.47   58.99
   4   5  11  358.26   42.60
  -5  -5 -11  117.29   46.90
   5   5  11  208.18   32.50
   6  -6 -11  412.56   45.80
  -6   6  11  441.56   60.79
   5  -6 -11  240.18   34.90
  -5   6  11  250.27   41.50
   4  -6 -11  263.37   37.10
  -4   6  11  247.38   37.90
   3  -6 -11  199.98   34.20
  -3   6  11  304.77   37.20
   2  -6 -11  351.36   45.30
   1  -6 -11  252.07   41.70
   0  -6 -11  350.16   49.90
   0   6  11  314.27   38.20
  -1  -6 -11  529.45   59.19
   1   6  11  527.15   50.59
  -2  -6 -11  289.37   52.49
   2   6  11  257.27   35.30
  -3  -6 -11  271.47   55.99
   3   6  11  193.78   31.40
   4   6  11  257.17   36.70
   5  -7 -11  416.46   46.40
  -5   7  11  412.76   55.49
   4  -7 -11  253.07   38.30
  -4   7  11  322.37   42.60
   3  -7 -11  443.46   49.60
   2  -7 -11  317.77   44.20
   1  -7 -11  530.95   58.49
   0  -7 -11  209.28   40.90
   0   7  11  246.68   35.70
  -1  -7 -11  186.08   41.80
   1   7  11  219.98   34.40
  -2  -7 -11  209.38   47.10
   2   7  11  215.58   34.30
   3  -8 -11  182.18   33.70
   2  -8 -11  403.06   50.79
   1  -8 -11  233.78   41.60
   0  -8 -11  313.97   50.89
   0   8  11  354.46   44.80
  -1  -8 -11  274.87   50.59
  -2  -9  12  230.38   50.09
  -1  -9  12  429.36   62.49
   0  -9  12  220.18   42.20
   1  -9  12  286.37   50.99
   2  -9  12  233.38   43.40
   3  -9  12  246.48   45.80
   3   8 -12   81.19   22.60
  -3  -8  12  142.09   39.70
   2   8 -12  178.68   30.70
  -2  -8  12  159.98   38.30
  -1  -8  12  237.88   41.80
   0  -8  12  289.67   47.90
   1  -8  12  231.68   40.20
   2  -8  12  282.77   47.10
  -3   8 -12  473.85   59.49
   3  -8  12  341.57   50.39
  -4   8 -12  181.18   41.90
   4  -8  12  121.29   34.50
  -5   8 -12  316.77   55.19
   5  -8  12  222.08   41.20
   4   7 -12  169.18   35.20
  -4  -7  12  236.28   44.30
   3   7 -12  201.48   34.00
  -3  -7  12  256.97   43.00
   2   7 -12  278.57   37.50
  -2  -7  12  305.57   45.50
   1   7 -12  328.57   37.90
  -1  -7  12  348.77   49.00
   0  -7  12  224.48   37.50
   1  -7  12  361.96   48.10
   2  -7  12  334.57   47.50
  -3   7 -12  267.77   44.30
   3  -7  12  239.58   40.00
  -4   7 -12  307.97   49.20
   4  -7  12  319.57   44.40
  -5   7 -12  495.85   66.89
   5  -7  12  427.76   52.69
   5   6 -12  323.17   46.60
  -5  -6  12  277.97   46.80
   4   6 -12  371.06   48.40
  -4  -6  12  405.96   54.09
   3   6 -12  211.58   33.80
  -3  -6  12  182.08   38.40
   2   6 -12  215.18   32.00
  -2  -6  12  203.88   37.40
   1   6 -12  163.28   27.90
  -1  -6  12  173.18   35.20
   0   6 -12  481.05   45.70
   0  -6  12  487.45   53.09
   1  -6  12  235.58   37.70
   2  -6  12  407.36   49.20
  -3   6 -12  370.46   47.00
   3  -6  12  359.46   46.50
  -4   6 -12  469.15   58.39
   4  -6  12  485.65   51.89
  -5   6 -12  513.75   65.09
   5  -6  12  471.85   55.19
  -6   6 -12  133.19   38.60
   6  -6  12   64.19   27.60
   5   5 -12  175.98   37.40
  -5  -5  12  194.88   40.50
   4   5 -12  357.56   46.90
  -4  -5  12  331.57   51.69
   3   5 -12  305.77   41.00
  -3  -5  12  262.17   41.20
   2   5 -12  379.36   42.10
  -2  -5  12  360.66   48.10
   1   5 -12  434.86   44.60
  -1  -5  12  493.65   51.19
   0   5 -12  537.35   48.90
   0  -5  12  522.35   52.79
  -1   5 -12  178.18   27.70
   1  -5  12  161.88   30.50
  -2   5 -12  275.47   37.60
   2  -5  12  308.27   39.10
  -3   5 -12  421.56   48.10
   3  -5  12  472.15   47.60
  -4   5 -12  620.74   58.49
   4  -5  12  492.75   52.49
  -5   5 -12  602.34   64.39
   5  -5  12  571.94   55.99
  -6   5 -12  183.98   44.10
   6  -5  12  152.08   31.40
   6   4 -12  351.86   48.30
  -6  -4  12  311.57   54.09
   5   4 -12  430.76   53.29
  -5  -4  12  424.76   58.39
   4   4 -12  248.58   37.90
  -4  -4  12  218.28   39.20
   3   4 -12  278.67   37.90
  -3  -4  12  225.38   39.20
   2   4 -12  464.25   48.50
  -2  -4  12  586.04   55.59
   1   4 -12  498.75   48.30
  -1  -4  12  534.35   51.99
   0   4 -12  179.08   28.40
   0  -4  12  198.78   31.30
  -1   4 -12  392.66   40.80
   1  -4  12  395.56   42.00
  -2   4 -12  376.76   36.80
  -2   4 -12  328.87   37.00
   2  -4  12  306.47   38.70
  -3   4 -12  410.66   43.10
   3  -4  12  434.36   43.40
  -4   4 -12  432.26   50.29
   4  -4  12  405.66   43.20
  -5   4 -12  285.17   44.80
   5  -4  12  319.77   40.20
  -6   4 -12  265.37   45.80
   6  -4  12  252.27   37.90
   6   3 -12  182.68   35.90
  -6  -3  12   81.29   30.80
   5   3 -12  267.87   41.20
  -5  -3  12  282.97   48.70
   4   3 -12  180.98   32.20
  -4  -3  12  144.79   31.90
   3   3 -12  341.77   44.00
  -3  -3  12  365.66   48.50
   2   3 -12  392.46   40.60
  -2  -3  12  403.86   45.40
   1   3 -12  605.44   54.69
  -1  -3  12  627.04   56.49
   0   3 -12  454.75   44.40
   0  -3  12  428.56   44.10
   1  -3  12  341.17   38.20
  -2   3 -12  569.04   49.90
  -2   3 -12  630.34   56.19
   2  -3  12  600.24   51.49
  -3   3 -12  367.06   41.40
  -3   3 -12  478.35   45.20
   3  -3  12  486.95   44.10
  -4   3 -12  555.54   56.69
   4  -3  12  615.34   52.79
  -5   3 -12  284.07   44.10
   5  -3  12  239.28   32.10
  -6   3 -12  205.38   41.80
   7   2 -12  205.58   39.10
  -7  -2  12  203.08   49.60
   6   2 -12  492.75   55.49
  -6  -2  12  487.05   65.39
   5   2 -12  266.67   40.40
  -5  -2  12  259.27   43.60
   4   2 -12  234.88   36.90
  -4  -2  12  240.98   40.90
   3   2 -12  384.96   43.40
  -3  -2  12  394.86   48.90
   2   2 -12  420.86   45.10
  -2  -2  12  463.05   47.60
   1   2 -12  412.26   44.10
  -1  -2  12  479.45   45.80
   0   2 -12  292.97   37.40
   0  -2  12  271.17   33.60
  -1   2 -12  552.84   52.69
   1  -2  12  587.64   50.69
  -2   2 -12  421.36   44.10
   2  -2  12  364.76   36.10
   2  -2  12  426.16   39.70
  -3   2 -12  357.56   42.70
   3  -2  12  335.37   34.10
  -4   2 -12  367.56   46.20
   4  -2  12  403.26   38.50
   5  -2  12  235.78   34.50
   6  -2  12  454.85   53.09
   7   1 -12  255.57   40.80
  -7  -1  12  275.47   49.80
   6   1 -12  251.17   39.70
  -6  -1  12  257.67   49.00
   5   1 -12  442.86   48.00
  -5  -1  12  353.36   53.69
   4   1 -12  301.67   41.00
  -4  -1  12  404.36   51.89
   3   1 -12  316.87   41.60
  -3  -1  12  406.56   47.70
   2   1 -12  398.26   41.90
  -2  -1  12  332.57   42.70
   1   1 -12  255.57   35.60
  -1  -1  12  259.67   34.40
   0   1 -12  373.56   41.90
   0  -1  12  389.36   38.90
  -1   1 -12  741.73   64.99
   1  -1  12  740.63   59.59
  -2   1 -12  724.63   63.19
   2  -1  12  647.64   53.39
   2  -1  12  699.13   55.09
  -3   1 -12  582.24   57.49
   3  -1  12  542.15   45.60
   3  -1  12  511.05   46.10
  -4   1 -12  309.87   43.90
   4  -1  12  391.56   39.00
  -5   1 -12   97.99   26.50
   5  -1  12  115.19   26.20
   6  -1  12  313.27   43.60
   7   0 -12  263.17   38.90
  -7   0  12  278.97   55.69
   6   0 -12  320.77   42.80
  -6   0  12  299.17   50.39
   5   0 -12  209.38   34.70
  -5   0  12  247.38   44.80
   4   0 -12  421.76   46.00
  -4   0  12  421.86   53.69
   3   0 -12  395.46   43.90
  -3   0  12  416.56   49.50
   2   0 -12  449.36   46.30
  -2   0  12  448.06   47.20
   1   0 -12  284.67   38.00
  -1   0  12  308.47   37.00
   0   0 -12  555.84   53.29
   0   0  12  531.95   48.10
  -1   0 -12  549.65   55.29
   1   0  12  565.24   48.30
  -2   0 -12  411.96   49.50
   2   0  12  456.85   40.00
   2   0  12  468.95   39.80
  -3   0 -12  432.86   49.60
   3   0  12  384.26   39.40
  -4   0 -12  363.26   50.59
   4   0  12  392.66   40.20
  -5   0 -12  382.86   54.09
   5   0  12  446.76   46.00
  -6   0 -12  274.07   45.60
   6   0  12  275.07   41.90
   7  -1 -12  148.19   31.10
  -7   1  12  151.88   44.20
   6  -1 -12  259.97   37.10
  -6   1  12  287.57   47.80
   5  -1 -12  489.55   50.39
  -5   1  12  480.65   62.69
   4  -1 -12  854.01   69.29
  -4   1  12  737.93   73.59
   3  -1 -12  188.58   31.10
  -3   1  12  197.78   35.60
   2  -1 -12  258.07   36.40
  -2   1  12  276.67   37.40
   1  -1 -12  297.17   39.30
  -1   1  12  351.46   38.30
   0  -1 -12  511.05   53.39
   0   1  12  559.34   48.20
  -1  -1 -12  485.05   51.19
   1   1  12  422.16   41.50
  -2  -1 -12  134.79   29.40
   2   1  12   85.39   16.80
  -3  -1 -12  745.73   70.59
   3   1  12  683.03   57.79
  -4  -1 -12  284.57   45.20
   4   1  12  235.88   31.90
  -5  -1 -12  257.97   44.60
   5   1  12  234.58   33.90
  -6  -1 -12  280.67   49.70
   6   1  12  432.66   49.00
   7  -2 -12  170.98   30.50
  -7   2  12  195.48   48.10
   6  -2 -12  285.77   39.40
  -6   2  12  349.07   55.79
   5  -2 -12  426.86   43.80
  -5   2  12  456.45   58.69
   4  -2 -12  177.58   30.60
  -4   2  12  185.78   37.30
   3  -2 -12  469.45   49.60
  -3   2  12  513.25   53.19
   2  -2 -12  563.94   54.59
  -2   2  12  685.43   58.59
   1  -2 -12  592.04   57.59
  -1   2  12  608.64   54.29
   0  -2 -12  332.97   45.50
   0   2  12  401.76   38.80
  -1  -2 -12  400.86   51.59
  -2  -2 -12  580.84   60.79
   2   2  12  476.55   43.50
  -3  -2 -12  416.56   56.79
   3   2  12  388.06   40.40
  -4  -2 -12  311.27   48.80
   4   2  12  305.57   37.70
  -5  -2 -12  253.57   50.39
   5   2  12  305.07   38.70
   6  -3 -12  369.36   43.70
  -6   3  12  412.26   57.99
   5  -3 -12  271.57   37.10
  -5   3  12  299.67   49.20
   4  -3 -12  173.18   29.00
  -4   3  12  188.18   35.80
   3  -3 -12  287.37   39.50
  -3   3  12  308.67   44.60
   2  -3 -12  383.06   46.20
  -2   3  12  429.06   45.50
   1  -3 -12  478.25   53.89
  -1   3  12  575.34   50.19
   0  -3 -12  366.76   48.00
  -1  -3 -12  131.99   34.10
   1   3  12  116.29   23.10
  -2  -3 -12  295.27   48.30
   2   3  12  259.37   32.60
  -3  -3 -12  291.47   51.49
   3   3  12  289.17   34.80
  -4  -3 -12  301.27   50.39
   4   3  12  209.88   31.70
  -5  -3 -12  256.37   56.39
   5   3  12  338.37   42.20
   6  -4 -12  458.95   48.10
  -6   4  12  426.36   62.79
   5  -4 -12  317.47   40.70
  -5   4  12  264.07   46.10
   4  -4 -12  178.58   30.60
  -4   4  12  162.78   34.60
   3  -4 -12  429.66   49.40
  -3   4  12  536.35   54.79
   2  -4 -12  542.25   57.29
  -2   4  12  632.74   55.89
   1  -4 -12  229.68   38.80
  -1   4  12  315.87   42.50
   0  -4 -12  475.75   55.69
  -1  -4 -12  442.36   57.39
   1   4  12  447.76   42.70
  -2  -4 -12  421.66   58.69
   2   4  12  360.86   38.80
  -3  -4 -12  202.98   47.80
   3   4  12  246.08   33.50
  -4  -4 -12  200.38   47.70
   4   4  12  191.58   31.10
   5  -5 -12   72.19   23.30
  -5   5  12  121.39   32.80
   4  -5 -12  161.98   32.20
  -4   5  12  175.48   37.30
   3  -5 -12  298.67   42.00
  -3   5  12  369.36   45.40
   2  -5 -12  278.47   41.40
   1  -5 -12  402.36   51.79
   0  -5 -12  228.88   41.50
  -1  -5 -12  254.67   45.80
   1   5  12  207.48   30.90
  -2  -5 -12  390.36   58.79
   2   5  12  381.76   41.40
  -3  -5 -12  170.38   47.00
   3   5  12  176.68   30.40
  -4  -5 -12  170.38   49.30
   4   5  12  169.88   29.80
   5  -6 -12  122.39   30.30
  -5   6  12  218.78   43.00
   4  -6 -12  357.06   45.30
  -4   6  12  355.26   49.20
   3  -6 -12  388.46   49.00
   2  -6 -12  279.87   42.90
   1  -6 -12  156.58   35.50
   0  -6 -12  276.27   45.80
  -1  -6 -12  379.26   56.09
   1   6  12  369.86   51.29
  -2  -6 -12  292.97   51.29
   2   6  12  236.08   35.50
   3  -7 -12  257.67   40.90
   2  -7 -12  109.49   30.20
   1  -7 -12  333.27   49.90
   0  -7 -12  224.58   45.60
  -1  -7 -12  231.08   47.90
  -2  -8  13  478.05   66.29
  -1  -8  13  140.09   36.30
   0  -8  13  143.19   36.70
   1  -8  13  295.27   49.20
   2  -8  13  347.57   51.79
   3  -8  13  326.27   50.89
   3   7 -13  389.36   49.70
  -3  -7  13  415.86   61.19
   2   7 -13  209.38   35.40
  -2  -7  13  244.68   42.80
   1   7 -13  154.78   33.90
  -1  -7  13  182.08   39.70
   0  -7  13  167.28   36.30
   1  -7  13  448.16   57.39
   2  -7  13  225.08   39.60
   3  -7  13  241.98   40.40
  -4   7 -13  390.26   56.99
   4  -7  13  225.68   42.10
   4   6 -13  254.07   40.70
  -4  -6  13  374.26   54.89
   3   6 -13  508.95   52.89
  -3  -6  13  478.35   60.19
   2   6 -13  228.68   35.40
  -2  -6  13  281.27   44.80
   1   6 -13  151.58   28.70
  -1  -6  13  201.98   36.40
   0   6 -13  382.56   41.70
   0  -6  13  440.66   52.69
   1  -6  13  425.66   51.99
   2  -6  13  333.67   45.70
   3  -6  13  392.66   48.70
  -4   6 -13  462.85   57.89
   4  -6  13  373.06   49.30
  -5   6 -13  292.67   52.49
   5  -6  13  292.17   43.10
   5   5 -13  236.88   42.50
  -5  -5  13  267.47   47.20
   4   5 -13  396.46   52.39
  -4  -5  13  397.16   56.79
   3   5 -13  346.07   45.80
  -3  -5  13  371.86   51.99
   2   5 -13  300.67   39.80
  -2  -5  13  244.58   41.80
   1   5 -13  156.28   28.90
  -1  -5  13  172.58   33.30
   0   5 -13  521.75   50.99
   0  -5  13  572.24   56.89
  -1   5 -13  186.58   29.40
   1  -5  13  149.19   29.80
   2  -5  13  277.67   39.70
   3  -5  13  492.55   51.49
  -4   5 -13  378.46   50.39
   4  -5  13  440.46   48.30
  -5   5 -13  248.18   46.00
   5  -5  13  217.28   35.00
   5   4 -13  295.47   45.30
  -5  -4  13  346.77   55.29
   4   4 -13  294.87   43.90
  -4  -4  13  357.26   49.70
   3   4 -13  205.98   34.60
  -3  -4  13  169.38   35.20
   2   4 -13  475.95   51.79
  -2  -4  13  526.15   55.39
   1   4 -13  752.42   67.19
  -1  -4  13  893.01   72.99
   0   4 -13  526.35   49.99
   0  -4  13  494.35   51.39
  -1   4 -13  321.77   38.20
   1  -4  13  310.57   39.50
  -2   4 -13  486.15   49.90
   2  -4  13  464.65   47.80
  -3   4 -13  461.85   55.09
   3  -4  13  623.24   55.29
  -4   4 -13  194.38   34.30
   4  -4  13  202.48   32.80
  -5   4 -13  264.97   43.60
   5  -4  13  322.67   41.00
  -6  -3  13  281.67   51.69
   5   3 -13  307.17   47.20
  -5  -3  13  341.77   51.69
   4   3 -13  213.88   36.10
  -4  -3  13  220.98   41.70
   3   3 -13  437.26   47.20
  -3  -3  13  329.47   49.10
   2   3 -13  231.78   35.30
  -2  -3  13  218.68   36.50
   1   3 -13  242.38   35.40
  -1  -3  13  263.37   37.70
   0   3 -13  427.46   44.70
   0  -3  13  392.06   43.70
  -1   3 -13  353.26   40.20
   1  -3  13  310.77   38.60
  -2   3 -13  589.34   57.19
   2  -3  13  567.84   51.69
  -3   3 -13  402.86   42.50
  -3   3 -13  434.76   46.80
   3  -3  13  343.47   39.40
  -4   3 -13  104.89   27.10
   4  -3  13  189.78   27.90
  -5   3 -13  247.58   41.40
   6   2 -13  352.46   48.30
  -6  -2  13  252.27   52.69
   5   2 -13  313.97   45.10
  -5  -2  13  285.97   48.50
   4   2 -13  274.47   41.60
  -4  -2  13  325.07   48.90
   3   2 -13  363.56   45.90
  -3  -2  13  369.26   49.00
   2   2 -13  591.14   53.99
  -2  -2  13  490.15   54.69
   1   2 -13  728.33   62.09
  -1  -2  13  646.44   60.69
   0   2 -13  351.26   41.50
   0  -2  13  353.06   39.60
  -1   2 -13  581.04   56.79
   1  -2  13  629.04   53.39
  -2   2 -13  807.42   72.79
   2  -2  13  895.91   67.59
  -3   2 -13  267.87   38.60
   3  -2  13  257.77   33.40
   3  -2  13  268.27   32.50
  -4   2 -13  207.08   35.40
   4  -2  13  225.78   32.40
   5  -2  13  266.87   38.00
   6  -2  13  492.95   55.89
   6   1 -13  268.97   41.30
  -6  -1  13  239.48   46.50
   5   1 -13  256.67   39.80
  -5  -1  13  240.28   47.40
   4   1 -13  336.77   44.10
  -4  -1  13  339.37   49.50
   3   1 -13  309.17   39.70
  -3  -1  13  228.18   40.50
   2   1 -13  226.88   34.60
  -2  -1  13  252.17   37.80
   1   1 -13  424.46   45.80
  -1  -1  13  417.76   44.70
   0   1 -13  397.66   43.90
   0  -1  13  356.76   39.40
  -1   1 -13  706.83   64.79
   1  -1  13  693.73   57.79
  -2   1 -13  659.03   63.89
   2  -1  13  630.14   53.99
  -3   1 -13  231.98   39.20
   3  -1  13  197.28   28.30
   3  -1  13  225.08   32.50
  -4   1 -13  234.88   41.50
   4  -1  13  211.98   31.40
  -5   1 -13  454.25   58.79
   5  -1  13  467.75   51.29
   6  -1  13  536.15   57.19
   6   0 -13  287.17   43.00
  -6   0  13  291.77   54.19
   5   0 -13  354.86   45.70
  -5   0  13  366.96   54.09
   4   0 -13  452.55   48.80
  -4   0  13  458.45   58.19
   3   0 -13  545.95   54.39
  -3   0  13  580.34   59.69
   2   0 -13  284.97   38.20
  -2   0  13  227.28   36.30
   1   0 -13  195.78   32.80
  -1   0  13  258.27   35.10
   0   0 -13  548.65   53.59
   0   0  13  476.45   47.40
  -1   0 -13  684.03   66.09
   1   0  13  757.52   60.79
  -2   0 -13  557.04   60.29
   2   0  13  627.84   51.59
  -3   0 -13  225.28   38.10
   3   0  13  176.78   25.30
  -4   0 -13  636.74   64.29
   4   0  13  537.35   51.29
  -5   0 -13  422.66   57.39
   5   0  13  518.35   52.19
   6  -1 -13  103.39   29.40
  -6   1  13  150.88   41.80
   5  -1 -13  195.58   33.80
  -5   1  13  185.98   41.60
   4  -1 -13  616.14   59.29
  -4   1  13  637.04   66.99
   3  -1 -13  175.88   31.10
  -3   1  13  239.98   38.30
   2  -1 -13  531.45   51.29
  -2   1  13  563.74   55.59
   1  -1 -13  536.25   53.99
  -1   1  13  534.55   51.79
   0  -1 -13  495.55   53.09
   0   1  13  493.45   47.20
  -1  -1 -13  478.15   55.79
   1   1  13  565.24   49.20
  -2  -1 -13  228.98   41.60
  -3  -1 -13  211.58   41.80
   3   1  13  254.57   31.80
  -4  -1 -13  408.06   58.29
   4   1  13  410.56   44.00
  -5  -1 -13  426.96   62.89
   5   1  13  494.05   49.40
   6  -2 -13  187.68   34.00
  -6   2  13  267.97   51.39
   5  -2 -13  372.96   47.40
  -5   2  13  416.56   59.19
   4  -2 -13  384.66   42.80
  -4   2  13  414.56   54.09
   3  -2 -13  231.48   35.80
  -3   2  13  202.68   37.80
   2  -2 -13  354.16   44.50
  -2   2  13  377.36   46.50
   1  -2 -13  579.84   57.19
  -1   2  13  558.04   53.99
   0  -2 -13  523.35   55.69
   0   2  13  501.15   49.70
  -1  -2 -13  285.67   43.70
  -2  -2 -13  162.48   35.10
  -3  -2 -13  694.43   74.09
   3   2  13  663.93   57.49
  -4  -2 -13  609.94   68.79
   4   2  13  500.55   49.99
  -5  -2 -13  438.66   63.99
   5   2  13  371.76   45.00
   5  -3 -13  261.07   39.40
  -5   3  13  319.97   54.59
   4  -3 -13  154.28   31.40
  -4   3  13  114.99   32.50
   3  -3 -13  371.96   46.60
  -3   3  13  362.76   49.30
   2  -3 -13  612.64   60.79
  -2   3  13  627.14   59.69
   1  -3 -13  451.65   54.09
  -1   3  13  595.14   52.59
   0  -3 -13  324.97   45.70
  -1  -3 -13  305.97   46.70
  -2  -3 -13  244.98   46.40
  -3  -3 -13  184.28   45.70
   3   3  13  220.28   32.00
  -4  -3 -13  431.56   61.79
   4   3  13  392.16   43.40
   5  -4 -13  173.18   32.40
  -5   4  13  162.48   38.00
   4  -4 -13  245.68   38.00
  -4   4  13  208.48   40.10
   3  -4 -13  272.17   41.90
  -3   4  13  383.56   48.10
   2  -4 -13  435.46   54.39
  -2   4  13  508.05   53.69
   1  -4 -13  311.07   45.70
   0  -4 -13  541.95   60.59
  -1  -4 -13  366.86   52.89
  -2  -4 -13  287.47   49.40
  -3  -4 -13  396.16   61.69
   3   4  13  288.67   38.80
   4  -5 -13  113.49   29.20
  -4   5  13  145.69   35.60
   3  -5 -13  338.97   47.50
  -3   5  13  427.66   52.29
   2  -5 -13  199.08   38.60
   1  -5 -13  192.28   39.90
   0  -5 -13  265.37   45.80
  -1  -5 -13  356.26   53.29
  -2  -5 -13  407.46   60.79
   3  -6 -13  221.18   39.10
   2  -6 -13  286.17   44.30
   1  -6 -13  287.77   46.70
   0  -6 -13  377.66   57.29
  -1  -7  14  199.68   39.90
   0  -7  14  181.58   41.40
   1  -7  14  249.78   44.10
   2  -7  14  269.37   45.30
   3   6 -14  176.98   33.90
  -3  -6  14  204.98   41.70
   2   6 -14  219.78   35.60
  -2  -6  14  229.08   43.60
   1   6 -14  311.97   40.10
  -1  -6  14  272.67   46.60
   0  -6  14  189.58   37.10
   1  -6  14  327.57   47.00
   2  -6  14  136.49   30.60
   3  -6  14  173.08   34.50
   3   5 -14  255.97   39.80
  -3  -5  14  178.78   42.90
   2   5 -14  296.07   41.90
  -2  -5  14  334.27   48.00
   1   5 -14  461.95   47.60
  -1  -5  14  384.26   53.29
   0   5 -14  506.15   50.39
   0  -5  14  492.45   54.89
   1  -5  14  138.79   31.10
   2  -5  14  281.07   41.70
   3  -5  14  239.58   38.70
   4  -5  14  284.27   41.30
   4   4 -14  194.98   36.30
  -4  -4  14  152.58   41.40
   3   4 -14  172.98   33.60
  -3  -4  14  196.78   39.70
   2   4 -14  404.26   46.70
  -2  -4  14  457.05   56.39
   1   4 -14  261.87   37.70
  -1  -4  14  241.78   39.10
   0   4 -14  384.76   47.40
   0  -4  14  363.66   46.70
  -1   4 -14  285.17   41.20
   1  -4  14  306.37   39.90
   2  -4  14  251.37   35.70
   3  -4  14  293.97   40.00
   4  -4  14  276.37   39.30
   4   3 -14  193.78   37.90
  -4  -3  14  233.28   44.40
   3   3 -14  248.28   39.90
  -3  -3  14  260.17   43.80
   2   3 -14  675.93   62.19
  -2  -3  14  619.74   64.79
   1   3 -14  511.35   52.49
  -1  -3  14  519.25   54.19
   0   3 -14  320.27   42.50
   0  -3  14  404.36   44.10
  -1   3 -14  471.15   48.70
   1  -3  14  385.06   44.70
  -2   3 -14  365.76   47.20
   2  -3  14  358.56   40.60
   3  -3  14  190.18   29.50
   4  -3  14  139.99   28.90
   5  -3  14  246.88   38.30
   5   2 -14  248.28   40.20
  -5  -2  14  296.77   52.89
   4   2 -14  167.18   33.30
  -4  -2  14  170.78   37.00
   3   2 -14  442.26   49.70
  -3  -2  14  433.36   56.79
   2   2 -14  240.88   37.70
  -2  -2  14  256.07   39.10
   1   2 -14  293.77   41.30
  -1  -2  14  337.37   44.00
   0   2 -14  569.54   55.69
   0  -2  14  530.15   52.69
  -1   2 -14  397.26   48.10
   1  -2  14  447.36   44.30
  -2   2 -14  340.47   46.90
   2  -2  14  311.37   37.90
  -3   2 -14  273.47   42.40
   3  -2  14  243.18   32.20
   5  -2  14  232.88   39.30
   5   1 -14  323.67   46.20
  -5  -1  14  327.37   51.99
   4   1 -14  274.77   40.10
  -4  -1  14  255.47   48.10
   3   1 -14  388.66   45.00
  -3  -1  14  294.97   45.60
   2   1 -14  461.15   49.40
  -2  -1  14  398.56   51.89
   1   1 -14  391.56   47.70
  -1  -1  14  478.15   48.50
   0   1 -14  451.35   50.29
   0  -1  14  430.96   45.70
  -1   1 -14  539.75   57.99
   1  -1  14  574.34   51.39
  -2   1 -14  244.38   39.20
   2  -1  14  250.37   32.80
  -3   1 -14  328.07   47.20
  -4   1 -14  373.26   51.09
   5   0 -14  184.48   37.10
  -5   0  14  306.87   52.09
   4   0 -14  318.47   44.60
  -4   0  14  312.97   49.00
   3   0 -14  673.33   63.39
  -3   0  14  662.73   67.19
   2   0 -14  305.77   41.90
  -2   0  14  259.37   39.60
   1   0 -14  396.36   46.20
  -1   0  14  383.76   46.90
   0   0 -14  455.45   51.89
   0   0  14  453.15   46.30
  -1   0 -14  297.07   45.00
   1   0  14  340.97   40.20
  -2   0 -14  276.27   43.70
  -3   0 -14  285.57   48.00
  -4   0 -14  536.55   62.89
   5  -1 -14  253.37   40.70
  -5   1  14  262.17   47.90
   4  -1 -14  381.36   49.99
  -4   1  14  481.55   60.49
   3  -1 -14  351.16   46.60
  -3   1  14  409.56   50.69
   2  -1 -14  456.15   50.69
  -2   1  14  421.96   53.49
   1  -1 -14  531.45   56.79
  -1   1  14  570.54   56.99
   0  -1 -14  580.24   58.19
   0   1  14  483.05   50.19
  -1  -1 -14  220.48   38.60
  -2  -1 -14  365.76   53.29
  -3  -1 -14  791.62   79.29
  -4  -1 -14  665.03   70.59
   4   1  14  517.65   61.79
   5  -2 -14  153.18   31.80
  -5   2  14  156.18   42.50
   4  -2 -14  380.06   50.09
  -4   2  14  454.55   58.09
   3  -2 -14  179.78   34.90
  -3   2  14  207.98   39.10
   2  -2 -14  472.65   54.29
  -2   2  14  524.45   54.99
   1  -2 -14  622.24   62.69
  -1   2  14  611.94   60.39
   0  -2 -14  329.97   47.70
  -1  -2 -14  179.88   36.80
  -2  -2 -14  156.18   38.80
  -3  -2 -14  526.25   68.19
   4  -3 -14  269.47   41.60
  -4   3  14  358.46   53.59
   3  -3 -14  365.66   48.90
  -3   3  14  384.96   51.59
   2  -3 -14  502.95   58.29
  -2   3  14  577.84   57.69
   1  -3 -14  591.34   62.59
   0  -3 -14  205.98   40.60
  -1  -3 -14  209.58   40.20
  -2  -3 -14  571.54   70.29
  -3  -3 -14  513.75   71.59
   3  -4 -14  308.37   44.10
  -3   4  14  233.48   41.60
   2  -4 -14  476.25   56.29
   1  -4 -14  293.67   46.60
   0  -4 -14  275.17   48.60
  -1  -4 -14  303.87   51.59
   1  -5 -14  225.88   43.00
   0  -6  15   30.20   29.00
   1  -6  15  152.78   35.00
   2   5 -15  178.48   32.80
  -2  -5  15  250.17   46.00
   1   5 -15  198.38   34.10
  -1  -5  15  166.48   39.90
   0   5 -15  276.47   41.30
   0  -5  15  282.27   44.00
   1  -5  15  245.78   41.70
   2  -5  15  187.28   36.30
   2   4 -15  283.27   41.60
  -2  -4  15  305.87   47.20
   1   4 -15  156.18   32.10
  -1  -4  15  163.28   36.30
   0   4 -15  280.07   41.30
   0  -4  15  259.27   40.60
  -1   4 -15  107.89   26.80
   1  -4  15   99.59   28.70
   2  -4  15  252.87   37.30
   3  -4  15  183.08   35.50
   3   3 -15  284.97   43.50
  -3  -3  15  243.58   45.60
   2   3 -15  373.86   49.10
  -2  -3  15  342.37   49.99
   1   3 -15  257.07   39.50
  -1  -3  15  262.97   41.20
   0   3 -15  310.47   42.90
   0  -3  15  309.87   43.00
  -1   3 -15  196.58   35.50
   1  -3  15  252.57   38.60
  -2   3 -15  189.98   36.70
   2  -3  15  217.58   35.20
   3  -3  15  269.07   38.20
   3   2 -15  244.98   39.30
  -3  -2  15  253.27   44.50
   2   2 -15  217.58   36.20
  -2  -2  15  143.19   34.40
   1   2 -15  224.28   38.00
  -1  -2  15  265.37   41.20
   0   2 -15  428.16   48.40
   0  -2  15  336.17   45.50
  -1   2 -15  222.58   39.40
   1  -2  15  205.38   34.30
  -2   2 -15  287.07   43.40
   2  -2  15  300.27   39.50
  -3   2 -15  214.98   40.30
   4   1 -15  456.25   56.59
   3   1 -15  318.67   45.50
  -3  -1  15  322.87   49.60
   2   1 -15  338.07   46.50
  -2  -1  15  381.86   50.19
   1   1 -15  289.67   42.10
  -1  -1  15  295.27   41.40
   0   1 -15  160.38   33.30
   0  -1  15  127.89   27.00
  -1   1 -15  264.67   42.20
   1  -1  15  235.68   35.40
  -2   1 -15  336.27   50.89
  -3   1 -15  310.67   50.59
   3   0 -15  292.17   44.10
  -3   0  15  238.38   43.30
   2   0 -15  325.37   45.70
  -2   0  15  296.17   45.70
   1   0 -15  379.36   50.89
  -1   0  15  488.35   53.59
   0   0 -15  165.68   34.50
   0   0  15  248.38   36.10
  -1   0 -15  277.87   45.30
  -2   0 -15  430.06   55.89
  -3   0 -15  291.67   48.60
   3  -1 -15  577.04   60.69
  -3   1  15  574.64   63.79
   2  -1 -15  326.67   47.40
  -2   1  15  303.87   44.90
   1  -1 -15  164.08   35.70
  -1   1  15  161.88   33.50
   0  -1 -15  221.58   39.60
  -1  -1 -15  358.76   51.29
  -2  -1 -15  274.67   48.40
   3  -2 -15  279.17   43.40
  -3   2  15  312.97   47.40
   2  -2 -15  522.75   59.19
  -2   2  15  548.95   63.39
   1  -2 -15  343.17   49.99
   0  -2 -15  262.77   43.70
  -1  -2 -15  318.77   48.80
   1  -3 -15  247.48   44.40
   0  -3 -15  212.18   44.90
   0   2 -16  258.97   40.50
   0  -2  16  238.48   41.20
   0   1 -16  274.57   46.20
   0  -1  16  270.67   42.60

_computing_structure_solution     'SHELXT 2014/4 (Sheldrick, 2014)'
;
loop_
_space_group_symop_operation_xyz
'x, y, z'
'-x, -y, -z'
loop_
_atom_site_label
_atom_site_type_symbol
_atom_site_fract_x
_atom_site_fract_y
_atom_site_fract_z
_atom_site_U_iso_or_equiv
_atom_site_adp_type
_atom_site_occupancy
_atom_site_site_symmetry_order
_atom_site_calc_flag
_atom_site_refinement_flags_posn
_atom_site_refinement_flags_adp
_atom_site_refinement_flags_occupancy
_atom_site_disorder_assembly
_atom_site_disorder_group
U1 U 0.0000 0.0000 1.0000 0.01028(6) Uani 1 2 d S T P . .
O1 O -0.1280(4) 0.1455(3) 1.0284(2) 0.0171(5) Uani 1 1 d . . . . .
O2 O -0.0369(4) 0.0246(3) 0.7822(2) 0.0181(5) Uani 1 1 d . . . . .
O3 O -0.2313(4) -0.1456(3) 0.8528(2) 0.0174(5) Uani 1 1 d . . . . .
N1 N 0.2582(4) 0.1687(4) 0.9132(3) 0.0134(6) Uani 1 1 d . . . . .
N2 N 1.3291(5) 0.6291(4) 0.5996(4) 0.0266(8) Uani 1 1 d . . . . .
C1 C 0.4118(5) 0.1158(4) 0.8865(3) 0.0154(7) Uani 1 1 d . . . . .
H1 H 0.4175 0.0149 0.8961 0.019 Uiso 1 1 calc R . . . .
C2 C 0.5615(5) 0.2015(4) 0.8460(3) 0.0162(7) Uani 1 1 d . . . . .
H2 H 0.6671 0.1594 0.8286 0.019 Uiso 1 1 calc R . . . .
C3 C 0.5578(5) 0.3500(4) 0.8305(3) 0.0149(7) Uani 1 1 d . . . . .
C4 C 0.3998(6) 0.4049(5) 0.8597(4) 0.0195(8) Uani 1 1 d . . . . .
H4 H 0.3913 0.5059 0.8524 0.023 Uiso 1 1 calc R . . . .
C5 C 0.2552(5) 0.3122(5) 0.8994(4) 0.0188(7) Uani 1 1 d . . . . .
H5 H 0.1482 0.3519 0.9179 0.023 Uiso 1 1 calc R . . . .
C6 C 0.7139(5) 0.4433(4) 0.7859(3) 0.0168(7) Uani 1 1 d . . . . .
H6 H 0.7220 0.5484 0.8003 0.020 Uiso 1 1 calc R . . . .
C7 C 0.8460(5) 0.3874(4) 0.7256(4) 0.0177(7) Uani 1 1 d . . . . .
H7 H 0.8325 0.2821 0.7093 0.021 Uiso 1 1 calc R . . . .
C8 C 1.0080(5) 0.4728(4) 0.6829(3) 0.0148(7) Uani 1 1 d . . . . .
C9 C 1.0724(6) 0.6219(4) 0.7264(4) 0.0196(8) Uani 1 1 d . . . . .
H9 H 1.0080 0.6740 0.7849 0.023 Uiso 1 1 calc R . . . .
C10 C 1.2301(6) 0.6923(5) 0.6834(4) 0.0258(9) Uani 1 1 d . . . . .
H10 H 1.2719 0.7928 0.7154 0.031 Uiso 1 1 calc R . . . .
C11 C 1.2669(6) 0.4870(5) 0.5582(4) 0.0228(8) Uani 1 1 d . . . . .
H11 H 1.3338 0.4387 0.4989 0.027 Uiso 1 1 calc R . . . .
C12 C 1.1105(5) 0.4056(4) 0.5963(4) 0.0188(8) Uani 1 1 d . . . . .
H12 H 1.0735 0.3047 0.5636 0.023 Uiso 1 1 calc R . . . .
C13 C -0.1732(5) -0.0778(4) 0.7649(3) 0.0135(7) Uani 1 1 d . . . . .
C14 C -0.2676(5) -0.1193(4) 0.6454(3) 0.0159(7) Uani 1 1 d . . . . .
H14 H -0.3608 -0.2034 0.6344 0.019 Uiso 1 1 calc R . . . .
C15 C -0.2261(5) -0.0425(4) 0.5526(3) 0.0164(7) Uani 1 1 d . . . . .
H15 H -0.1301 0.0395 0.5648 0.020 Uiso 1 1 calc R . . . .
C16 C -0.3194(6) -0.0761(5) 0.4309(4) 0.0226(8) Uani 1 1 d . . . . .
H16A H -0.2308 -0.0918 0.3695 0.034 Uiso 1 1 calc GR . . . .
H16B H -0.3790 0.0076 0.4145 0.034 Uiso 1 1 calc GR . . . .
H16C H -0.4099 -0.1662 0.4288 0.034 Uiso 1 1 calc GR . . . .
loop_
_atom_site_aniso_label
_atom_site_aniso_U_11
_atom_site_aniso_U_22
_atom_site_aniso_U_33
_atom_site_aniso_U_23
_atom_site_aniso_U_13
_atom_site_aniso_U_12
U1 0.01016(9) 0.01221(9) 0.00768(9) -0.00062(6) -0.00003(6) 0.00073(6)
O1 0.0181(13) 0.0169(13) 0.0162(12) 0.0007(10) -0.0011(10) 0.0032(11)
O2 0.0199(14) 0.0197(14) 0.0119(12) 0.0005(10) -0.0016(10) -0.0037(11)
O3 0.0150(13) 0.0235(14) 0.0114(11) 0.0016(10) -0.0017(10) -0.0037(11)
N1 0.0125(14) 0.0191(15) 0.0085(13) 0.0014(11) 0.0009(11) 0.0021(12)
N2 0.0237(18) 0.0247(19) 0.0276(19) -0.0003(15) 0.0060(15) -0.0056(15)
C1 0.0162(17) 0.0147(17) 0.0162(16) 0.0033(13) 0.0002(14) 0.0038(14)
C2 0.0116(16) 0.0179(18) 0.0195(17) 0.0015(14) 0.0003(14) 0.0041(14)
C3 0.0132(16) 0.0177(17) 0.0132(15) 0.0029(13) 0.0011(13) 0.0003(14)
C4 0.0196(19) 0.0164(18) 0.0225(19) 0.0027(14) 0.0058(15) 0.0020(15)
C5 0.0142(17) 0.0222(19) 0.0212(18) 0.0028(15) 0.0036(14) 0.0065(15)
C6 0.0150(17) 0.0157(17) 0.0194(17) 0.0019(14) 0.0041(14) 0.0012(14)
C7 0.0155(18) 0.0156(17) 0.0202(18) 0.0009(14) 0.0035(14) -0.0019(14)
C8 0.0136(17) 0.0142(17) 0.0156(16) -0.0007(13) 0.0012(13) 0.0012(13)
C9 0.021(2) 0.0143(17) 0.0212(18) -0.0032(14) 0.0029(15) 0.0012(15)
C10 0.028(2) 0.0154(19) 0.029(2) -0.0040(16) 0.0045(18) -0.0071(16)
C11 0.0178(19) 0.025(2) 0.024(2) 0.0002(16) 0.0078(16) 0.0004(16)
C12 0.0184(18) 0.0156(17) 0.0203(18) -0.0033(14) 0.0046(15) -0.0006(14)
C13 0.0132(16) 0.0147(16) 0.0122(15) -0.0015(12) 0.0013(13) 0.0034(13)
C14 0.0145(17) 0.0196(18) 0.0126(15) -0.0013(13) -0.0005(13) 0.0024(14)
C15 0.0139(17) 0.0207(18) 0.0141(16) 0.0013(14) 0.0009(13) 0.0021(14)
C16 0.024(2) 0.031(2) 0.0141(17) 0.0031(15) -0.0004(15) 0.0074(17)
loop_
_atom_type_symbol
_atom_type_description
_atom_type_scat_dispersion_real
_atom_type_scat_dispersion_imag
_atom_type_scat_source
C C 0.0033 0.0016 'International Tables Vol C Tables 4.2.6.8 and 6.1.1.4'
H H 0.0000 0.0000 'International Tables Vol C Tables 4.2.6.8 and 6.1.1.4'
N N 0.0061 0.0033 'International Tables Vol C Tables 4.2.6.8 and 6.1.1.4'
O O 0.0106 0.0060 'International Tables Vol C Tables 4.2.6.8 and 6.1.1.4'
U U -9.6767 9.6646 'International Tables Vol C Tables 4.2.6.8 and 6.1.1.4'
loop_
_geom_angle_atom_site_label_1
_geom_angle_atom_site_label_2
_geom_angle_atom_site_label_3
_geom_angle
_geom_angle_site_symmetry_1
_geom_angle_site_symmetry_3
O1 U1 O1 180.00(14) . 2_557
O1 U1 O2 92.72(11) 2_557 .
O1 U1 O2 87.28(11) 2_557 2_557
O1 U1 O2 87.28(11) . .
O1 U1 O2 92.72(11) . 2_557
O1 U1 O3 87.54(11) . 2_557
O1 U1 O3 87.54(11) 2_557 .
O1 U1 O3 92.46(11) 2_557 2_557
O1 U1 O3 92.46(11) . .
O1 U1 N1 87.19(12) . 2_557
O1 U1 N1 92.81(12) 2_557 2_557
O1 U1 N1 92.81(12) . .
O1 U1 N1 87.19(12) 2_557 .
O1 U1 C13 90.22(11) 2_557 .
O1 U1 C13 89.78(11) 2_557 2_557
O1 U1 C13 90.22(11) . 2_557
O1 U1 C13 89.78(11) . .
O2 U1 O2 180.00(13) . 2_557
O2 U1 N1 115.30(9) . 2_557
O2 U1 N1 64.70(9) . .
O2 U1 N1 115.30(9) 2_557 .
O2 U1 N1 64.70(9) 2_557 2_557
O2 U1 C13 153.80(10) 2_557 .
O2 U1 C13 26.20(10) . .
O2 U1 C13 153.80(10) . 2_557
O2 U1 C13 26.20(10) 2_557 2_557
O3 U1 O2 127.62(9) . 2_557
O3 U1 O2 52.38(9) . .
O3 U1 O2 52.38(9) 2_557 2_557
O3 U1 O2 127.62(9) 2_557 .
O3 U1 O3 180.0 2_557 .
O3 U1 N1 63.56(9) . 2_557
O3 U1 N1 63.56(9) 2_557 .
O3 U1 N1 116.44(9) . .
O3 U1 N1 116.44(9) 2_557 2_557
O3 U1 C13 26.18(10) 2_557 2_557
O3 U1 C13 26.18(10) . .
O3 U1 C13 153.82(10) 2_557 .
O3 U1 C13 153.82(10) . 2_557
N1 U1 N1 180.0 . 2_557
N1 U1 C13 89.41(10) 2_557 .
N1 U1 C13 90.59(10) 2_557 2_557
N1 U1 C13 90.59(10) . .
N1 U1 C13 89.41(10) . 2_557
C13 U1 C13 180.0 . 2_557
C13 O2 U1 94.1(2) . .
C13 O3 U1 94.3(2) . .
C1 N1 U1 119.0(2) . .
C5 N1 U1 123.9(2) . .
C5 N1 C1 116.9(3) . .
C11 N2 C10 115.7(4) . .
N1 C1 C2 122.9(4) . .
C1 C2 C3 120.1(4) . .
C2 C3 C6 121.4(3) . .
C4 C3 C2 116.8(4) . .
C4 C3 C6 121.8(4) . .
C5 C4 C3 119.8(4) . .
N1 C5 C4 123.4(4) . .
C7 C6 C3 123.2(4) . .
C6 C7 C8 126.3(4) . .
C9 C8 C7 123.4(3) . .
C12 C8 C7 120.2(3) . .
C12 C8 C9 116.4(4) . .
C10 C9 C8 119.3(4) . .
N2 C10 C9 124.8(4) . .
N2 C11 C12 124.1(4) . .
C11 C12 C8 119.7(4) . .
O2 C13 U1 59.68(19) . .
O2 C13 C14 121.8(3) . .
O3 C13 U1 59.52(18) . .
O3 C13 O2 119.2(3) . .
O3 C13 C14 119.0(3) . .
C14 C13 U1 178.3(3) . .
C15 C14 C13 122.1(4) . .
C14 C15 C16 124.7(4) . .
loop_
_geom_bond_atom_site_label_1
_geom_bond_atom_site_label_2
_geom_bond_distance
_geom_bond_site_symmetry_2
U1 O1 1.767(3) .
U1 O1 1.767(3) 2_557
U1 O2 2.481(3) 2_557
U1 O2 2.481(3) .
U1 O3 2.478(3) 2_557
U1 O3 2.478(3) .
U1 N1 2.561(3) .
U1 N1 2.561(3) 2_557
U1 C13 2.867(4) .
U1 C13 2.867(4) 2_557
O2 C13 1.269(5) .
O3 C13 1.269(4) .
N1 C1 1.347(5) .
N1 C5 1.345(5) .
N2 C10 1.343(6) .
N2 C11 1.337(6) .
C1 C2 1.381(5) .
C2 C3 1.396(5) .
C3 C4 1.391(5) .
C3 C6 1.469(5) .
C4 C5 1.382(6) .
C6 C7 1.344(5) .
C7 C8 1.458(5) .
C8 C9 1.402(5) .
C8 C12 1.397(5) .
C9 C10 1.379(6) .
C11 C12 1.390(6) .
C13 C14 1.478(5) .
C14 C15 1.334(5) .
C15 C16 1.492(5) .
