#------------------------------------------------------------------------------
#$Date: 2021-12-10 11:16:28 +0200 (Fri, 10 Dec 2021) $
#$Revision: 271325 $
#$URL: file:///home/coder/svn-repositories/cod/cif/1/56/56/1565660.cif $
#------------------------------------------------------------------------------
#
# This file is available in the Crystallography Open Database (COD),
# http://www.crystallography.net/
#
# All data on this site have been placed in the public domain by the
# contributors.
#
data_1565660
loop_
_publ_author_name
'Shakirova, Olga'
'Protsenko, Alexandra'
'Protsenko, Alexander'
'Kuratieva, Natalia'
'Fowles, Samantha'
'Turnbull, Mark M.'
_publ_section_title
;
 Syntheses, structures and properties of copper(II) and cobalt(II)
 complexes with 5(3)-amino-2-chloro-3(5)-methylpyridine isomer cations
;
_journal_name_full               'Inorganica Chimica Acta'
_journal_page_first              119246
_journal_paper_doi               10.1016/j.ica.2019.119246
_journal_volume                  500
_journal_year                    2020
_chemical_formula_moiety         '2(C6 H8 Cl N2), Cl4 Co'
_chemical_formula_sum            'C12 H16 Cl6 Co N4'
_chemical_formula_weight         487.92
_space_group_crystal_system      triclinic
_space_group_IT_number           2
_space_group_name_Hall           '-P 1'
_space_group_name_H-M_alt        'P -1'
_atom_sites_solution_hydrogens   geom
_atom_sites_solution_primary     direct
_atom_sites_solution_secondary   difmap
_cell_angle_alpha                92.253(7)
_cell_angle_beta                 95.743(8)
_cell_angle_gamma                111.363(6)
_cell_formula_units_Z            2
_cell_length_a                   7.3697(18)
_cell_length_b                   9.367(2)
_cell_length_c                   14.889(4)
_cell_measurement_reflns_used    5975
_cell_measurement_temperature    150(2)
_cell_measurement_theta_max      28.39
_cell_measurement_theta_min      2.34
_cell_volume                     949.2(4)
_computing_cell_refinement       'Bruker SAINT'
_computing_data_collection       'Bruker APEX2'
_computing_data_reduction        'Bruker SAINT'
_computing_molecular_graphics    'Bruker SHELXTL'
_computing_publication_material  'Bruker SHELXTL'
_computing_structure_refinement  'Bruker SHELXTL'
_computing_structure_solution    'Bruker SHELXTL'
_diffrn_ambient_temperature      150(2)
_diffrn_detector_area_resol_mean 25
_diffrn_measured_fraction_theta_full 0.995
_diffrn_measured_fraction_theta_max 0.988
_diffrn_measurement_device_type  'Bruker Apex DUO CCD area-detector'
_diffrn_measurement_method       '\f scans'
_diffrn_radiation_probe          x-ray
_diffrn_radiation_type           MoK\a
_diffrn_radiation_wavelength     0.71073
_diffrn_reflns_av_R_equivalents  0.0187
_diffrn_reflns_av_unetI/netI     0.0242
_diffrn_reflns_Laue_measured_fraction_full 0.995
_diffrn_reflns_Laue_measured_fraction_max 0.988
_diffrn_reflns_limit_h_max       9
_diffrn_reflns_limit_h_min       -8
_diffrn_reflns_limit_k_max       11
_diffrn_reflns_limit_k_min       -12
_diffrn_reflns_limit_l_max       19
_diffrn_reflns_limit_l_min       -17
_diffrn_reflns_number            8670
_diffrn_reflns_point_group_measured_fraction_full 0.995
_diffrn_reflns_point_group_measured_fraction_max 0.988
_diffrn_reflns_theta_full        25.250
_diffrn_reflns_theta_max         28.441
_diffrn_reflns_theta_min         2.620
_exptl_absorpt_coefficient_mu    1.750
_exptl_absorpt_correction_T_max  0.746
_exptl_absorpt_correction_T_min  0.646
_exptl_absorpt_correction_type   multi-scan
_exptl_absorpt_process_details   'Bruker SADABS'
_exptl_crystal_colour            blue
_exptl_crystal_density_diffrn    1.707
_exptl_crystal_description       prism
_exptl_crystal_F_000             490
_exptl_crystal_size_max          0.180
_exptl_crystal_size_mid          0.170
_exptl_crystal_size_min          0.080
_refine_diff_density_max         0.570
_refine_diff_density_min         -0.311
_refine_diff_density_rms         0.054
_refine_ls_extinction_coef       .
_refine_ls_extinction_method     none
_refine_ls_goodness_of_fit_ref   1.066
_refine_ls_hydrogen_treatment    constr
_refine_ls_matrix_type           full
_refine_ls_number_parameters     210
_refine_ls_number_reflns         4722
_refine_ls_number_restraints     0
_refine_ls_restrained_S_all      1.066
_refine_ls_R_factor_all          0.0246
_refine_ls_R_factor_gt           0.0218
_refine_ls_shift/su_max          0.001
_refine_ls_shift/su_mean         0.000
_refine_ls_structure_factor_coef Fsqd
_refine_ls_weighting_details
'w=1/[\s^2^(Fo^2^)+(0.0235P)^2^+0.3122P] where P=(Fo^2^+2Fc^2^)/3'
_refine_ls_weighting_scheme      calc
_refine_ls_wR_factor_gt          0.0547
_refine_ls_wR_factor_ref         0.0559
_reflns_Friedel_coverage         0.000
_reflns_Friedel_fraction_full    .
_reflns_Friedel_fraction_max     .
_reflns_number_gt                4342
_reflns_number_total             4722
_reflns_threshold_expression     >2\s(I)
_cod_data_source_file            ICA-2020-500-119246.cif
_cod_data_source_block           shak121
_cod_database_code               1565660
_shelx_space_group_comment
;
The symmetry employed for this shelxl refinement is uniquely defined
by the following loop, which should always be used as a source of
symmetry information in preference to the above space-group names.
They are only intended as comments.
;
_shelx_estimated_absorpt_t_min   0.744
_shelx_estimated_absorpt_t_max   0.873
_shelx_res_file
;

    D:\Job\SHAKIR~1\shak121\shak121.res created by SHELXL-2014/7

TITL shak121 in P-1
CELL 0.71073 7.3697 9.3671 14.8891 92.253 95.743 111.363
ZERR 2.0000 0.0018 0.0022 0.0035 0.007 0.008 0.006
LATT 1
SFAC C H N CL CO
UNIT 24 32 8 12 2
MERG 2
OMIT 0 180
FMAP 2
GRID
PLAN 5
TEMP -123
SIZE 0.18 0.17 0.08
OMIT  2 3 1
OMIT  0 1 0
OMIT  0 0 7
BOND $H
OMIT  -3 -1 2
L.S. 10
ACTA 50.5
WGHT    0.023500    0.312200
FVAR       0.11535
CO1   5    0.605086    0.573226    0.222477    11.00000    0.01838    0.01414 =
         0.01585    0.00039    0.00016    0.00592
CL1   4    0.168364    1.015045    0.403543    11.00000    0.03646    0.02108 =
         0.03933    0.00545   -0.00406    0.01269
CL2   4    0.396806    0.933187    0.182084    11.00000    0.02944    0.03075 =
         0.01819    0.00154   -0.00060   -0.00040
CL3   4    0.650795    0.748470    0.339611    11.00000    0.02892    0.02385 =
         0.02709   -0.00934    0.00147    0.00838
CL4   4    0.320384    0.518398    0.128157    11.00000    0.02530    0.01831 =
         0.03284   -0.00019   -0.00965    0.00919
CL5   4    0.874128    0.661617    0.146707    11.00000    0.02203    0.02373 =
         0.02085    0.00545    0.00443    0.00885
CL6   4    0.586197    0.339726    0.269877    11.00000    0.04007    0.01769 =
         0.01842    0.00250   -0.00247    0.01190
N11   3    0.119615    0.736386    0.343394    11.00000    0.02013    0.02417 =
         0.01826    0.00593   -0.00086    0.00676
AFIX  43
H11   2    0.071431    0.763075    0.293152    11.00000   -1.20000
AFIX   0
N12   3    0.315097    0.898832    0.573302    11.00000    0.04626    0.02624 =
         0.02285   -0.00443   -0.00475    0.01805
AFIX  93
H12A  2    0.308887    0.990791    0.571938    11.00000   -1.20000
H12B  2    0.360389    0.870821    0.623788    11.00000   -1.20000
AFIX   0
N21   3    0.249296    0.776797    0.026008    11.00000    0.02029    0.01527 =
         0.02087    0.00406    0.00285    0.00579
AFIX  43
H21   2    0.268425    0.702794    0.055385    11.00000   -1.20000
AFIX   0
N22   3    0.329608    1.178827    0.069780    11.00000    0.03479    0.01924 =
         0.03798   -0.00719   -0.00213    0.01005
AFIX  93
H22A  2    0.381632    1.196529    0.126870    11.00000   -1.20000
H22B  2    0.312521    1.253554    0.040404    11.00000   -1.20000
AFIX   0
C11   1    0.181830    0.838899    0.415773    11.00000    0.01844    0.01876 =
         0.02390    0.00458    0.00177    0.00672
C12   1    0.254895    0.800328    0.497634    11.00000    0.01907    0.02094 =
         0.01950    0.00069    0.00210    0.00639
C13   1    0.262013    0.652052    0.497679    11.00000    0.02304    0.02327 =
         0.01653    0.00410    0.00206    0.01034
AFIX  43
H13   2    0.310982    0.621491    0.552047    11.00000   -1.20000
AFIX   0
C14   1    0.200487    0.549722    0.421680    11.00000    0.01921    0.02149 =
         0.01958    0.00204    0.00401    0.00766
C15   1    0.126628    0.595269    0.343183    11.00000    0.02179    0.02300 =
         0.01888    0.00011    0.00142    0.00655
AFIX  43
H15   2    0.081446    0.527145    0.289786    11.00000   -1.20000
AFIX   0
C16   1    0.214408    0.393688    0.422570    11.00000    0.03539    0.02377 =
         0.02622    0.00056    0.00263    0.01450
AFIX 137
H16A  2    0.252348    0.375343    0.484746    11.00000   -1.50000
H16B  2    0.313255    0.389160    0.384323    11.00000   -1.50000
H16C  2    0.086702    0.314787    0.399223    11.00000   -1.50000
AFIX   0
C21   1    0.300071    0.914912    0.070854    11.00000    0.01627    0.02086 =
         0.01682    0.00056    0.00321    0.00365
C22   1    0.275899    1.036731    0.027174    11.00000    0.01509    0.01735 =
         0.02652   -0.00113    0.00453    0.00554
C23   1    0.192261    1.003076   -0.064158    11.00000    0.02012    0.02003 =
         0.02700    0.00542    0.00321    0.00941
AFIX  43
H23   2    0.171329    1.082532   -0.096221    11.00000   -1.20000
AFIX   0
C24   1    0.139719    0.859819   -0.108740    11.00000    0.01858    0.02206 =
         0.01957    0.00157    0.00228    0.00825
C25   1    0.171055    0.744482   -0.060972    11.00000    0.02189    0.01819 =
         0.02172   -0.00125    0.00248    0.00754
AFIX  43
H25   2    0.137447    0.644273   -0.089631    11.00000   -1.20000
AFIX   0
C26   1    0.052183    0.828271   -0.206427    11.00000    0.03246    0.03508 =
         0.02020    0.00168   -0.00183    0.01250
AFIX 137
H26A  2   -0.090509    0.775630   -0.210186    11.00000   -1.50000
H26B  2    0.107589    0.762967   -0.238049    11.00000   -1.50000
H26C  2    0.082385    0.925644   -0.234749    11.00000   -1.50000
AFIX   0
HKLF 4

REM  shak121 in P-1
REM R1 =  0.0218 for    4342 Fo > 4sig(Fo)  and  0.0246 for all    4722 data
REM    210 parameters refined using      0 restraints

END

WGHT      0.0235      0.3129

REM Highest difference peak  0.570,  deepest hole -0.311,  1-sigma level  0.054
Q1    1   0.4009  0.5371  0.0978  11.00000  0.05    0.57
Q2    1   0.2780  0.4452  0.4951  11.00000  0.05    0.39
Q3    1   0.2192  0.8244  0.4571  11.00000  0.05    0.37
Q4    1   0.7034  0.6540  0.2409  11.00000  0.05    0.37
Q5    1   0.2301  0.6075  0.4555  11.00000  0.05    0.36
;
_shelx_hkl_file
;
  -1   0   0   29.61    0.73
  -1   0   0   28.07    0.73
   1   0   0   28.10    0.73
  -2   0   0  118.69    3.04
   2   0   0  118.70    3.04
   2   0   0  122.49    3.04
  -3   0   0    4.01    0.12
   3   0   0    3.97    0.12
   3   0   0    4.25    0.12
   3   0   0    3.98    0.12
  -4   0   0   98.62    2.45
   4   0   0   96.07    2.45
   4   0   0   97.84    2.40
  -5   0   0    9.46    0.27
   5   0   0    9.30    0.27
  -6   0   0    0.02    0.03
   6   0   0    0.04    0.03
   7   0   0    3.15    0.14
   8   0   0    0.78    0.08
   9   0   0    1.18    0.11
   9  -1   0    0.10    0.06
   8  -1   0    5.45    0.20
   7  -1   0    0.03    0.04
   6  -1   0    6.46    0.21
  -6   1   0    6.78    0.21
   5  -1   0   14.28    0.40
  -5   1   0   14.76    0.39
   4  -1   0   24.58    0.61
   4  -1   0   23.87    0.60
   4  -1   0   22.73    0.61
  -4   1   0   23.07    0.61
   3  -1   0    0.79    0.04
   3  -1   0    0.89    0.04
   3  -1   0    0.90    0.04
  -3   1   0    0.88    0.04
   2  -1   0   37.14    0.90
   2  -1   0   34.76    0.90
  -2   1   0   35.49    0.90
   1  -1   0    0.69    0.03
   1  -1   0    0.66    0.03
  -1   1   0    0.69    0.02
   0  -1   0    5.11    0.13
   0  -1   0    5.35    0.13
   0  -1   0    5.05    0.13
   0   1   0    5.06    0.13
   0   1   0    5.30    0.14
  -1  -1   0   51.45    1.35
  -1  -1   0   54.42    1.35
   1   1   0   55.09    1.35
   1   1   0   52.59    1.35
   1   1   0   53.10    1.32
  -2  -1   0    0.32    0.03
   2   1   0    0.36    0.03
   2   1   0    0.31    0.03
   2   1   0    0.34    0.03
  -3  -1   0   17.49    0.46
   3   1   0   17.36    0.45
   3   1   0   17.22    0.46
  -4  -1   0    0.89    0.05
   4   1   0    0.87    0.06
   4   1   0    1.01    0.06
   5   1   0    7.66    0.23
  -6  -1   0    0.84    0.07
   6   1   0    0.67    0.07
   7   1   0    0.05    0.04
   8   1   0    0.14    0.06
   9  -2   0    3.98    0.18
   8  -2   0    8.77    0.28
   7  -2   0    9.66    0.29
   6  -2   0    0.43    0.05
  -6   2   0    0.56    0.05
   5  -2   0   19.05    0.53
   5  -2   0   21.26    0.53
  -5   2   0   19.57    0.53
   4  -2   0    0.03    0.02
   4  -2   0    0.01    0.02
   4  -2   0    0.03    0.02
  -4   2   0    0.03    0.02
   3  -2   0   12.95    0.35
   3  -2   0   13.87    0.35
  -3   2   0   13.23    0.35
   2  -2   0    2.47    0.08
   2  -2   0    2.37    0.07
  -2   2   0    2.41    0.07
   1  -2   0   94.42    2.37
   1  -2   0   93.45    2.37
  -1   2   0   94.57    2.37
  -1   2   0   89.70    2.49
  -1   2   0   95.25    2.36
   0  -2   0    8.14    0.21
   0  -2   0    8.10    0.21
   0  -2   0    7.90    0.20
   0   2   0    7.90    0.21
   0   2   0    8.47    0.21
  -1  -2   0    3.38    0.11
   1   2   0    3.36    0.11
   1   2   0    3.27    0.10
   1   2   0    3.38    0.11
  -2  -2   0    4.18    0.13
   2   2   0    4.08    0.13
   2   2   0    4.09    0.12
  -3  -2   0   14.85    0.40
   3   2   0   14.94    0.39
   3   2   0   14.91    0.40
  -4  -2   0    3.11    0.11
   4   2   0    3.20    0.12
  -5  -2   0    1.41    0.08
   5   2   0    1.45    0.08
  -6  -2   0    1.75    0.09
   6   2   0    1.52    0.10
   7   2   0    1.92    0.12
   8   2   0   -0.02    0.05
   9  -3   0    0.18    0.06
   8  -3   0   10.22    0.32
   7  -3   0    0.23    0.05
   6  -3   0    0.18    0.04
  -6   3   0    0.24    0.03
   5  -3   0   18.53    0.48
   5  -3   0   16.99    0.47
  -5   3   0   17.78    0.47
   4  -3   0   51.93    1.28
   4  -3   0   49.83    1.30
   4  -3   0   52.66    1.30
  -4   3   0   51.06    1.30
   3  -3   0   41.19    1.10
   3  -3   0   45.06    1.10
  -3   3   0   44.30    1.10
   2  -3   0   30.24    0.74
   2  -3   0   28.16    0.74
  -2   3   0   28.69    0.74
   1  -3   0    0.71    0.04
   1  -3   0    0.82    0.04
   1  -3   0    0.86    0.04
  -1   3   0    0.75    0.04
  -1   3   0    0.77    0.04
   0  -3   0   13.13    0.35
   0  -3   0   13.63    0.35
   0  -3   0   13.17    0.33
   0   3   0   13.10    0.35
  -1  -3   0    3.71    0.12
   1   3   0    4.01    0.11
   1   3   0    3.76    0.12
  -2  -3   0    3.52    0.11
   2   3   0    3.43    0.11
   2   3   0    3.35    0.10
  -3  -3   0   26.06    0.68
   3   3   0   25.46    0.68
   3   3   0   26.83    0.66
  -4  -3   0    0.90    0.06
   4   3   0    0.83    0.07
  -5  -3   0    0.03    0.03
   5   3   0    0.09    0.04
  -6  -3   0    2.83    0.13
   6   3   0    2.53    0.13
   7   3   0   10.12    0.33
   9  -4   0    4.20    0.18
   8  -4   0   13.58    0.40
   7  -4   0    1.59    0.09
   6  -4   0    0.41    0.05
  -6   4   0    0.48    0.04
   5  -4   0    2.71    0.10
   5  -4   0    2.46    0.10
  -5   4   0    2.52    0.09
   4  -4   0    9.39    0.27
   4  -4   0   10.07    0.27
   4  -4   0    9.87    0.26
  -4   4   0    9.60    0.26
   3  -4   0   30.76    0.75
   3  -4   0   27.34    0.74
  -3   4   0   28.86    0.74
   2  -4   0   74.13    1.89
   2  -4   0   78.19    1.89
  -2   4   0   75.13    1.89
  -2   4   0   74.06    1.99
   1  -4   0   -0.01    0.02
   1  -4   0    0.03    0.02
   1  -4   0   -0.08    0.02
  -1   4   0   -0.04    0.02
   0  -4   0    3.33    0.11
   0  -4   0    3.26    0.09
   0   4   0    3.38    0.11
   1   4   0    2.61    0.09
  -2  -4   0  167.79    4.26
   2   4   0  176.67    4.15
   2   4   0  165.25    4.25
  -3  -4   0   33.23    0.88
   3   4   0   32.82    0.88
   3   4   0   34.65    0.85
  -4  -4   0    2.07    0.10
   4   4   0    2.07    0.10
  -5  -4   0   -0.02    0.03
   5   4   0    0.01    0.04
   6   4   0   24.00    0.67
   7   4   0   10.03    0.33
   9  -5   0    3.89    0.17
   8  -5   0    5.94    0.21
   7  -5   0    1.92    0.10
   6  -5   0    3.85    0.14
  -6   5   0    3.93    0.13
   5  -5   0   22.34    0.58
   5  -5   0   24.00    0.61
   5  -5   0   22.19    0.60
  -5   5   0   22.27    0.59
   4  -5   0    3.48    0.12
   4  -5   0    3.59    0.11
   4  -5   0    3.94    0.13
  -4   5   0    3.76    0.12
   3  -5   0    0.70    0.04
   3  -5   0    0.62    0.05
  -3   5   0    0.65    0.04
  -3   5   0    0.72    0.05
   2  -5   0   48.60    1.26
   2  -5   0   51.14    1.26
  -2   5   0   50.04    1.26
  -2   5   0   48.52    1.32
   1  -5   0    6.46    0.19
   1  -5   0    6.32    0.20
  -1   5   0    6.38    0.18
   0  -5   0    6.91    0.20
   0   5   0    6.65    0.20
  -1  -5   0    0.11    0.03
   1   5   0    0.12    0.03
  -2  -5   0   10.48    0.30
   2   5   0   10.61    0.30
  -3  -5   0   12.74    0.37
   3   5   0   12.72    0.37
  -4  -5   0    2.03    0.11
   4   5   0    2.04    0.11
  -5  -5   0    3.72    0.16
   5   5   0    4.06    0.17
   6   5   0    5.65    0.22
   9  -6   0    0.33    0.06
   8  -6   0    8.08    0.26
   7  -6   0   26.62    0.72
   6  -6   0    0.14    0.04
   5  -6   0   25.72    0.66
   5  -6   0   26.57    0.68
   5  -6   0   25.14    0.68
  -5   6   0   25.81    0.67
   4  -6   0   10.19    0.28
   4  -6   0    9.69    0.28
   4  -6   0   10.18    0.26
  -4   6   0    9.62    0.28
  -4   6   0   10.10    0.31
   3  -6   0   40.49    1.07
   3  -6   0   42.12    1.02
   3  -6   0   43.55    1.07
  -3   6   0   40.16    1.12
  -3   6   0   41.38    1.06
   2  -6   0    4.31    0.15
   2  -6   0    3.79    0.13
  -2   6   0    4.07    0.13
   1  -6   0   35.23    0.95
   1  -6   0   34.97    0.90
  -1   6   0   34.77    0.90
   0  -6   0    0.05    0.02
   0   6   0    0.08    0.03
  -1  -6   0    6.42    0.20
   1   6   0    6.41    0.20
  -2  -6   0   11.65    0.34
   2   6   0   11.44    0.34
  -3  -6   0    1.43    0.09
   3   6   0    1.77    0.10
  -4  -6   0    0.25    0.05
   4   6   0    0.39    0.06
  -5  -6   0    0.42    0.07
   5   6   0    0.47    0.08
   6   6   0    5.36    0.23
   9  -7   0    0.97    0.09
   8  -7   0    1.03    0.09
   7  -7   0    1.91    0.10
   6  -7   0    3.82    0.14
   5  -7   0    5.95    0.20
   5  -7   0    6.38    0.18
  -5   7   0    5.99    0.18
  -5   7   0    5.85    0.21
   4  -7   0    6.20    0.17
   4  -7   0    6.34    0.20
  -4   7   0    6.23    0.19
  -4   7   0    6.21    0.21
   3  -7   0    9.33    0.28
   3  -7   0   10.14    0.25
  -3   7   0    9.41    0.27
   2  -7   0   33.23    0.89
  -2   7   0   35.44    0.89
   1  -7   0    0.25    0.04
  -1   7   0    0.25    0.03
   0  -7   0    0.04    0.03
   0   7   0    0.07    0.03
   1   7   0    1.77    0.09
  -2  -7   0   12.34    0.37
   2   7   0   12.43    0.37
  -3  -7   0    1.33    0.09
   3   7   0    1.37    0.10
  -4  -7   0    0.59    0.07
   4   7   0    0.56    0.08
   5   7   0    4.57    0.20
   9  -8   0    0.06    0.05
   8  -8   0    0.08    0.04
   7  -8   0    0.35    0.06
  -7   8   0    0.43    0.07
   6  -8   0   35.51    0.93
  -6   8   0   35.00    0.99
   5  -8   0    2.62    0.11
   5  -8   0    2.62    0.09
  -5   8   0    2.45    0.12
   4  -8   0    0.09    0.02
   4  -8   0    0.12    0.04
  -4   8   0    0.13    0.04
  -4   8   0    0.20    0.03
   3  -8   0    2.70    0.11
  -3   8   0    2.72    0.11
   2  -8   0   67.35    1.76
  -2   8   0   70.78    1.76
   1  -8   0   41.57    1.10
  -1   8   0   42.50    1.09
   0  -8   0    0.22    0.04
   0   8   0    0.32    0.05
  -1  -8   0    1.20    0.09
  -1  -8   0    1.40    0.09
   1   8   0    1.31    0.09
  -2  -8   0    5.77    0.21
   2   8   0    5.87    0.21
  -3  -8   0    0.15    0.05
   3   8   0    0.17    0.06
  -4  -8   0    0.98    0.10
   4   8   0    0.97    0.10
   8  -9   0    0.04    0.04
  -8   9   0    0.08    0.05
   7  -9   0    5.36    0.20
  -7   9   0    6.16    0.23
   6  -9   0    4.30    0.17
  -6   9   0    4.73    0.19
   5  -9   0    2.23    0.11
  -5   9   0    2.27    0.12
   4  -9   0    0.97    0.07
   3  -9   0   10.70    0.32
  -3   9   0   10.81    0.31
   2  -9   0    4.31    0.16
  -2   9   0    4.10    0.15
   1  -9   0    0.38    0.05
  -1   9   0    0.37    0.05
   0  -9   0    5.51    0.20
   0   9   0    5.80    0.20
  -1  -9   0    0.02    0.04
   1   9   0    0.01    0.05
  -2  -9   0    1.49    0.11
   2   9   0    1.59    0.11
  -3  -9   0    0.15    0.06
   3   9   0    0.07    0.06
   8 -10   0    0.20    0.06
  -8  10   0    0.13    0.06
   7 -10   0    0.49    0.07
  -7  10   0    0.52    0.08
   6 -10   0    2.50    0.13
  -6  10   0    2.43    0.14
   5 -10   0    8.93    0.29
   4 -10   0    3.21    0.14
   3 -10   0    3.51    0.15
   2 -10   0    3.37    0.15
   1 -10   0   17.43    0.51
  -1  10   0   17.99    0.51
   0 -10   0    3.95    0.17
   0  10   0    3.93    0.16
  -1 -10   0    3.58    0.16
   1  10   0    3.49    0.16
  -2 -10   0    0.11    0.06
   2  10   0    0.02    0.05
   7 -11   0    0.22    0.06
  -7  11   0    0.24    0.07
   6 -11   0    2.53    0.13
   5 -11   0    2.78    0.14
   4 -11   0    6.21    0.23
   3 -11   0    1.46    0.10
   2 -11   0    2.57    0.13
   1 -11   0   -0.02    0.04
   0 -11   0    0.00    0.04
  -1 -11   0    1.23    0.11
   6 -12   0    0.10    0.05
   5 -12   0    0.38    0.07
   4 -12   0   12.17    0.38
   3 -12   0    2.03    0.13
   2 -12   0    0.40    0.07
   1 -12   0    0.87    0.10
   2 -12   1   11.28    0.37
   3 -12   1    3.43    0.16
   4 -12   1    0.18    0.05
   5 -12   1    0.15    0.05
   6 -12   1    2.21    0.13
  -1 -11   1    0.64    0.10
   0 -11   1    1.33    0.11
   0 -11   1    1.34    0.11
   1 -11   1    3.58    0.16
   2 -11   1    0.17    0.05
   3 -11   1    0.82    0.08
   4 -11   1    0.91    0.09
   5 -11   1    6.55    0.23
   6 -11   1    0.11    0.05
  -7  11  -1    0.38    0.07
   7 -11   1    0.28    0.06
  -2 -10   1    0.01    0.05
  -1 -10   1    0.17    0.06
   0 -10   1    0.06    0.04
   1 -10   1    5.26    0.20
   2 -10   1    2.92    0.13
   3 -10   1    0.20    0.05
   4 -10   1    6.29    0.22
   5 -10   1    0.22    0.05
  -6  10  -1    2.57    0.15
   6 -10   1    2.88    0.13
  -7  10  -1    0.63    0.08
   7 -10   1    0.79    0.08
  -8  10  -1    6.33    0.26
   8 -10   1    6.14    0.23
   3   9  -1   12.15    0.38
  -3  -9   1   11.89    0.38
   2   9  -1    7.75    0.26
  -2  -9   1    7.54    0.27
   1   9  -1    1.77    0.11
  -1  -9   1    1.65    0.11
   0   9  -1    0.63    0.07
   0  -9   1    0.82    0.08
  -1   9  -1    0.49    0.05
   1  -9   1    0.35    0.05
  -2   9  -1    0.26    0.04
   2  -9   1    0.26    0.04
   3  -9   1    0.19    0.04
   4  -9   1    8.13    0.25
  -5   9  -1   22.12    0.65
   5  -9   1   22.63    0.61
  -6   9  -1   13.20    0.42
   6  -9   1   12.87    0.38
  -7   9  -1    5.54    0.22
   7  -9   1    5.10    0.19
  -8   9  -1    9.35    0.34
   8  -9   1    9.51    0.30
   4   8  -1    0.13    0.06
  -4  -8   1   -0.06    0.04
   3   8  -1    0.06    0.05
  -3  -8   1    0.14    0.05
   2   8  -1   -0.03    0.04
  -2  -8   1    0.03    0.04
   1   8  -1   13.60    0.39
  -1  -8   1   13.10    0.39
   0   8  -1    2.80    0.12
   0  -8   1    2.64    0.12
  -1   8  -1    5.37    0.18
   1  -8   1    5.42    0.18
  -2   8  -1   17.93    0.49
   2  -8   1   18.44    0.50
  -3   8  -1   13.94    0.38
   3  -8   1   13.23    0.38
  -4   8  -1   28.22    0.78
  -4   8  -1   27.57    0.72
   4  -8   1   27.64    0.69
   4  -8   1   27.02    0.73
  -5   8  -1    8.39    0.28
   5  -8   1    8.38    0.23
   5  -8   1    8.03    0.25
  -6   8  -1    5.27    0.21
   6  -8   1    5.27    0.18
  -7   8  -1    1.67    0.11
   7  -8   1    1.52    0.09
   8  -8   1    6.52    0.23
   9  -8   1    1.11    0.10
   5   7  -1    0.71    0.09
  -5  -7   1    0.65    0.09
   4   7  -1    0.12    0.05
  -4  -7   1    0.01    0.04
   3   7  -1    0.05    0.04
  -3  -7   1    0.03    0.04
   2   7  -1   31.45    0.83
  -2  -7   1   31.11    0.84
   1   7  -1   19.19    0.52
  -1  -7   1   19.17    0.52
  -1  -7   1   18.56    0.52
   0   7  -1    0.57    0.05
  -1   7  -1    1.51    0.07
   1  -7   1    1.37    0.07
  -2   7  -1   11.48    0.32
   2  -7   1   11.44    0.32
  -3   7  -1    5.62    0.17
   3  -7   1    5.37    0.17
  -4   7  -1    0.03    0.03
  -4   7  -1    0.00    0.02
   4  -7   1    0.06    0.03
   4  -7   1    0.00    0.01
   4  -7   1    0.00    0.02
  -5   7  -1    5.30    0.20
  -5   7  -1    5.43    0.17
   5  -7   1    5.40    0.16
   5  -7   1    5.18    0.17
   6  -7   1    0.65    0.06
   7  -7   1    7.85    0.25
   8  -7   1    1.58    0.10
   9  -7   1    1.20    0.10
   6   6  -1   11.47    0.38
   5   6  -1    7.18    0.25
  -5  -6   1    7.09    0.25
   4   6  -1    3.11    0.14
  -4  -6   1    3.00    0.14
   3   6  -1    1.44    0.09
  -3  -6   1    1.33    0.09
   2   6  -1   11.00    0.32
  -2  -6   1   10.53    0.32
   1   6  -1    0.81    0.06
  -1  -6   1    0.77    0.06
   0   6  -1    8.60    0.25
   0  -6   1    8.44    0.25
  -1   6  -1    4.60    0.14
   1  -6   1    4.44    0.15
  -2   6  -1    7.12    0.21
   2  -6   1    7.33    0.21
   2  -6   1    7.38    0.21
  -3   6  -1   12.69    0.34
  -3   6  -1   12.45    0.37
   3  -6   1   13.13    0.35
   3  -6   1   12.72    0.32
   3  -6   1   12.51    0.35
  -4   6  -1    1.02    0.05
  -4   6  -1    1.14    0.07
   4  -6   1    1.16    0.06
   4  -6   1    1.03    0.05
   4  -6   1    1.08    0.06
  -5   6  -1    0.17    0.03
   5  -6   1    0.17    0.03
   5  -6   1    0.13    0.03
   5  -6   1    0.13    0.03
   6  -6   1    5.73    0.19
   7  -6   1    6.16    0.20
   8  -6   1    0.11    0.04
   9  -6   1    7.47    0.26
   6   5  -1    0.61    0.08
   5   5  -1   13.27    0.39
  -5  -5   1   12.80    0.39
   4   5  -1   10.97    0.33
  -4  -5   1   11.34    0.34
   3   5  -1   17.44    0.49
   3   5  -1   18.44    0.47
   2   5  -1   10.08    0.30
   2   5  -1   11.01    0.28
  -2  -5   1   10.35    0.30
   1   5  -1   62.53    1.59
   0   5  -1  117.10    2.90
   0  -5   1  113.80    2.93
  -1   5  -1    6.83    0.19
   1  -5   1    6.70    0.20
   1  -5   1    6.89    0.21
   1  -5   1    7.18    0.20
  -2   5  -1   12.88    0.35
  -2   5  -1   12.92    0.38
   2  -5   1   13.63    0.33
   2  -5   1   12.56    0.35
   2  -5   1   13.62    0.35
  -3   5  -1    3.71    0.11
  -3   5  -1    3.32    0.13
   3  -5   1    3.62    0.10
   3  -5   1    3.83    0.12
   3  -5   1    3.62    0.12
  -4   5  -1   34.26    0.87
   4  -5   1   36.34    0.88
   4  -5   1   34.38    0.86
   4  -5   1   32.25    0.88
  -5   5  -1    1.38    0.06
   5  -5   1    1.49    0.07
   5  -5   1    1.31    0.06
   5  -5   1    1.35    0.07
  -6   5  -1    7.61    0.22
   6  -5   1    7.45    0.23
   7  -5   1    3.62    0.14
   8  -5   1    0.98    0.08
   9  -5   1    0.14    0.05
   7   4  -1    0.21    0.06
   6   4  -1    0.76    0.09
  -6  -4   1    0.71    0.08
   5   4  -1    2.42    0.12
  -5  -4   1    2.43    0.12
   4   4  -1    0.52    0.06
  -4  -4   1    0.51    0.05
   3   4  -1   22.80    0.60
   3   4  -1   22.99    0.58
  -3  -4   1   22.05    0.60
   2   4  -1    4.59    0.15
   2   4  -1    4.97    0.14
  -2  -4   1    4.93    0.16
   1   4  -1    3.27    0.09
   1   4  -1    3.16    0.11
  -1  -4   1    3.12    0.11
   0   4  -1   15.16    0.40
   0  -4   1   15.48    0.41
  -1   4  -1  111.49    2.74
   1  -4   1  105.96    2.75
  -2   4  -1    5.25    0.17
  -2   4  -1    5.21    0.15
   2  -4   1    5.14    0.15
   2  -4   1    5.51    0.15
   2  -4   1    5.08    0.14
  -3   4  -1    0.39    0.03
   3  -4   1    0.34    0.03
   3  -4   1    0.44    0.03
   3  -4   1    0.40    0.03
  -4   4  -1   23.46    0.61
   4  -4   1   24.77    0.62
   4  -4   1   23.95    0.60
   4  -4   1   22.96    0.62
  -5   4  -1   18.25    0.47
   5  -4   1   19.01    0.48
   5  -4   1   16.95    0.48
  -6   4  -1    4.96    0.15
   6  -4   1    4.82    0.16
   7  -4   1    0.05    0.03
   8  -4   1   12.03    0.36
   9  -4   1    0.07    0.05
   8   3  -1    0.69    0.10
   7   3  -1    0.92    0.10
   6   3  -1    3.85    0.16
  -6  -3   1    3.70    0.16
   5   3  -1    4.06    0.15
  -5  -3   1    3.93    0.15
   4   3  -1    5.86    0.19
  -4  -3   1    5.74    0.19
   3   3  -1    7.48    0.21
   3   3  -1    7.34    0.22
  -3  -3   1    7.50    0.22
   2   3  -1    1.48    0.05
   2   3  -1    1.36    0.06
  -2  -3   1    1.38    0.06
   1   3  -1    2.30    0.08
   1   3  -1    2.37    0.07
  -1  -3   1    2.46    0.08
   0   3  -1   57.76    1.49
   0  -3   1   61.23    1.49
   0  -3   1   58.95    1.50
  -1   3  -1  103.21    2.89
  -1   3  -1  111.26    2.74
   1  -3   1  111.67    2.76
   1  -3   1  108.74    2.89
   1  -3   1  107.96    2.74
  -2   3  -1   16.71    0.43
   2  -3   1   16.70    0.42
   2  -3   1   17.73    0.43
   2  -3   1   16.26    0.43
  -3   3  -1    7.90    0.21
   3  -3   1    8.37    0.22
   3  -3   1    7.68    0.22
  -4   3  -1   18.75    0.49
   4  -3   1   19.33    0.50
   4  -3   1   18.23    0.49
   4  -3   1   19.21    0.49
  -5   3  -1   18.56    0.49
   5  -3   1   17.88    0.49
   5  -3   1   19.17    0.49
  -6   3  -1    0.21    0.03
   6  -3   1    0.20    0.04
   6  -3   1    0.24    0.04
   7  -3   1    1.41    0.08
   8  -3   1    0.34    0.06
   9  -3   1    3.35    0.15
   8   2  -1    1.75    0.13
   7   2  -1    0.01    0.05
   6   2  -1    1.07    0.08
  -6  -2   1    0.99    0.08
   5   2  -1   16.84    0.46
  -5  -2   1   16.42    0.46
   4   2  -1    8.72    0.26
  -4  -2   1    8.96    0.26
   3   2  -1   56.16    1.37
   3   2  -1   55.20    1.40
  -3  -2   1   54.43    1.40
   2   2  -1    0.08    0.02
   2   2  -1    0.07    0.02
  -2  -2   1    0.12    0.03
   1   2  -1   29.88    0.76
   1   2  -1   30.66    0.78
  -1  -2   1   32.15    0.78
  -1  -2   1   30.95    0.79
   0   2  -1   44.80    1.16
   0   2  -1   47.45    1.16
   0  -2   1   46.75    1.17
   0  -2   1   45.68    1.17
  -1   2  -1   77.24    1.91
  -1   2  -1   75.08    1.91
  -1   2  -1   71.49    2.04
   1  -2   1   75.80    1.92
   1  -2   1   76.30    1.92
   1  -2   1   79.25    1.87
  -2   2  -1    2.45    0.07
   2  -2   1    2.42    0.07
   2  -2   1    2.58    0.08
   2  -2   1    2.38    0.07
  -3   2  -1    3.23    0.09
   3  -2   1    3.19    0.09
   3  -2   1    3.25    0.10
   3  -2   1    2.52    0.09
  -4   2  -1   12.07    0.32
   4  -2   1   12.58    0.33
   4  -2   1   11.77    0.33
   4  -2   1   12.45    0.33
  -5   2  -1    0.26    0.03
   5  -2   1    0.28    0.04
   5  -2   1    0.31    0.03
  -6   2  -1    1.92    0.08
   6  -2   1    2.05    0.09
   7  -2   1    0.26    0.05
   8  -2   1    0.78    0.08
   9  -2   1    0.12    0.05
   8   1  -1    1.03    0.10
   7   1  -1    5.25    0.19
   6   1  -1    1.06    0.08
  -6  -1   1    0.96    0.07
   5   1  -1    0.06    0.03
  -5  -1   1    0.05    0.03
   4   1  -1    0.83    0.06
   4   1  -1    0.85    0.05
  -4  -1   1    0.75    0.05
   3   1  -1   28.04    0.72
   3   1  -1   28.38    0.73
  -3  -1   1   28.93    0.73
   2   1  -1   38.33    0.95
   2   1  -1   36.94    0.95
  -2  -1   1   36.70    0.95
   1   1  -1    9.12    0.25
   1   1  -1    9.92    0.25
  -1  -1   1    9.89    0.25
  -1  -1   1    9.22    0.25
   0   1  -1   26.37    0.67
   0  -1   1   26.12    0.67
   0  -1   1   26.43    0.67
  -1   1  -1    7.70    0.20
  -1   1  -1    8.04    0.20
  -1   1  -1    7.91    0.20
   1  -1   1    8.19    0.20
   1  -1   1    7.90    0.20
   1  -1   1    7.77    0.20
  -2   1  -1   74.28    1.84
  -2   1  -1   71.10    1.81
   2  -1   1   74.85    1.85
   2  -1   1   72.36    1.84
   2  -1   1   73.57    1.81
  -3   1  -1   57.20    1.46
   3  -1   1   59.01    1.46
   3  -1   1   58.87    1.43
   3  -1   1   56.75    1.46
  -4   1  -1  136.13    3.45
   4  -1   1  144.84    3.43
   4  -1   1  129.55    3.44
  -5   1  -1    2.99    0.11
   5  -1   1    3.25    0.11
   5  -1   1    3.08    0.11
  -6   1  -1   35.10    0.90
   6  -1   1   33.80    0.90
   7  -1   1    6.43    0.21
   8  -1   1   13.31    0.40
   9  -1   1    0.02    0.05
   9   0  -1    0.36    0.08
   8   0  -1    0.40    0.07
   7   0  -1   13.58    0.40
   6   0  -1    4.08    0.15
  -6   0   1    4.45    0.15
   5   0  -1    1.08    0.06
  -5   0   1    1.11    0.06
   4   0  -1    0.27    0.04
   4   0  -1    0.13    0.03
  -4   0   1    0.12    0.03
   3   0  -1   19.85    0.50
   3   0  -1   18.79    0.50
  -3   0   1   19.25    0.50
   2   0  -1   40.32    0.99
   2   0  -1   37.66    0.99
  -2   0   1   38.84    0.99
   1   0  -1   12.05    0.35
   1   0  -1   12.90    0.35
  -1   0   1   12.59    0.35
  -1   0   1   12.15    0.35
  -1   0  -1    0.27    0.02
  -1   0  -1    0.23    0.02
   1   0   1    0.27    0.02
   1   0   1    0.29    0.02
  -2   0  -1   17.03    0.44
   2   0   1   17.03    0.44
   2   0   1   17.38    0.44
  -3   0  -1   95.83    2.42
   3   0   1   95.34    2.36
   3   0   1   98.55    2.41
   3   0   1   94.43    2.41
  -4   0  -1    9.12    0.26
   4   0   1    9.44    0.26
   4   0   1    9.19    0.25
   4   0   1    8.88    0.26
  -5   0  -1    3.41    0.12
   5   0   1    3.14    0.12
  -6   0  -1    0.89    0.06
   6   0   1    0.88    0.07
   7   0   1    1.88    0.10
   8   0   1    0.97    0.09
   9   0   1    0.30    0.07
   9  -1  -1    0.05    0.05
   8  -1  -1   26.66    0.73
   7  -1  -1   25.22    0.68
  -7   1   1   24.92    0.69
   6  -1  -1    0.45    0.05
  -6   1   1    0.52    0.05
   5  -1  -1    0.04    0.03
  -5   1   1    0.28    0.03
   4  -1  -1   51.57    1.24
   4  -1  -1   46.94    1.23
  -4   1   1   47.04    1.23
   3  -1  -1   76.30    1.94
   3  -1  -1   79.54    1.94
  -3   1   1   75.72    1.97
   2  -1  -1   52.33    1.33
   2  -1  -1   55.20    1.34
  -2   1   1   51.71    1.36
   1  -1  -1   20.90    0.52
   1  -1  -1   19.81    0.52
  -1   1   1   20.33    0.52
  -1   1   1   20.98    0.52
   0  -1  -1   35.99    0.90
   0  -1  -1   33.92    0.90
   0   1   1   37.14    0.91
   0   1   1   35.45    0.90
  -1  -1  -1   38.42    0.98
  -1  -1  -1   37.38    0.95
  -1  -1  -1   39.25    0.97
   1   1   1   37.85    0.97
   1   1   1   39.91    0.97
   1   1   1   38.20    0.95
  -2  -1  -1    6.00    0.16
  -2  -1  -1    5.65    0.16
   2   1   1    5.73    0.16
   2   1   1    5.78    0.16
   2   1   1    6.01    0.16
  -3  -1  -1   38.50    0.99
   3   1   1   40.89    0.99
   3   1   1   37.62    0.99
   3   1   1   37.99    0.97
  -4  -1  -1    6.83    0.20
   4   1   1    6.88    0.20
  -5  -1  -1    0.60    0.05
   5   1   1    0.54    0.05
  -6  -1  -1    4.36    0.15
   6   1   1    4.16    0.16
   7   1   1   10.07    0.31
   8   1   1    0.48    0.07
   9  -2  -1   -0.02    0.05
   8  -2  -1    9.10    0.29
   7  -2  -1    7.85    0.25
  -7   2   1    7.75    0.26
   6  -2  -1    0.95    0.07
  -6   2   1    1.06    0.06
   5  -2  -1    2.16    0.09
  -5   2   1    2.16    0.09
   4  -2  -1   34.13    0.85
   4  -2  -1   32.38    0.85
  -4   2   1   32.67    0.85
   3  -2  -1    7.66    0.21
   3  -2  -1    8.32    0.22
  -3   2   1    7.51    0.21
   2  -2  -1   10.62    0.29
   2  -2  -1   11.53    0.29
  -2   2   1   11.15    0.29
   1  -2  -1   14.28    0.38
   1  -2  -1   14.53    0.37
  -1   2   1   15.10    0.38
  -1   2   1   14.22    0.39
  -1   2   1   14.24    0.37
   0  -2  -1   11.07    0.29
   0  -2  -1   10.82    0.29
   0   2   1   11.51    0.29
   0   2   1   10.61    0.29
  -1  -2  -1  143.61    3.65
  -1  -2  -1  147.39    3.75
   1   2   1  146.57    3.75
   1   2   1  154.88    3.74
  -2  -2  -1    8.22    0.22
  -2  -2  -1    8.11    0.23
   2   2   1    8.19    0.23
   2   2   1    8.28    0.22
  -3  -2  -1   48.75    1.24
   3   2   1   50.13    1.21
   3   2   1   47.46    1.24
  -4  -2  -1    0.05    0.02
   4   2   1    0.04    0.03
  -5  -2  -1    3.36    0.13
   5   2   1    3.17    0.13
  -6  -2  -1    1.11    0.08
   6   2   1    0.96    0.08
   7   2   1   10.82    0.34
   8   2   1   -0.05    0.05
   9  -3  -1    0.95    0.09
   8  -3  -1    3.57    0.15
   7  -3  -1    0.58    0.06
   6  -3  -1    3.30    0.12
  -6   3   1    3.25    0.12
   5  -3  -1   22.14    0.59
  -5   3   1   22.42    0.59
   4  -3  -1   10.80    0.31
   4  -3  -1   11.74    0.31
  -4   3   1   11.04    0.30
   3  -3  -1    6.82    0.20
   3  -3  -1    7.15    0.20
  -3   3   1    6.92    0.19
   2  -3  -1   25.18    0.66
   2  -3  -1   26.41    0.66
  -2   3   1   25.59    0.66
   1  -3  -1   16.17    0.43
   1  -3  -1   17.01    0.43
   1  -3  -1   17.10    0.45
  -1   3   1   16.26    0.43
   0  -3  -1    3.49    0.11
   0   3   1    3.48    0.11
  -1  -3  -1    3.27    0.10
   1   3   1    3.36    0.11
  -2  -3  -1    3.00    0.10
  -2  -3  -1    3.17    0.11
   2   3   1    2.99    0.10
  -3  -3  -1    0.09    0.03
   3   3   1    0.17    0.03
   3   3   1    0.13    0.03
  -4  -3  -1    3.43    0.13
   4   3   1    3.41    0.13
  -5  -3  -1    9.66    0.29
   5   3   1    9.75    0.30
   6   3   1   22.20    0.62
   7   3   1    1.13    0.10
   9  -4  -1    1.83    0.12
   8  -4  -1    0.38    0.06
   7  -4  -1    2.45    0.11
   6  -4  -1    8.06    0.24
  -6   4   1    8.05    0.24
   5  -4  -1   11.67    0.34
   5  -4  -1   13.01    0.35
  -5   4   1   12.22    0.34
   4  -4  -1   39.11    0.96
   4  -4  -1   35.98    0.96
  -4   4   1   36.73    0.95
   3  -4  -1    8.27    0.23
   3  -4  -1    7.79    0.22
  -3   4   1    7.84    0.22
   2  -4  -1    0.46    0.03
   2  -4  -1    0.40    0.04
  -2   4   1    0.42    0.04
  -2   4   1    0.46    0.03
   1  -4  -1   29.71    0.77
   1  -4  -1   30.41    0.81
  -1   4   1   30.32    0.77
   0  -4  -1    7.98    0.23
   0  -4  -1    8.18    0.21
   0   4   1    7.93    0.22
  -1  -4  -1    0.23    0.03
  -1  -4  -1    0.30    0.03
   1   4   1    0.26    0.03
  -2  -4  -1   13.54    0.37
   2   4   1   12.92    0.36
  -3  -4  -1    1.16    0.07
   3   4   1    0.95    0.07
  -4  -4  -1    6.39    0.21
   4   4   1    6.27    0.21
  -5  -4  -1    6.59    0.22
   5   4   1    6.56    0.23
   6   4   1    5.93    0.22
   7   4   1    0.15    0.07
   9  -5  -1    0.01    0.05
   8  -5  -1    0.03    0.04
   7  -5  -1    1.07    0.08
   6  -5  -1   21.45    0.59
  -6   5   1   22.21    0.58
   5  -5  -1   32.74    0.87
  -5   5   1   34.18    0.86
   4  -5  -1   27.28    0.67
   4  -5  -1   24.30    0.67
  -4   5   1   25.21    0.66
   3  -5  -1   27.54    0.68
   3  -5  -1   26.26    0.68
  -3   5   1   25.82    0.68
  -3   5   1   25.03    0.71
   2  -5  -1   83.86    2.14
  -2   5   1   86.06    2.14
   1  -5  -1  164.54    4.33
   1  -5  -1  165.30    4.14
  -1   5   1  164.29    4.13
   0  -5  -1   33.26    0.86
   0  -5  -1   33.55    0.82
   0   5   1   32.80    0.86
  -1  -5  -1    8.15    0.24
  -1  -5  -1    8.19    0.22
   1   5   1    8.26    0.24
  -2  -5  -1    6.86    0.21
   2   5   1    7.08    0.22
  -3  -5  -1   40.86    1.06
   3   5   1   40.51    1.06
  -4  -5  -1    2.44    0.12
   4   5   1    2.51    0.12
  -5  -5  -1    2.98    0.14
   5   5   1    2.64    0.14
   6   5   1    1.28    0.11
   9  -6  -1    6.46    0.24
   8  -6  -1    0.60    0.07
   7  -6  -1    0.46    0.06
   6  -6  -1    4.72    0.17
  -6   6   1    4.98    0.16
   5  -6  -1   37.94    0.93
   5  -6  -1   35.62    0.96
  -5   6   1   37.24    0.95
   4  -6  -1    6.40    0.20
  -4   6   1    6.91    0.20
  -4   6   1    6.48    0.22
   3  -6  -1    0.16    0.03
  -3   6   1    0.11    0.03
  -3   6   1    0.16    0.03
   2  -6  -1   24.33    0.63
  -2   6   1   23.58    0.63
   1  -6  -1    8.92    0.27
   1  -6  -1    8.83    0.25
  -1   6   1    8.60    0.25
   0  -6  -1    2.22    0.07
   0   6   1    2.40    0.09
  -1  -6  -1    0.06    0.03
   1   6   1    0.08    0.03
  -2  -6  -1   18.02    0.49
   2   6   1   17.33    0.49
  -3  -6  -1    3.83    0.15
   3   6   1    3.69    0.15
  -4  -6  -1    7.58    0.25
   4   6   1    7.53    0.25
  -5  -6  -1    0.38    0.07
   5   6   1    0.49    0.07
   6   6   1   -0.03    0.06
   9  -7  -1    1.64    0.11
   8  -7  -1    1.01    0.09
   7  -7  -1    0.31    0.05
   6  -7  -1    8.54    0.27
   5  -7  -1    0.03    0.03
   5  -7  -1    0.00    0.02
  -5   7   1    0.03    0.02
  -5   7   1    0.01    0.03
   4  -7  -1    1.99    0.09
  -4   7   1    2.07    0.10
  -4   7   1    2.01    0.09
   3  -7  -1    7.68    0.24
  -3   7   1    8.31    0.24
   2  -7  -1   28.67    0.75
  -2   7   1   28.47    0.75
   1  -7  -1    0.49    0.05
  -1   7   1    0.39    0.04
   0  -7  -1   13.01    0.37
   0   7   1   13.15    0.37
   1   7   1    0.50    0.06
  -2  -7  -1   15.62    0.45
   2   7   1   15.95    0.45
   3   7   1    2.46    0.13
  -4  -7  -1    2.64    0.14
   4   7   1    2.80    0.15
   5   7   1    0.24    0.07
   9  -8  -1    3.51    0.16
   8  -8  -1    1.13    0.09
   7  -8  -1    0.73    0.07
  -7   8   1    0.64    0.08
   6  -8  -1    5.98    0.21
  -6   8   1    6.31    0.23
   5  -8  -1   10.85    0.33
   5  -8  -1   11.41    0.30
  -5   8   1   11.60    0.33
  -5   8   1   11.54    0.36
   4  -8  -1    1.75    0.09
  -4   8   1    1.77    0.10
  -4   8   1    1.68    0.08
   3  -8  -1    0.88    0.07
  -3   8   1    0.84    0.06
   2  -8  -1    0.36    0.05
  -2   8   1    0.36    0.05
   1  -8  -1    1.40    0.08
  -1   8   1    1.36    0.08
   0   8   1    1.92    0.10
  -1  -8  -1    4.40    0.17
   1   8   1    4.22    0.17
  -2  -8  -1    6.77    0.24
   2   8   1    6.90    0.24
  -3  -8  -1    0.32    0.06
   3   8   1    0.39    0.07
  -4  -8  -1    0.06    0.05
   4   8   1   -0.01    0.06
   8  -9  -1    0.32    0.07
  -8   9   1    0.17    0.06
   7  -9  -1    0.59    0.07
  -7   9   1    0.79    0.09
   6  -9  -1    1.74    0.10
  -6   9   1    1.91    0.12
   5  -9  -1    0.21    0.04
  -5   9   1    0.14    0.05
   4  -9  -1    5.07    0.18
   3  -9  -1   11.51    0.35
  -3   9   1   11.66    0.34
   2  -9  -1    5.27    0.19
  -2   9   1    5.29    0.18
  -1   9   1    5.38    0.19
   0  -9  -1    3.36    0.15
   0   9   1    3.40    0.14
  -1  -9  -1   29.98    0.82
  -1  -9  -1   30.31    0.83
   1   9   1   30.59    0.82
  -2  -9  -1    8.74    0.30
   2   9   1    8.78    0.29
  -3  -9  -1    4.81    0.21
   3   9   1    5.24    0.21
   8 -10  -1    1.16    0.10
  -8  10   1    1.28    0.12
   7 -10  -1    4.25    0.17
  -7  10   1    3.91    0.19
   6 -10  -1    3.48    0.16
  -6  10   1    3.67    0.17
   5 -10  -1    0.10    0.05
   4 -10  -1    0.33    0.06
   3 -10  -1   13.05    0.39
   2 -10  -1    2.12    0.12
  -2  10   1    2.22    0.11
  -1  10   1    2.54    0.13
   0 -10  -1    0.13    0.05
   0  10   1    0.21    0.06
  -1 -10  -1    8.71    0.30
   1  10   1    8.37    0.29
  -2 -10  -1    4.08    0.19
   2  10   1    4.36    0.19
   7 -11  -1    1.07    0.10
  -7  11   1    0.93    0.10
   6 -11  -1    0.84    0.09
   5 -11  -1    0.92    0.09
   4 -11  -1    4.99    0.20
   3 -11  -1    0.94    0.09
   2 -11  -1    0.02    0.04
   1 -11  -1    0.14    0.06
   0 -11  -1    9.44    0.32
  -1 -11  -1    0.51    0.08
   6 -12  -1    5.49    0.22
   5 -12  -1    1.41    0.12
   4 -12  -1    1.72    0.12
   3 -12  -1    8.40    0.30
   2 -12  -1    0.77    0.10
   1 -12   2    0.19    0.06
   2 -12   2    3.90    0.18
   3 -12   2    0.52    0.07
   4 -12   2    1.02    0.10
   5 -12   2    5.02    0.20
  -1 -11   2    3.87    0.18
   0 -11   2   -0.04    0.04
   1 -11   2    0.33    0.06
   2 -11   2    6.13    0.22
   3 -11   2    1.01    0.09
   4 -11   2    5.01    0.19
   5 -11   2    0.02    0.04
   6 -11   2    1.91    0.11
  -7  11  -2    2.51    0.16
   7 -11   2    2.74    0.13
  -2 -10   2    0.08    0.06
  -1 -10   2    0.93    0.10
   0 -10   2    0.87    0.09
   0 -10   2    0.92    0.09
   2 -10   2    0.18    0.04
   3 -10   2    1.43    0.09
   4 -10   2    0.74    0.07
   5 -10   2    0.00    0.03
  -6  10  -2   -0.02    0.05
   6 -10   2   -0.05    0.03
  -7  10  -2    2.32    0.15
   7 -10   2    2.45    0.12
  -8  10  -2    2.03    0.15
   8 -10   2    2.03    0.12
   3   9  -2    1.01    0.10
  -3  -9   2    1.21    0.11
   2   9  -2    0.69    0.08
  -2  -9   2    0.60    0.08
   1   9  -2    5.29    0.19
  -1  -9   2    5.29    0.20
   0   9  -2    0.32    0.05
   0  -9   2    0.21    0.04
  -1   9  -2   13.02    0.36
   1  -9   2   11.81    0.36
   2  -9   2    4.67    0.17
   3  -9   2    7.31    0.23
   4  -9   2    0.08    0.04
  -5   9  -2    2.43    0.13
   5  -9   2    2.54    0.11
  -6   9  -2    0.08    0.05
   6  -9   2    0.03    0.03
  -7   9  -2    6.95    0.26
   7  -9   2    6.44    0.22
  -8   9  -2    7.65    0.29
   8  -9   2    7.30    0.25
   4   8  -2    5.58    0.22
  -4  -8   2    5.62    0.22
   3   8  -2    7.75    0.26
  -3  -8   2    7.15    0.26
   2   8  -2   13.78    0.40
  -2  -8   2   13.28    0.40
   1   8  -2    2.64    0.12
  -1  -8   2    2.46    0.12
   0   8  -2   32.97    0.86
   0  -8   2   31.99    0.86
  -1   8  -2    1.23    0.07
   1  -8   2    1.25    0.08
  -2   8  -2   35.44    0.90
   2  -8   2   33.98    0.91
  -3   8  -2    8.06    0.24
   3  -8   2    8.19    0.25
  -4   8  -2   18.44    0.53
   4  -8   2   17.60    0.49
  -5   8  -2    0.75    0.08
   5  -8   2    0.73    0.06
  -6   8  -2    7.97    0.28
   6  -8   2    7.83    0.25
  -7   8  -2    8.03    0.28
   7  -8   2    7.73    0.25
   8  -8   2    0.80    0.08
   9  -8   2    0.34    0.06
   5   7  -2    2.15    0.15
  -5  -7   2    2.24    0.14
   4   7  -2    8.82    0.30
  -4  -7   2    9.04    0.30
   3   7  -2    8.55    0.28
  -3  -7   2    8.43    0.28
   2   7  -2   18.48    0.52
  -2  -7   2   18.67    0.52
   1   7  -2   18.02    0.49
  -1  -7   2   17.55    0.49
   0   7  -2   20.51    0.54
   0  -7   2   19.96    0.55
  -1   7  -2   49.41    1.24
   1  -7   2   47.87    1.25
  -2   7  -2   13.39    0.36
   2  -7   2   12.90    0.36
  -3   7  -2    0.31    0.03
   3  -7   2    0.32    0.04
   3  -7   2    0.33    0.04
  -4   7  -2    5.28    0.15
  -4   7  -2    4.84    0.18
   4  -7   2    4.94    0.16
   4  -7   2    5.35    0.16
  -5   7  -2    0.77    0.07
   5  -7   2    0.58    0.04
   5  -7   2    0.62    0.06
   6  -7   2    1.96    0.09
   7  -7   2    0.77    0.07
   8  -7   2    0.03    0.04
   9  -7   2    2.58    0.13
   6   6  -2    0.68    0.09
   5   6  -2    5.19    0.20
  -5  -6   2    4.73    0.20
   4   6  -2    0.09    0.05
  -4  -6   2    0.05    0.04
   3   6  -2    1.16    0.06
   3   6  -2    0.90    0.08
  -3  -6   2    1.04    0.08
   2   6  -2    0.53    0.06
  -2  -6   2    0.57    0.06
   1   6  -2   42.22    1.08
  -1  -6   2   41.76    1.09
   0   6  -2    3.54    0.12
  -1   6  -2    0.13    0.02
   1  -6   2    0.13    0.03
  -2   6  -2    0.11    0.02
   2  -6   2    0.15    0.02
   2  -6   2    0.19    0.03
  -3   6  -2   58.13    1.47
  -3   6  -2   57.87    1.56
   3  -6   2   57.43    1.48
   3  -6   2   60.06    1.48
  -4   6  -2   19.91    0.59
  -4   6  -2   20.85    0.54
   4  -6   2   21.91    0.55
   4  -6   2   20.68    0.55
   4  -6   2   21.53    0.53
  -5   6  -2    6.60    0.19
   5  -6   2    6.57    0.19
   5  -6   2    6.83    0.20
   5  -6   2    6.46    0.20
   6  -6   2    1.20    0.07
   7  -6   2    0.45    0.05
   8  -6   2    3.53    0.15
   9  -6   2    0.49    0.07
   7   5  -2    1.15    0.11
   6   5  -2    1.56    0.12
  -6  -5   2    1.51    0.11
   5   5  -2    0.38    0.06
  -5  -5   2    0.43    0.06
   4   5  -2    0.03    0.04
  -4  -5   2    0.01    0.03
   3   5  -2    0.05    0.02
   3   5  -2    0.08    0.04
  -3  -5   2    0.07    0.03
   2   5  -2   12.77    0.36
   2   5  -2   13.07    0.33
  -2  -5   2   12.61    0.36
   1   5  -2    0.18    0.02
   1   5  -2    0.14    0.03
  -1  -5   2    0.18    0.03
   0   5  -2    0.73    0.05
  -1   5  -2   40.12    1.04
   1  -5   2   41.87    1.11
   1  -5   2   39.70    1.05
   1  -5   2   42.95    1.05
  -2   5  -2    1.08    0.06
  -2   5  -2    1.17    0.05
   2  -5   2    1.05    0.05
   2  -5   2    1.17    0.05
  -3   5  -2   44.77    1.14
  -3   5  -2   43.88    1.21
   3  -5   2   45.63    1.11
   3  -5   2   45.26    1.15
   3  -5   2   46.12    1.15
  -4   5  -2    3.73    0.11
   4  -5   2    3.89    0.12
   4  -5   2    3.68    0.11
   4  -5   2    3.59    0.12
  -5   5  -2   13.56    0.36
   5  -5   2   13.29    0.37
   5  -5   2   14.25    0.37
   5  -5   2   13.36    0.37
   6  -5   2    1.26    0.07
   7  -5   2    4.27    0.15
   8  -5   2    1.60    0.10
   9  -5   2    2.65    0.13
   7   4  -2    3.99    0.19
   6   4  -2   12.37    0.38
  -6  -4   2   12.23    0.38
   5   4  -2    0.07    0.04
  -5  -4   2    0.06    0.04
   4   4  -2   44.64    1.16
  -4  -4   2   44.60    1.16
   3   4  -2    5.52    0.18
   3   4  -2    5.50    0.16
  -3  -4   2    5.44    0.18
   2   4  -2   11.28    0.31
   2   4  -2   11.47    0.30
  -2  -4   2   11.03    0.32
   1   4  -2   17.64    0.47
   1   4  -2   17.74    0.44
  -1  -4   2   17.77    0.47
   0   4  -2    4.39    0.14
   0  -4   2    4.74    0.14
  -1   4  -2    0.52    0.03
   1  -4   2    0.46    0.03
   1  -4   2    0.46    0.03
  -2   4  -2    3.88    0.11
   2  -4   2    3.88    0.12
   2  -4   2    4.12    0.12
  -3   4  -2   19.41    0.49
   3  -4   2   20.00    0.50
   3  -4   2   18.71    0.50
  -4   4  -2   49.77    1.26
   4  -4   2   52.51    1.27
   4  -4   2   50.27    1.25
   4  -4   2   48.28    1.27
  -5   4  -2   21.58    0.55
   5  -4   2   21.98    0.57
   5  -4   2   20.82    0.56
   6  -4   2    2.12    0.09
   7  -4   2    7.56    0.23
   8  -4   2   11.63    0.35
   9  -4   2    7.33    0.25
   8   3  -2    0.52    0.09
   7   3  -2    2.75    0.15
   6   3  -2    5.75    0.21
  -6  -3   2    5.63    0.20
   5   3  -2    0.46    0.06
  -5  -3   2    0.44    0.05
   4   3  -2    8.51    0.25
  -4  -3   2    8.11    0.25
   3   3  -2    0.13    0.03
   3   3  -2    0.15    0.03
  -3  -3   2    0.20    0.03
   2   3  -2   15.97    0.41
   2   3  -2   15.83    0.42
   1   3  -2    1.36    0.06
  -1  -3   2    1.30    0.06
   0   3  -2  144.27    3.72
   0  -3   2  147.20    3.76
   0  -3   2  152.09    3.74
  -1   3  -2  221.26    5.56
  -1   3  -2  222.80    5.42
  -1   3  -2  213.57    5.87
   1  -3   2  232.17    5.58
   1  -3   2  218.73    5.58
  -2   3  -2   37.40    0.95
   2  -3   2   39.11    0.96
   2  -3   2   37.64    0.94
   2  -3   2   37.99    0.96
  -3   3  -2   65.58    1.67
   3  -3   2   68.87    1.67
   3  -3   2   65.44    1.67
  -4   3  -2   58.00    1.47
   4  -3   2   60.55    1.47
   4  -3   2   58.97    1.45
   4  -3   2   56.02    1.47
  -5   3  -2   21.57    0.55
   5  -3   2   21.94    0.56
   5  -3   2   20.45    0.56
  -6   3  -2    8.51    0.24
   6  -3   2    8.35    0.25
   6  -3   2    8.86    0.26
   7  -3   2    4.72    0.17
   8  -3   2    3.02    0.13
   9  -3   2    0.16    0.05
   8   2  -2    0.88    0.10
   7   2  -2    1.81    0.12
   6   2  -2    3.31    0.14
  -6  -2   2    3.40    0.14
   5   2  -2    0.59    0.06
  -5  -2   2    0.55    0.06
   4   2  -2    2.51    0.10
  -4  -2   2    2.58    0.10
   3   2  -2   17.43    0.47
   3   2  -2   17.89    0.46
  -3  -2   2   18.28    0.48
   2   2  -2    5.68    0.16
  -2  -2   2    5.71    0.17
   1   2  -2    4.63    0.14
  -1  -2   2    4.98    0.14
  -1  -2   2    4.76    0.14
   0   2  -2   12.70    0.33
   0  -2   2   13.02    0.33
   0  -2   2   12.58    0.33
  -1   2  -2   58.56    1.45
  -1   2  -2   57.85    1.45
  -1   2  -2   56.38    1.54
  -1   2  -2   58.20    1.43
   1  -2   2   59.36    1.47
   1  -2   2   57.81    1.47
  -2   2  -2    5.11    0.13
  -2   2  -2    4.90    0.14
   2  -2   2    5.37    0.14
   2  -2   2    5.08    0.14
   2  -2   2    4.97    0.14
  -3   2  -2    0.19    0.02
  -3   2  -2    0.16    0.03
   3  -2   2    0.14    0.02
   3  -2   2    0.16    0.02
   3  -2   2    0.15    0.02
  -4   2  -2   21.41    0.55
   4  -2   2   21.64    0.55
   4  -2   2   22.06    0.56
   4  -2   2   20.84    0.55
  -5   2  -2   13.99    0.37
   5  -2   2   14.25    0.37
   5  -2   2   13.21    0.37
  -6   2  -2   39.42    1.01
   6  -2   2   39.21    1.02
   7  -2   2    0.89    0.07
   8  -2   2    0.03    0.04
   9  -2   2    3.56    0.16
   8   1  -2    0.05    0.05
   7   1  -2   14.41    0.43
  -7  -1   2   14.71    0.43
   6   1  -2    3.16    0.13
  -6  -1   2    3.52    0.14
   5   1  -2    2.00    0.09
  -5  -1   2    2.18    0.10
   4   1  -2    9.27    0.26
   4   1  -2    9.15    0.26
  -4  -1   2    9.29    0.27
   3   1  -2    1.91    0.07
  -3  -1   2    1.89    0.07
   2   1  -2   21.24    0.55
  -2  -1   2   21.47    0.55
   1   1  -2    8.10    0.22
   1   1  -2    8.55    0.22
  -1  -1   2    8.36    0.22
  -1  -1   2    8.39    0.22
   0   1  -2  109.30    2.74
   0   1  -2  107.96    2.73
   0  -1   2  110.09    2.74
   0  -1   2  108.75    2.74
  -2   1  -2    1.56    0.05
  -2   1  -2    1.54    0.06
   2  -1   2    1.59    0.06
   2  -1   2    1.70    0.05
   2  -1   2    1.57    0.05
  -3   1  -2    2.45    0.08
  -3   1  -2    2.44    0.08
   3  -1   2    2.48    0.08
   3  -1   2    2.42    0.08
   3  -1   2    2.42    0.08
  -4   1  -2   12.43    0.34
   4  -1   2   13.02    0.34
   4  -1   2   12.45    0.34
   4  -1   2   12.69    0.34
  -5   1  -2    0.81    0.05
   5  -1   2    0.80    0.05
   5  -1   2    0.87    0.05
  -6   1  -2    0.34    0.04
   6  -1   2    0.31    0.04
   7  -1   2   14.03    0.40
   8  -1   2    0.42    0.06
   9  -1   2    3.52    0.16
   9   0  -2   -0.04    0.05
   8   0  -2    5.91    0.22
   7   0  -2    0.73    0.07
  -7   0   2    0.82    0.07
   6   0  -2   12.87    0.37
  -6   0   2   13.24    0.37
   5   0  -2    8.88    0.27
  -5   0   2    9.43    0.27
   4   0  -2  237.70    6.07
  -4   0   2  242.47    6.07
   3   0  -2   33.47    0.87
  -3   0   2   34.41    0.87
   2   0  -2 1000.00   25.27
  -2   0   2  956.89   25.53
   1   0  -2   32.20    0.80
   1   0  -2   31.01    0.80
  -1   0   2   32.81    0.81
  -1   0   2   31.12    0.82
   0   0  -2    9.45    0.28
   0   0  -2   11.47    0.28
   0   0  -2   11.11    0.29
   0   0   2   11.83    0.28
   0   0   2   11.24    0.28
  -1   0  -2   89.58    2.26
  -1   0  -2   92.04    2.27
   1   0   2   91.05    2.27
   1   0   2   88.57    2.27
  -2   0  -2   54.63    1.36
  -2   0  -2   55.27    1.38
   2   0   2   55.59    1.38
   2   0   2   55.09    1.38
  -3   0  -2    1.32    0.06
  -3   0  -2    1.41    0.05
   3   0   2    1.38    0.06
   3   0   2    1.35    0.06
  -4   0  -2    1.66    0.07
   4   0   2    1.88    0.07
   4   0   2    1.68    0.08
   4   0   2    1.57    0.07
  -5   0  -2   24.29    0.65
   5   0   2   26.44    0.66
   5   0   2   24.39    0.66
  -6   0  -2    4.92    0.16
   6   0   2    4.63    0.16
   7   0   2    1.85    0.10
   8   0   2   -0.02    0.04
   9  -1  -2    2.67    0.15
   8  -1  -2    2.06    0.12
   7  -1  -2    0.06    0.04
  -7   1   2    0.03    0.03
   6  -1  -2    6.90    0.22
  -6   1   2    7.13    0.22
   5  -1  -2   14.90    0.41
  -5   1   2   15.07    0.41
   4  -1  -2   10.14    0.29
  -4   1   2   10.46    0.29
   3  -1  -2   37.97    1.00
   3  -1  -2   41.44    1.00
  -3   1   2   38.67    1.00
   2  -1  -2   10.75    0.29
   2  -1  -2   11.69    0.29
  -2   1   2   10.73    0.29
   1  -1  -2   75.74    1.97
   1  -1  -2   78.34    1.96
  -1   1   2   78.13    1.96
   0  -1  -2   64.64    1.60
   0  -1  -2   64.18    1.61
   0   1   2   62.08    1.62
   0   1   2   64.66    1.61
  -1  -1  -2    1.59    0.06
  -1  -1  -2    1.59    0.05
   1   1   2    1.62    0.06
   1   1   2    1.66    0.06
  -2  -1  -2    5.27    0.15
  -2  -1  -2    5.58    0.15
   2   1   2    5.51    0.15
   2   1   2    5.64    0.16
   2   1   2    5.34    0.15
  -3  -1  -2   28.04    0.73
  -3  -1  -2   29.03    0.74
   3   1   2   29.69    0.74
   3   1   2   28.85    0.73
   3   1   2   28.01    0.74
  -4  -1  -2    2.45    0.09
   4   1   2    2.47    0.09
  -5  -1  -2    0.06    0.03
   5   1   2    0.06    0.03
   6   1   2    6.63    0.22
   7   1   2   21.93    0.61
   8   1   2    0.03    0.05
   9  -2  -2    0.05    0.05
   8  -2  -2    0.25    0.06
   7  -2  -2    7.74    0.25
  -7   2   2    7.76    0.24
   6  -2  -2    0.85    0.07
  -6   2   2    1.01    0.06
   5  -2  -2    3.18    0.12
  -5   2   2    3.28    0.12
   4  -2  -2   27.68    0.72
  -4   2   2   28.15    0.72
   3  -2  -2   14.03    0.38
   3  -2  -2   14.76    0.38
  -3   2   2   14.04    0.38
   2  -2  -2    4.29    0.13
   2  -2  -2    4.50    0.13
  -2   2   2    4.44    0.13
   1  -2  -2    4.99    0.13
   1  -2  -2    4.77    0.13
  -1   2   2    4.86    0.13
  -1   2   2    4.42    0.13
  -1   2   2    4.73    0.13
   0  -2  -2   20.30    0.53
   0  -2  -2   21.07    0.53
   0   2   2   19.98    0.53
   0   2   2   21.28    0.53
  -1  -2  -2    0.32    0.03
  -1  -2  -2    0.23    0.02
   1   2   2    0.22    0.02
   1   2   2    0.26    0.03
  -2  -2  -2    2.79    0.09
  -2  -2  -2    2.63    0.09
   2   2   2    2.65    0.09
   2   2   2    2.91    0.09
  -3  -2  -2   10.29    0.28
  -3  -2  -2   10.21    0.29
   3   2   2   10.79    0.28
   3   2   2   10.07    0.29
  -4  -2  -2    0.08    0.03
   4   2   2    0.06    0.03
  -5  -2  -2    0.98    0.07
   5   2   2    0.90    0.07
   6   2   2    4.90    0.18
   7   2   2    1.25    0.10
   8   2   2    5.95    0.23
   9  -3  -2    0.20    0.06
   8  -3  -2    0.56    0.07
   7  -3  -2    1.96    0.10
  -7   3   2    1.83    0.09
   6  -3  -2   10.53    0.31
  -6   3   2   10.54    0.30
   5  -3  -2   21.16    0.56
  -5   3   2   20.80    0.56
   4  -3  -2   15.31    0.42
  -4   3   2   15.75    0.42
   3  -3  -2    2.96    0.10
   3  -3  -2    2.76    0.10
  -3   3   2    2.83    0.09
   2  -3  -2    9.51    0.25
   2  -3  -2    8.83    0.25
  -2   3   2    9.21    0.25
   1  -3  -2   55.30    1.40
   1  -3  -2   57.45    1.46
  -1   3   2   53.90    1.40
   0  -3  -2   68.56    1.72
  -1  -3  -2    7.62    0.20
  -1  -3  -2    7.45    0.21
   1   3   2    7.62    0.21
  -2  -3  -2    4.14    0.12
  -2  -3  -2    4.24    0.13
   2   3   2    3.98    0.13
  -3  -3  -2   23.63    0.61
  -3  -3  -2   23.61    0.63
   3   3   2   23.99    0.63
  -4  -3  -2    1.87    0.09
   4   3   2    1.99    0.09
  -5  -3  -2    4.11    0.15
   5   3   2    4.14    0.16
   6   3   2   -0.02    0.04
   7   3   2    0.08    0.05
   9  -4  -2    0.48    0.07
   8  -4  -2    1.72    0.11
   7  -4  -2    2.51    0.12
  -7   4   2    2.59    0.11
   6  -4  -2    1.33    0.08
  -6   4   2    1.42    0.07
   5  -4  -2    2.08    0.09
  -5   4   2    2.00    0.08
   4  -4  -2   18.99    0.51
  -4   4   2   19.20    0.50
   3  -4  -2    0.46    0.04
  -3   4   2    0.50    0.04
   2  -4  -2   82.34    2.10
  -2   4   2   83.57    2.09
  -2   4   2   82.08    2.17
   1  -4  -2   68.70    1.82
   1  -4  -2   69.07    1.74
  -1   4   2   69.29    1.74
   0  -4  -2   58.84    1.49
   0   4   2   58.90    1.49
  -1  -4  -2   26.00    0.67
  -1  -4  -2   25.37    0.64
   1   4   2   25.59    0.67
  -2  -4  -2   56.59    1.43
  -2  -4  -2   55.22    1.39
   2   4   2   56.85    1.43
  -3  -4  -2   52.43    1.33
   3   4   2   51.42    1.33
  -4  -4  -2    2.62    0.11
   4   4   2    2.33    0.11
  -5  -4  -2    6.57    0.22
   5   4   2    6.17    0.22
   6   4   2    4.76    0.19
   7   4   2   12.13    0.39
   9  -5  -2    1.15    0.10
   8  -5  -2    7.77    0.26
   7  -5  -2    0.15    0.04
   6  -5  -2   10.44    0.31
  -6   5   2   10.28    0.30
   5  -5  -2    8.29    0.25
  -5   5   2    8.33    0.24
   4  -5  -2   25.59    0.69
  -4   5   2   26.64    0.68
   3  -5  -2   16.57    0.46
  -3   5   2   18.05    0.49
  -3   5   2   17.34    0.46
   2  -5  -2   19.10    0.50
  -2   5   2   18.95    0.50
   1  -5  -2   57.44    1.44
   1  -5  -2   56.73    1.50
  -1   5   2   55.51    1.43
   0  -5  -2    1.12    0.04
   0  -5  -2    1.08    0.06
   0   5   2    1.11    0.06
  -1  -5  -2   26.57    0.70
  -1  -5  -2   26.81    0.67
   1   5   2   26.44    0.70
  -2  -5  -2   46.02    1.15
  -2  -5  -2   46.28    1.19
   2   5   2   45.85    1.19
  -3  -5  -2    4.13    0.15
   3   5   2    4.21    0.15
  -4  -5  -2    0.06    0.04
   4   5   2    0.11    0.04
  -5  -5  -2   -0.05    0.04
   5   5   2   -0.06    0.04
   6   5   2    3.10    0.16
   9  -6  -2   13.61    0.42
   8  -6  -2    7.16    0.25
   7  -6  -2    1.20    0.09
   6  -6  -2    0.76    0.07
  -6   6   2    0.67    0.06
   5  -6  -2   25.67    0.69
  -5   6   2   25.94    0.68
   4  -6  -2   15.30    0.43
  -4   6   2   15.79    0.43
  -4   6   2   16.03    0.45
   3  -6  -2    0.19    0.03
  -3   6   2    0.26    0.03
  -3   6   2    0.22    0.04
   2  -6  -2   25.50    0.67
  -2   6   2   25.47    0.67
   1  -6  -2    0.78    0.06
   1  -6  -2    0.65    0.05
  -1   6   2    0.69    0.05
   0  -6  -2   15.08    0.38
   0  -6  -2   14.93    0.41
   0   6   2   15.07    0.41
  -1  -6  -2    0.09    0.03
  -1  -6  -2    0.13    0.02
   1   6   2    0.17    0.04
  -2  -6  -2    8.50    0.26
   2   6   2    8.40    0.26
  -3  -6  -2    4.31    0.17
   3   6   2    4.62    0.17
  -4  -6  -2    4.42    0.17
   4   6   2    4.39    0.18
   5   6   2    4.37    0.19
   6   6   2    1.03    0.11
   9  -7  -2    5.93    0.23
   8  -7  -2    1.74    0.11
   7  -7  -2    0.33    0.05
   6  -7  -2    7.10    0.23
  -6   7   2    7.30    0.23
   5  -7  -2    0.18    0.04
  -5   7   2    0.19    0.04
  -5   7   2    0.10    0.03
   4  -7  -2    4.42    0.16
  -4   7   2    4.34    0.16
  -4   7   2    4.34    0.15
   3  -7  -2    4.11    0.15
  -3   7   2    4.04    0.14
   2  -7  -2    0.37    0.04
  -2   7   2    0.43    0.04
   1  -7  -2    0.53    0.05
   1  -7  -2    0.66    0.03
  -1   7   2    0.65    0.06
   0  -7  -2    6.53    0.18
   0  -7  -2    6.67    0.21
   0   7   2    6.66    0.21
  -1  -7  -2    8.34    0.26
   1   7   2    8.19    0.26
  -2  -7  -2    0.27    0.05
   2   7   2    0.29    0.05
   3   7   2    1.97    0.12
  -4  -7  -2   11.06    0.35
   4   7   2   10.95    0.35
   5   7   2    1.18    0.11
   9  -8  -2    2.60    0.14
   8  -8  -2    4.10    0.17
   7  -8  -2    0.05    0.04
  -7   8   2    0.02    0.04
   6  -8  -2   10.82    0.33
  -6   8   2   10.84    0.35
   5  -8  -2   33.12    0.89
  -5   8   2   33.57    0.88
  -5   8   2   33.54    0.93
   4  -8  -2   15.02    0.43
  -4   8   2   15.01    0.42
   3  -8  -2   20.50    0.57
  -3   8   2   21.19    0.56
   2  -8  -2    3.82    0.15
  -2   8   2    3.84    0.14
   1  -8  -2    0.48    0.05
  -1   8   2    0.60    0.06
   0  -8  -2    0.03    0.04
   0   8   2    0.03    0.04
  -1  -8  -2    4.86    0.18
   1   8   2    5.14    0.19
  -2  -8  -2    0.83    0.08
   2   8   2    0.85    0.08
  -3  -8  -2    1.95    0.12
   3   8   2    1.89    0.12
   4   8   2    9.26    0.32
   8  -9  -2    0.01    0.04
  -8   9   2    0.04    0.05
   7  -9  -2    2.40    0.13
  -7   9   2    2.41    0.14
   6  -9  -2    7.50    0.26
  -6   9   2    7.92    0.27
   5  -9  -2    0.03    0.04
  -5   9   2   -0.03    0.04
   4  -9  -2    3.31    0.14
  -4   9   2    3.26    0.13
   3  -9  -2    1.28    0.09
  -3   9   2    1.26    0.08
   2  -9  -2   10.28    0.31
  -2   9   2   10.05    0.31
   1  -9  -2    3.70    0.15
  -1   9   2    3.64    0.15
   0  -9  -2    2.20    0.12
   0   9   2    2.38    0.12
  -1  -9  -2    9.62    0.32
  -1  -9  -2    9.86    0.32
   1   9   2   10.11    0.32
  -2  -9  -2    0.04    0.05
   2   9   2    0.08    0.05
  -3  -9  -2    0.58    0.08
   3   9   2    0.55    0.08
   8 -10  -2    0.29    0.06
  -8  10   2    0.24    0.06
   7 -10  -2    4.43    0.19
  -7  10   2    4.68    0.20
   6 -10  -2   12.06    0.38
  -6  10   2   12.52    0.40
   5 -10  -2    5.06    0.20
   4 -10  -2    3.17    0.15
   3 -10  -2    9.60    0.31
   2 -10  -2   11.54    0.36
  -2  10   2   11.44    0.35
   1 -10  -2    1.60    0.11
  -1  10   2    1.57    0.10
   0  10   2    8.21    0.28
  -1 -10  -2    0.38    0.07
   1  10   2    0.54    0.08
  -2 -10  -2    3.28    0.17
   2  10   2    3.31    0.17
   7 -11  -2    3.68    0.17
   6 -11  -2   11.90    0.38
   5 -11  -2    1.72    0.12
   4 -11  -2    0.05    0.05
   3 -11  -2    1.53    0.11
   2 -11  -2    6.77    0.25
   1 -11  -2    0.32    0.07
   0 -11  -2    3.77    0.18
   5 -12  -2   -0.01    0.05
   4 -12  -2    3.65    0.18
   3 -12  -2   11.73    0.38
   2 -12  -2    1.32    0.11
   1 -12   3    4.71    0.20
   1 -12   3    4.52    0.20
   2 -12   3    2.98    0.15
   3 -12   3    4.82    0.19
   4 -12   3   -0.04    0.04
   5 -12   3    1.67    0.11
  -1 -11   3   -0.06    0.05
   0 -11   3    0.43    0.07
   1 -11   3    4.53    0.19
   2 -11   3    0.22    0.05
   3 -11   3    1.41    0.10
   4 -11   3    1.23    0.09
   5 -11   3    0.10    0.05
   6 -11   3    0.12    0.05
  -7  11  -3    0.38    0.09
   7 -11   3    0.25    0.06
  -2 -10   3    0.58    0.08
  -1 -10   3    6.82    0.25
   0 -10   3    3.57    0.16
   2 -10   3    0.17    0.04
   3 -10   3    6.31    0.21
   4 -10   3    5.65    0.20
   5 -10   3    6.51    0.22
  -6  10  -3    0.51    0.08
   6 -10   3    0.44    0.06
  -7  10  -3    1.97    0.14
   7 -10   3    2.11    0.11
   8 -10   3    0.04    0.04
  -3  -9   3    0.35    0.07
   2   9  -3    0.16    0.06
  -2  -9   3    0.16    0.06
   1   9  -3    0.06    0.04
  -1  -9   3    0.08    0.04
   0   9  -3    3.55    0.14
   1  -9   3    6.79    0.22
   2  -9   3    1.06    0.07
   3  -9   3   14.51    0.41
   4  -9   3   41.58    1.08
  -5   9  -3    3.19    0.15
   5  -9   3    3.12    0.13
  -6   9  -3    0.54    0.07
   6  -9   3    0.52    0.06
  -7   9  -3    4.27    0.20
   7  -9   3    4.48    0.17
  -8   9  -3   14.06    0.46
   8  -9   3   13.86    0.41
   4   8  -3    4.71    0.20
  -4  -8   3    4.34    0.20
   3   8  -3    0.73    0.08
  -3  -8   3    0.68    0.09
   2   8  -3    0.09    0.05
  -2  -8   3    0.10    0.05
   1   8  -3   12.59    0.36
  -1  -8   3   11.89    0.36
   0   8  -3   69.61    1.74
   0  -8   3   66.57    1.74
  -1   8  -3    2.72    0.11
   1  -8   3    2.65    0.11
  -2   8  -3    0.58    0.05
   2  -8   3    0.65    0.06
  -3   8  -3    6.40    0.19
   3  -8   3    6.14    0.20
  -4   8  -3   41.34    1.11
   4  -8   3   39.33    1.04
  -5   8  -3   14.78    0.45
   5  -8   3   15.06    0.41
  -6   8  -3    0.21    0.05
   6  -8   3    0.25    0.04
  -7   8  -3    0.73    0.09
   7  -8   3    0.50    0.06
   8  -8   3    5.03    0.18
   9  -8   3    0.92    0.08
   5   7  -3    7.57    0.27
  -5  -7   3    7.24    0.27
   4   7  -3    3.51    0.16
  -4  -7   3    3.78    0.17
   3   7  -3    5.75    0.21
  -3  -7   3    5.91    0.21
   2   7  -3    1.98    0.10
  -2  -7   3    1.93    0.10
   1   7  -3    4.31    0.15
  -1  -7   3    4.51    0.16
   0   7  -3    0.00    0.03
   0  -7   3    0.03    0.03
  -1   7  -3    1.78    0.08
   1  -7   3    1.66    0.08
  -2   7  -3    0.84    0.05
   2  -7   3    0.76    0.05
   2  -7   3    0.86    0.05
  -3   7  -3   21.66    0.57
   3  -7   3   22.87    0.58
   3  -7   3   21.10    0.58
  -4   7  -3    5.16    0.19
  -4   7  -3    5.06    0.15
   4  -7   3    5.50    0.16
   4  -7   3    5.03    0.16
  -5   7  -3   -0.05    0.03
   5  -7   3    0.01    0.02
  -6   7  -3    0.17    0.05
   6  -7   3    0.21    0.04
   7  -7   3    4.85    0.17
   8  -7   3    0.03    0.04
   9  -7   3    0.06    0.04
   6   6  -3    2.20    0.14
  -6  -6   3    1.89    0.13
   5   6  -3    3.69    0.17
  -5  -6   3    3.98    0.17
   4   6  -3    2.04    0.12
  -4  -6   3    2.20    0.12
   3   6  -3    1.93    0.10
   3   6  -3    1.94    0.08
  -3  -6   3    1.79    0.10
   2   6  -3    2.45    0.08
   2   6  -3    2.45    0.11
  -2  -6   3    2.42    0.11
   1   6  -3    3.08    0.11
  -1  -6   3    2.93    0.11
   0   6  -3    2.18    0.09
  -1   6  -3    9.58    0.27
   1  -6   3    9.74    0.28
   1  -6   3   10.21    0.28
  -2   6  -3    0.46    0.03
   2  -6   3    0.46    0.04
   2  -6   3    0.54    0.04
  -3   6  -3    0.47    0.03
  -3   6  -3    0.54    0.06
   3  -6   3    0.44    0.04
   3  -6   3    0.51    0.04
  -4   6  -3    0.04    0.03
  -4   6  -3    0.04    0.02
   4  -6   3    0.08    0.02
   4  -6   3    0.02    0.02
   5  -6   3   35.38    0.93
   5  -6   3   36.92    0.93
   5  -6   3   36.04    0.91
   6  -6   3    0.73    0.06
   7  -6   3   22.27    0.60
   8  -6   3    0.78    0.07
   9  -6   3    1.22    0.10
   7   5  -3    0.04    0.06
   6   5  -3    0.20    0.06
  -6  -5   3    0.35    0.06
   5   5  -3    6.69    0.24
  -5  -5   3    6.96    0.24
   4   5  -3   25.05    0.67
  -4  -5   3   24.36    0.67
   3   5  -3    0.98    0.07
   3   5  -3    0.99    0.06
  -3  -5   3    1.01    0.07
   2   5  -3    6.69    0.21
   2   5  -3    6.90    0.19
  -2  -5   3    6.66    0.21
   1   5  -3    0.81    0.05
   1   5  -3    0.87    0.04
  -1  -5   3    0.87    0.06
   0   5  -3   41.31    1.07
   0  -5   3   43.91    1.08
   0  -5   3   40.85    1.07
  -1   5  -3    6.21    0.18
   1  -5   3    6.53    0.18
   1  -5   3    6.09    0.18
  -2   5  -3    5.47    0.15
  -2   5  -3    5.24    0.18
   2  -5   3    5.70    0.16
   2  -5   3    5.31    0.16
  -3   5  -3    2.38    0.07
  -3   5  -3    2.38    0.10
   3  -5   3    2.22    0.08
   3  -5   3    2.55    0.08
  -4   5  -3    0.69    0.03
   4  -5   3    0.57    0.04
   4  -5   3    0.63    0.04
   4  -5   3    0.65    0.04
   5  -5   3    1.67    0.07
   5  -5   3    1.70    0.07
   6  -5   3    6.48    0.20
   7  -5   3   11.67    0.34
   8  -5   3    3.28    0.14
   9  -5   3    2.39    0.12
   7   4  -3    1.06    0.10
   6   4  -3    2.38    0.13
  -6  -4   3    2.42    0.13
   5   4  -3    6.55    0.22
  -5  -4   3    6.61    0.23
   4   4  -3   12.04    0.35
  -4  -4   3   12.34    0.36
   3   4  -3   19.27    0.53
   3   4  -3   19.97    0.51
  -3  -4   3   19.96    0.53
   2   4  -3    7.72    0.21
   2   4  -3    7.51    0.22
  -2  -4   3    7.62    0.22
   1   4  -3   25.75    0.67
  -1  -4   3   25.98    0.67
   0   4  -3    4.91    0.14
   0  -4   3    4.70    0.15
   0  -4   3    5.22    0.15
  -1   4  -3   31.71    0.81
   1  -4   3   31.36    0.86
   1  -4   3   31.12    0.81
   1  -4   3   33.44    0.81
  -2   4  -3  129.88    3.39
  -2   4  -3  124.69    3.13
  -2   4  -3  127.77    3.19
   2  -4   3  123.79    3.22
   2  -4   3  131.12    3.22
  -3   4  -3    0.05    0.01
   3  -4   3    0.05    0.02
   3  -4   3    0.05    0.02
  -4   4  -3    6.14    0.16
   4  -4   3    6.12    0.17
   4  -4   3    6.04    0.17
   4  -4   3    5.75    0.17
   5  -4   3    0.88    0.05
   5  -4   3    0.92    0.05
   6  -4   3   49.13    1.26
   7  -4   3   16.67    0.46
   8  -4   3    3.34    0.14
   9  -4   3    0.67    0.07
   8   3  -3    0.11    0.07
   7   3  -3    0.27    0.07
  -7  -3   3    0.24    0.06
   6   3  -3    0.38    0.06
  -6  -3   3    0.46    0.06
   5   3  -3    4.27    0.16
  -5  -3   3    4.33    0.16
   4   3  -3    9.74    0.29
  -4  -3   3    9.85    0.29
   3   3  -3   23.61    0.62
  -3  -3   3   23.48    0.62
   2   3  -3    1.35    0.06
   1   3  -3   32.17    0.82
  -1  -3   3   31.57    0.82
  -1  -3   3   33.07    0.82
   0   3  -3   53.90    1.37
   0  -3   3   56.03    1.37
   0  -3   3   53.54    1.38
  -1   3  -3   17.06    0.48
  -1   3  -3   17.95    0.45
   1  -3   3   18.48    0.45
   1  -3   3   17.34    0.45
  -2   3  -3    1.79    0.06
  -2   3  -3    1.80    0.05
   2  -3   3    1.87    0.06
   2  -3   3    1.80    0.06
  -3   3  -3    0.58    0.02
  -3   3  -3    0.52    0.04
   3  -3   3    0.51    0.03
   3  -3   3    0.47    0.03
   3  -3   3    0.50    0.03
  -4   3  -3    0.12    0.01
   4  -3   3    0.13    0.02
   4  -3   3    0.12    0.02
   4  -3   3    0.06    0.02
  -5   3  -3   16.91    0.43
   5  -3   3   16.34    0.44
   5  -3   3   16.95    0.44
   6  -3   3    3.78    0.13
   7  -3   3    0.29    0.05
   8  -3   3    0.88    0.08
   9  -3   3    5.23    0.20
   8   2  -3    0.14    0.06
   7   2  -3   18.02    0.51
  -7  -2   3   17.21    0.51
   6   2  -3    0.09    0.04
  -6  -2   3    0.21    0.05
   5   2  -3   13.64    0.39
  -5  -2   3   13.88    0.39
   4   2  -3   12.92    0.36
  -4  -2   3   12.41    0.35
   3   2  -3   96.43    2.40
  -3  -2   3   94.49    2.40
   2   2  -3    0.34    0.03
  -2  -2   3    0.39    0.04
   1   2  -3   28.62    0.75
  -1  -2   3   29.08    0.75
  -1  -2   3   30.44    0.75
   0   2  -3   32.29    0.82
   0  -2   3   31.75    0.82
   0  -2   3   33.54    0.82
  -1   2  -3   50.68    1.38
   1  -2   3   51.42    1.30
   1  -2   3   53.03    1.30
  -2   2  -3    0.16    0.02
   2  -2   3    0.17    0.01
   2  -2   3    0.18    0.02
  -3   2  -3   -0.02    0.02
  -3   2  -3    0.01    0.01
   3  -2   3    0.01    0.01
   3  -2   3    0.03    0.02
   3  -2   3    0.00    0.01
  -4   2  -3    3.60    0.10
  -4   2  -3    3.54    0.12
   4  -2   3    3.68    0.11
   4  -2   3    3.52    0.11
   4  -2   3    3.67    0.12
  -5   2  -3    3.39    0.11
   5  -2   3    3.63    0.12
   5  -2   3    3.30    0.11
   6  -2   3    0.02    0.03
   7  -2   3    0.66    0.06
   8  -2   3    0.14    0.05
   9  -2   3    1.49    0.11
   8   1  -3    0.07    0.06
   7   1  -3    0.17    0.05
  -7  -1   3    0.12    0.04
   6   1  -3    4.92    0.18
  -6  -1   3    5.14    0.18
   5   1  -3    0.59    0.06
  -5  -1   3    0.65    0.06
   4   1  -3    3.07    0.11
  -4  -1   3    3.17    0.11
   3   1  -3    0.51    0.04
  -3  -1   3    0.51    0.04
   2   1  -3   78.29    1.94
  -2  -1   3   76.06    2.32
   1   1  -3   37.54    0.96
  -1  -1   3   39.44    0.96
  -1  -1   3   37.49    0.96
   0   1  -3   15.58    0.40
   0   1  -3   16.07    0.40
   0  -1   3   15.57    0.42
   0  -1   3   16.19    0.40
   0  -1   3   15.57    0.40
  -2   1  -3  371.79    9.33
   2  -1   3  382.75    9.62
   2  -1   3  384.71    9.48
  -3   1  -3   10.39    0.27
   3  -1   3   10.18    0.27
   3  -1   3   10.61    0.27
   3  -1   3   10.36    0.28
  -4   1  -3    0.23    0.03
  -4   1  -3    0.33    0.03
   4  -1   3    0.29    0.03
   4  -1   3    0.26    0.03
   4  -1   3    0.27    0.03
  -5   1  -3    0.29    0.03
   5  -1   3    0.28    0.03
   5  -1   3    0.22    0.03
   6  -1   3   29.41    0.77
   7  -1   3    0.09    0.04
   8  -1   3    0.21    0.05
   9  -1   3    1.45    0.11
   9   0  -3    0.43    0.08
   8   0  -3    0.45    0.07
   7   0  -3    2.46    0.12
  -7   0   3    2.44    0.12
   6   0  -3   14.39    0.41
  -6   0   3   14.57    0.41
   5   0  -3    0.61    0.06
  -5   0   3    0.70    0.06
   4   0  -3    0.07    0.03
  -4   0   3    0.08    0.03
   3   0  -3    1.32    0.06
  -3   0   3    1.38    0.06
   2   0  -3   60.02    1.54
  -2   0   3   62.22    1.56
   1   0  -3  151.85    3.95
   1   0  -3  158.93    3.95
  -1   0   3  159.08    3.95
  -1   0   3  157.26    3.97
   0   0  -3   20.32    0.50
   0   0  -3   19.91    0.50
   0   0  -3   19.90    0.52
   0   0   3   20.11    0.50
   0   0   3   19.59    0.50
  -1   0  -3   77.11    1.93
  -1   0  -3   76.40    1.93
   1   0   3   78.34    1.93
   1   0   3   76.09    1.93
  -2   0  -3   22.21    0.58
  -2   0  -3   22.97    0.58
   2   0   3   22.79    0.58
   2   0   3   23.66    0.58
  -3   0  -3   12.18    0.32
  -3   0  -3   11.87    0.32
   3   0   3   12.24    0.32
   3   0   3   12.74    0.33
  -4   0  -3   16.25    0.43
  -4   0  -3   15.99    0.43
   4   0   3   15.91    0.43
   4   0   3   16.90    0.43
  -5   0  -3    0.81    0.05
   5   0   3    0.88    0.06
   5   0   3    0.83    0.06
   6   0   3   -0.04    0.03
   7   0   3    0.95    0.08
   8   0   3    4.58    0.18
   9  -1  -3    3.23    0.17
   8  -1  -3    2.55    0.14
   7  -1  -3   16.29    0.47
  -7   1   3   16.70    0.47
   6  -1  -3    0.04    0.03
  -6   1   3    0.01    0.03
   5  -1  -3    3.99    0.14
  -5   1   3    4.22    0.14
   4  -1  -3   23.91    0.63
  -4   1   3   24.08    0.63
   3  -1  -3   40.74    1.04
  -3   1   3   41.25    1.04
   2  -1  -3    0.43    0.03
  -2   1   3    0.45    0.03
   1  -1  -3    9.09    0.25
   1  -1  -3    9.67    0.25
  -1   1   3    9.73    0.25
  -1   1   3    9.16    0.25
   0  -1  -3   16.23    0.46
   0  -1  -3   18.63    0.47
   0   1   3   18.63    0.47
   0   1   3   19.46    0.47
  -1  -1  -3   23.60    0.62
   1   1   3   24.51    0.62
   1   1   3   25.13    0.62
  -2  -1  -3   22.35    0.58
  -2  -1  -3   22.96    0.59
   2   1   3   22.86    0.59
   2   1   3   23.64    0.59
  -3  -1  -3   27.83    0.72
  -3  -1  -3   28.30    0.73
   3   1   3   27.57    0.73
   3   1   3   29.44    0.73
  -4  -1  -3    5.72    0.17
  -4  -1  -3    5.62    0.18
   4   1   3    5.60    0.18
   4   1   3    5.86    0.18
   4   1   3    6.01    0.18
  -5  -1  -3    2.72    0.11
   5   1   3    2.76    0.11
   6   1   3    0.54    0.06
   7   1   3    4.40    0.17
   8   1   3    0.11    0.05
   9  -2  -3    2.03    0.13
   8  -2  -3    7.04    0.24
   7  -2  -3    2.96    0.13
  -7   2   3    2.90    0.12
   6  -2  -3    2.04    0.10
  -6   2   3    2.24    0.10
   5  -2  -3   12.46    0.35
  -5   2   3   12.34    0.35
   4  -2  -3    2.32    0.09
  -4   2   3    2.33    0.09
   3  -2  -3    4.36    0.13
  -3   2   3    4.34    0.13
  -2   2   3    1.51    0.06
   1  -2  -3  318.03    8.16
  -1   2   3  338.71    8.15
  -1   2   3  316.53    8.49
   0  -2  -3   70.89    1.81
   0   2   3   69.04    1.81
   0   2   3   74.03    1.79
  -1  -2  -3    9.24    0.25
   1   2   3    8.94    0.25
   1   2   3    9.72    0.25
  -2  -2  -3    0.56    0.04
  -2  -2  -3    0.66    0.04
   2   2   3    0.69    0.04
   2   2   3    0.63    0.04
  -3  -2  -3   82.34    2.10
  -3  -2  -3   88.06    2.14
   3   2   3   84.97    2.14
  -4  -2  -3   33.58    0.86
  -4  -2  -3   33.61    0.87
   4   2   3   34.05    0.88
  -5  -2  -3   11.93    0.34
   5   2   3   11.75    0.34
   6   2   3    1.60    0.10
   7   2   3    2.37    0.13
   8   2   3    2.43    0.14
   9  -3  -3    0.16    0.06
   8  -3  -3    1.92    0.12
   7  -3  -3    0.64    0.07
  -7   3   3    0.77    0.07
   6  -3  -3    1.32    0.08
  -6   3   3    1.45    0.08
   5  -3  -3    0.00    0.03
  -5   3   3    0.07    0.03
   4  -3  -3    0.04    0.02
  -4   3   3    0.03    0.02
   3  -3  -3    0.01    0.02
  -3   3   3    0.05    0.02
   2  -3  -3    4.24    0.13
  -2   3   3    4.27    0.13
   1  -3  -3    0.14    0.02
   1  -3  -3    0.12    0.02
  -1   3   3    0.08    0.02
   0  -3  -3    8.01    0.22
   0   3   3    7.97    0.22
  -1  -3  -3    8.80    0.23
   1   3   3    8.85    0.24
  -2  -3  -3   15.96    0.42
  -2  -3  -3   15.90    0.41
   2   3   3   15.30    0.42
  -3  -3  -3    0.33    0.04
  -3  -3  -3    0.35    0.04
   3   3   3    0.31    0.04
  -4  -3  -3   29.67    0.77
   4   3   3   29.11    0.77
  -5  -3  -3   12.93    0.37
   5   3   3   12.94    0.38
   6   3   3    9.31    0.30
   7   3   3    0.12    0.06
   9  -4  -3    0.22    0.06
   8  -4  -3   17.32    0.50
   7  -4  -3   -0.02    0.03
  -7   4   3    0.04    0.03
   6  -4  -3    4.36    0.16
  -6   4   3    4.38    0.15
   5  -4  -3    1.38    0.08
  -5   4   3    1.37    0.07
   4  -4  -3   34.24    0.88
  -4   4   3   33.92    0.88
   3  -4  -3    0.60    0.05
  -3   4   3    0.55    0.04
   2  -4  -3    1.75    0.07
  -2   4   3    2.05    0.07
  -2   4   3    1.70    0.07
   1  -4  -3    1.49    0.06
   1  -4  -3    1.45    0.06
  -1   4   3    1.36    0.06
   0  -4  -3   72.33    1.81
   0   4   3   71.31    1.81
  -1  -4  -3   23.36    0.58
   1   4   3   22.24    0.60
  -2  -4  -3    6.03    0.18
  -2  -4  -3    6.18    0.19
   2   4   3    6.20    0.19
  -3  -4  -3    0.60    0.05
  -3  -4  -3    0.65    0.06
   3   4   3    0.53    0.05
  -4  -4  -3   12.96    0.37
   4   4   3   12.65    0.37
   5   4   3    5.69    0.20
   6   4   3    3.92    0.17
   7   4   3    0.93    0.10
   9  -5  -3   10.84    0.35
   8  -5  -3    0.28    0.06
   7  -5  -3    2.06    0.11
  -7   5   3    1.72    0.09
   6  -5  -3   22.46    0.60
  -6   5   3   21.54    0.59
   5  -5  -3   85.71    2.16
  -5   5   3   84.77    2.16
   4  -5  -3    1.54    0.08
  -4   5   3    1.47    0.07
   3  -5  -3   17.43    0.47
  -3   5   3   17.26    0.48
  -3   5   3   17.36    0.46
   2  -5  -3   37.99    0.98
  -2   5   3   38.15    0.98
   1  -5  -3   76.36    1.94
   1  -5  -3   77.97    2.03
  -1   5   3   76.32    1.94
   0  -5  -3    5.66    0.17
   0   5   3    5.42    0.17
  -1  -5  -3    6.67    0.19
  -1  -5  -3    6.68    0.20
   1   5   3    6.51    0.20
  -2  -5  -3    1.18    0.06
  -2  -5  -3    1.30    0.07
   2   5   3    1.34    0.08
  -3  -5  -3    4.00    0.15
  -3  -5  -3    3.88    0.13
   3   5   3    3.90    0.15
  -4  -5  -3    7.29    0.24
   4   5   3    7.07    0.24
   5   5   3    1.21    0.10
   6   5   3    1.87    0.13
   9  -6  -3    9.97    0.33
   8  -6  -3    1.27    0.10
   7  -6  -3    6.30    0.22
   6  -6  -3   14.87    0.44
  -6   6   3   16.10    0.43
   5  -6  -3   27.53    0.75
  -5   6   3   28.80    0.74
   4  -6  -3    1.15    0.07
  -4   6   3    0.99    0.07
  -4   6   3    1.24    0.07
   3  -6  -3    0.01    0.03
  -3   6   3    0.02    0.02
  -3   6   3    0.03    0.02
   2  -6  -3   11.83    0.33
  -2   6   3   11.86    0.33
   1  -6  -3    5.13    0.17
   1  -6  -3    5.25    0.17
  -1   6   3    5.21    0.17
   0  -6  -3    6.57    0.21
   0  -6  -3    6.78    0.18
   0   6   3    6.66    0.21
  -1  -6  -3   22.35    0.57
  -1  -6  -3   22.22    0.60
   1   6   3   22.06    0.60
  -2  -6  -3   14.14    0.38
  -2  -6  -3   13.96    0.40
   2   6   3   14.17    0.40
  -3  -6  -3    0.05    0.03
   3   6   3   -0.02    0.04
  -4  -6  -3    0.10    0.04
   4   6   3    0.02    0.05
   5   6   3    9.95    0.33
   9  -7  -3    0.34    0.07
   8  -7  -3    2.69    0.14
   7  -7  -3    0.39    0.06
   6  -7  -3    3.88    0.15
  -6   7   3    3.97    0.14
   5  -7  -3    0.43    0.06
  -5   7   3    0.56    0.06
  -5   7   3    0.53    0.05
   4  -7  -3    8.99    0.28
  -4   7   3    9.46    0.29
  -4   7   3    9.15    0.27
   3  -7  -3    0.04    0.03
  -3   7   3    0.13    0.03
   2  -7  -3    0.20    0.04
  -2   7   3    0.18    0.04
   1  -7  -3    4.71    0.17
  -1   7   3    4.92    0.17
   0  -7  -3   13.75    0.35
   0  -7  -3   13.28    0.39
   0   7   3   13.58    0.39
  -1  -7  -3    1.87    0.10
  -1  -7  -3    1.98    0.08
   1   7   3    1.80    0.10
  -2  -7  -3    1.44    0.09
   2   7   3    1.45    0.10
  -3  -7  -3    0.70    0.08
   3   7   3    0.71    0.08
   4   7   3    0.09    0.06
   5   7   3    0.23    0.07
   9  -8  -3    1.01    0.10
   8  -8  -3    0.37    0.07
   7  -8  -3    1.05    0.09
  -7   8   3    0.98    0.09
   6  -8  -3    4.92    0.19
  -6   8   3    5.45    0.20
   5  -8  -3    0.33    0.05
  -5   8   3    0.37    0.05
  -5   8   3    0.46    0.06
   4  -8  -3    0.50    0.06
  -4   8   3    0.64    0.06
   3  -8  -3    0.50    0.06
  -3   8   3    0.54    0.06
   2  -8  -3   24.18    0.66
  -2   8   3   24.08    0.65
   1  -8  -3    0.83    0.07
   1  -8  -3    0.96    0.04
  -1   8   3    0.93    0.07
   0  -8  -3    0.79    0.04
   0  -8  -3    0.99    0.08
   0   8   3    0.80    0.07
  -1  -8  -3    1.44    0.10
   1   8   3    1.56    0.10
   2   8   3    4.38    0.18
  -3  -8  -3    1.48    0.11
   3   8   3    1.60    0.12
   4   8   3    0.65    0.09
   8  -9  -3    0.03    0.05
  -8   9   3    0.10    0.06
   7  -9  -3    4.21    0.18
  -7   9   3    4.48    0.19
   6  -9  -3    0.14    0.05
  -6   9   3    0.07    0.05
   5  -9  -3    1.52    0.10
   4  -9  -3    3.93    0.16
  -4   9   3    3.94    0.15
   3  -9  -3   30.86    0.82
  -3   9   3   30.01    0.81
  -2   9   3    9.03    0.28
   1  -9  -3    1.85    0.11
  -1   9   3    1.89    0.11
   0  -9  -3    2.87    0.14
   0   9   3    2.86    0.14
  -1  -9  -3   27.74    0.77
   1   9   3   28.22    0.77
  -2  -9  -3    9.90    0.33
   2   9   3   10.74    0.34
   3   9   3    0.70    0.09
   8 -10  -3    0.05    0.05
  -8  10   3    0.05    0.05
   7 -10  -3    4.91    0.21
  -7  10   3    5.43    0.21
   6 -10  -3    5.83    0.22
   5 -10  -3    2.23    0.13
   4 -10  -3    2.29    0.13
   3 -10  -3   21.57    0.62
  -3  10   3   22.28    0.61
   2 -10  -3   18.42    0.53
  -2  10   3   18.78    0.53
   1 -10  -3    0.02    0.04
  -1  10   3    0.00    0.04
   0 -10  -3    5.07    0.21
   0  10   3    5.22    0.20
  -1 -10  -3    7.14    0.26
  -1 -10  -3    6.92    0.26
   1  10   3    7.63    0.27
  -2 -10  -3    2.36    0.15
   2  10   3    2.51    0.15
   7 -11  -3    0.07    0.05
   6 -11  -3    1.70    0.12
   5 -11  -3    0.21    0.06
   4 -11  -3    4.28    0.19
   3 -11  -3    4.84    0.20
   2 -11  -3    4.53    0.19
   1 -11  -3    0.14    0.05
   0 -11  -3    0.12    0.05
   0  11   3    0.17    0.06
   5 -12  -3    0.98    0.10
   4 -12  -3    0.04    0.05
   3 -12  -3    0.11    0.06
   2 -12  -3    0.01    0.05
   2 -12   4    0.37    0.06
   3 -12   4    0.24    0.06
   4 -12   4    1.18    0.10
   5 -12   4    9.76    0.31
  -1 -11   4    0.04    0.05
   0 -11   4   10.15    0.33
   1 -11   4    4.51    0.18
   2 -11   4   -0.04    0.04
   3 -11   4    2.38    0.12
   4 -11   4    6.05    0.21
   5 -11   4   13.15    0.39
   6 -11   4    0.00    0.04
   7 -11   4    0.19    0.05
  -2 -10   4    0.03    0.05
  -1 -10   4    4.36    0.18
   0 -10   4   -0.03    0.04
   1 -10   4    2.32    0.12
   2 -10   4    2.41    0.12
   3 -10   4    0.18    0.04
   4 -10   4    3.65    0.14
   5 -10   4    0.35    0.05
  -6  10  -4    0.07    0.05
   6 -10   4    0.02    0.04
  -7  10  -4    4.31    0.20
   7 -10   4    4.56    0.17
  -3  -9   4    7.35    0.27
  -2  -9   4    4.17    0.18
  -1  -9   4    0.25    0.05
   0  -9   4    0.10    0.04
   1  -9   4    7.26    0.24
   2  -9   4    3.29    0.13
   3  -9   4    3.53    0.13
   4  -9   4   14.25    0.40
  -5   9  -4    0.44    0.07
   5  -9   4    0.37    0.05
  -6   9  -4   10.12    0.34
   6  -9   4   10.06    0.30
  -7   9  -4   12.27    0.41
   7  -9   4   12.31    0.36
  -8   9  -4    4.95    0.22
   8  -9   4    4.70    0.18
   4   8  -4    8.85    0.30
  -4  -8   4    8.24    0.30
   3   8  -4    2.33    0.13
  -3  -8   4    2.28    0.13
   2   8  -4    0.07    0.04
  -2  -8   4    0.06    0.04
   1   8  -4    7.34    0.23
  -1  -8   4    7.19    0.24
   0   8  -4   22.72    0.60
   0  -8   4   21.86    0.60
   0  -8   4   22.12    0.60
  -1   8  -4   18.18    0.48
   1  -8   4   17.63    0.49
  -2   8  -4    0.15    0.03
   2  -8   4    0.13    0.03
   3  -8   4   12.11    0.34
  -4   8  -4    1.44    0.10
   4  -8   4    1.32    0.07
  -5   8  -4    4.11    0.17
   5  -8   4    3.98    0.14
  -6   8  -4    0.03    0.04
   6  -8   4    0.02    0.03
  -7   8  -4   12.10    0.39
   7  -8   4   11.26    0.34
  -8   8  -4    2.65    0.15
   8  -8   4    2.27    0.11
   5   7  -4    0.07    0.05
  -5  -7   4    0.02    0.05
   4   7  -4   17.42    0.51
  -4  -7   4   17.68    0.51
   3   7  -4   50.54    1.31
  -3  -7   4   50.02    1.32
   2   7  -4    4.40    0.16
  -2  -7   4    4.45    0.17
   1   7  -4    5.71    0.19
  -1  -7   4    5.60    0.19
   0   7  -4   16.44    0.44
   0  -7   4   15.90    0.45
  -1   7  -4   11.77    0.32
   1  -7   4   11.50    0.33
  -2   7  -4    4.26    0.13
   2  -7   4    4.10    0.14
   2  -7   4    4.56    0.14
  -3   7  -4    3.29    0.11
   3  -7   4    3.48    0.12
   3  -7   4    3.61    0.12
  -4   7  -4    0.69    0.07
   4  -7   4    0.64    0.05
   4  -7   4    0.61    0.05
  -5   7  -4    4.86    0.19
   5  -7   4    4.73    0.15
  -6   7  -4    0.31    0.06
   6  -7   4    0.31    0.04
   7  -7   4   13.54    0.38
   8  -7   4    2.82    0.12
   9  -7   4    1.72    0.10
   6   6  -4    0.60    0.09
  -6  -6   4    0.65    0.08
   5   6  -4    2.30    0.13
  -5  -6   4    2.20    0.13
   4   6  -4    5.10    0.19
  -4  -6   4    4.97    0.19
   3   6  -4    4.69    0.17
   3   6  -4    4.64    0.14
  -3  -6   4    4.65    0.17
   2   6  -4    0.80    0.04
   2   6  -4    0.78    0.06
  -2  -6   4    0.80    0.07
   1   6  -4    0.59    0.03
   1   6  -4    0.58    0.05
  -1  -6   4    0.53    0.05
   0   6  -4    9.78    0.28
   0  -6   4   10.21    0.29
  -1   6  -4   21.68    0.56
   1  -6   4   22.59    0.57
   1  -6   4   20.66    0.57
  -2   6  -4    6.64    0.18
   2  -6   4    6.19    0.19
   2  -6   4    6.67    0.19
  -3   6  -4    7.46    0.20
  -3   6  -4    7.20    0.24
   3  -6   4    6.90    0.21
   3  -6   4    7.62    0.21
  -4   6  -4    0.26    0.04
   4  -6   4    0.25    0.03
   4  -6   4    0.17    0.03
   5  -6   4    0.00    0.02
   5  -6   4    0.03    0.02
   6  -6   4    3.72    0.13
   7  -6   4    0.45    0.05
   8  -6   4    1.30    0.09
   9  -6   4    0.06    0.05
   6   5  -4    0.55    0.08
  -6  -5   4    0.49    0.08
   5   5  -4    2.32    0.13
  -5  -5   4    2.38    0.12
   4   5  -4   -0.04    0.04
  -4  -5   4    0.01    0.04
   3   5  -4    7.72    0.24
   3   5  -4    7.61    0.21
  -3  -5   4    7.42    0.24
   2   5  -4    0.53    0.04
   2   5  -4    0.70    0.05
  -2  -5   4    0.56    0.05
   1   5  -4   48.83    1.23
  -1  -5   4   47.55    1.23
   0   5  -4    6.57    0.19
   0  -5   4    6.65    0.20
   0  -5   4    6.89    0.20
  -1   5  -4    0.09    0.02
   1  -5   4    0.09    0.03
   1  -5   4    0.06    0.02
   1  -5   4    0.12    0.02
  -2   5  -4    2.03    0.09
  -2   5  -4    2.10    0.07
  -2   5  -4    2.03    0.06
   2  -5   4    1.98    0.07
   2  -5   4    2.12    0.07
  -3   5  -4   28.59    0.77
   3  -5   4   28.42    0.72
   3  -5   4   27.10    0.72
   4  -5   4    0.89    0.04
   4  -5   4    0.80    0.05
   5  -5   4    2.04    0.08
   5  -5   4    2.31    0.08
   6  -5   4   20.93    0.55
   7  -5   4    0.29    0.04
   8  -5   4    1.52    0.09
   9  -5   4    5.38    0.20
   7   4  -4    0.78    0.10
   6   4  -4    3.83    0.17
  -6  -4   4    3.89    0.17
   5   4  -4    0.62    0.07
  -5  -4   4    0.69    0.07
   4   4  -4    0.66    0.06
  -4  -4   4    0.61    0.06
   3   4  -4    0.38    0.04
   3   4  -4    0.38    0.04
  -3  -4   4    0.42    0.05
   2   4  -4    0.21    0.03
  -2  -4   4    0.19    0.03
   1   4  -4   23.03    0.60
  -1  -4   4   23.38    0.61
   0   4  -4   22.64    0.59
   0  -4   4   22.99    0.60
   0  -4   4   23.50    0.60
  -1   4  -4   14.45    0.38
   1  -4   4   14.99    0.38
   1  -4   4   14.51    0.41
   1  -4   4   14.60    0.38
  -2   4  -4   18.26    0.52
  -2   4  -4   18.88    0.47
  -2   4  -4   18.85    0.47
   2  -4   4   18.46    0.48
   2  -4   4   19.40    0.48
  -3   4  -4   71.60    1.78
   3  -4   4   71.11    1.81
   3  -4   4   74.48    1.81
   4  -4   4   28.02    0.69
   4  -4   4   25.60    0.68
   5  -4   4    6.30    0.19
   5  -4   4    6.52    0.19
   6  -4   4    6.84    0.20
   7  -4   4   13.45    0.38
   8  -4   4    0.64    0.06
   9  -4   4    1.42    0.10
   8   3  -4    0.91    0.11
   7   3  -4    0.15    0.06
  -7  -3   4    0.03    0.05
   6   3  -4   16.58    0.48
  -6  -3   4   16.56    0.48
   5   3  -4    8.74    0.27
  -5  -3   4    8.86    0.28
   4   3  -4    2.02    0.10
  -4  -3   4    2.11    0.10
   3   3  -4    8.08    0.24
  -3  -3   4    8.52    0.25
   2   3  -4   75.01    1.91
  -2  -3   4   76.77    1.92
   1   3  -4  264.24    6.85
  -1  -3   4  288.50    6.87
  -1  -3   4  265.08    6.88
   0   3  -4   37.97    0.97
   0  -3   4   38.04    0.97
   0  -3   4   38.93    0.97
  -1   3  -4    3.53    0.10
  -1   3  -4    3.59    0.12
   1  -3   4    3.46    0.10
   1  -3   4    3.56    0.10
  -2   3  -4   57.21    1.41
  -2   3  -4   56.26    1.52
   2  -3   4   58.31    1.44
   2  -3   4   57.85    1.44
  -3   3  -4  106.63    2.67
   3  -3   4  107.44    2.71
   3  -3   4  110.36    2.71
  -4   3  -4   12.51    0.34
   4  -3   4   13.15    0.33
   4  -3   4   12.47    0.33
   5  -3   4    5.50    0.16
   5  -3   4    5.07    0.16
   6  -3   4    1.17    0.07
   7  -3   4    1.55    0.09
   8  -3   4    1.45    0.09
   9  -3   4    0.96    0.09
   8   2  -4    1.92    0.14
   7   2  -4    0.83    0.09
  -7  -2   4    1.04    0.09
   6   2  -4    3.02    0.14
  -6  -2   4    2.99    0.13
   5   2  -4    0.02    0.03
  -5  -2   4    0.04    0.03
   4   2  -4    0.04    0.03
  -4  -2   4   -0.01    0.02
   3   2  -4    0.39    0.04
  -3  -2   4    0.44    0.04
   2   2  -4   21.06    0.55
  -2  -2   4   20.92    0.55
   1   2  -4    4.39    0.13
  -1  -2   4    4.69    0.13
  -1  -2   4    4.46    0.13
   0   2  -4   26.88    0.68
   0  -2   4   27.57    0.69
   0  -2   4   27.19    0.69
   0  -2   4   26.92    0.72
  -1   2  -4    6.26    0.19
   1  -2   4    6.51    0.17
   1  -2   4    6.56    0.17
  -2   2  -4  100.99    2.51
  -3   2  -4    1.12    0.05
   3  -2   4    1.12    0.04
   3  -2   4    1.08    0.04
  -4   2  -4   14.56    0.39
   4  -2   4   15.18    0.39
   4  -2   4   14.77    0.39
  -5   2  -4    0.64    0.04
   5  -2   4    0.64    0.05
   5  -2   4    0.74    0.04
   6  -2   4    7.36    0.22
   7  -2   4    0.63    0.06
   8  -2   4    3.37    0.14
   9  -2   4   -0.03    0.05
   8   1  -4    4.37    0.19
   7   1  -4    4.84    0.19
  -7  -1   4    4.90    0.19
   6   1  -4    1.85    0.10
  -6  -1   4    1.76    0.10
   5   1  -4    0.11    0.04
  -5  -1   4    0.02    0.03
   4   1  -4   20.77    0.56
  -4  -1   4   21.21    0.56
  -3  -1   4   38.23    0.98
   2   1  -4    2.78    0.09
  -2  -1   4    2.75    0.09
   1   1  -4    7.23    0.20
  -1  -1   4    7.93    0.20
  -1  -1   4    7.44    0.20
   0   1  -4    1.84    0.06
   0  -1   4    1.97    0.06
   0  -1   4    1.88    0.06
   0  -1   4    1.85    0.06
  -2   1  -4    0.04    0.02
   2  -1   4    0.02    0.01
   2  -1   4    0.03    0.01
  -3   1  -4   24.95    0.62
  -3   1  -4   23.73    0.62
   3  -1   4   24.93    0.62
   3  -1   4   24.17    0.62
  -4   1  -4   15.98    0.41
  -4   1  -4   15.48    0.42
   4  -1   4   16.10    0.41
   4  -1   4   15.20    0.41
  -5   1  -4   30.26    0.76
   5  -1   4   28.71    0.76
   5  -1   4   29.68    0.77
   6  -1   4    6.72    0.21
   7  -1   4    0.19    0.04
   8  -1   4    2.13    0.12
   9   0  -4    2.44    0.15
   8   0  -4    1.40    0.11
   7   0  -4    3.15    0.14
  -7   0   4    3.01    0.14
   6   0  -4   70.39    1.73
  -6   0   4   64.14    1.72
   5   0  -4   31.71    0.83
  -5   0   4   31.63    0.83
   4   0  -4   68.53    1.76
  -4   0   4   70.19    1.76
   3   0  -4   12.50    0.35
  -3   0   4   13.23    0.35
   2   0  -4    8.87    0.24
  -2   0   4    9.45    0.25
  -2   0   4    8.75    0.25
   1   0  -4   76.16    1.96
  -1   0   4   80.99    1.97
  -1   0   4   76.71    1.98
   0   0  -4   16.36    0.42
   0   0  -4   16.30    0.41
   0   0   4   16.32    0.41
   0   0   4   15.24    0.41
  -1   0  -4   23.20    0.58
   1   0   4   23.68    0.58
   1   0   4   22.42    0.58
  -2   0  -4   19.59    0.49
  -2   0  -4   19.06    0.50
   2   0   4   19.38    0.50
   2   0   4   19.85    0.50
  -3   0  -4    3.87    0.11
  -3   0  -4    3.73    0.12
   3   0   4    3.84    0.12
   3   0   4    3.80    0.12
  -4   0  -4    2.12    0.09
  -4   0  -4    2.05    0.08
   4   0   4    2.13    0.08
   4   0   4    2.18    0.08
  -5   0  -4    8.43    0.25
  -5   0  -4    8.51    0.24
   5   0   4    8.47    0.25
   5   0   4    8.73    0.25
   6   0   4   10.36    0.30
   7   0   4    3.69    0.15
   8   0   4    0.35    0.06
   9  -1  -4    3.40    0.17
   8  -1  -4    2.72    0.14
   7  -1  -4    0.36    0.06
  -7   1   4    0.54    0.06
   6  -1  -4    2.27    0.11
  -6   1   4    2.25    0.11
   5  -1  -4   33.61    0.88
  -5   1   4   33.70    0.88
   4  -1  -4   68.60    1.75
  -4   1   4   69.38    1.75
   3  -1  -4    2.06    0.08
  -3   1   4    2.04    0.08
   2  -1  -4    8.81    0.24
  -2   1   4    8.98    0.24
   1  -1  -4    0.89    0.04
  -1   1   4    0.97    0.04
  -1   1   4    1.06    0.04
   0  -1  -4   15.78    0.41
   0   1   4   16.80    0.41
   0   1   4   15.62    0.41
  -1  -1  -4  124.55    3.17
   1   1   4  123.13    3.19
   1   1   4  131.13    3.18
  -2  -1  -4   15.01    0.40
  -2  -1  -4   15.47    0.40
   2   1   4   15.85    0.40
   2   1   4   14.93    0.40
  -3  -1  -4   59.80    1.50
  -3  -1  -4   58.55    1.48
   3   1   4   57.45    1.50
   3   1   4   61.93    1.50
  -4  -1  -4    0.69    0.05
  -4  -1  -4    0.68    0.06
   4   1   4    0.70    0.05
   4   1   4    0.68    0.05
  -5  -1  -4   59.01    1.50
   5   1   4   58.69    1.50
   6   1   4   11.66    0.34
   7   1   4   12.14    0.36
   8   1   4    0.16    0.06
   9  -2  -4    0.06    0.05
   8  -2  -4    3.20    0.15
   7  -2  -4    0.03    0.04
  -7   2   4    0.04    0.04
   6  -2  -4   13.09    0.37
  -6   2   4   12.88    0.37
   5  -2  -4    0.11    0.03
  -5   2   4    0.06    0.03
   4  -2  -4    9.00    0.26
  -4   2   4    8.93    0.26
   3  -2  -4    7.00    0.20
  -3   2   4    7.11    0.20
   2  -2  -4    2.72    0.09
  -2   2   4    2.68    0.09
   1  -2  -4    1.75    0.06
  -1   2   4    1.76    0.06
  -1   2   4    1.76    0.06
   0  -2  -4    0.87    0.04
   0   2   4    0.94    0.04
   0   2   4    0.87    0.04
  -1  -2  -4    1.81    0.07
   1   2   4    1.82    0.07
   1   2   4    1.97    0.07
  -2  -2  -4   26.42    0.69
  -2  -2  -4   27.52    0.70
   2   2   4   28.63    0.70
   2   2   4   26.43    0.70
  -3  -2  -4    0.11    0.02
  -3  -2  -4    0.17    0.03
   3   2   4    0.09    0.03
   3   2   4    0.10    0.03
  -4  -2  -4   15.72    0.42
  -4  -2  -4   15.43    0.42
   4   2   4   15.12    0.42
  -5  -2  -4    0.98    0.07
   5   2   4    1.01    0.08
   6   2   4   -0.02    0.04
   7   2   4    0.01    0.05
   9  -3  -4    2.99    0.16
   8  -3  -4   11.21    0.35
   7  -3  -4    1.25    0.09
  -7   3   4    1.31    0.08
   6  -3  -4    3.53    0.14
  -6   3   4    3.52    0.13
   5  -3  -4   22.68    0.61
  -5   3   4   23.06    0.61
   4  -3  -4   49.05    1.25
  -4   3   4   48.68    1.25
  -3   3   4    3.66    0.12
   2  -3  -4   37.23    0.95
  -2   3   4   37.84    0.95
  -2   3   4   37.02    0.99
   1  -3  -4    8.14    0.23
   1  -3  -4    8.51    0.23
  -1   3   4    8.09    0.23
   0  -3  -4   21.67    0.55
   0   3   4   20.77    0.55
  -1  -3  -4    7.07    0.20
   1   3   4    7.03    0.20
  -2  -3  -4    0.36    0.04
  -2  -3  -4    0.38    0.04
   2   3   4    0.35    0.04
  -3  -3  -4    0.16    0.03
  -3  -3  -4    0.13    0.03
   3   3   4    0.11    0.03
  -4  -3  -4    7.07    0.22
  -4  -3  -4    7.54    0.22
   4   3   4    6.95    0.22
   5   3   4    3.14    0.13
   6   3   4    3.54    0.16
   7   3   4    2.50    0.14
   9  -4  -4    0.00    0.05
   8  -4  -4    0.35    0.06
   7  -4  -4    0.04    0.04
  -7   4   4    0.05    0.04
   6  -4  -4    0.28    0.05
  -6   4   4    0.33    0.04
   5  -4  -4   22.48    0.60
  -5   4   4   22.49    0.60
   4  -4  -4   13.63    0.38
  -4   4   4   13.70    0.38
   3  -4  -4   63.95    1.62
  -3   4   4   63.62    1.62
   2  -4  -4    0.52    0.04
  -2   4   4    0.47    0.04
  -2   4   4    0.47    0.04
   1  -4  -4   26.00    0.68
   1  -4  -4   26.63    0.70
  -1   4   4   25.88    0.68
   0  -4  -4    9.97    0.28
   0   4   4    9.88    0.28
  -1  -4  -4   77.18    1.99
  -1  -4  -4   80.51    1.94
   1   4   4   78.87    1.99
  -2  -4  -4    7.99    0.23
  -2  -4  -4    8.11    0.24
   2   4   4    8.13    0.24
  -3  -4  -4    6.04    0.19
  -3  -4  -4    6.02    0.19
   3   4   4    6.01    0.19
  -4  -4  -4    0.00    0.03
  -4  -4  -4    0.03    0.03
   4   4   4    0.06    0.04
   5   4   4   16.69    0.48
   6   4   4    0.43    0.07
   7   4   4   -0.03    0.06
   9  -5  -4    1.17    0.11
   8  -5  -4   11.14    0.35
   7  -5  -4   17.47    0.49
  -7   5   4   17.21    0.48
   6  -5  -4    1.63    0.09
  -6   5   4    1.57    0.08
   5  -5  -4    4.78    0.17
  -5   5   4    5.19    0.17
   4  -5  -4    4.07    0.14
  -4   5   4    4.01    0.14
   3  -5  -4   82.85    2.08
  -3   5   4   80.18    2.17
  -3   5   4   83.46    2.08
   2  -5  -4   76.46    1.95
  -2   5   4   77.62    1.95
   1  -5  -4    6.79    0.21
   1  -5  -4    7.27    0.21
  -1   5   4    6.91    0.21
   0  -5  -4   16.17    0.44
   0   5   4   16.40    0.44
  -1  -5  -4    8.61    0.26
  -1  -5  -4    8.96    0.24
   1   5   4    8.85    0.26
  -2  -5  -4   11.56    0.33
  -2  -5  -4   11.27    0.31
   2   5   4   11.30    0.33
  -3  -5  -4    7.27    0.22
  -3  -5  -4    7.43    0.23
   3   5   4    7.49    0.24
  -4  -5  -4    0.20    0.05
   4   5   4    0.23    0.05
   5   5   4    9.70    0.31
   6   5   4    0.31    0.07
   9  -6  -4    3.17    0.16
   8  -6  -4    8.08    0.27
   7  -6  -4    0.30    0.05
   6  -6  -4    0.32    0.05
  -6   6   4    0.33    0.05
   5  -6  -4    1.42    0.09
  -5   6   4    1.50    0.08
   4  -6  -4   28.48    0.76
  -4   6   4   28.79    0.76
  -4   6   4   29.04    0.79
   3  -6  -4    1.46    0.08
  -3   6   4    1.51    0.08
   2  -6  -4    0.74    0.06
  -2   6   4    0.81    0.06
   1  -6  -4   18.75    0.51
  -1   6   4   18.08    0.50
   0  -6  -4    3.81    0.14
   0   6   4    3.89    0.14
  -1  -6  -4   15.37    0.40
  -1  -6  -4   15.12    0.42
   1   6   4   14.88    0.42
  -2  -6  -4    0.04    0.03
  -2  -6  -4    0.12    0.03
   2   6   4    0.16    0.04
  -3  -6  -4    0.02    0.03
  -3  -6  -4    0.08    0.04
   3   6   4    0.06    0.04
   4   6   4    0.04    0.05
   5   6   4    0.19    0.06
   9  -7  -4    3.98    0.18
   8  -7  -4    0.15    0.05
   7  -7  -4    1.05    0.09
   6  -7  -4    4.69    0.18
  -6   7   4    4.66    0.17
   5  -7  -4    1.47    0.09
  -5   7   4    1.57    0.09
  -5   7   4    1.70    0.09
   4  -7  -4    0.45    0.05
  -4   7   4    0.50    0.05
  -4   7   4    0.47    0.05
   3  -7  -4    4.95    0.17
  -3   7   4    5.06    0.17
   2  -7  -4   19.58    0.53
  -2   7   4   19.37    0.53
   1  -7  -4    0.12    0.04
  -1   7   4    0.09    0.04
   0  -7  -4    7.11    0.19
   0  -7  -4    6.77    0.22
   0   7   4    6.58    0.22
  -1  -7  -4    0.16    0.03
  -1  -7  -4    0.09    0.04
   1   7   4    0.07    0.04
  -2  -7  -4   48.50    1.27
  -2  -7  -4   48.49    1.22
   2   7   4   49.21    1.27
  -3  -7  -4    0.42    0.06
   3   7   4    0.28    0.06
   4   7   4    2.06    0.13
   5   7   4    0.11    0.07
   9  -8  -4    4.49    0.20
   8  -8  -4    1.87    0.12
   7  -8  -4   15.10    0.46
  -7   8   4   16.12    0.48
   6  -8  -4    3.32    0.15
  -6   8   4    3.31    0.15
   5  -8  -4    3.45    0.14
  -5   8   4    3.18    0.13
  -5   8   4    3.48    0.14
   4  -8  -4    0.12    0.04
  -4   8   4    0.19    0.04
   3  -8  -4    1.99    0.11
  -3   8   4    2.16    0.10
   2  -8  -4    2.85    0.13
  -2   8   4    2.98    0.12
   1  -8  -4    3.93    0.16
  -1   8   4    4.13    0.16
   0  -8  -4    9.68    0.26
   0   8   4    9.67    0.30
  -1  -8  -4    9.27    0.26
  -1  -8  -4    9.59    0.30
   1   8   4    9.63    0.30
  -2  -8  -4    0.41    0.06
   2   8   4    0.55    0.07
  -3  -8  -4   11.77    0.39
   3   8   4   12.28    0.38
   4   8   4    3.99    0.19
   8  -9  -4   -0.06    0.04
  -8   9   4   -0.02    0.05
   7  -9  -4    0.62    0.08
  -7   9   4    0.82    0.09
   6  -9  -4    8.53    0.29
  -6   9   4    8.93    0.29
   5  -9  -4   13.34    0.40
  -5   9   4   13.11    0.39
   4  -9  -4    0.23    0.05
  -4   9   4    0.23    0.05
   3  -9  -4    2.05    0.11
  -3   9   4    1.90    0.11
   2  -9  -4    0.25    0.05
  -2   9   4    0.33    0.06
   1  -9  -4   20.76    0.59
  -1   9   4   21.22    0.59
   0   9   4   11.56    0.36
  -1  -9  -4   10.79    0.34
   1   9   4   10.82    0.34
  -2  -9  -4    0.19    0.05
   2   9   4    0.21    0.06
   3   9   4    9.12    0.32
   8 -10  -4    0.48    0.08
  -8  10   4    0.52    0.08
   7 -10  -4    4.16    0.19
  -7  10   4    4.19    0.19
   6 -10  -4   15.71    0.47
   5 -10  -4    0.74    0.08
   4 -10  -4    0.15    0.05
   3 -10  -4    0.06    0.05
  -3  10   4    0.07    0.05
   2 -10  -4   14.34    0.43
  -2  10   4   14.40    0.43
   1 -10  -4    1.50    0.11
  -1  10   4    1.44    0.11
   0 -10  -4    0.83    0.09
   0  10   4    1.04    0.10
  -1 -10  -4    1.70    0.12
  -1 -10  -4    1.74    0.12
   1  10   4    1.59    0.13
   7 -11  -4    4.61    0.20
   6 -11  -4    7.23    0.27
   5 -11  -4    1.06    0.10
   4 -11  -4    2.71    0.15
   3 -11  -4    1.32    0.11
   2 -11  -4    1.07    0.10
   1 -11  -4   -0.01    0.05
  -1  11   4   -0.03    0.05
   0  11   4    3.37    0.17
   5 -12  -4    6.02    0.24
   4 -12  -4    0.05    0.05
   3 -12  -4    0.33    0.07
   2 -12   5    0.76    0.09
   3 -12   5    0.06    0.05
   4 -12   5   12.72    0.39
  -1 -11   5    0.11    0.06
   0 -11   5    0.67    0.08
   1 -11   5    1.06    0.10
   2 -11   5    3.79    0.16
   3 -11   5    2.67    0.13
   4 -11   5    0.94    0.08
   5 -11   5    0.76    0.07
   6 -11   5    0.69    0.07
  -2 -10   5    0.43    0.08
  -1 -10   5    0.53    0.08
   0 -10   5    0.68    0.07
   1 -10   5   16.45    0.47
   2 -10   5    0.18    0.05
   3 -10   5    0.18    0.04
   4 -10   5    1.13    0.08
   5 -10   5    6.70    0.22
  -6  10  -5    1.00    0.10
   6 -10   5    0.89    0.07
  -7  10  -5    0.63    0.09
   7 -10   5    0.71    0.07
  -3  -9   5    1.70    0.12
  -2  -9   5    0.03    0.05
  -1  -9   5    1.80    0.11
   0  -9   5   11.53    0.35
   1  -9   5    0.56    0.06
   2  -9   5    7.43    0.23
   3  -9   5    1.90    0.09
   4  -9   5   13.36    0.38
  -5   9  -5    0.00    0.04
   5  -9   5    0.05    0.03
  -6   9  -5    5.20    0.22
   6  -9   5    5.26    0.18
  -7   9  -5    3.56    0.18
   7  -9   5    3.28    0.13
  -8   9  -5    0.78    0.10
   8  -9   5    0.70    0.07
  -4  -8   5   12.69    0.40
   3   8  -5    0.03    0.05
  -3  -8   5    0.07    0.05
   2   8  -5   23.13    0.63
  -2  -8   5   22.50    0.63
   1   8  -5    7.71    0.24
  -1  -8   5    7.32    0.24
   0   8  -5   23.48    0.62
   0  -8   5   22.86    0.63
   1  -8   5   15.27    0.43
   2  -8   5    6.14    0.19
   3  -8   5   19.13    0.51
  -4   8  -5   17.65    0.52
   4  -8   5   16.89    0.46
  -5   8  -5    9.61    0.32
   5  -8   5    9.33    0.27
  -6   8  -5   -0.05    0.04
   6  -8   5    0.02    0.03
  -7   8  -5    0.19    0.06
   7  -8   5    0.16    0.04
  -8   8  -5    0.25    0.07
   8  -8   5    0.30    0.05
   5   7  -5    0.35    0.07
  -5  -7   5    0.32    0.07
   4   7  -5    0.80    0.08
  -4  -7   5    0.69    0.09
   3   7  -5    0.16    0.05
  -3  -7   5    0.13    0.05
   2   7  -5    0.42    0.06
  -2  -7   5    0.38    0.06
   1   7  -5   12.13    0.34
  -1  -7   5   11.72    0.35
   0   7  -5   22.33    0.59
   0  -7   5   21.94    0.59
  -1   7  -5    0.10    0.03
   1  -7   5    0.17    0.03
   1  -7   5    0.10    0.03
  -2   7  -5    0.00    0.02
   2  -7   5    0.04    0.02
   2  -7   5    0.01    0.02
   3  -7   5    1.08    0.06
   3  -7   5    1.11    0.06
  -4   7  -5    3.89    0.16
   4  -7   5    3.81    0.13
   4  -7   5    3.99    0.13
  -5   7  -5    0.03    0.04
   5  -7   5   -0.01    0.02
  -6   7  -5    3.53    0.16
   6  -7   5    3.62    0.13
   7  -7   5    0.50    0.05
   8  -7   5    0.05    0.04
   6   6  -5    0.95    0.10
  -6  -6   5    0.74    0.09
   5   6  -5    2.67    0.14
  -5  -6   5    2.58    0.14
   4   6  -5    0.17    0.05
  -4  -6   5    0.10    0.05
   3   6  -5    1.99    0.10
   3   6  -5    2.06    0.08
  -3  -6   5    1.86    0.10
   2   6  -5    0.35    0.05
   2   6  -5    0.29    0.03
  -2  -6   5    0.38    0.05
   1   6  -5   18.28    0.45
   1   6  -5   18.13    0.48
  -1  -6   5   17.55    0.49
   0   6  -5    5.34    0.16
   0  -6   5    5.09    0.16
  -1   6  -5   12.49    0.34
   1  -6   5   11.96    0.34
   1  -6   5   13.23    0.34
  -2   6  -5    0.56    0.03
   2  -6   5    0.55    0.04
   2  -6   5    0.50    0.04
  -3   6  -5   79.53    2.14
   3  -6   5   77.69    2.01
   3  -6   5   83.27    2.02
  -4   6  -5    2.15    0.11
   4  -6   5    2.20    0.08
   4  -6   5    1.97    0.08
  -5   6  -5    3.44    0.15
   5  -6   5    3.43    0.12
   5  -6   5    3.56    0.12
   6  -6   5    6.41    0.19
   7  -6   5    9.09    0.27
   8  -6   5    4.07    0.15
   9  -6   5    1.76    0.10
   6   5  -5    3.52    0.17
  -6  -5   5    3.44    0.17
   5   5  -5    0.75    0.08
  -5  -5   5    0.90    0.09
   4   5  -5   -0.02    0.04
  -4  -5   5    0.04    0.04
   3   5  -5    0.09    0.03
   3   5  -5    0.13    0.03
  -3  -5   5    0.14    0.04
   2   5  -5   14.88    0.41
  -2  -5   5   14.68    0.41
   1   5  -5    0.06    0.02
  -1  -5   5    0.06    0.03
   0   5  -5   10.92    0.30
   0  -5   5   10.69    0.31
   0  -5   5   11.88    0.31
  -1   5  -5    0.00    0.01
   1  -5   5    0.02    0.02
   1  -5   5    0.00    0.02
   1  -5   5    0.01    0.02
  -2   5  -5    0.49    0.03
  -2   5  -5    0.46    0.05
  -2   5  -5    0.51    0.03
   2  -5   5    0.45    0.03
   2  -5   5    0.58    0.03
  -3   5  -5    9.70    0.30
  -3   5  -5   10.07    0.27
   3  -5   5   10.04    0.27
   3  -5   5   10.27    0.27
   4  -5   5    2.29    0.08
   4  -5   5    2.51    0.08
   5  -5   5    3.60    0.11
   5  -5   5    3.37    0.11
   6  -5   5   16.06    0.43
   7  -5   5    1.58    0.08
   8  -5   5    0.14    0.04
   9  -5   5    0.29    0.06
   7   4  -5    0.71    0.09
  -7  -4   5    0.61    0.08
   6   4  -5    0.17    0.06
  -6  -4   5    0.07    0.04
   5   4  -5    4.86    0.19
  -5  -4   5    5.22    0.19
   4   4  -5   11.00    0.32
  -4  -4   5   10.90    0.33
   3   4  -5    0.31    0.04
  -3  -4   5    0.24    0.04
   2   4  -5   49.41    1.24
  -2  -4   5   47.60    1.24
   1   4  -5    0.06    0.02
  -1  -4   5    0.06    0.02
  -1  -4   5    0.03    0.02
   0   4  -5   44.96    1.14
   0  -4   5   45.52    1.14
   0  -4   5   44.24    1.14
   0  -4   5   45.14    1.20
  -1   4  -5    1.14    0.04
   1  -4   5    1.16    0.05
   1  -4   5    1.13    0.06
   1  -4   5    1.13    0.05
  -2   4  -5  101.19    2.76
  -2   4  -5  105.27    2.60
   2  -4   5  109.71    2.64
   2  -4   5  103.75    2.64
  -3   4  -5   88.95    2.20
  -3   4  -5   87.08    2.36
   3  -4   5   92.08    2.23
   3  -4   5   89.44    2.24
  -4   4  -5    7.20    0.21
   4  -4   5    7.77    0.20
   4  -4   5    7.10    0.20
   5  -4   5   13.18    0.36
   5  -4   5   13.51    0.35
   6  -4   5   34.40    0.89
   7  -4   5   36.11    0.94
   8  -4   5    1.21    0.08
   9  -4   5    4.45    0.17
   7   3  -5    1.47    0.12
  -7  -3   5    1.48    0.11
   6   3  -5    0.83    0.08
  -6  -3   5    0.91    0.08
   5   3  -5    7.34    0.24
  -5  -3   5    7.22    0.24
   4   3  -5   14.34    0.40
  -4  -3   5   14.41    0.41
   3   3  -5    4.03    0.14
  -3  -3   5    4.02    0.14
   2   3  -5    1.22    0.06
  -2  -3   5    1.21    0.06
   1   3  -5   -0.04    0.02
  -1  -3   5    0.01    0.02
  -1  -3   5   -0.03    0.02
   0   3  -5    2.42    0.08
   0  -3   5    2.64    0.08
   0  -3   5    2.39    0.09
   0  -3   5    2.47    0.08
  -1   3  -5   20.15    0.56
   1  -3   5   20.89    0.52
   1  -3   5   20.92    0.52
  -2   3  -5   47.49    1.29
  -2   3  -5   47.19    1.20
   2  -3   5   50.27    1.21
   2  -3   5   49.11    1.21
  -3   3  -5    0.08    0.02
   3  -3   5    0.04    0.01
   3  -3   5    0.05    0.01
  -4   3  -5    0.63    0.05
   4  -3   5    0.58    0.03
   4  -3   5    0.54    0.03
  -5   3  -5    4.34    0.14
   5  -3   5    4.09    0.13
   5  -3   5    4.16    0.13
   6  -3   5   17.68    0.47
   7  -3   5    0.25    0.04
   8  -3   5    0.09    0.04
   9  -3   5    0.04    0.05
   8   2  -5    4.10    0.19
   7   2  -5    2.82    0.14
  -7  -2   5    2.48    0.13
   6   2  -5    0.04    0.04
  -6  -2   5   -0.02    0.04
   5   2  -5   52.84    1.38
  -5  -2   5   54.28    1.39
   4   2  -5   25.61    0.68
  -4  -2   5   26.01    0.69
   3   2  -5   17.31    0.47
  -3  -2   5   17.62    0.47
   2   2  -5    0.32    0.03
  -2  -2   5    0.30    0.03
   1   2  -5   41.42    1.07
  -1  -2   5   41.62    1.08
  -1  -2   5   44.62    1.08
   0   2  -5   26.41    0.67
   0  -2   5   25.74    0.67
   0  -2   5   27.30    0.67
   0  -2   5   26.56    0.71
  -1   2  -5   32.05    0.86
   1  -2   5   32.70    0.81
   1  -2   5   32.60    0.81
  -3   2  -5    0.33    0.03
   3  -2   5    0.35    0.02
   3  -2   5    0.34    0.02
  -4   2  -5    0.42    0.04
   4  -2   5    0.45    0.03
   4  -2   5    0.43    0.03
  -5   2  -5    7.54    0.22
   5  -2   5    7.12    0.21
   5  -2   5    7.60    0.21
   6  -2   5    6.43    0.20
   7  -2   5    0.76    0.07
   8  -2   5    0.99    0.08
   9  -2   5    2.71    0.14
   8   1  -5    0.07    0.06
   7   1  -5    4.14    0.17
  -7  -1   5    4.12    0.17
   6   1  -5    6.47    0.22
  -6  -1   5    6.39    0.22
   5   1  -5   10.05    0.30
  -5  -1   5    9.94    0.30
   4   1  -5    3.57    0.14
  -4  -1   5    4.67    0.15
   3   1  -5    0.25    0.03
  -3  -1   5    0.24    0.03
   2   1  -5   37.20    0.95
  -2  -1   5   37.36    0.95
   1   1  -5    5.25    0.15
  -1  -1   5    5.12    0.15
  -1  -1   5    5.30    0.15
   0   1  -5  182.95    4.56
   0  -1   5  177.44    4.79
   0  -1   5  180.64    4.65
   0  -1   5  186.77    4.57
   1  -1   5    0.32    0.02
   1  -1   5    0.35    0.02
   2  -1   5   10.33    0.27
  -3   1  -5    0.17    0.03
   3  -1   5    0.17    0.02
   3  -1   5    0.24    0.02
  -4   1  -5   47.64    1.19
   4  -1   5   46.37    1.20
   4  -1   5   48.31    1.20
  -5   1  -5    2.07    0.08
  -5   1  -5    2.03    0.10
   5  -1   5    2.12    0.08
   5  -1   5    2.11    0.08
   6  -1   5    4.91    0.16
   7  -1   5    0.00    0.03
   8  -1   5    0.24    0.05
   9   0  -5    0.10    0.06
   8   0  -5    2.38    0.14
   7   0  -5    0.33    0.06
  -7   0   5    0.30    0.05
   6   0  -5    8.70    0.27
  -6   0   5    8.72    0.27
   5   0  -5   17.55    0.48
  -5   0   5   17.44    0.48
   4   0  -5    0.43    0.04
  -4   0   5    0.44    0.04
   3   0  -5   46.19    1.17
  -3   0   5   45.80    1.17
   2   0  -5   40.81    1.06
  -2   0   5   40.77    1.07
  -2   0   5   44.30    1.07
   1   0  -5    1.52    0.06
  -1   0   5    1.52    0.06
  -1   0   5    1.51    0.06
   0   0  -5   19.42    0.51
   0   0  -5   19.56    0.49
   0   0   5   18.93    0.49
   0   0   5   19.78    0.49
  -1   0  -5    0.00    0.01
   1   0   5    0.02    0.01
   1   0   5    0.04    0.01
  -2   0  -5   16.56    0.42
   2   0   5   16.98    0.43
   2   0   5   16.31    0.43
  -3   0  -5   10.77    0.30
  -3   0  -5   10.85    0.29
   3   0   5   10.62    0.29
   3   0   5   11.41    0.29
  -4   0  -5   19.01    0.51
  -4   0  -5   19.28    0.50
   4   0   5   19.94    0.51
   4   0   5   18.79    0.50
  -5   0  -5   28.14    0.73
   5   0   5   28.39    0.74
   5   0   5   27.80    0.74
   5   0   5   29.09    0.74
   6   0   5    0.00    0.03
   7   0   5    1.47    0.09
   8   0   5    3.95    0.17
   9  -1  -5    3.96    0.19
   8  -1  -5    0.26    0.06
   7  -1  -5    0.83    0.08
  -7   1   5    0.87    0.08
   6  -1  -5    0.46    0.06
  -6   1   5    0.49    0.06
   5  -1  -5    0.35    0.04
  -5   1   5    0.31    0.04
   4  -1  -5   16.29    0.44
  -4   1   5   16.71    0.45
   3  -1  -5    3.42    0.11
  -3   1   5    3.47    0.12
   2  -1  -5   44.71    1.14
  -2   1   5   45.47    1.14
   1  -1  -5   21.79    0.57
  -1   1   5   22.86    0.57
  -1   1   5   21.68    0.57
   0  -1  -5   22.09    0.57
   0   1   5   22.06    0.57
   0   1   5   23.25    0.57
  -1  -1  -5   10.63    0.28
   1   1   5   10.99    0.28
   1   1   5   10.53    0.28
  -2  -1  -5   13.80    0.36
  -2  -1  -5   13.49    0.36
   2   1   5   13.43    0.36
   2   1   5   14.16    0.36
  -3  -1  -5    4.46    0.14
  -3  -1  -5    4.66    0.15
   3   1   5    4.84    0.14
   3   1   5    4.39    0.14
  -4  -1  -5   15.26    0.41
  -4  -1  -5   14.99    0.41
   4   1   5   14.76    0.41
   4   1   5   16.02    0.41
  -5  -1  -5    0.02    0.04
   5   1   5    0.11    0.04
   6   1   5    1.28    0.09
   7   1   5    1.81    0.11
   8   1   5    7.72    0.27
   9  -2  -5    0.26    0.07
   8  -2  -5    0.55    0.07
   7  -2  -5   14.17    0.41
  -7   2   5   14.33    0.41
   6  -2  -5   12.14    0.35
  -6   2   5   11.82    0.35
   5  -2  -5   11.74    0.34
  -5   2   5   11.77    0.34
   4  -2  -5   20.48    0.55
  -4   2   5   20.88    0.55
   3  -2  -5  109.87    2.72
  -3   2   5  106.71    2.74
   2  -2  -5  102.72    2.67
  -2   2   5  108.97    2.67
   1  -2  -5   88.03    2.27
  -1   2   5   92.89    2.27
  -1   2   5   90.93    2.30
   0  -2  -5   80.36    2.04
   0   2   5   80.11    2.05
   0   2   5   84.06    2.05
  -1  -2  -5  101.17    2.56
   1   2   5  104.97    2.56
   1   2   5  100.12    2.56
  -2  -2  -5  115.52    2.92
  -2  -2  -5  117.22    2.97
   2   2   5  124.16    2.98
   2   2   5  118.03    2.99
  -3  -2  -5    1.20    0.07
  -3  -2  -5    1.14    0.06
   3   2   5    1.13    0.06
   3   2   5    1.19    0.06
  -4  -2  -5    6.48    0.20
  -4  -2  -5    6.34    0.19
   4   2   5    6.23    0.20
  -5  -2  -5    0.62    0.06
   5   2   5    0.54    0.06
   6   2   5    4.72    0.18
   7   2   5    0.05    0.05
   9  -3  -5    0.29    0.07
   8  -3  -5    0.20    0.06
   7  -3  -5    2.03    0.11
  -7   3   5    2.03    0.11
   6  -3  -5    2.48    0.11
  -6   3   5    2.43    0.11
   5  -3  -5    4.65    0.16
  -5   3   5    4.59    0.16
   4  -3  -5    1.49    0.07
  -4   3   5    1.44    0.07
   3  -3  -5    4.53    0.14
  -3   3   5    4.35    0.14
   2  -3  -5    6.63    0.19
  -2   3   5    6.59    0.19
  -2   3   5    6.41    0.18
   1  -3  -5    6.71    0.20
  -1   3   5    6.79    0.20
   0  -3  -5   13.90    0.36
   0   3   5   13.26    0.36
  -1  -3  -5   17.86    0.47
   1   3   5   17.85    0.47
  -2  -3  -5    0.90    0.05
  -2  -3  -5    0.98    0.05
   2   3   5    0.99    0.06
  -3  -3  -5    0.38    0.04
  -3  -3  -5    0.43    0.05
   3   3   5    0.33    0.04
  -4  -3  -5   22.21    0.58
  -4  -3  -5   22.28    0.59
   4   3   5   21.62    0.59
   5   3   5    3.15    0.14
   6   3   5   10.60    0.33
   7   3   5    0.04    0.05
   9  -4  -5    0.95    0.09
   8  -4  -5    3.76    0.16
   7  -4  -5    3.39    0.14
  -7   4   5    3.28    0.14
   6  -4  -5    7.65    0.24
  -6   4   5    7.77    0.24
   5  -4  -5    1.87    0.09
  -5   4   5    1.69    0.08
  -4   4   5   25.87    0.68
   3  -4  -5   19.41    0.52
  -3   4   5   19.69    0.52
   2  -4  -5    5.61    0.17
  -2   4   5    5.45    0.17
   1  -4  -5    9.26    0.25
   1  -4  -5    8.67    0.25
  -1   4   5    8.68    0.25
   0  -4  -5   34.59    0.89
   0   4   5   34.40    0.89
  -1  -4  -5   20.56    0.54
   1   4   5   20.45    0.54
  -2  -4  -5    1.48    0.07
  -2  -4  -5    1.40    0.07
  -2  -4  -5    1.61    0.07
   2   4   5    1.42    0.08
  -3  -4  -5    0.08    0.03
  -3  -4  -5    0.03    0.03
   3   4   5    0.07    0.03
  -4  -4  -5    7.93    0.24
  -4  -4  -5    7.56    0.24
   4   4   5    7.53    0.24
   5   4   5   10.41    0.32
   6   4   5    1.52    0.12
   9  -5  -5    3.46    0.17
   8  -5  -5    0.29    0.06
   7  -5  -5   16.43    0.47
  -7   5   5   15.89    0.46
   6  -5  -5    6.14    0.21
  -6   5   5    6.58    0.21
   5  -5  -5    4.88    0.17
  -5   5   5    5.19    0.17
   4  -5  -5    0.20    0.04
  -4   5   5    0.15    0.03
   3  -5  -5   15.86    0.43
  -3   5   5   15.77    0.43
  -3   5   5   15.85    0.44
   2  -5  -5    0.10    0.03
  -2   5   5    0.03    0.03
   1  -5  -5    1.06    0.06
   1  -5  -5    1.05    0.05
  -1   5   5    1.15    0.06
   0  -5  -5   21.84    0.58
   0   5   5   21.88    0.58
  -1  -5  -5    2.78    0.10
  -1  -5  -5    2.96    0.11
   1   5   5    2.81    0.11
  -2  -5  -5    1.29    0.07
  -2  -5  -5    1.25    0.07
  -2  -5  -5    1.21    0.07
   2   5   5    1.19    0.08
  -3  -5  -5    0.25    0.04
  -3  -5  -5    0.25    0.04
   3   5   5    0.26    0.05
  -4  -5  -5    7.22    0.23
   4   5   5    7.29    0.24
   5   5   5    3.46    0.16
   6   5   5    0.61    0.09
   9  -6  -5    2.88    0.16
   8  -6  -5    0.06    0.05
   7  -6  -5    7.44    0.25
  -7   6   5    7.93    0.25
   6  -6  -5    6.63    0.22
  -6   6   5    6.88    0.22
   5  -6  -5   16.12    0.45
  -5   6   5   15.49    0.44
   4  -6  -5    0.38    0.05
  -4   6   5    0.35    0.04
  -4   6   5    0.38    0.05
   3  -6  -5    1.82    0.09
  -3   6   5    1.86    0.09
   2  -6  -5   16.71    0.46
  -2   6   5   16.90    0.46
   1  -6  -5   28.80    0.78
   1  -6  -5   30.58    0.81
  -1   6   5   30.01    0.78
   0  -6  -5   23.00    0.62
   0   6   5   23.49    0.62
  -1  -6  -5   14.60    0.38
  -1  -6  -5   14.26    0.41
   1   6   5   14.36    0.41
  -2  -6  -5   25.27    0.66
  -2  -6  -5   25.71    0.69
   2   6   5   25.49    0.69
  -3  -6  -5    2.97    0.13
  -3  -6  -5    3.25    0.12
   3   6   5    3.00    0.14
   4   6   5   14.16    0.43
   5   6   5    4.81    0.20
   9  -7  -5    1.77    0.13
   8  -7  -5    0.31    0.06
   7  -7  -5    0.46    0.07
   6  -7  -5    0.16    0.05
  -6   7   5    0.12    0.04
  -6   7   5    0.20    0.05
   5  -7  -5    5.46    0.19
  -5   7   5    5.56    0.19
  -5   7   5    5.42    0.19
   4  -7  -5    0.16    0.04
  -4   7   5    0.08    0.03
  -4   7   5    0.18    0.04
   3  -7  -5    0.89    0.07
  -3   7   5    0.98    0.07
   2  -7  -5   16.02    0.45
  -2   7   5   15.62    0.44
   1  -7  -5    0.06    0.04
  -1   7   5    0.04    0.03
   0  -7  -5    8.24    0.26
   0  -7  -5    8.50    0.23
   0   7   5    8.15    0.26
  -1  -7  -5    1.07    0.06
  -1  -7  -5    1.18    0.08
   1   7   5    1.08    0.09
  -2  -7  -5    1.12    0.09
  -2  -7  -5    1.11    0.07
   2   7   5    0.93    0.08
  -3  -7  -5    0.62    0.08
   3   7   5    0.80    0.08
   4   7   5    1.62    0.13
   9  -8  -5    2.81    0.16
   8  -8  -5    0.37    0.07
   7  -8  -5    1.21    0.10
  -7   8   5    1.41    0.10
   6  -8  -5    9.98    0.32
  -6   8   5   10.54    0.33
  -6   8   5   10.37    0.32
   5  -8  -5    3.99    0.16
  -5   8   5    4.11    0.16
  -5   8   5    4.14    0.16
   4  -8  -5    7.04    0.23
  -4   8   5    6.86    0.23
   3  -8  -5    1.85    0.10
  -3   8   5    1.93    0.10
   2  -8  -5    4.13    0.16
  -2   8   5    4.28    0.16
   1  -8  -5    3.10    0.13
  -1   8   5    2.91    0.13
   0  -8  -5    0.01    0.04
   0  -8  -5    0.00    0.03
   0   8   5   -0.01    0.04
  -1  -8  -5    0.12    0.03
  -1  -8  -5    0.18    0.05
   1   8   5    0.22    0.06
  -2  -8  -5    2.75    0.14
  -2  -8  -5    3.06    0.12
   2   8   5    3.11    0.15
   3   8   5    8.59    0.30
   8  -9  -5    0.39    0.07
  -8   9   5    0.39    0.07
   7  -9  -5    1.50    0.11
  -7   9   5    1.58    0.11
   6  -9  -5    5.10    0.20
  -6   9   5    5.22    0.20
   5  -9  -5    3.81    0.16
  -5   9   5    3.99    0.16
   4  -9  -5    7.28    0.25
  -4   9   5    7.17    0.24
   3  -9  -5    6.93    0.24
  -3   9   5    7.04    0.24
  -2   9   5   12.15    0.37
   1  -9  -5    6.22    0.22
  -1   9   5    6.22    0.22
   0  -9  -5    7.72    0.26
   0   9   5    7.45    0.26
  -1  -9  -5    0.69    0.09
   1   9   5    0.64    0.08
  -2  -9  -5    5.90    0.24
   2   9   5    6.39    0.24
   8 -10  -5    8.78    0.31
  -8  10   5    9.08    0.31
   7 -10  -5    4.77    0.20
  -7  10   5    4.68    0.20
   6 -10  -5    5.17    0.21
   5 -10  -5    4.69    0.19
   4 -10  -5   24.53    0.68
  -4  10   5   23.39    0.66
  -3  10   5   14.75    0.44
   2 -10  -5    3.16    0.15
  -2  10   5    2.99    0.15
   1 -10  -5    0.76    0.08
  -1  10   5    0.89    0.09
   0 -10  -5    3.45    0.17
   0  10   5    3.41    0.17
  -1 -10  -5    1.47    0.12
  -1 -10  -5    1.66    0.12
   1  10   5    1.61    0.13
   6 -11  -5    0.84    0.09
   5 -11  -5    2.67    0.15
   4 -11  -5    0.54    0.08
   3 -11  -5    5.00    0.21
   2 -11  -5    0.85    0.09
  -2  11   5    1.02    0.10
   1 -11  -5    3.72    0.18
  -1  11   5    3.49    0.17
   0 -11  -5    0.13    0.06
   0  11   5    0.27    0.07
   3 -12   6    2.64    0.13
   4 -12   6    0.88    0.09
   0 -11   6    2.86    0.15
   1 -11   6   18.82    0.54
   2 -11   6    0.10    0.04
   3 -11   6    3.69    0.15
   4 -11   6    0.84    0.08
   5 -11   6   11.06    0.33
   6 -11   6    1.31    0.09
  -2 -10   6    0.74    0.09
  -1 -10   6    1.23    0.11
   0 -10   6    9.43    0.30
   1 -10   6    3.97    0.16
   2 -10   6    0.04    0.04
   3 -10   6    1.14    0.08
   4 -10   6    4.92    0.17
   5 -10   6    0.19    0.04
  -6  10  -6    4.59    0.21
   6 -10   6    4.58    0.16
  -7  10  -6    0.43    0.08
   7 -10   6    0.28    0.05
  -3  -9   6    1.54    0.12
  -2  -9   6    2.51    0.14
  -1  -9   6    0.05    0.04
   0  -9   6    1.05    0.08
   1  -9   6    0.92    0.07
   1  -9   6    0.88    0.07
   2  -9   6   22.16    0.60
   3  -9   6    6.78    0.21
   4  -9   6    0.56    0.05
  -5   9  -6    2.72    0.14
   5  -9   6    2.59    0.11
  -6   9  -6    9.01    0.32
   6  -9   6    9.29    0.27
  -7   9  -6    4.75    0.21
   7  -9   6    4.89    0.17
   8  -9   6    0.57    0.06
  -4  -8   6    0.26    0.07
  -3  -8   6   14.89    0.45
  -2  -8   6    0.49    0.06
  -1  -8   6   -0.02    0.03
   0  -8   6    0.44    0.06
   1  -8   6   12.39    0.35
   2  -8   6    0.08    0.03
   3  -8   6    3.84    0.13
  -4   8  -6   13.60    0.41
   4  -8   6   12.93    0.36
  -5   8  -6    3.69    0.17
   5  -8   6    3.90    0.13
  -6   8  -6    3.03    0.15
   6  -8   6    2.90    0.11
  -7   8  -6    1.08    0.11
   7  -8   6    1.10    0.07
  -8   8  -6    4.03    0.19
   8  -8   6    3.86    0.14
  -5  -7   6   12.00    0.39
   4   7  -6   10.64    0.34
  -4  -7   6   10.54    0.34
   3   7  -6    3.14    0.14
  -3  -7   6    3.00    0.14
   2   7  -6    0.20    0.04
  -2  -7   6    0.14    0.04
   1   7  -6    0.08    0.03
   1   7  -6    0.09    0.02
  -1  -7   6    0.05    0.04
   0   7  -6    1.92    0.08
   0  -7   6    1.92    0.09
  -1   7  -6    4.21    0.13
   1  -7   6    4.30    0.14
  -2   7  -6    1.13    0.05
   2  -7   6    0.94    0.06
   2  -7   6    1.01    0.06
   3  -7   6   47.21    1.17
   3  -7   6   44.67    1.17
  -4   7  -6   10.75    0.34
   4  -7   6   11.00    0.29
   4  -7   6   10.28    0.29
  -5   7  -6    3.58    0.16
   5  -7   6    3.40    0.12
  -6   7  -6    6.46    0.24
   6  -7   6    6.44    0.19
   7  -7   6   25.31    0.67
   8  -7   6    1.11    0.08
   6   6  -6   -0.05    0.05
  -6  -6   6   -0.05    0.05
   5   6  -6    3.41    0.16
  -5  -6   6    3.46    0.16
   4   6  -6    4.26    0.17
  -4  -6   6    4.10    0.17
   3   6  -6    1.43    0.09
  -3  -6   6    1.47    0.09
   2   6  -6    0.15    0.04
  -2  -6   6    0.14    0.04
   1   6  -6   24.43    0.63
  -1  -6   6   23.51    0.64
   0   6  -6    3.44    0.12
   0  -6   6    3.60    0.12
   0  -6   6    3.38    0.12
  -1   6  -6    5.84    0.17
   1  -6   6    5.98    0.18
   1  -6   6    5.67    0.17
  -2   6  -6    0.11    0.02
   2  -6   6    0.09    0.02
   2  -6   6    0.12    0.02
  -3   6  -6    8.19    0.27
  -3   6  -6    8.31    0.22
   3  -6   6    8.05    0.23
   3  -6   6    8.62    0.23
  -4   6  -6   26.48    0.78
   4  -6   6   29.15    0.71
   4  -6   6   27.74    0.71
  -5   6  -6   -0.02    0.04
   5  -6   6    0.06    0.02
   5  -6   6    0.08    0.02
   6  -6   6    8.72    0.25
   7  -6   6    7.12    0.22
   8  -6   6    0.02    0.03
   6   5  -6    0.14    0.06
  -6  -5   6    0.22    0.06
   5   5  -6    9.65    0.31
  -5  -5   6    9.53    0.31
   4   5  -6    6.64    0.22
  -4  -5   6    6.84    0.23
   3   5  -6    2.18    0.10
  -3  -5   6    2.26    0.11
   2   5  -6    0.40    0.04
  -2  -5   6    0.45    0.05
   1   5  -6    5.17    0.16
  -1  -5   6    5.31    0.17
   0   5  -6   20.54    0.54
   0  -5   6   21.64    0.55
   0  -5   6   20.49    0.55
  -1   5  -6    1.29    0.05
   1  -5   6    1.36    0.06
   1  -5   6    1.28    0.06
  -2   5  -6    9.85    0.27
  -2   5  -6   10.01    0.31
   2  -5   6   10.49    0.27
   2  -5   6   10.26    0.27
  -3   5  -6    0.39    0.03
  -3   5  -6    0.32    0.04
   3  -5   6    0.29    0.02
   3  -5   6    0.32    0.03
  -4   5  -6   38.26    0.96
  -4   5  -6   37.03    1.04
   4  -5   6   39.20    0.96
   4  -5   6   37.82    0.96
   5  -5   6    4.71    0.14
   5  -5   6    4.50    0.14
   6  -5   6    7.31    0.21
   7  -5   6    0.22    0.04
   8  -5   6    7.24    0.23
   9  -5   6    1.90    0.11
   7   4  -6    0.02    0.05
  -7  -4   6    0.00    0.05
   6   4  -6    0.85    0.09
  -6  -4   6    0.65    0.08
   5   4  -6    3.19    0.14
  -5  -4   6    3.25    0.15
   4   4  -6   12.03    0.34
  -4  -4   6   11.36    0.35
   3   4  -6    0.19    0.04
  -3  -4   6    0.10    0.04
   2   4  -6    3.93    0.13
  -2  -4   6    4.01    0.14
   1   4  -6   48.70    1.26
  -1  -4   6   48.88    1.26
  -1  -4   6   51.57    1.27
   0   4  -6   13.16    0.35
   0  -4   6   13.30    0.36
   0  -4   6   13.80    0.39
   0  -4   6   13.64    0.36
  -1   4  -6    1.81    0.05
   1  -4   6    1.78    0.06
   1  -4   6    1.58    0.08
   1  -4   6    1.76    0.06
  -2   4  -6   13.67    0.40
  -2   4  -6   13.51    0.36
   2  -4   6   13.88    0.36
   2  -4   6   14.35    0.36
  -3   4  -6   22.40    0.64
  -3   4  -6   23.04    0.59
   3  -4   6   24.19    0.59
   3  -4   6   22.92    0.58
  -4   4  -6    0.07    0.02
   4  -4   6    0.05    0.02
   4  -4   6    0.04    0.02
  -5   4  -6    0.43    0.05
   5  -4   6    0.50    0.04
   5  -4   6    0.50    0.04
   6  -4   6   15.00    0.40
   7  -4   6    0.20    0.04
   8  -4   6    3.20    0.13
   9  -4   6    0.20    0.05
   7   3  -6    1.58    0.12
  -7  -3   6    1.22    0.11
   6   3  -6    7.68    0.26
  -6  -3   6    7.58    0.26
   5   3  -6   41.26    1.08
  -5  -3   6   41.08    1.08
   4   3  -6    0.18    0.04
  -4  -3   6    0.21    0.04
   3   3  -6   31.35    0.82
  -3  -3   6   31.51    0.82
   2   3  -6   48.08    1.23
  -2  -3   6   48.77    1.24
   1   3  -6  107.44    2.71
  -1  -3   6  104.46    2.75
  -1  -3   6  112.76    2.71
   0   3  -6    9.65    0.25
   0  -3   6    9.71    0.26
   0  -3   6    9.59    0.28
   0  -3   6    9.76    0.26
   1  -3   6    6.92    0.18
   1  -3   6    6.98    0.18
  -2   3  -6   11.82    0.34
  -3   3  -6   48.86    1.22
  -4   3  -6   12.05    0.33
   4  -3   6   11.85    0.31
   4  -3   6   12.30    0.31
  -5   3  -6    4.78    0.16
   5  -3   6    5.01    0.14
   5  -3   6    4.66    0.14
   6  -3   6   -0.04    0.03
   7  -3   6    0.17    0.04
   8  -3   6    0.47    0.06
   8   2  -6    0.52    0.08
   7   2  -6    0.25    0.06
  -7  -2   6    0.26    0.06
   6   2  -6    5.46    0.20
  -6  -2   6    5.33    0.20
   5   2  -6    7.06    0.23
  -5  -2   6    7.29    0.23
   4   2  -6    0.55    0.05
  -4  -2   6    0.63    0.06
   3   2  -6    7.70    0.22
  -3  -2   6    7.61    0.23
   2   2  -6   50.75    1.28
  -2  -2   6   49.98    1.28
   1   2  -6   54.93    1.42
  -1  -2   6   55.07    1.42
  -1  -2   6   58.87    1.42
   0   2  -6   17.46    0.44
   0  -2   6   17.77    0.44
   0  -2   6   16.10    0.47
   0  -2   6   17.26    0.44
  -1   2  -6    1.94    0.07
   1  -2   6    1.95    0.06
   1  -2   6    2.03    0.06
  -3   2  -6    2.51    0.09
   3  -2   6    2.53    0.07
   3  -2   6    2.68    0.07
  -4   2  -6    6.10    0.18
   4  -2   6    5.87    0.17
   4  -2   6    6.08    0.17
  -5   2  -6    5.57    0.18
   5  -2   6    5.85    0.17
   5  -2   6    5.44    0.17
   6  -2   6    8.98    0.26
   7  -2   6    0.10    0.04
   8  -2   6    1.06    0.08
   8   1  -6    3.60    0.17
   7   1  -6    6.02    0.22
  -7  -1   6    5.79    0.22
   6   1  -6    0.03    0.04
  -6  -1   6    0.03    0.03
   5   1  -6    4.30    0.16
  -5  -1   6    4.26    0.16
   4   1  -6    0.19    0.03
  -4  -1   6    0.28    0.04
   3   1  -6    0.85    0.05
  -3  -1   6    0.82    0.05
   2   1  -6    7.98    0.23
  -2  -1   6    7.85    0.23
  -2  -1   6    8.56    0.23
   1   1  -6   14.68    0.38
  -1  -1   6   15.27    0.39
  -1  -1   6   14.20    0.39
   0   1  -6    9.72    0.25
   0  -1   6    9.50    0.26
   0  -1   6    9.37    0.25
   0  -1   6    9.58    0.25
   1  -1   6   33.34    0.86
   1  -1   6   35.43    0.86
   2  -1   6   71.50    1.80
   2  -1   6   72.40    1.80
  -3   1  -6    3.52    0.12
   3  -1   6    3.53    0.10
   3  -1   6    3.62    0.10
  -4   1  -6    0.13    0.03
   4  -1   6    0.12    0.02
   4  -1   6    0.16    0.02
  -5   1  -6    0.27    0.04
   5  -1   6    0.27    0.03
   5  -1   6    0.32    0.03
   6  -1   6    7.79    0.23
   7  -1   6    0.31    0.05
   8  -1   6    1.58    0.10
   9   0  -6    4.68    0.21
   8   0  -6    9.15    0.31
  -8   0   6    8.78    0.30
   7   0  -6    1.03    0.09
  -7   0   6    0.85    0.08
   6   0  -6   14.48    0.43
  -6   0   6   15.27    0.43
   5   0  -6   11.98    0.35
  -5   0   6   12.45    0.35
   4   0  -6    2.40    0.10
  -4   0   6    2.25    0.10
   3   0  -6    4.36    0.14
  -3   0   6    4.38    0.14
   2   0  -6   28.77    0.75
  -2   0   6   30.59    0.75
  -2   0   6   28.34    0.75
   1   0  -6    2.82    0.09
  -1   0   6    3.02    0.09
  -1   0   6    2.83    0.09
   0   0  -6    5.45    0.15
   0   0   6    5.45    0.15
   0   0   6    5.19    0.15
  -1   0  -6    0.03    0.01
   1   0   6    0.04    0.01
   1   0   6    0.03    0.01
  -2   0  -6   12.84    0.33
   2   0   6   12.62    0.34
   2   0   6   13.30    0.34
  -3   0  -6    7.20    0.20
  -3   0  -6    7.54    0.22
   3   0   6    7.73    0.21
   3   0   6    7.44    0.21
  -4   0  -6    1.28    0.07
  -4   0  -6    1.33    0.05
   4   0   6    1.49    0.06
   4   0   6    1.17    0.06
  -5   0  -6   14.41    0.40
   5   0   6   14.10    0.39
   6   0   6    1.87    0.09
   7   0   6    0.59    0.06
   8   0   6    3.63    0.16
   9  -1  -6    4.02    0.19
   8  -1  -6    3.53    0.16
  -8   1   6    3.29    0.15
   7  -1  -6    0.05    0.05
  -7   1   6    0.05    0.04
   6  -1  -6   16.86    0.48
  -6   1   6   17.22    0.48
   5  -1  -6    4.98    0.17
  -5   1   6    4.87    0.17
   4  -1  -6    1.49    0.07
  -4   1   6    1.65    0.08
   3  -1  -6   46.68    1.19
  -3   1   6   46.42    1.19
   2  -1  -6    8.65    0.24
  -2   1   6    8.58    0.24
   1  -1  -6    8.86    0.24
  -1   1   6    8.48    0.24
  -1   1   6    9.33    0.24
   0  -1  -6    4.73    0.14
   0   1   6    4.93    0.14
   0   1   6    4.75    0.14
  -1  -1  -6  280.43    7.03
   1   1   6  289.80    7.04
   1   1   6  271.59    7.05
  -2  -1  -6   76.30    1.92
   2   1   6   75.12    1.92
   2   1   6   78.30    1.92
  -3  -1  -6    1.68    0.06
  -3  -1  -6    1.72    0.08
   3   1   6    1.72    0.07
   3   1   6    1.69    0.07
  -4  -1  -6    4.26    0.15
  -4  -1  -6    4.44    0.14
   4   1   6    4.52    0.14
   4   1   6    4.13    0.14
  -5  -1  -6   69.65    1.73
   5   1   6   68.30    1.75
   6   1   6   22.21    0.60
   7   1   6    2.38    0.12
   8   1   6    0.31    0.07
   9  -2  -6    1.15    0.11
   8  -2  -6    0.14    0.05
  -8   2   6    0.08    0.05
   7  -2  -6    6.75    0.23
  -7   2   6    6.83    0.23
   6  -2  -6    0.99    0.08
  -6   2   6    0.93    0.07
   5  -2  -6    7.97    0.24
  -5   2   6    8.00    0.24
   4  -2  -6    7.91    0.24
  -4   2   6    8.11    0.24
   3  -2  -6   19.70    0.52
  -3   2   6   19.71    0.52
   2  -2  -6   17.67    0.47
  -2   2   6   18.03    0.47
   1  -2  -6    0.22    0.03
  -1   2   6    0.20    0.03
  -1   2   6    0.25    0.03
   0  -2  -6   61.21    1.57
   0   2   6   61.38    1.57
   0   2   6   64.06    1.57
  -1  -2  -6   16.91    0.44
   1   2   6   17.81    0.45
   1   2   6   16.09    0.44
  -2  -2  -6    2.71    0.10
  -2  -2  -6    2.86    0.10
   2   2   6    2.73    0.10
   2   2   6    3.02    0.10
  -3  -2  -6    4.34    0.14
  -3  -2  -6    4.08    0.14
   3   2   6    4.43    0.14
   3   2   6    4.22    0.14
  -4  -2  -6    2.17    0.10
  -4  -2  -6    2.08    0.09
   4   2   6    1.95    0.09
  -5  -2  -6    7.49    0.24
   5   2   6    7.45    0.24
   6   2   6   -0.01    0.04
   7   2   6    0.03    0.05
   9  -3  -6    2.53    0.15
   8  -3  -6    5.67    0.21
   7  -3  -6    1.91    0.11
  -7   3   6    1.87    0.11
   6  -3  -6   27.47    0.74
  -6   3   6   27.78    0.74
   5  -3  -6    7.55    0.23
  -5   3   6    7.69    0.24
   4  -3  -6    6.19    0.19
  -4   3   6    6.33    0.20
   3  -3  -6    0.09    0.03
  -3   3   6    0.11    0.03
   2  -3  -6   17.48    0.47
  -2   3   6   17.61    0.47
  -2   3   6   18.31    0.47
   1  -3  -6    0.08    0.02
  -1   3   6    0.02    0.02
   0  -3  -6   18.39    0.47
   0   3   6   17.55    0.47
  -1  -3  -6   13.86    0.38
   1   3   6   15.10    0.39
   1   3   6   13.62    0.38
  -2  -3  -6    0.47    0.04
  -2  -3  -6    0.49    0.05
   2   3   6    0.46    0.04
  -3  -3  -6    3.80    0.13
  -3  -3  -6    3.77    0.13
   3   3   6    3.82    0.13
  -4  -3  -6   24.09    0.64
  -4  -3  -6   23.87    0.63
   4   3   6   23.06    0.63
  -5  -3  -6    0.31    0.06
   5   3   6    0.31    0.05
   6   3   6    1.45    0.11
   7   3   6    0.10    0.06
   9  -4  -6    4.34    0.19
   8  -4  -6    0.74    0.08
   7  -4  -6   17.11    0.49
  -7   4   6   17.40    0.49
   6  -4  -6    0.69    0.07
  -6   4   6    0.58    0.06
   5  -4  -6    0.33    0.04
  -5   4   6    0.31    0.04
   4  -4  -6    1.35    0.07
  -4   4   6    1.23    0.07
   3  -4  -6   42.91    1.14
  -3   4   6   46.08    1.17
  -3   4   6   43.71    1.14
   2  -4  -6    2.26    0.09
  -2   4   6    2.31    0.09
   1  -4  -6   13.36    0.37
   1  -4  -6   13.75    0.37
  -1   4   6   13.23    0.37
   0  -4  -6    1.62    0.07
   0   4   6    1.50    0.07
  -1  -4  -6   12.92    0.35
   1   4   6   12.55    0.35
  -2  -4  -6    0.43    0.04
  -2  -4  -6    0.37    0.04
  -2  -4  -6    0.37    0.04
   2   4   6    0.27    0.04
  -3  -4  -6   15.63    0.42
  -3  -4  -6   15.79    0.43
   3   4   6   15.28    0.43
  -4  -4  -6    0.69    0.07
   4   4   6    0.57    0.06
   5   4   6    4.57    0.18
   6   4   6    0.11    0.06
   9  -5  -6    0.69    0.09
   8  -5  -6    1.64    0.12
   7  -5  -6   19.43    0.55
  -7   5   6   19.43    0.54
   6  -5  -6    9.50    0.29
  -6   5   6    9.26    0.29
   5  -5  -6    2.04    0.10
  -5   5   6    2.14    0.10
   4  -5  -6   30.87    0.82
  -4   5   6   31.62    0.82
   3  -5  -6   28.99    0.77
  -3   5   6   29.21    0.77
  -3   5   6   30.02    0.79
   2  -5  -6    2.56    0.10
  -2   5   6    2.37    0.10
   1  -5  -6    4.87    0.15
   1  -5  -6    4.87    0.16
  -1   5   6    4.77    0.16
   0  -5  -6    0.43    0.05
   0   5   6    0.41    0.05
  -1  -5  -6    0.85    0.06
   1   5   6    0.83    0.07
  -2  -5  -6    0.18    0.04
  -2  -5  -6    0.13    0.04
  -2  -5  -6    0.15    0.04
   2   5   6    0.14    0.04
  -3  -5  -6   47.49    1.22
  -3  -5  -6   46.48    1.19
   3   5   6   47.20    1.23
  -4  -5  -6   14.13    0.40
   4   5   6   13.61    0.41
   5   5   6    0.08    0.05
   6   5   6    0.33    0.07
   9  -6  -6    0.59    0.09
   8  -6  -6    2.78    0.14
   7  -6  -6    5.71    0.21
  -7   6   6    5.76    0.20
   6  -6  -6    0.80    0.08
  -6   6   6    0.76    0.07
   5  -6  -6    8.01    0.26
  -5   6   6    8.11    0.25
  -5   6   6    8.24    0.25
   4  -6  -6    0.05    0.03
  -4   6   6    0.03    0.02
  -4   6   6    0.04    0.03
   3  -6  -6   33.81    0.89
  -3   6   6   34.24    0.89
   2  -6  -6    3.59    0.14
  -2   6   6    3.58    0.13
   1  -6  -6    0.04    0.02
   1  -6  -6    0.05    0.03
  -1   6   6    0.08    0.03
   0  -6  -6    4.85    0.17
   0   6   6    4.68    0.17
  -1  -6  -6    0.55    0.05
  -1  -6  -6    0.55    0.06
   1   6   6    0.55    0.06
  -2  -6  -6    0.37    0.05
  -2  -6  -6    0.43    0.05
  -2  -6  -6    0.33    0.05
   2   6   6    0.36    0.06
  -3  -6  -6    6.57    0.21
   3   6   6    6.41    0.23
  -4  -6  -6    9.15    0.29
   4   6   6    9.93    0.31
   5   6   6    0.35    0.08
   9  -7  -6    0.45    0.08
   8  -7  -6    4.13    0.18
   7  -7  -6    0.72    0.08
   6  -7  -6   11.18    0.35
  -6   7   6   11.94    0.35
  -6   7   6   11.50    0.35
   5  -7  -6    0.65    0.07
  -5   7   6    0.69    0.06
  -5   7   6    0.75    0.07
   4  -7  -6    5.09    0.18
  -4   7   6    5.13    0.18
   3  -7  -6    5.01    0.18
  -3   7   6    5.31    0.18
   2  -7  -6   60.05    1.55
  -2   7   6   60.72    1.55
   1  -7  -6    9.81    0.29
  -1   7   6    9.54    0.29
   0  -7  -6   37.70    0.99
   0   7   6   37.54    0.99
  -1  -7  -6    3.92    0.16
  -1  -7  -6    3.98    0.14
   1   7   6    3.72    0.16
  -2  -7  -6    3.05    0.14
  -2  -7  -6    2.91    0.12
   2   7   6    2.79    0.14
  -3  -7  -6    2.58    0.12
   3   7   6    2.51    0.14
   4   7   6    0.97    0.10
   9  -8  -6    3.30    0.17
   8  -8  -6    3.30    0.16
   7  -8  -6    4.67    0.19
  -7   8   6    5.06    0.19
   6  -8  -6    4.57    0.18
  -6   8   6    4.69    0.18
  -6   8   6    4.74    0.18
   5  -8  -6    0.75    0.08
  -5   8   6    0.82    0.07
  -5   8   6    0.75    0.07
   4  -8  -6    9.29    0.30
  -4   8   6    9.40    0.29
   3  -8  -6    3.23    0.14
  -3   8   6    3.36    0.14
   2  -8  -6   -0.03    0.03
  -2   8   6    0.00    0.04
   1  -8  -6   12.09    0.37
  -1   8   6   12.36    0.37
   0  -8  -6    2.60    0.13
   0  -8  -6    2.80    0.10
   0   8   6    2.68    0.13
  -1  -8  -6    0.30    0.04
  -1  -8  -6    0.26    0.05
   1   8   6    0.28    0.06
  -2  -8  -6    0.00    0.03
  -2  -8  -6   -0.05    0.04
   2   8   6    0.01    0.05
   3   8   6    7.32    0.27
   8  -9  -6    0.17    0.06
  -8   9   6    0.11    0.06
   7  -9  -6    1.65    0.12
  -7   9   6    1.93    0.11
   6  -9  -6    0.28    0.06
  -6   9   6    0.30    0.06
   5  -9  -6   12.49    0.38
  -5   9   6   12.10    0.37
   4  -9  -6    8.28    0.28
  -4   9   6    8.61    0.28
   3  -9  -6    0.10    0.05
  -3   9   6    0.06    0.04
   2  -9  -6    1.53    0.10
  -2   9   6    1.59    0.11
   1  -9  -6   26.09    0.72
   1  -9  -6   26.63    0.68
  -1   9   6   25.93    0.72
   0  -9  -6   17.99    0.52
   0   9   6   18.04    0.52
  -1  -9  -6    0.09    0.05
   1   9   6    0.09    0.06
   2   9   6    0.96    0.11
   7 -10  -6    0.38    0.07
  -7  10   6    0.48    0.07
   6 -10  -6    4.61    0.20
   5 -10  -6    4.49    0.19
   4 -10  -6    0.36    0.07
  -4  10   6    0.50    0.07
   3 -10  -6    0.56    0.08
  -3  10   6    0.59    0.07
   2 -10  -6    1.21    0.10
  -2  10   6    1.22    0.10
   1 -10  -6    6.38    0.24
  -1  10   6    5.72    0.23
   0 -10  -6    0.31    0.07
   0  10   6    0.33    0.07
   1  10   6    0.41    0.08
   6 -11  -6   -0.06    0.05
   5 -11  -6    0.21    0.07
   4 -11  -6    5.03    0.21
   2 -11  -6    1.50    0.12
  -2  11   6    1.36    0.12
   1 -11  -6    0.58    0.09
  -1  11   6    0.38    0.08
   0 -11   7    0.13    0.05
   1 -11   7    0.03    0.05
   2 -11   7    0.59    0.07
   3 -11   7    7.49    0.25
   4 -11   7   17.00    0.48
   5 -11   7    0.23    0.05
   6 -11   7    3.57    0.14
  -2 -10   7    0.82    0.09
  -1 -10   7    2.96    0.15
   0 -10   7    1.06    0.09
   1 -10   7    0.44    0.06
   2 -10   7    5.23    0.18
   3 -10   7    1.14    0.08
   4 -10   7    0.31    0.05
   5 -10   7    0.98    0.07
  -6  10  -7    5.93    0.24
   6 -10   7    5.96    0.19
   7 -10   7    0.75    0.06
  -3  -9   7    2.56    0.15
  -2  -9   7    0.79    0.08
  -1  -9   7    0.55    0.07
   0  -9   7    0.04    0.04
   1  -9   7    1.03    0.08
   2  -9   7    5.98    0.20
   3  -9   7    0.81    0.06
   4  -9   7    4.41    0.15
  -5   9  -7   10.01    0.34
   5  -9   7    9.58    0.28
  -6   9  -7    0.05    0.05
   6  -9   7    0.08    0.03
  -7   9  -7    0.16    0.06
   7  -9   7    0.14    0.04
  -4  -8   7    0.10    0.06
  -3  -8   7    1.20    0.10
  -2  -8   7    9.06    0.29
  -1  -8   7   23.52    0.64
   0  -8   7    4.27    0.16
   1  -8   7    0.21    0.04
   2  -8   7    4.36    0.15
   3  -8   7    9.76    0.28
   4  -8   7    1.07    0.06
  -5   8  -7    1.36    0.10
   5  -8   7    1.24    0.07
  -6   8  -7    3.49    0.17
   6  -8   7    3.45    0.12
  -7   8  -7    6.47    0.26
   7  -8   7    6.70    0.20
  -8   8  -7    0.68    0.09
   8  -8   7    0.64    0.06
  -5  -7   7    3.40    0.17
  -4  -7   7   11.12    0.36
  -3  -7   7   -0.04    0.04
   2   7  -7    4.94    0.18
  -2  -7   7    4.86    0.18
   1   7  -7    0.82    0.06
  -1  -7   7    0.65    0.06
   0  -7   7   11.75    0.34
   1  -7   7    8.63    0.25
  -2   7  -7    1.98    0.06
   2  -7   7    2.01    0.08
   2  -7   7    1.96    0.08
  -3   7  -7    0.99    0.05
   3  -7   7    1.00    0.05
   3  -7   7    0.98    0.05
  -4   7  -7    8.19    0.28
   4  -7   7    8.79    0.24
   4  -7   7    8.07    0.23
  -5   7  -7    6.70    0.24
   5  -7   7    6.32    0.19
  -6   7  -7    6.42    0.25
   6  -7   7    6.84    0.20
  -7   7  -7    5.26    0.22
   7  -7   7    5.25    0.17
   8  -7   7    0.02    0.03
  -6  -6   7    0.10    0.06
   5   6  -7    0.09    0.06
  -5  -6   7    0.26    0.06
   4   6  -7    7.17    0.24
  -4  -6   7    7.14    0.25
   3   6  -7    0.38    0.05
  -3  -6   7    0.38    0.06
   2   6  -7    0.71    0.06
  -2  -6   7    0.85    0.07
   1   6  -7   29.76    0.78
  -1  -6   7   30.09    0.79
   0   6  -7   19.89    0.53
   0  -6   7   20.24    0.54
   0  -6   7   21.07    0.54
  -1   6  -7   14.65    0.39
   1  -6   7   14.23    0.39
   1  -6   7   15.26    0.40
  -2   6  -7    1.83    0.07
   2  -6   7    2.03    0.07
   2  -6   7    1.82    0.07
  -3   6  -7    0.69    0.07
  -3   6  -7    0.61    0.04
   3  -6   7    0.50    0.04
   3  -6   7    0.52    0.04
  -4   6  -7   34.73    0.99
  -4   6  -7   35.93    0.90
   4  -6   7   35.09    0.91
   4  -6   7   36.97    0.91
  -5   6  -7    2.77    0.13
   5  -6   7    2.55    0.09
   5  -6   7    2.62    0.09
   6  -6   7    0.08    0.03
   7  -6   7    2.91    0.11
   8  -6   7    6.25    0.20
   6   5  -7   -0.01    0.05
  -6  -5   7   -0.04    0.04
   5   5  -7    1.92    0.12
  -5  -5   7    1.66    0.11
   4   5  -7   18.22    0.51
  -4  -5   7   18.11    0.52
   3   5  -7    1.65    0.09
  -3  -5   7    1.59    0.09
   2   5  -7    5.11    0.17
  -2  -5   7    4.96    0.17
   1   5  -7   13.58    0.37
  -1  -5   7   13.29    0.37
   0   5  -7   17.20    0.45
   0  -5   7   17.41    0.46
   0  -5   7   17.04    0.46
  -1   5  -7    0.32    0.03
   1  -5   7    0.35    0.03
   1  -5   7    0.36    0.03
  -2   5  -7    8.50    0.24
   2  -5   7    9.32    0.24
   2  -5   7    9.32    0.24
  -3   5  -7    8.99    0.25
  -3   5  -7    9.01    0.28
   3  -5   7    9.04    0.24
   3  -5   7    8.95    0.24
  -4   5  -7    1.46    0.07
  -4   5  -7    1.43    0.09
   4  -5   7    1.52    0.05
   4  -5   7    1.48    0.05
  -5   5  -7    0.07    0.03
   5  -5   7    0.05    0.02
   5  -5   7    0.05    0.02
   6  -5   7    0.07    0.03
   7  -5   7    5.78    0.18
   8  -5   7    0.41    0.05
   7   4  -7    0.01    0.06
  -7  -4   7    0.04    0.05
   6   4  -7    0.03    0.05
  -6  -4   7    0.06    0.05
   5   4  -7    1.00    0.09
  -5  -4   7    1.10    0.10
   4   4  -7   23.90    0.64
  -4  -4   7   23.62    0.65
   3   4  -7    5.40    0.18
  -3  -4   7    5.31    0.18
   2   4  -7    0.97    0.06
  -2  -4   7    0.88    0.06
   1   4  -7   29.45    0.75
  -1  -4   7   27.75    0.76
  -1  -4   7   30.37    0.76
   0   4  -7   36.58    0.92
   0  -4   7   36.03    0.98
   0  -4   7   37.33    0.93
   0  -4   7   35.63    0.93
   1  -4   7  107.62    2.80
   1  -4   7  103.91    2.66
   1  -4   7  107.27    2.66
  -2   4  -7   19.52    0.56
   2  -4   7   20.57    0.51
   2  -4   7   20.22    0.51
  -3   4  -7   20.17    0.57
  -3   4  -7   20.62    0.53
  -4   4  -7   10.50    0.29
   4  -4   7   10.54    0.28
   4  -4   7   10.80    0.28
  -5   4  -7   66.77    1.66
   5  -4   7   65.57    1.67
   5  -4   7   66.66    1.67
   6  -4   7    1.79    0.07
   7  -4   7    0.08    0.03
   8  -4   7    0.65    0.06
   7   3  -7    0.81    0.09
  -7  -3   7    0.78    0.09
   6   3  -7    0.00    0.04
  -6  -3   7    0.09    0.05
   5   3  -7    0.25    0.05
  -5  -3   7    0.34    0.05
   4   3  -7    6.11    0.20
  -4  -3   7    6.17    0.21
   3   3  -7   12.71    0.35
  -3  -3   7   12.52    0.36
   2   3  -7   20.53    0.54
  -2  -3   7   20.11    0.54
   1   3  -7    1.09    0.05
  -1  -3   7    1.11    0.05
  -1  -3   7    1.01    0.05
   0   3  -7   14.96    0.38
   0  -3   7   15.02    0.39
   0  -3   7   14.68    0.41
   0  -3   7   14.40    0.39
   1  -3   7    5.52    0.15
   1  -3   7    5.74    0.15
  -2   3  -7   56.15    1.49
  -3   3  -7    7.97    0.23
  -4   3  -7    2.90    0.11
   4  -3   7    3.16    0.09
   4  -3   7    3.22    0.09
  -5   3  -7    1.25    0.08
   5  -3   7    1.44    0.06
   5  -3   7    1.38    0.06
  -6   3  -7    6.60    0.21
   6  -3   7    6.23    0.19
   7  -3   7    3.26    0.12
   8  -3   7    0.16    0.04
   8   2  -7    5.24    0.22
   7   2  -7    1.23    0.11
  -7  -2   7    1.22    0.10
   6   2  -7    1.78    0.11
  -6  -2   7    1.65    0.10
   5   2  -7   19.88    0.55
  -5  -2   7   20.45    0.56
   4   2  -7   16.18    0.44
  -4  -2   7   15.44    0.44
   3   2  -7    0.04    0.02
  -3  -2   7    0.05    0.02
   2   2  -7   -0.01    0.02
  -2  -2   7    0.01    0.02
   1   2  -7    3.82    0.12
  -1  -2   7    3.76    0.12
  -1  -2   7    4.24    0.12
   0   2  -7    0.27    0.02
   0  -2   7    0.33    0.03
   0  -2   7    0.28    0.02
  -1   2  -7   17.41    0.48
   1  -2   7   17.00    0.44
   1  -2   7   17.65    0.44
  -3   2  -7    1.98    0.08
   3  -2   7    2.03    0.06
  -4   2  -7    0.22    0.04
   4  -2   7    0.22    0.02
   4  -2   7    0.19    0.02
  -5   2  -7    5.39    0.18
   5  -2   7    5.12    0.15
   5  -2   7    5.25    0.15
  -6   2  -7   16.36    0.46
   6  -2   7   16.31    0.44
   7  -2   7    0.06    0.03
   8  -2   7    0.03    0.04
   8   1  -7    0.01    0.05
  -8  -1   7    0.12    0.05
   7   1  -7   -0.05    0.04
  -7  -1   7    0.01    0.04
   6   1  -7    1.06    0.09
  -6  -1   7    1.14    0.09
   5   1  -7    3.61    0.14
  -5  -1   7    3.63    0.14
   4   1  -7    3.80    0.13
  -4  -1   7    3.72    0.14
   3   1  -7    0.26    0.03
  -3  -1   7    0.24    0.03
   2   1  -7   65.05    1.66
  -2  -1   7   64.57    1.67
  -2  -1   7   68.37    1.67
   1   1  -7    0.26    0.03
  -1  -1   7    0.32    0.03
  -1  -1   7    0.25    0.03
   0   1  -7   32.58    0.80
   0  -1   7   32.16    0.80
   0  -1   7   30.25    0.80
  -1   1  -7    2.97    0.10
   1  -1   7    2.89    0.09
   1  -1   7    3.01    0.09
   2  -1   7  133.88    3.41
   2  -1   7  138.94    3.40
  -3   1  -7    1.36    0.07
   3  -1   7    1.40    0.05
   3  -1   7    1.42    0.05
  -4   1  -7    2.56    0.10
   4  -1   7    2.45    0.08
   4  -1   7    2.53    0.08
  -5   1  -7    5.35    0.18
   5  -1   7    5.60    0.17
   5  -1   7    5.38    0.17
  -6   1  -7    6.51    0.21
   6  -1   7    6.02    0.19
   7  -1   7    0.08    0.04
   8  -1   7    1.11    0.09
   8   0  -7    0.59    0.08
  -8   0   7    0.58    0.08
   7   0  -7    6.51    0.23
  -7   0   7    6.49    0.23
   6   0  -7    2.02    0.11
  -6   0   7    2.18    0.11
   5   0  -7    0.11    0.04
  -5   0   7    0.06    0.03
   4   0  -7    0.08    0.03
  -4   0   7    0.11    0.03
   3   0  -7    0.06    0.02
  -3   0   7    0.08    0.02
   2   0  -7   22.22    0.58
  -2   0   7   23.31    0.59
  -2   0   7   21.86    0.59
   1   0  -7   13.25    0.35
  -1   0   7   13.07    0.35
  -1   0   7   13.77    0.36
   0   0  -7    4.47    0.13
   0   0   7    4.41    0.13
   0   0   7    4.53    0.13
  -1   0  -7    5.49    0.14
   1   0   7    5.28    0.15
   1   0   7    5.49    0.15
   2   0   7    5.57    0.16
   2   0   7    5.95    0.16
  -3   0  -7   40.87    1.05
   3   0   7   41.71    1.06
   3   0   7   42.37    1.06
  -4   0  -7    9.30    0.27
   4   0   7    9.65    0.26
   4   0   7    9.02    0.26
  -5   0  -7   19.53    0.52
   5   0   7   18.76    0.51
  -6   0  -7    1.59    0.10
   6   0   7    1.78    0.09
   7   0   7   20.17    0.56
   8   0   7    8.33    0.28
   9  -1  -7    0.06    0.06
   8  -1  -7    3.52    0.16
  -8   1   7    3.25    0.16
   7  -1  -7    0.22    0.05
  -7   1   7    0.23    0.05
   6  -1  -7   24.21    0.66
  -6   1   7   24.47    0.67
   5  -1  -7   10.50    0.31
  -5   1   7   10.20    0.31
   4  -1  -7    0.62    0.05
  -4   1   7    0.61    0.05
   3  -1  -7    2.69    0.10
  -3   1   7    2.72    0.10
   2  -1  -7   42.23    1.06
  -2   1   7   41.04    1.06
   1  -1  -7    8.77    0.24
  -1   1   7    8.67    0.25
  -1   1   7    9.28    0.25
   0  -1  -7   18.67    0.49
   0   1   7   18.64    0.49
   0   1   7   19.55    0.49
  -1  -1  -7    8.38    0.22
   1   1   7    8.15    0.23
   1   1   7    8.51    0.23
  -2  -1  -7   13.86    0.36
   2   1   7   13.99    0.36
   2   1   7   13.13    0.36
  -3  -1  -7    5.28    0.17
  -3  -1  -7    5.58    0.16
   3   1   7    5.36    0.16
   3   1   7    5.59    0.16
  -4  -1  -7   28.59    0.74
  -4  -1  -7   28.82    0.75
   4   1   7   29.42    0.75
   4   1   7   28.26    0.75
  -5  -1  -7    2.45    0.12
   5   1   7    2.28    0.10
  -6  -1  -7    0.96    0.09
   6   1   7    0.88    0.08
   7   1   7    0.90    0.08
   9  -2  -7    0.89    0.11
   8  -2  -7    0.94    0.10
  -8   2   7    0.98    0.09
   7  -2  -7   11.47    0.35
  -7   2   7   11.65    0.35
   6  -2  -7   44.03    1.14
  -6   2   7   43.51    1.15
   5  -2  -7    0.01    0.03
  -5   2   7    0.02    0.03
   4  -2  -7    0.75    0.06
  -4   2   7    0.70    0.05
   3  -2  -7   59.60    1.53
  -3   2   7   60.60    1.53
   2  -2  -7  190.96    4.70
  -2   2   7  183.04    4.74
   1  -2  -7    0.43    0.04
  -1   2   7    0.37    0.04
  -1   2   7    0.44    0.04
   0  -2  -7   12.50    0.34
   0   2   7   12.97    0.34
   0   2   7   12.64    0.34
  -1  -2  -7    0.05    0.02
   1   2   7    0.06    0.02
   1   2   7    0.00    0.02
  -2  -2  -7   29.61    0.76
   2   2   7   28.52    0.76
   2   2   7   30.57    0.77
  -3  -2  -7    4.78    0.15
  -3  -2  -7    4.68    0.16
   3   2   7    4.54    0.15
   3   2   7    4.86    0.15
  -4  -2  -7    0.46    0.05
   4   2   7    0.47    0.05
  -5  -2  -7    4.23    0.16
   5   2   7    4.16    0.16
   6   2   7    0.54    0.07
   7   2   7    0.97    0.09
   9  -3  -7    0.12    0.06
   8  -3  -7    0.18    0.06
  -8   3   7    0.20    0.05
   7  -3  -7   10.66    0.33
  -7   3   7   10.98    0.33
   6  -3  -7    7.69    0.25
  -6   3   7    7.65    0.25
   5  -3  -7    5.23    0.17
  -5   3   7    4.93    0.17
   4  -3  -7    0.09    0.03
  -4   3   7    0.20    0.04
   3  -3  -7   24.28    0.64
  -3   3   7   24.45    0.64
   2  -3  -7    2.98    0.11
  -2   3   7    2.93    0.11
   1  -3  -7    0.11    0.02
  -1   3   7    0.11    0.03
   0  -3  -7    2.45    0.09
   0   3   7    2.43    0.09
  -1  -3  -7    3.59    0.12
   1   3   7    3.51    0.12
   1   3   7    3.91    0.13
  -2  -3  -7   17.84    0.49
  -2  -3  -7   18.52    0.48
  -2  -3  -7   18.41    0.49
   2   3   7   18.27    0.49
  -3  -3  -7    2.12    0.09
  -3  -3  -7    2.03    0.10
   3   3   7    2.08    0.09
  -4  -3  -7   19.39    0.52
   4   3   7   18.87    0.52
  -5  -3  -7    0.52    0.07
   5   3   7    0.47    0.06
   6   3   7    0.63    0.07
   9  -4  -7    3.00    0.16
   8  -4  -7    0.08    0.05
  -8   4   7    0.07    0.04
   7  -4  -7    3.45    0.15
  -7   4   7    3.34    0.15
   6  -4  -7    2.85    0.13
  -6   4   7    2.73    0.12
   5  -4  -7    6.52    0.21
  -5   4   7    6.66    0.21
   4  -4  -7    1.62    0.08
  -4   4   7    1.59    0.08
   3  -4  -7    6.57    0.21
  -3   4   7    6.57    0.21
  -3   4   7    6.88    0.19
   2  -4  -7    1.23    0.07
  -2   4   7    1.20    0.07
   1  -4  -7    4.57    0.15
  -1   4   7    4.63    0.15
   0  -4  -7   10.19    0.29
   0   4   7   10.21    0.29
  -1  -4  -7   13.19    0.36
   1   4   7   12.77    0.36
  -2  -4  -7    0.27    0.04
  -2  -4  -7    0.26    0.04
  -2  -4  -7    0.24    0.04
   2   4   7    0.25    0.04
  -3  -4  -7    2.49    0.11
  -3  -4  -7    2.44    0.11
   3   4   7    2.51    0.11
  -4  -4  -7    2.02    0.10
   4   4   7    1.78    0.10
  -5  -4  -7    1.33    0.10
   5   4   7    1.34    0.10
   6   4   7    0.22    0.06
   9  -5  -7    0.20    0.07
   8  -5  -7    0.12    0.06
   7  -5  -7    0.67    0.08
  -7   5   7    0.70    0.07
   6  -5  -7    0.07    0.04
  -6   5   7    0.05    0.04
   5  -5  -7    3.03    0.13
  -5   5   7    2.76    0.12
   4  -5  -7    6.51    0.22
  -4   5   7    6.80    0.22
  -4   5   7    7.12    0.21
   3  -5  -7   14.54    0.41
  -3   5   7   14.46    0.41
   2  -5  -7    0.29    0.04
  -2   5   7    0.30    0.04
   1  -5  -7    0.23    0.03
   1  -5  -7    0.30    0.04
  -1   5   7    0.24    0.04
   0  -5  -7   12.16    0.35
   0   5   7   12.65    0.35
  -1  -5  -7   18.20    0.50
   1   5   7   18.93    0.51
  -2  -5  -7    0.40    0.05
  -2  -5  -7    0.30    0.04
  -2  -5  -7    0.24    0.04
   2   5   7    0.26    0.05
  -3  -5  -7    0.10    0.04
   3   5   7    0.09    0.05
  -4  -5  -7    0.50    0.07
   4   5   7    0.35    0.06
   5   5   7    0.65    0.08
   9  -6  -7    0.13    0.06
   8  -6  -7    0.22    0.06
   7  -6  -7    3.04    0.14
  -7   6   7    2.81    0.13
   6  -6  -7    0.06    0.04
  -6   6   7   -0.02    0.03
   5  -6  -7    7.98    0.26
  -5   6   7    7.73    0.25
  -5   6   7    8.27    0.25
   4  -6  -7   37.44    0.99
  -4   6   7   37.38    1.01
  -4   6   7   37.90    0.99
   3  -6  -7    0.09    0.03
  -3   6   7    0.02    0.03
   2  -6  -7    1.75    0.09
  -2   6   7    1.97    0.10
   1  -6  -7    6.56    0.19
   1  -6  -7    6.21    0.21
  -1   6   7    6.28    0.21
   0  -6  -7   70.96    1.88
   0   6   7   76.79    1.89
  -1  -6  -7   15.32    0.41
  -1  -6  -7   14.77    0.43
   1   6   7   14.97    0.43
  -2  -6  -7    1.20    0.08
  -2  -6  -7    1.15    0.08
  -2  -6  -7    1.19    0.08
   2   6   7    1.11    0.09
  -3  -6  -7    1.58    0.10
   3   6   7    1.66    0.11
  -4  -6  -7   24.62    0.67
   4   6   7   25.39    0.70
   5   6   7    2.35    0.15
   9  -7  -7    1.80    0.14
   8  -7  -7    2.52    0.15
   7  -7  -7    0.66    0.08
  -7   7   7    0.62    0.07
   6  -7  -7    0.38    0.06
  -6   7   7    0.39    0.06
  -6   7   7    0.42    0.06
   5  -7  -7    1.15    0.09
  -5   7   7    1.09    0.08
  -5   7   7    1.14    0.07
   4  -7  -7   38.07    1.02
  -4   7   7   39.08    1.02
   3  -7  -7    6.65    0.22
  -3   7   7    6.58    0.22
   2  -7  -7    0.08    0.04
  -2   7   7    0.01    0.04
   1  -7  -7    2.18    0.09
  -1   7   7    2.06    0.11
   0  -7  -7   17.90    0.51
   0   7   7   18.24    0.51
  -1  -7  -7    7.38    0.22
  -1  -7  -7    7.24    0.24
   1   7   7    7.15    0.24
  -2  -7  -7    0.14    0.05
  -2  -7  -7    0.15    0.04
   2   7   7    0.10    0.05
  -3  -7  -7    4.97    0.18
   3   7   7    4.94    0.20
   4   7   7    0.32    0.07
   8  -8  -7    1.74    0.13
  -8   8   7    1.73    0.12
   7  -8  -7    2.99    0.15
  -7   8   7    3.00    0.14
   6  -8  -7    0.00    0.04
  -6   8   7    0.11    0.04
  -6   8   7    0.09    0.05
   5  -8  -7    2.85    0.14
  -5   8   7    2.95    0.14
   4  -8  -7   -0.01    0.04
  -4   8   7    0.02    0.04
   3  -8  -7    1.08    0.09
  -3   8   7    1.09    0.09
   2  -8  -7    2.25    0.12
  -2   8   7    2.21    0.12
   1  -8  -7    6.30    0.22
  -1   8   7    6.37    0.22
   0  -8  -7    0.87    0.08
   0  -8  -7    0.90    0.07
   0   8   7    0.88    0.08
  -1  -8  -7    3.16    0.15
  -1  -8  -7    3.31    0.13
   1   8   7    3.40    0.16
  -2  -8  -7    4.65    0.17
   2   8   7    4.88    0.20
   3   8   7    4.27    0.20
   8  -9  -7    5.00    0.22
  -8   9   7    4.84    0.20
   7  -9  -7    1.07    0.10
  -7   9   7    1.09    0.09
   6  -9  -7    1.94    0.13
   5  -9  -7    0.39    0.07
  -5   9   7    0.39    0.06
   4  -9  -7   14.81    0.45
  -4   9   7   14.91    0.44
   3  -9  -7    0.02    0.05
  -3   9   7    0.02    0.04
   2  -9  -7   -0.02    0.04
  -2   9   7   -0.06    0.05
   1  -9  -7    0.41    0.07
  -1   9   7    0.64    0.08
   0  -9  -7    3.50    0.16
   0   9   7    3.26    0.16
   1   9   7    0.66    0.09
   2   9   7    1.05    0.11
   7 -10  -7    2.24    0.14
   6 -10  -7    0.60    0.09
   5 -10  -7    6.41    0.24
   4 -10  -7    8.09    0.28
  -4  10   7    7.73    0.27
   3 -10  -7    2.02    0.13
  -3  10   7    2.11    0.13
   2 -10  -7    0.34    0.07
  -2  10   7    0.29    0.07
   1 -10  -7    0.11    0.06
  -1  10   7    0.19    0.06
   0 -10  -7    0.37    0.08
   0  10   7    0.22    0.07
   6 -11  -7    4.65    0.21
   5 -11  -7    3.51    0.18
   4 -11  -7    1.48    0.12
   3 -11  -7    0.28    0.06
  -3  11   7    0.42    0.08
   2 -11  -7    4.11    0.19
  -2  11   7    4.13    0.19
   1 -11  -7    0.91    0.11
  -1  11   7    0.89    0.11
   0 -11   8    3.29    0.16
   1 -11   8    3.37    0.15
   2 -11   8    2.18    0.12
   3 -11   8    7.59    0.25
   4 -11   8    2.19    0.11
   5 -11   8    0.04    0.04
  -1 -10   8    4.06    0.18
   0 -10   8    3.82    0.16
   1 -10   8    2.61    0.13
   2 -10   8    0.70    0.07
   3 -10   8    0.10    0.04
   4 -10   8    1.02    0.07
   5 -10   8    2.85    0.12
   6 -10   8    0.07    0.03
  -3  -9   8    0.02    0.05
  -2  -9   8    3.00    0.15
  -1  -9   8    0.95    0.08
   0  -9   8    2.07    0.11
   1  -9   8    1.22    0.08
   2  -9   8    4.58    0.16
   2  -9   8    4.60    0.16
   3  -9   8    0.91    0.06
   4  -9   8    0.97    0.06
   5  -9   8    2.52    0.10
  -6   9  -8    0.88    0.09
   6  -9   8    0.91    0.06
  -7   9  -8    0.01    0.05
   7  -9   8    0.03    0.03
  -4  -8   8    0.69    0.09
  -3  -8   8    0.93    0.09
  -2  -8   8    2.44    0.13
  -1  -8   8    0.02    0.04
   0  -8   8    9.81    0.30
   1  -8   8    0.93    0.07
   2  -8   8   17.73    0.48
   3  -8   8    1.68    0.08
   4  -8   8    5.45    0.17
  -5   8  -8    0.90    0.09
   5  -8   8    0.93    0.05
  -6   8  -8    3.99    0.18
   6  -8   8    3.97    0.13
  -7   8  -8    1.28    0.11
   7  -8   8    1.14    0.06
  -5  -7   8    0.18    0.06
  -4  -7   8    0.33    0.07
  -3  -7   8    3.53    0.16
  -2  -7   8    0.81    0.08
  -1  -7   8    4.08    0.15
   0  -7   8    6.90    0.22
   1  -7   8   30.92    0.81
  -2   7  -8   25.39    0.63
   2  -7   8   24.59    0.65
  -3   7  -8   10.56    0.28
   3  -7   8   10.75    0.29
   3  -7   8   10.83    0.29
  -4   7  -8    4.69    0.15
  -4   7  -8    4.56    0.18
   4  -7   8    4.86    0.14
   4  -7   8    4.53    0.14
  -5   7  -8   16.35    0.49
   5  -7   8   15.75    0.42
  -6   7  -8    3.69    0.17
   6  -7   8    3.60    0.12
  -7   7  -8    1.07    0.10
   7  -7   8    1.06    0.06
   8  -7   8    4.32    0.15
  -5  -6   8    0.08    0.05
   4   6  -8    0.14    0.05
  -4  -6   8    0.07    0.05
   3   6  -8   18.74    0.53
  -3  -6   8   19.25    0.54
   2   6  -8   11.25    0.32
  -2  -6   8   10.62    0.32
   1   6  -8    6.14    0.19
  -1  -6   8    5.79    0.19
   0   6  -8   15.16    0.41
   0  -6   8   15.27    0.41
   1  -6   8    4.74    0.15
   1  -6   8    5.13    0.15
  -2   6  -8   66.33    1.68
   2  -6   8   67.71    1.72
   2  -6   8   70.62    1.72
  -3   6  -8   21.79    0.63
  -3   6  -8   21.82    0.56
   3  -6   8   22.19    0.57
   3  -6   8   22.51    0.57
  -4   6  -8    0.84    0.07
  -4   6  -8    0.87    0.06
   4  -6   8    0.89    0.04
   4  -6   8    0.85    0.04
  -5   6  -8    3.76    0.16
  -5   6  -8    3.66    0.13
   5  -6   8    3.98    0.11
   5  -6   8    3.58    0.11
  -6   6  -8    5.08    0.21
   6  -6   8    5.37    0.16
   7  -6   8    1.33    0.07
   8  -6   8    0.19    0.04
   6   5  -8    0.21    0.07
  -6  -5   8    0.22    0.06
   5   5  -8    0.22    0.06
  -5  -5   8    0.19    0.06
   4   5  -8    6.88    0.23
  -4  -5   8    6.48    0.23
   3   5  -8    0.09    0.04
  -3  -5   8    0.10    0.04
   2   5  -8    1.01    0.06
  -2  -5   8    0.89    0.07
   1   5  -8    3.76    0.12
  -1  -5   8    3.59    0.13
  -1  -5   8    3.85    0.13
   0   5  -8   19.23    0.50
   0  -5   8   18.84    0.51
   0  -5   8   19.97    0.51
   1  -5   8    4.42    0.13
   1  -5   8    4.24    0.13
   2  -5   8    3.61    0.11
  -3   5  -8    0.31    0.03
  -3   5  -8    0.31    0.05
   3  -5   8    0.29    0.02
   3  -5   8    0.32    0.02
  -4   5  -8   15.21    0.45
  -4   5  -8   15.42    0.41
   4  -5   8   15.49    0.39
  -5   5  -8    3.51    0.13
   5  -5   8    3.62    0.11
   5  -5   8    3.65    0.11
   6  -5   8   -0.02    0.02
   7  -5   8   -0.01    0.02
   8  -5   8    5.30    0.17
   7   4  -8    0.07    0.06
  -7  -4   8    0.14    0.06
   6   4  -8    1.99    0.13
  -6  -4   8    2.11    0.13
   5   4  -8    4.63    0.18
  -5  -4   8    4.61    0.18
   4   4  -8    8.28    0.26
  -4  -4   8    8.52    0.27
   3   4  -8    1.60    0.08
  -3  -4   8    1.71    0.09
   2   4  -8    3.17    0.11
  -2  -4   8    3.15    0.12
   1   4  -8    3.23    0.11
  -1  -4   8    3.15    0.11
  -1  -4   8    3.45    0.11
   0   4  -8    1.07    0.05
   0  -4   8    1.15    0.06
   0  -4   8    1.16    0.05
   0  -4   8    1.04    0.05
   1  -4   8    0.22    0.02
   1  -4   8    0.21    0.02
  -2   4  -8   11.90    0.36
   2  -4   8   12.86    0.32
   2  -4   8   12.40    0.32
  -3   4  -8    2.15    0.09
  -3   4  -8    2.30    0.10
  -4   4  -8   29.89    0.77
  -5   4  -8    5.64    0.19
   5  -4   8    5.83    0.16
   5  -4   8    5.97    0.16
  -6   4  -8    4.03    0.15
   6  -4   8    3.65    0.12
   7  -4   8    1.25    0.07
   8  -4   8    8.68    0.26
   7   3  -8   11.01    0.36
  -7  -3   8   10.86    0.36
   6   3  -8    5.53    0.21
  -6  -3   8    5.40    0.21
   5   3  -8    3.04    0.13
  -5  -3   8    2.91    0.14
   4   3  -8    0.04    0.03
  -4  -3   8    0.00    0.03
   3   3  -8   23.63    0.64
  -3  -3   8   24.83    0.65
   2   3  -8   15.34    0.41
  -2  -3   8   15.36    0.42
   1   3  -8   22.87    0.59
  -1  -3   8   21.84    0.60
  -1  -3   8   24.10    0.60
   0   3  -8    9.11    0.24
   0  -3   8    9.51    0.27
   0  -3   8    9.38    0.25
   0  -3   8    8.92    0.25
   1  -3   8    8.17    0.21
   1  -3   8    7.96    0.21
  -2   3  -8    3.74    0.13
  -3   3  -8   10.35    0.29
  -4   3  -8    1.61    0.08
   4  -3   8    1.62    0.05
  -5   3  -8    8.88    0.27
   5  -3   8    8.67    0.24
   5  -3   8    9.15    0.24
  -6   3  -8    9.34    0.28
   6  -3   8    8.56    0.25
   7  -3   8    1.59    0.08
   8  -3   8    3.21    0.13
   8   2  -8    0.04    0.06
  -8  -2   8   -0.01    0.05
   7   2  -8    1.75    0.12
  -7  -2   8    1.65    0.11
   6   2  -8    6.52    0.23
  -6  -2   8    6.39    0.23
   5   2  -8   34.50    0.92
  -5  -2   8   35.09    0.93
   4   2  -8    1.05    0.07
  -4  -2   8    1.01    0.07
   3   2  -8    6.02    0.19
  -3  -2   8    5.94    0.19
   2   2  -8    2.14    0.08
  -2  -2   8    2.42    0.10
  -2  -2   8    2.22    0.09
   1   2  -8   31.79    0.81
  -1  -2   8   33.13    0.81
  -1  -2   8   30.17    0.81
   0   2  -8   23.89    0.60
   0  -2   8   24.50    0.61
   0  -2   8   23.11    0.61
  -1   2  -8    5.10    0.16
   1  -2   8    5.21    0.14
   1  -2   8    5.43    0.14
  -2   2  -8   39.44    1.06
  -3   2  -8    3.60    0.13
   3  -2   8    3.81    0.10
  -4   2  -8   22.31    0.59
   4  -2   8   22.52    0.58
   4  -2   8   23.20    0.58
  -5   2  -8   14.02    0.40
   5  -2   8   13.94    0.37
   5  -2   8   14.38    0.37
  -6   2  -8   25.83    0.68
   6  -2   8   25.22    0.67
   7  -2   8    0.86    0.07
   8  -2   8    6.63    0.22
   8   1  -8    0.00    0.06
  -8  -1   8    0.04    0.05
   7   1  -8    0.19    0.06
  -7  -1   8    0.25    0.06
   6   1  -8    4.31    0.17
  -6  -1   8    4.57    0.18
   5   1  -8    2.99    0.13
  -5  -1   8    2.92    0.13
   4   1  -8    0.02    0.03
  -4  -1   8    0.02    0.03
   3   1  -8    4.16    0.14
  -3  -1   8    3.94    0.14
   2   1  -8   25.16    0.66
  -2  -1   8   24.38    0.66
  -2  -1   8   26.55    0.66
   1   1  -8    0.02    0.02
  -1  -1   8    0.02    0.02
  -1  -1   8    0.05    0.02
   0   1  -8   12.01    0.31
   0  -1   8   11.48    0.31
   0  -1   8   12.11    0.31
  -1   1  -8    5.88    0.17
   1  -1   8    5.81    0.16
   1  -1   8    6.05    0.16
   2  -1   8    6.48    0.17
   2  -1   8    6.27    0.17
  -3   1  -8    1.10    0.06
   3  -1   8    1.15    0.05
   3  -1   8    1.17    0.05
  -4   1  -8    0.20    0.04
   4  -1   8    0.25    0.03
   4  -1   8    0.25    0.03
  -5   1  -8    2.66    0.12
   5  -1   8    2.60    0.10
  -6   1  -8    2.19    0.11
   6  -1   8    2.03    0.09
   7  -1   8    2.78    0.12
   8  -1   8    0.63    0.07
   8   0  -8    3.13    0.16
  -8   0   8    3.10    0.16
   7   0  -8    2.32    0.13
  -7   0   8    2.35    0.13
   6   0  -8   10.82    0.34
  -6   0   8   11.42    0.34
   5   0  -8    7.98    0.25
  -5   0   8    8.13    0.25
   4   0  -8    2.33    0.10
  -4   0   8    2.03    0.10
   3   0  -8    0.05    0.03
  -3   0   8   -0.02    0.02
   2   0  -8   17.20    0.47
  -2   0   8   17.56    0.47
  -2   0   8   18.68    0.47
   1   0  -8   29.08    0.75
  -1   0   8   30.56    0.76
  -1   0   8   29.21    0.77
  -1   0   8   28.57    0.75
   0   0  -8    0.04    0.01
   0   0   8    0.03    0.02
   0   0   8    0.00    0.02
  -1   0  -8   26.76    0.67
   1   0   8   26.38    0.68
   1   0   8   27.05    0.68
   2   0   8   13.66    0.37
   2   0   8   14.54    0.37
  -3   0  -8    0.06    0.03
   3   0   8    0.10    0.02
   3   0   8    0.05    0.02
  -4   0  -8    1.79    0.09
   4   0   8    1.91    0.07
   4   0   8    1.82    0.08
  -5   0  -8    0.51    0.06
   5   0   8    0.57    0.05
  -6   0  -8   15.86    0.45
   6   0   8   15.54    0.44
   7   0   8    0.65    0.07
   9  -1  -8    1.04    0.12
   8  -1  -8    1.28    0.11
  -8   1   8    1.19    0.10
   7  -1  -8    0.89    0.09
  -7   1   8    1.03    0.09
   6  -1  -8    3.07    0.14
  -6   1   8    3.07    0.14
   5  -1  -8   12.32    0.35
  -5   1   8   12.14    0.36
   4  -1  -8   10.37    0.30
  -4   1   8   10.66    0.31
   3  -1  -8   27.83    0.73
  -3   1   8   28.05    0.73
   2  -1  -8   50.27    1.26
  -2   1   8   48.85    1.26
   1  -1  -8   82.54    2.09
  -1   1   8   80.76    2.09
  -1   1   8   85.75    2.09
   0  -1  -8   89.48    2.22
   0   1   8   87.21    2.23
   0   1   8   89.72    2.23
  -1  -1  -8   51.35    1.30
   1   1   8   52.21    1.30
   1   1   8   51.02    1.30
  -2  -1  -8   36.98    0.93
   2   1   8   35.05    0.93
   2   1   8   37.68    0.93
  -3  -1  -8   36.62    0.91
  -3  -1  -8   35.21    0.92
   3   1   8   35.21    0.92
   3   1   8   36.89    0.92
  -4  -1  -8   25.11    0.66
   4   1   8   25.09    0.66
  -5  -1  -8    0.05    0.05
   5   1   8    0.04    0.03
  -6  -1  -8    3.10    0.14
   6   1   8    3.04    0.13
   7   1   8    0.97    0.09
   9  -2  -8    7.90    0.29
   8  -2  -8    3.27    0.16
  -8   2   8    3.37    0.16
   7  -2  -8    2.84    0.14
  -7   2   8    2.70    0.13
   6  -2  -8    0.13    0.04
  -6   2   8    0.19    0.05
   5  -2  -8    9.06    0.27
  -5   2   8    9.14    0.28
   4  -2  -8   35.23    0.92
  -4   2   8   35.12    0.92
   3  -2  -8   35.93    0.93
  -3   2   8   36.12    0.93
   2  -2  -8    0.36    0.04
  -2   2   8    0.34    0.04
   1  -2  -8    0.23    0.03
  -1   2   8    0.25    0.03
  -1   2   8    0.18    0.03
   0  -2  -8   17.36    0.46
   0   2   8   16.93    0.47
   0   2   8   18.71    0.47
  -1  -2  -8   49.98    1.37
   1   2   8   58.61    1.38
   1   2   8   54.43    1.38
  -2  -2  -8    7.92    0.22
   2   2   8    8.22    0.23
   2   2   8    7.50    0.23
  -3  -2  -8    0.00    0.02
  -3  -2  -8    0.03    0.03
   3   2   8   -0.02    0.03
   3   2   8    0.01    0.02
  -4  -2  -8    0.55    0.06
   4   2   8    0.36    0.05
  -5  -2  -8    1.50    0.10
   5   2   8    1.43    0.09
  -6  -2  -8    0.05    0.05
   6   2   8    0.02    0.05
   7   2   8    0.30    0.07
   9  -3  -8    1.50    0.13
   8  -3  -8    0.04    0.05
  -8   3   8   -0.02    0.04
   7  -3  -8    0.12    0.05
  -7   3   8    0.06    0.04
   6  -3  -8    8.40    0.27
  -6   3   8    8.44    0.27
   5  -3  -8    4.44    0.16
  -5   3   8    4.56    0.16
   4  -3  -8    0.27    0.04
  -4   3   8    0.33    0.04
   3  -3  -8    9.29    0.27
  -3   3   8    9.20    0.27
   2  -3  -8    3.70    0.13
  -2   3   8    3.58    0.13
   1  -3  -8    8.02    0.23
  -1   3   8    8.17    0.24
   0  -3  -8    5.19    0.16
   0   3   8    5.26    0.16
  -1  -3  -8    3.69    0.12
   1   3   8    4.02    0.13
   1   3   8    3.68    0.13
  -2  -3  -8    8.87    0.26
  -2  -3  -8    9.06    0.26
   2   3   8    8.69    0.26
   2   3   8    9.64    0.27
  -3  -3  -8    0.07    0.04
   3   3   8    0.05    0.03
  -4  -3  -8   -0.01    0.04
   4   3   8    0.06    0.04
  -5  -3  -8    1.10    0.09
   5   3   8    1.12    0.09
  -6  -3  -8    0.04    0.05
   6   3   8    0.03    0.05
   9  -4  -8    0.53    0.09
   8  -4  -8    0.77    0.09
  -8   4   8    0.84    0.09
   7  -4  -8    0.35    0.06
  -7   4   8    0.35    0.06
   6  -4  -8    6.36    0.22
  -6   4   8    6.25    0.22
   5  -4  -8    7.80    0.24
  -5   4   8    7.70    0.24
   4  -4  -8    0.20    0.04
  -4   4   8    0.16    0.04
   3  -4  -8    6.28    0.20
  -3   4   8    6.45    0.21
  -3   4   8    6.79    0.19
   2  -4  -8    1.46    0.07
  -2   4   8    1.33    0.07
   1  -4  -8   13.57    0.37
  -1   4   8   13.10    0.37
   0  -4  -8    1.13    0.06
   0   4   8    1.05    0.07
  -1  -4  -8   51.16    1.30
   1   4   8   50.45    1.30
  -2  -4  -8    3.53    0.13
  -2  -4  -8    3.35    0.13
  -2  -4  -8    3.55    0.13
   2   4   8    3.45    0.13
  -3  -4  -8    4.60    0.16
   3   4   8    4.23    0.16
  -4  -4  -8    8.11    0.26
   4   4   8    8.33    0.26
  -5  -4  -8    3.33    0.15
   5   4   8    3.38    0.15
   6   4   8    0.28    0.07
   9  -5  -8    2.02    0.14
   8  -5  -8    3.55    0.17
   7  -5  -8    2.63    0.14
  -7   5   8    2.81    0.13
   6  -5  -8    0.44    0.06
  -6   5   8    0.49    0.07
   5  -5  -8    1.75    0.10
  -5   5   8    1.91    0.10
   4  -5  -8    0.07    0.04
  -4   5   8    0.06    0.03
  -4   5   8    0.11    0.03
   3  -5  -8    4.62    0.16
  -3   5   8    4.82    0.17
   2  -5  -8    1.27    0.08
  -2   5   8    1.35    0.08
   1  -5  -8   11.55    0.33
  -1   5   8   11.68    0.34
   0  -5  -8   25.63    0.67
   0   5   8   24.63    0.67
  -1  -5  -8   21.43    0.57
   1   5   8   21.00    0.58
  -2  -5  -8    8.48    0.26
  -2  -5  -8    8.60    0.26
  -2  -5  -8    8.35    0.26
   2   5   8    8.22    0.26
  -3  -5  -8    6.41    0.21
   3   5   8    6.24    0.22
  -4  -5  -8   29.69    0.79
   4   5   8   29.62    0.80
  -5  -5  -8    0.36    0.07
   5   5   8    0.42    0.07
   9  -6  -8    0.06    0.06
   8  -6  -8    0.55    0.08
   7  -6  -8   16.97    0.49
  -7   6   8   16.56    0.49
   6  -6  -8    9.32    0.30
  -6   6   8    9.20    0.29
   5  -6  -8    0.57    0.07
  -5   6   8    0.52    0.05
  -5   6   8    0.46    0.06
   4  -6  -8    0.58    0.06
  -4   6   8    0.54    0.06
  -4   6   8    0.67    0.05
   3  -6  -8    0.56    0.06
  -3   6   8    0.63    0.06
   2  -6  -8   21.60    0.59
  -2   6   8   21.99    0.60
   1  -6  -8   24.20    0.64
   1  -6  -8   23.44    0.64
  -1   6   8   22.79    0.64
   0  -6  -8   13.71    0.39
   0   6   8   13.40    0.39
  -1  -6  -8    0.01    0.03
  -1  -6  -8   -0.01    0.03
   1   6   8    0.02    0.04
  -2  -6  -8   14.09    0.39
   2   6   8   13.59    0.41
  -3  -6  -8   12.87    0.37
   3   6   8   12.34    0.38
  -4  -6  -8    6.35    0.22
   4   6   8    6.30    0.24
   8  -7  -8    6.42    0.25
   7  -7  -8    8.97    0.30
  -7   7   8    8.74    0.29
   6  -7  -8    7.44    0.25
  -6   7   8    7.33    0.24
  -6   7   8    7.37    0.25
   5  -7  -8    2.11    0.12
  -5   7   8    2.14    0.11
  -5   7   8    2.04    0.10
   4  -7  -8   39.56    1.04
  -4   7   8   39.22    1.04
   3  -7  -8   22.68    0.64
  -3   7   8   24.09    0.64
   2  -7  -8    1.23    0.09
  -2   7   8    1.00    0.08
   1  -7  -8    2.43    0.10
   1  -7  -8    2.19    0.11
  -1   7   8    2.30    0.12
   0  -7  -8    1.86    0.10
   0   7   8    1.55    0.10
  -1  -7  -8    3.77    0.15
  -1  -7  -8    3.74    0.14
   1   7   8    3.64    0.16
  -2  -7  -8    0.05    0.04
   2   7   8    0.12    0.05
  -3  -7  -8    2.13    0.11
   3   7   8    2.10    0.14
  -4  -7  -8   -0.08    0.05
   4   7   8   -0.01    0.06
   8  -8  -8    7.85    0.29
  -8   8   8    8.33    0.28
   7  -8  -8    3.00    0.16
  -7   8   8    2.64    0.13
   6  -8  -8    0.08    0.05
  -6   8   8    0.11    0.04
  -6   8   8    0.11    0.05
   5  -8  -8    1.14    0.10
  -5   8   8    1.07    0.09
   4  -8  -8    4.54    0.18
  -4   8   8    4.45    0.18
   3  -8  -8    0.39    0.06
  -3   8   8    0.33    0.06
   2  -8  -8    0.52    0.06
  -2   8   8    0.61    0.07
   1  -8  -8    0.01    0.04
  -1   8   8    0.02    0.04
   0  -8  -8    2.03    0.12
   0  -8  -8    2.09    0.10
   0   8   8    2.00    0.12
  -1  -8  -8    5.78    0.19
   1   8   8    5.44    0.22
  -2  -8  -8    0.84    0.08
   2   8   8    0.86    0.09
   3   8   8    6.15    0.25
   8  -9  -8    2.39    0.15
   7  -9  -8    1.19    0.12
   6  -9  -8    2.68    0.15
  -6   9   8    2.55    0.14
   5  -9  -8    3.65    0.17
  -5   9   8    3.66    0.16
   4  -9  -8    7.25    0.26
  -4   9   8    7.24    0.25
   3  -9  -8    3.28    0.16
  -3   9   8    3.36    0.16
   2  -9  -8    9.41    0.31
  -2   9   8    9.51    0.31
   1  -9  -8    3.57    0.16
  -1   9   8    3.80    0.17
   0  -9  -8    2.15    0.13
   0   9   8    2.04    0.13
   1   9   8    0.15    0.07
   7 -10  -8    0.78    0.10
   6 -10  -8    0.04    0.06
   5 -10  -8    5.48    0.22
  -5  10   8    5.38    0.22
   4 -10  -8    1.63    0.12
  -4  10   8    1.54    0.12
   3 -10  -8    0.08    0.06
  -3  10   8    0.18    0.06
   2 -10  -8    0.10    0.06
  -2  10   8    0.26    0.06
   1 -10  -8    2.47    0.15
  -1  10   8    2.55    0.15
   0  10   8    4.69    0.21
   5 -11  -8    3.81    0.19
   4 -11  -8    1.98    0.14
   3 -11  -8    4.79    0.21
  -3  11   8    4.69    0.21
   2 -11  -8    5.29    0.23
  -2  11   8    5.36    0.23
   1 -11   9    0.20    0.05
   2 -11   9   17.41    0.50
   3 -11   9    7.45    0.24
   4 -11   9    2.60    0.12
  -1 -10   9    0.34    0.07
   0 -10   9    0.24    0.06
   1 -10   9    2.09    0.11
   2 -10   9    2.30    0.11
   3 -10   9    5.45    0.18
   4 -10   9    0.44    0.05
   5 -10   9    0.08    0.03
   6 -10   9    0.03    0.03
  -2  -9   9    0.56    0.08
  -1  -9   9    0.02    0.04
   0  -9   9    6.56    0.22
   1  -9   9    2.43    0.11
   2  -9   9    7.66    0.24
   3  -9   9    1.42    0.08
   4  -9   9    4.10    0.14
   5  -9   9    0.61    0.05
  -6   9  -9    8.82    0.32
   6  -9   9    8.64    0.25
   7  -9   9   -0.01    0.03
  -4  -8   9    0.09    0.05
  -3  -8   9    2.09    0.13
  -2  -8   9    1.59    0.11
  -1  -8   9    2.45    0.12
   0  -8   9    0.23    0.04
   1  -8   9    1.00    0.07
   2  -8   9    1.51    0.08
  -3   8  -9    1.76    0.07
   3  -8   9    1.77    0.08
   4  -8   9    1.14    0.06
  -5   8  -9   23.56    0.69
   5  -8   9   22.96    0.60
  -6   8  -9    3.66    0.18
   6  -8   9    3.81    0.12
  -7   8  -9    0.28    0.07
   7  -8   9    0.30    0.04
  -4  -7   9    1.36    0.11
  -3  -7   9    5.75    0.21
  -2  -7   9    0.61    0.07
  -1  -7   9    5.49    0.19
   0  -7   9   14.54    0.41
   1  -7   9   22.30    0.59
  -2   7  -9    2.02    0.07
   2  -7   9    2.09    0.08
  -3   7  -9    0.69    0.05
   3  -7   9    0.63    0.04
  -4   7  -9    6.30    0.19
  -4   7  -9    6.22    0.23
   4  -7   9    6.41    0.18
   4  -7   9    6.65    0.19
  -5   7  -9   29.37    0.83
   5  -7   9   28.64    0.74
  -6   7  -9   21.51    0.63
   6  -7   9   20.72    0.54
  -7   7  -9    0.40    0.07
   7  -7   9    0.46    0.04
  -5  -6   9    1.97    0.13
  -4  -6   9    6.64    0.24
  -3  -6   9    1.77    0.10
  -2  -6   9    4.26    0.16
  -1  -6   9    0.40    0.05
   0  -6   9   27.77    0.73
   1  -6   9    2.94    0.10
   1  -6   9    2.67    0.10
   2  -6   9   11.19    0.31
   2  -6   9   11.59    0.31
  -3   6  -9    6.06    0.18
  -3   6  -9    6.08    0.22
   3  -6   9    6.32    0.17
   3  -6   9    6.27    0.17
  -4   6  -9    2.99    0.11
  -4   6  -9    3.14    0.14
   4  -6   9    3.44    0.10
   4  -6   9    3.27    0.10
  -5   6  -9   14.01    0.43
  -5   6  -9   14.17    0.39
  -6   6  -9    0.59    0.07
   6  -6   9    0.49    0.04
   7  -6   9    0.53    0.04
   8  -6   9    1.60    0.08
  -6  -5   9   10.13    0.34
  -5  -5   9   10.05    0.33
   4   5  -9    4.92    0.18
  -4  -5   9    4.78    0.18
   3   5  -9    0.88    0.07
  -3  -5   9    0.78    0.07
   2   5  -9   15.31    0.42
  -2  -5   9   15.06    0.42
   1   5  -9   10.63    0.29
  -1  -5   9   10.48    0.30
   0   5  -9    2.40    0.08
   0  -5   9    2.36    0.09
   0  -5   9    2.44    0.09
   1  -5   9    1.77    0.07
   1  -5   9    1.80    0.07
   2  -5   9    0.96    0.04
   2  -5   9    0.91    0.04
  -3   5  -9    2.69    0.12
  -3   5  -9    2.73    0.10
  -4   5  -9    2.43    0.12
  -4   5  -9    2.56    0.10
  -5   5  -9    3.26    0.12
  -5   5  -9    3.08    0.14
  -6   5  -9    4.31    0.16
   6  -5   9    4.29    0.13
   7  -5   9    2.25    0.09
   8  -5   9    3.90    0.14
  -7  -4   9    2.10    0.14
   6   4  -9    1.69    0.12
  -6  -4   9    1.89    0.12
   5   4  -9    0.87    0.08
  -5  -4   9    0.68    0.07
   4   4  -9    0.15    0.04
  -4  -4   9    0.15    0.04
   3   4  -9   30.45    0.79
  -3  -4   9   29.91    0.80
   2   4  -9    0.01    0.02
  -2  -4   9    0.05    0.03
   1   4  -9    5.56    0.17
  -1  -4   9    5.90    0.17
  -1  -4   9    5.27    0.17
   0   4  -9    5.86    0.16
   0  -4   9    5.38    0.17
   0  -4   9    6.00    0.17
   1  -4   9   50.96    1.31
   1  -4   9   53.14    1.31
  -2   4  -9    0.67    0.05
   2  -4   9    0.65    0.03
   2  -4   9    0.63    0.03
  -3   4  -9   24.74    0.64
  -3   4  -9   25.25    0.70
  -4   4  -9    0.08    0.03
  -5   4  -9    0.28    0.05
  -6   4  -9    1.66    0.10
   6  -4   9    1.61    0.07
   7  -4   9    2.24    0.09
   8  -4   9    0.34    0.05
   7   3  -9    3.13    0.16
  -7  -3   9    3.04    0.16
   6   3  -9    0.66    0.08
  -6  -3   9    0.69    0.08
   5   3  -9    0.11    0.04
  -5  -3   9    0.13    0.05
   4   3  -9    9.91    0.30
  -4  -3   9   10.04    0.30
   3   3  -9   11.53    0.32
  -3  -3   9   11.28    0.33
   2   3  -9    8.00    0.23
  -2  -3   9    7.58    0.23
   1   3  -9   13.26    0.36
  -1  -3   9   13.98    0.36
  -1  -3   9   13.03    0.36
   0   3  -9   15.78    0.41
   0  -3   9   16.19    0.42
   0  -3   9   15.43    0.42
   0  -3   9   16.24    0.45
   1  -3   9    9.94    0.26
   1  -3   9    9.60    0.26
  -2   3  -9    8.41    0.25
  -3   3  -9   44.06    1.11
  -3   3  -9   44.41    1.19
  -4   3  -9    0.01    0.03
  -5   3  -9    0.15    0.04
   5  -3   9    0.18    0.02
   5  -3   9    0.24    0.03
  -6   3  -9    0.48    0.07
   6  -3   9    0.39    0.04
   7  -3   9   14.31    0.39
   8  -3   9    9.44    0.28
   7   2  -9    1.75    0.12
  -7  -2   9    1.66    0.12
   6   2  -9    1.05    0.09
  -6  -2   9    1.10    0.09
   5   2  -9    0.25    0.05
  -5  -2   9    0.23    0.05
   4   2  -9    0.84    0.07
  -4  -2   9    0.79    0.07
   3   2  -9    3.14    0.11
  -3  -2   9    2.98    0.12
   2   2  -9   25.20    0.67
  -2  -2   9   27.00    0.68
  -2  -2   9   24.91    0.67
   1   2  -9    1.11    0.05
  -1  -2   9    0.99    0.05
  -1  -2   9    1.18    0.06
  -1  -2   9    1.18    0.06
   0   2  -9   10.04    0.27
   0  -2   9   10.42    0.28
   0  -2   9   11.03    0.28
  -1   2  -9   11.45    0.32
   1  -2   9   11.02    0.30
   1  -2   9   11.48    0.30
  -2   2  -9   25.05    0.68
  -3   2  -9    4.92    0.16
  -4   2  -9    5.32    0.18
   4  -2   9    5.20    0.15
   4  -2   9    5.32    0.15
  -5   2  -9    0.13    0.04
   5  -2   9    0.11    0.02
   5  -2   9    0.05    0.02
  -6   2  -9    2.97    0.14
   6  -2   9    2.71    0.10
   7  -2   9    2.18    0.10
   8  -2   9    0.13    0.05
   8   1  -9    4.49    0.20
  -8  -1   9    4.20    0.20
   7   1  -9    0.01    0.05
  -7  -1   9    0.05    0.05
   6   1  -9    6.52    0.23
  -6  -1   9    6.44    0.23
   5   1  -9    0.05    0.04
  -5  -1   9   -0.02    0.03
   4   1  -9   19.07    0.52
  -4  -1   9   19.50    0.53
   3   1  -9    6.58    0.20
  -3  -1   9    6.25    0.20
   2   1  -9   92.16    2.37
  -2  -1   9   91.53    2.37
  -2  -1   9   99.17    2.38
   1   1  -9    9.13    0.25
  -1  -1   9    9.45    0.26
  -1  -1   9    9.16    0.26
  -1  -1   9    9.45    0.26
   0   1  -9   73.97    1.83
   0  -1   9   74.44    1.84
   0  -1   9   70.92    1.84
  -1   1  -9   19.96    0.56
   1  -1   9   21.58    0.53
   1  -1   9   20.33    0.53
   2  -1   9   26.59    0.68
   2  -1   9   27.35    0.68
  -3   1  -9    0.87    0.06
   3  -1   9    1.01    0.05
   3  -1   9    1.07    0.04
  -4   1  -9    5.49    0.18
   4  -1   9    5.35    0.16
   4  -1   9    5.81    0.16
  -5   1  -9    2.76    0.12
   5  -1   9    2.77    0.10
  -6   1  -9    1.53    0.10
   6  -1   9    1.46    0.08
   7  -1   9    0.08    0.04
   8   0  -9    0.17    0.07
  -8   0   9    0.16    0.06
   7   0  -9    0.55    0.07
  -7   0   9    0.55    0.08
   6   0  -9    0.09    0.05
  -6   0   9    0.08    0.04
   5   0  -9    3.28    0.13
  -5   0   9    3.38    0.14
   4   0  -9    0.39    0.05
  -4   0   9    0.37    0.05
   3   0  -9    0.19    0.03
  -3   0   9    0.17    0.04
   2   0  -9    0.08    0.02
  -2   0   9    0.04    0.02
  -2   0   9    0.07    0.03
   1   0  -9   14.72    0.39
  -1   0   9   14.07    0.40
  -1   0   9   15.79    0.40
   0   0  -9    1.55    0.06
   0   0   9    1.61    0.06
   0   0   9    1.53    0.06
   1   0   9    0.11    0.02
   1   0   9    0.12    0.02
   2   0   9    2.06    0.07
   2   0   9    1.96    0.07
  -3   0  -9   40.93    1.08
   3   0   9   42.33    1.08
   3   0   9   43.95    1.08
  -4   0  -9   30.17    0.79
   4   0   9   29.93    0.78
   4   0   9   31.03    0.78
  -5   0  -9    3.45    0.14
   5   0   9    3.28    0.12
  -6   0  -9    2.58    0.13
   6   0   9    2.35    0.11
   7   0   9    4.20    0.16
   8  -1  -9    1.44    0.12
  -8   1   9    1.31    0.11
   7  -1  -9    1.89    0.12
  -7   1   9    1.91    0.12
   6  -1  -9    7.89    0.26
  -6   1   9    7.70    0.26
   5  -1  -9    8.78    0.27
  -5   1   9    8.87    0.27
   4  -1  -9    0.07    0.03
  -4   1   9    0.08    0.03
   3  -1  -9    0.70    0.05
  -3   1   9    0.80    0.06
   2  -1  -9   18.59    0.49
  -2   1   9   18.74    0.50
   1  -1  -9   46.25    1.19
  -1   1   9   45.22    1.20
  -1   1   9   49.45    1.20
   0  -1  -9    7.80    0.22
   0   1   9    8.07    0.22
   0   1   9    7.60    0.22
  -1  -1  -9   10.40    0.28
   1   1   9   10.65    0.28
   1   1   9   10.05    0.28
  -2  -1  -9   11.50    0.31
   2   1   9   11.41    0.32
   2   1   9   12.00    0.32
  -3  -1  -9    4.84    0.17
   3   1   9    4.90    0.15
   3   1   9    5.14    0.15
  -4  -1  -9   10.64    0.31
   4   1   9   10.58    0.30
  -5  -1  -9   27.52    0.72
   5   1   9   26.60    0.72
  -6  -1  -9    1.60    0.11
   6   1   9    1.40    0.09
   7   1   9    2.45    0.13
   9  -2  -9    0.13    0.07
   8  -2  -9    6.04    0.23
  -8   2   9    5.90    0.23
   7  -2  -9    3.16    0.15
  -7   2   9    3.00    0.15
   6  -2  -9   20.98    0.58
  -6   2   9   20.83    0.58
   5  -2  -9    0.12    0.04
  -5   2   9    0.11    0.04
   4  -2  -9   34.77    0.91
  -4   2   9   34.77    0.91
   3  -2  -9    0.37    0.04
  -3   2   9    0.29    0.04
   2  -2  -9    6.56    0.20
  -2   2   9    6.44    0.20
   1  -2  -9   17.55    0.47
  -1   2   9   17.43    0.48
  -1   2   9   18.56    0.48
   0  -2  -9    1.12    0.06
   0   2   9    1.23    0.06
   0   2   9    1.43    0.06
  -1  -2  -9    0.97    0.05
   1   2   9    0.94    0.06
   1   2   9    1.09    0.06
  -2  -2  -9    0.50    0.04
   2   2   9    0.52    0.04
   2   2   9    0.43    0.04
  -3  -2  -9   12.43    0.35
   3   2   9   12.28    0.35
  -4  -2  -9    4.27    0.16
   4   2   9    4.16    0.15
  -5  -2  -9    3.01    0.14
   5   2   9    2.95    0.13
  -6  -2  -9    1.09    0.10
   6   2   9    0.91    0.08
   9  -3  -9    0.25    0.07
   8  -3  -9    2.03    0.13
  -8   3   9    1.92    0.12
   7  -3  -9   11.73    0.36
  -7   3   9   11.51    0.36
   6  -3  -9   11.60    0.35
  -6   3   9   11.67    0.35
   5  -3  -9    0.07    0.04
  -5   3   9    0.10    0.04
   4  -3  -9    0.16    0.04
  -4   3   9    0.14    0.04
   3  -3  -9    1.78    0.08
  -3   3   9    1.72    0.09
   2  -3  -9    9.08    0.26
  -2   3   9    8.93    0.26
   1  -3  -9    0.04    0.02
  -1   3   9    0.06    0.03
   0  -3  -9   51.71    1.32
   0   3   9   52.07    1.33
  -1  -3  -9   17.89    0.48
   1   3   9   18.29    0.48
   1   3   9   17.60    0.48
  -2  -3  -9    8.87    0.25
   2   3   9    8.64    0.26
  -3  -3  -9    1.56    0.09
   3   3   9    1.58    0.09
  -4  -3  -9   15.71    0.44
   4   3   9   15.67    0.44
  -5  -3  -9   13.83    0.40
   5   3   9   13.25    0.40
  -6  -3  -9    0.98    0.10
   6   3   9    0.95    0.09
   9  -4  -9    1.43    0.13
   8  -4  -9    0.05    0.05
  -8   4   9    0.06    0.05
   7  -4  -9    0.17    0.06
  -7   4   9    0.22    0.06
   6  -4  -9    0.63    0.07
  -6   4   9    0.71    0.08
   5  -4  -9    0.89    0.08
  -5   4   9    1.00    0.08
   4  -4  -9   -0.03    0.03
  -4   4   9    0.01    0.03
   3  -4  -9    0.93    0.07
  -3   4   9    0.82    0.07
   2  -4  -9    0.24    0.04
  -2   4   9    0.24    0.04
   1  -4  -9    3.07    0.11
  -1   4   9    2.91    0.12
   0  -4  -9    0.08    0.03
   0   4   9    0.11    0.04
  -1  -4  -9    0.57    0.05
   1   4   9    0.62    0.06
  -2  -4  -9    0.28    0.04
  -2  -4  -9    0.28    0.05
  -2  -4  -9    0.29    0.04
   2   4   9    0.29    0.05
  -3  -4  -9    0.98    0.08
   3   4   9    0.91    0.08
  -4  -4  -9    3.13    0.14
   4   4   9    2.82    0.13
  -5  -4  -9    3.66    0.17
   5   4   9    3.92    0.17
   9  -5  -9    0.04    0.06
   8  -5  -9    0.87    0.10
  -8   5   9    0.91    0.10
   7  -5  -9    7.57    0.26
  -7   5   9    7.65    0.26
   6  -5  -9   -0.01    0.04
  -6   5   9   -0.05    0.03
   5  -5  -9    1.46    0.10
  -5   5   9    1.37    0.09
   4  -5  -9    2.09    0.11
  -4   5   9    2.14    0.08
  -4   5   9    2.19    0.11
   3  -5  -9   22.57    0.61
  -3   5   9   22.51    0.61
   2  -5  -9    0.27    0.04
  -2   5   9    0.32    0.05
   1  -5  -9    1.68    0.09
  -1   5   9    1.68    0.09
   0  -5  -9    0.56    0.05
   0   5   9    0.52    0.06
  -1  -5  -9   12.57    0.36
   1   5   9   12.45    0.36
  -2  -5  -9    9.10    0.28
   2   5   9    8.98    0.28
  -3  -5  -9    3.36    0.14
   3   5   9    3.01    0.14
  -4  -5  -9    0.41    0.07
   4   5   9    0.43    0.07
  -5  -5  -9    3.58    0.16
   5   5   9    3.59    0.17
   9  -6  -9   -0.04    0.06
   8  -6  -9    3.64    0.18
   7  -6  -9    0.08    0.05
  -7   6   9    0.08    0.05
   6  -6  -9    3.95    0.17
  -6   6   9    3.87    0.16
   5  -6  -9    0.17    0.05
  -5   6   9    0.10    0.03
  -5   6   9    0.06    0.04
   4  -6  -9   38.06    0.99
  -4   6   9   37.16    0.99
   3  -6  -9   15.17    0.43
  -3   6   9   15.28    0.44
   2  -6  -9   11.46    0.34
  -2   6   9   11.82    0.35
   1  -6  -9   12.46    0.37
  -1   6   9   12.92    0.37
   0  -6  -9   28.00    0.75
   0   6   9   28.35    0.76
  -1  -6  -9    9.58    0.29
   1   6   9    9.47    0.30
  -2  -6  -9    5.41    0.19
   2   6   9    5.51    0.20
  -3  -6  -9    0.62    0.07
   3   6   9    0.49    0.07
  -4  -6  -9    1.13    0.10
   4   6   9    1.11    0.10
   8  -7  -9   10.23    0.35
   7  -7  -9    1.56    0.12
  -7   7   9    1.52    0.11
  -7   7   9    1.54    0.10
   6  -7  -9   11.35    0.35
  -6   7   9   10.82    0.33
  -6   7   9   10.92    0.34
   5  -7  -9    8.30    0.27
  -5   7   9    7.98    0.27
   4  -7  -9   21.43    0.60
  -4   7   9   21.89    0.60
   3  -7  -9   10.81    0.33
  -3   7   9   10.69    0.33
   2  -7  -9    2.62    0.12
  -2   7   9    2.52    0.13
   1  -7  -9   11.97    0.36
  -1   7   9   12.27    0.37
   0  -7  -9   10.94    0.33
   0   7   9   10.83    0.34
  -1  -7  -9    0.03    0.04
   1   7   9    0.02    0.05
  -2  -7  -9    1.14    0.09
   2   7   9    1.23    0.10
  -3  -7  -9    0.85    0.09
   3   7   9    0.80    0.09
   8  -8  -9    0.53    0.09
   7  -8  -9    1.49    0.12
   6  -8  -9    0.93    0.09
  -6   8   9    0.93    0.09
   5  -8  -9    2.13    0.12
  -5   8   9    2.16    0.12
   4  -8  -9    0.46    0.07
  -4   8   9    0.38    0.06
   3  -8  -9    2.33    0.13
  -3   8   9    2.42    0.13
   2  -8  -9    2.02    0.11
  -2   8   9    1.94    0.12
   1  -8  -9    0.00    0.04
  -1   8   9    0.02    0.04
   0  -8  -9   -0.07    0.04
   0   8   9    0.00    0.05
  -1  -8  -9    1.67    0.10
   1   8   9    1.70    0.12
  -2  -8  -9    2.41    0.12
   2   8   9    2.20    0.15
   7  -9  -9    0.68    0.09
   6  -9  -9    2.47    0.15
  -6   9   9    2.72    0.14
   5  -9  -9    0.93    0.09
  -5   9   9    1.00    0.10
   4  -9  -9   -0.02    0.05
  -4   9   9    0.05    0.05
   3  -9  -9    0.15    0.05
  -3   9   9    0.25    0.06
   2  -9  -9    0.52    0.07
  -2   9   9    0.84    0.09
   1  -9  -9    6.31    0.24
  -1   9   9    6.34    0.24
   0   9   9    0.21    0.07
   1   9   9    0.10    0.06
   6 -10  -9    0.13    0.07
   5 -10  -9    0.07    0.06
  -5  10   9   -0.02    0.05
   4 -10  -9    0.05    0.05
  -4  10   9    0.11    0.06
   3 -10  -9    0.34    0.06
  -3  10   9    0.29    0.07
   2 -10  -9    5.73    0.23
  -2  10   9    5.88    0.23
  -1  10   9    4.37    0.20
   2 -11  10    0.72    0.08
   3 -11  10    2.05    0.11
  -1 -10  10    2.95    0.15
   0 -10  10    0.40    0.06
   1 -10  10    4.25    0.17
   2 -10  10    5.02    0.18
   3 -10  10    0.19    0.04
   5 -10  10    2.85    0.11
  -2  -9  10    0.34    0.06
  -1  -9  10    0.02    0.05
   0  -9  10    0.85    0.08
   1  -9  10    0.04    0.04
   2  -9  10    0.81    0.07
   3  -9  10    2.19    0.10
   4  -9  10    0.53    0.05
   5  -9  10    0.35    0.04
  -6   9 -10    1.18    0.12
   6  -9  10    1.12    0.06
  -3  -8  10    0.09    0.05
  -2  -8  10   13.03    0.40
  -1  -8  10    2.32    0.12
   0  -8  10    0.00    0.03
   1  -8  10    0.09    0.03
   2  -8  10   11.00    0.31
   3  -8  10    8.63    0.25
   4  -8  10    0.76    0.05
  -5   8 -10    1.35    0.11
   5  -8  10    1.29    0.06
  -6   8 -10    2.13    0.13
   6  -8  10    2.08    0.08
  -7   8 -10    1.42    0.12
  -4  -7  10    0.94    0.09
  -3  -7  10    3.39    0.15
  -2  -7  10   18.11    0.51
  -1  -7  10    0.59    0.06
   0  -7  10    0.13    0.03
   1  -7  10    4.58    0.15
  -2   7 -10   20.79    0.54
   2  -7  10   21.16    0.55
  -3   7 -10    0.04    0.03
   3  -7  10    0.02    0.02
  -4   7 -10    3.26    0.15
  -4   7 -10    3.23    0.12
   4  -7  10    3.16    0.10
  -5   7 -10    0.05    0.04
  -5   7 -10    0.06    0.05
  -6   7 -10    4.66    0.20
  -7   7 -10    0.09    0.05
  -5  -6  10    0.30    0.07
  -4  -6  10    0.20    0.06
  -3  -6  10    9.28    0.30
  -2  -6  10   49.77    1.29
  -1  -6  10   11.42    0.33
   0  -6  10    7.02    0.21
   1  -6  10   16.47    0.44
   2  -6  10   25.49    0.64
   2  -6  10   24.50    0.64
  -3   6 -10    8.63    0.25
   3  -6  10    8.70    0.24
   3  -6  10    9.09    0.24
  -4   6 -10    0.00    0.03
  -4   6 -10   -0.02    0.04
  -5   6 -10    1.38    0.08
  -5   6 -10    1.30    0.10
  -6   6 -10    0.06    0.05
  -6   6 -10    0.11    0.04
  -7   6 -10    0.30    0.06
  -6  -5  10    0.40    0.07
  -5  -5  10    0.65    0.08
  -4  -5  10    0.00    0.04
  -3  -5  10    8.99    0.28
  -2  -5  10    1.07    0.07
  -1  -5  10    1.22    0.07
   0  -5  10    1.71    0.08
   0  -5  10    1.69    0.07
   1  -5  10    7.02    0.20
   1  -5  10    7.27    0.20
   2  -5  10    2.08    0.07
   2  -5  10    2.13    0.07
  -3   5 -10    0.07    0.03
  -3   5 -10    0.06    0.03
  -4   5 -10    0.00    0.03
  -4   5 -10    0.04    0.03
  -5   5 -10    1.33    0.08
  -5   5 -10    1.28    0.09
  -6   5 -10    2.86    0.13
   7  -5  10    1.55    0.07
  -6  -4  10    3.52    0.17
   5   4 -10    0.13    0.05
  -5  -4  10    0.21    0.06
   4   4 -10    1.38    0.09
  -4  -4  10    1.33    0.09
   3   4 -10    0.62    0.06
  -3  -4  10    0.56    0.06
   2   4 -10    0.61    0.05
  -2  -4  10    0.57    0.05
   1   4 -10    0.71    0.05
  -1  -4  10    0.62    0.05
  -1  -4  10    0.64    0.05
   0  -4  10   21.73    0.59
   0  -4  10   23.60    0.59
   1  -4  10   20.61    0.55
   1  -4  10   21.93    0.55
  -2   4 -10    0.57    0.05
   2  -4  10    0.54    0.03
   2  -4  10    0.53    0.03
  -3   4 -10    0.07    0.03
  -3   4 -10    0.12    0.03
  -4   4 -10   12.93    0.39
  -4   4 -10   13.14    0.36
  -5   4 -10    9.79    0.29
  -6   4 -10    1.44    0.10
   6  -4  10    1.26    0.06
   7  -4  10    2.13    0.09
   7   3 -10    1.54    0.13
  -7  -3  10    1.57    0.12
   6   3 -10    1.43    0.11
  -6  -3  10    1.40    0.11
   5   3 -10    0.18    0.05
  -5  -3  10    0.23    0.05
   4   3 -10    0.06    0.04
  -4  -3  10    0.04    0.04
   3   3 -10    6.55    0.20
  -3  -3  10    6.12    0.21
   2   3 -10    3.15    0.11
  -2  -3  10    3.09    0.12
   1   3 -10    0.66    0.04
  -1  -3  10    0.85    0.05
  -1  -3  10    0.69    0.05
  -1  -3  10    0.65    0.05
   0  -3  10    1.76    0.08
   0  -3  10    1.81    0.07
   0  -3  10    1.58    0.07
   1  -3  10    0.45    0.03
   1  -3  10    0.45    0.03
  -2   3 -10   13.15    0.38
  -3   3 -10    1.85    0.09
  -3   3 -10    1.70    0.08
  -4   3 -10   25.28    0.66
  -5   3 -10    5.33    0.19
   5  -3  10    5.47    0.15
   5  -3  10    5.32    0.15
  -6   3 -10    3.21    0.14
   6  -3  10    2.89    0.10
  -7   3 -10    0.96    0.09
   7  -3  10    0.83    0.06
   7   2 -10   10.97    0.35
  -7  -2  10   10.57    0.35
   6   2 -10    0.44    0.06
  -6  -2  10    0.39    0.07
   5   2 -10    4.04    0.16
  -5  -2  10    4.19    0.17
   4   2 -10   18.72    0.51
  -4  -2  10   18.16    0.51
   3   2 -10    1.32    0.07
  -3  -2  10    1.41    0.08
   2   2 -10    0.95    0.06
  -2  -2  10    0.84    0.06
  -2  -2  10    0.97    0.06
   1   2 -10   12.41    0.33
  -1  -2  10   12.03    0.34
  -1  -2  10   12.74    0.34
  -1  -2  10   12.59    0.35
   0  -2  10  107.86    2.76
   0  -2  10  112.64    2.76
   1  -2  10   22.99    0.58
   1  -2  10   21.92    0.57
  -2   2 -10    1.23    0.07
   2  -2  10    1.29    0.05
   2  -2  10    1.22    0.04
   3  -2  10    8.21    0.22
   3  -2  10    8.43    0.22
  -4   2 -10   76.48    1.95
   4  -2  10   80.80    1.96
   4  -2  10   77.31    1.96
  -5   2 -10   14.57    0.41
   5  -2  10   14.09    0.38
  -6   2 -10    0.54    0.07
   6  -2  10    0.55    0.05
  -7   2 -10    1.52    0.11
   7  -2  10    1.38    0.08
   8   1 -10    0.04    0.06
  -8  -1  10    0.24    0.07
   7   1 -10    0.56    0.08
  -7  -1  10    0.59    0.08
   6   1 -10    2.07    0.11
  -6  -1  10    1.81    0.11
   5   1 -10    3.91    0.15
  -5  -1  10    3.97    0.16
   4   1 -10    0.09    0.04
  -4  -1  10    0.10    0.04
   3   1 -10    1.18    0.07
  -3  -1  10    1.05    0.07
   2   1 -10    0.84    0.05
  -2  -1  10    0.69    0.05
  -2  -1  10    0.75    0.05
   1   1 -10   17.57    0.45
  -1  -1  10   18.35    0.46
  -1  -1  10   15.08    0.46
  -1  -1  10   17.25    0.45
   0   1 -10    1.07    0.04
   0  -1  10    1.00    0.05
   0  -1  10    1.15    0.05
  -1   1 -10    7.34    0.22
   1  -1  10    7.62    0.20
   1  -1  10    7.29    0.20
   2  -1  10    1.37    0.05
   2  -1  10    1.33    0.05
   3  -1  10   10.03    0.27
   3  -1  10   10.13    0.27
  -4   1 -10    0.70    0.06
   4  -1  10    0.65    0.04
   4  -1  10    0.71    0.04
  -5   1 -10    0.79    0.07
   5  -1  10    0.72    0.05
  -6   1 -10    0.00    0.05
   6  -1  10    0.03    0.03
  -7   1 -10    6.46    0.24
   7  -1  10    6.19    0.21
   8   0 -10    2.61    0.16
  -8   0  10    2.61    0.15
   7   0 -10    4.28    0.18
  -7   0  10    4.16    0.18
   6   0 -10    5.82    0.21
  -6   0  10    5.70    0.21
   5   0 -10   13.33    0.38
  -5   0  10   12.82    0.39
   4   0 -10    2.33    0.10
  -4   0  10    2.28    0.11
   3   0 -10   21.61    0.58
  -3   0  10   22.30    0.59
   2   0 -10   22.39    0.58
  -2   0  10   21.39    0.59
  -2   0  10   22.84    0.59
   1   0 -10    0.26    0.03
  -1   0  10    0.25    0.03
  -1   0  10    0.31    0.04
   0   0 -10    1.05    0.04
   0   0  10    0.94    0.05
   0   0  10    0.89    0.05
  -1   0 -10    0.08    0.02
   1   0  10    0.09    0.02
   1   0  10    0.09    0.02
   2   0  10   19.28    0.51
   2   0  10   20.42    0.52
  -3   0 -10    9.17    0.28
   3   0  10    9.54    0.26
   3   0  10    9.42    0.26
  -4   0 -10    5.00    0.18
   4   0  10    4.93    0.15
  -5   0 -10    1.26    0.09
   5   0  10    1.26    0.07
  -6   0 -10    0.79    0.09
   6   0  10    0.78    0.07
  -7   0 -10    5.35    0.21
   7   0  10    4.68    0.18
   8  -1 -10    3.65    0.18
  -8   1  10    3.52    0.17
   7  -1 -10    0.03    0.05
  -7   1  10    0.08    0.05
   6  -1 -10    2.55    0.12
  -6   1  10    2.28    0.12
   5  -1 -10    5.51    0.19
  -5   1  10    5.55    0.20
   4  -1 -10   49.23    1.24
  -4   1  10   47.14    1.25
   3  -1 -10    0.38    0.04
  -3   1  10    0.47    0.05
   2  -1 -10    0.53    0.05
  -2   1  10    0.54    0.05
   1  -1 -10   16.87    0.45
  -1   1  10   16.49    0.46
  -1   1  10   18.15    0.46
   0  -1 -10   54.62    1.35
   0   1  10   55.22    1.36
   0   1  10   51.01    1.36
  -1  -1 -10    5.96    0.17
   1   1  10    5.93    0.18
   1   1  10    6.08    0.18
   2   1  10    1.70    0.07
   2   1  10    1.81    0.07
  -3  -1 -10    2.63    0.12
   3   1  10    2.45    0.10
  -4  -1 -10    1.01    0.08
   4   1  10    0.99    0.07
  -5  -1 -10    0.00    0.04
   5   1  10   -0.03    0.03
  -6  -1 -10    0.41    0.07
   6   1  10    0.30    0.05
   8  -2 -10    5.41    0.22
  -8   2  10    5.05    0.21
   7  -2 -10    1.32    0.11
  -7   2  10    1.42    0.10
   6  -2 -10    0.46    0.06
  -6   2  10    0.55    0.07
   5  -2 -10    9.71    0.30
  -5   2  10    9.88    0.30
   4  -2 -10   12.90    0.36
  -4   2  10   12.60    0.37
   3  -2 -10   40.41    1.04
  -3   2  10   39.71    1.04
   2  -2 -10    4.40    0.14
  -2   2  10    4.12    0.14
   1  -2 -10   12.10    0.34
  -1   2  10   12.69    0.34
  -1   2  10   11.99    0.34
   0  -2 -10    6.88    0.20
   0   2  10    6.63    0.21
   0   2  10    7.39    0.21
  -1  -2 -10   10.88    0.30
   1   2  10   11.22    0.31
   1   2  10   10.90    0.31
  -2  -2 -10   19.04    0.52
   2   2  10   19.15    0.52
   2   2  10   20.39    0.53
  -3  -2 -10    1.53    0.09
   3   2  10    1.60    0.08
  -4  -2 -10    5.92    0.21
   4   2  10    6.04    0.20
  -5  -2 -10    0.36    0.06
   5   2  10    0.22    0.05
  -6  -2 -10   15.90    0.47
   6   2  10   15.94    0.46
   8  -3 -10    0.14    0.06
  -8   3  10    0.11    0.05
   7  -3 -10    0.58    0.07
  -7   3  10    0.58    0.07
   6  -3 -10    0.27    0.06
  -6   3  10    0.28    0.05
   5  -3 -10    5.68    0.20
  -5   3  10    5.66    0.20
   4  -3 -10    0.17    0.04
  -4   3  10    0.17    0.04
   3  -3 -10    4.43    0.15
  -3   3  10    4.54    0.16
   2  -3 -10    1.67    0.08
  -2   3  10    1.60    0.08
   1  -3 -10    0.33    0.04
  -1   3  10    0.33    0.04
   0  -3 -10    4.06    0.13
   0   3  10    3.96    0.14
  -1  -3 -10    8.61    0.25
   1   3  10    8.68    0.26
   2   3  10    5.87    0.19
  -3  -3 -10    0.67    0.07
   3   3  10    0.64    0.06
  -4  -3 -10    0.60    0.07
   4   3  10    0.48    0.06
  -5  -3 -10    1.77    0.12
   5   3  10    1.63    0.11
  -6  -3 -10    0.39    0.08
   6   3  10    0.35    0.07
   8  -4 -10    0.10    0.06
  -8   4  10    0.34    0.07
   7  -4 -10    7.24    0.25
  -7   4  10    7.06    0.25
   6  -4 -10    0.00    0.04
  -6   4  10    0.00    0.04
   5  -4 -10    1.95    0.10
  -5   4  10    1.92    0.10
   4  -4 -10    6.79    0.22
  -4   4  10    6.25    0.21
   3  -4 -10   43.90    1.13
  -3   4  10   43.32    1.13
   2  -4 -10    5.68    0.18
  -2   4  10    5.62    0.19
   1  -4 -10   31.85    0.83
  -1   4  10   31.48    0.83
   0  -4 -10   27.13    0.71
   0   4  10   26.49    0.71
  -1  -4 -10    5.03    0.16
   1   4  10    4.84    0.17
   2   4  10    1.20    0.08
  -3  -4 -10    3.55    0.15
   3   4  10    3.52    0.15
  -4  -4 -10    0.73    0.08
   4   4  10    0.58    0.07
  -5  -4 -10    1.45    0.11
   5   4  10    1.66    0.11
   8  -5 -10    0.94    0.10
  -8   5  10    1.02    0.10
   7  -5 -10    0.77    0.09
  -7   5  10    0.62    0.08
   6  -5 -10    1.78    0.11
  -6   5  10    1.74    0.11
   5  -5 -10    0.13    0.05
  -5   5  10    0.01    0.04
   4  -5 -10    4.27    0.16
  -4   5  10    4.22    0.16
   3  -5 -10    1.48    0.09
  -3   5  10    1.59    0.09
   2  -5 -10   23.13    0.63
  -2   5  10   23.23    0.63
   1  -5 -10    1.44    0.08
  -1   5  10    1.60    0.09
   0  -5 -10    7.65    0.22
   0  -5 -10    7.70    0.24
   0   5  10    7.85    0.25
   1   5  10    0.01    0.04
  -2  -5 -10   42.23    1.08
   2   5  10   41.85    1.10
  -3  -5 -10    3.10    0.14
   3   5  10    3.09    0.14
  -4  -5 -10   -0.07    0.04
   4   5  10    0.01    0.05
   8  -6 -10    1.21    0.11
   7  -6 -10    0.71    0.09
  -7   6  10    0.71    0.09
   6  -6 -10   12.22    0.38
  -6   6  10   11.99    0.38
  -6   6  10   12.63    0.36
   5  -6 -10    8.46    0.28
  -5   6  10    8.39    0.25
  -5   6  10    8.15    0.27
   4  -6 -10    0.14    0.05
  -4   6  10    0.10    0.05
   3  -6 -10    8.50    0.27
  -3   6  10    8.46    0.27
   2  -6 -10   31.30    0.83
  -2   6  10   30.86    0.83
   1  -6 -10   23.64    0.64
  -1   6  10   23.46    0.65
   0  -6 -10    1.71    0.10
   0   6  10    1.61    0.10
   1   6  10    2.05    0.12
  -2  -6 -10   11.73    0.35
   2   6  10   11.93    0.36
  -3  -6 -10    8.77    0.28
   3   6  10    8.58    0.29
  -4  -6 -10    3.40    0.16
   4   6  10    3.35    0.17
   8  -7 -10    6.55    0.26
   7  -7 -10   11.72    0.37
  -7   7  10   11.05    0.36
   6  -7 -10    1.67    0.12
  -6   7  10    1.74    0.11
   5  -7 -10    0.69    0.08
  -5   7  10    0.76    0.08
   4  -7 -10    0.61    0.07
  -4   7  10    0.53    0.07
   3  -7 -10    7.20    0.25
  -3   7  10    7.63    0.25
   2  -7 -10    0.21    0.05
  -2   7  10    0.38    0.06
   1  -7 -10    1.27    0.09
  -1   7  10    1.33    0.10
   0   7  10    3.22    0.15
  -1  -7 -10    1.32    0.09
   1   7  10    1.02    0.09
  -2  -7 -10    0.77    0.08
   2   7  10    0.60    0.08
  -3  -7 -10    0.55    0.08
   3   7  10    0.46    0.08
   7  -8 -10    2.22    0.14
  -7   8  10    1.74    0.13
   6  -8 -10    0.08    0.05
  -6   8  10    0.01    0.05
   5  -8 -10    1.34    0.11
  -5   8  10    1.19    0.10
   4  -8 -10    2.28    0.13
  -4   8  10    2.27    0.13
   3  -8 -10    0.44    0.07
  -3   8  10    0.50    0.07
   2  -8 -10    0.57    0.07
  -2   8  10    0.53    0.08
   1  -8 -10   13.79    0.42
  -1   8  10   13.96    0.42
   0   8  10    3.87    0.18
  -1  -8 -10    2.95    0.14
   1   8  10    3.08    0.16
  -2  -8 -10    0.73    0.08
   2   8  10    0.64    0.09
   7  -9 -10    0.14    0.07
   6  -9 -10    4.85    0.21
  -6   9  10    4.50    0.20
   5  -9 -10    0.08    0.06
  -5   9  10    0.13    0.06
   4  -9 -10    0.83    0.09
  -4   9  10    0.79    0.09
   3  -9 -10    0.80    0.08
  -3   9  10    0.87    0.09
   2  -9 -10    0.61    0.08
  -2   9  10    0.82    0.09
  -1   9  10    0.50    0.08
   0   9  10    0.26    0.07
   6 -10 -10    0.01    0.06
   5 -10 -10    2.35    0.15
  -5  10  10    2.39    0.15
   4 -10 -10    5.96    0.24
  -4  10  10    6.53    0.25
   3 -10 -10    0.51    0.08
  -3  10  10    0.45    0.09
  -2  10  10   -0.04    0.06
  -1  10  10    0.90    0.11
   0 -10  11    0.49    0.07
   1 -10  11    0.05    0.04
   2 -10  11    0.14    0.05
   3 -10  11    3.45    0.13
   4 -10  11    1.55    0.08
  -2  -9  11    9.78    0.33
  -1  -9  11    0.07    0.05
   0  -9  11    0.07    0.04
   1  -9  11    1.16    0.08
   2  -9  11   13.09    0.37
   3  -9  11    1.21    0.07
   4  -9  11    0.99    0.06
  -6   9 -11    2.17    0.14
  -3  -8  11    0.63    0.08
  -2  -8  11    2.75    0.14
  -1  -8  11    3.92    0.16
   0  -8  11    0.24    0.05
   1  -8  11    7.75    0.24
   2  -8  11    4.11    0.14
   3  -8  11    5.08    0.16
   4  -8  11    0.98    0.05
  -5   8 -11    1.59    0.12
  -6   8 -11    7.20    0.27
  -4  -7  11    2.88    0.16
  -3  -7  11    1.39    0.10
  -2  -7  11    0.54    0.07
  -1  -7  11    7.03    0.23
   0  -7  11    8.55    0.26
   1  -7  11   26.38    0.69
  -2   7 -11    6.18    0.18
   2  -7  11    6.29    0.19
  -3   7 -11    4.85    0.15
   3  -7  11    4.78    0.14
  -4   7 -11   28.82    0.74
  -5   7 -11   14.32    0.40
  -5   7 -11   14.18    0.45
  -6   7 -11    0.65    0.08
  -7   7 -11    0.19    0.06
  -5  -6  11    0.33    0.07
  -4  -6  11    2.23    0.13
  -3  -6  11    6.07    0.22
  -2  -6  11    7.77    0.25
  -1  -6  11    0.48    0.05
   0  -6  11    0.05    0.03
   1  -6  11   30.34    0.79
   2  -6  11    0.91    0.05
   2  -6  11    0.81    0.05
  -3   6 -11    1.04    0.06
   3  -6  11    1.18    0.05
   3  -6  11    1.08    0.05
  -4   6 -11    0.22    0.04
  -4   6 -11    0.25    0.05
  -5   6 -11   11.82    0.34
  -5   6 -11   11.79    0.38
  -6   6 -11    0.48    0.07
  -6   6 -11    0.55    0.06
  -7   6 -11    0.13    0.05
  -5  -5  11    2.91    0.15
  -4  -5  11    0.14    0.05
  -3  -5  11    0.66    0.07
  -2  -5  11    3.02    0.12
  -1  -5  11    0.32    0.04
   0  -5  11    9.77    0.28
   1  -5  11    0.22    0.03
   1  -5  11    0.19    0.03
   2  -5  11    0.04    0.02
   2  -5  11    0.06    0.02
  -3   5 -11    7.80    0.25
  -3   5 -11    7.34    0.22
  -4   5 -11   11.71    0.33
  -4   5 -11   11.58    0.36
  -5   5 -11   15.23    0.42
  -5   5 -11   15.10    0.46
  -6   5 -11    0.07    0.04
  -6   5 -11    0.01    0.04
  -6  -4  11    0.81    0.09
  -5  -4  11    2.98    0.15
  -4  -4  11    0.57    0.07
  -3  -4  11    0.01    0.03
  -2  -4  11   -0.01    0.03
  -1  -4  11   18.05    0.49
   0  -4  11    0.04    0.02
   0  -4  11    0.05    0.02
   1  -4  11   20.53    0.52
   1  -4  11   19.38    0.52
   2  -4  11    0.04    0.02
   2  -4  11    0.07    0.02
  -3   4 -11    0.72    0.06
  -3   4 -11    0.71    0.06
  -4   4 -11    0.12    0.04
  -4   4 -11    0.19    0.04
  -5   4 -11    0.54    0.06
  -6   4 -11    1.25    0.09
  -7   4 -11    3.20    0.15
   7  -4  11    3.29    0.11
  -7  -3  11    2.07    0.14
  -6  -3  11    0.11    0.06
   5   3 -11    0.12    0.05
  -5  -3  11    0.05    0.04
   4   3 -11    2.07    0.10
  -4  -3  11    1.93    0.11
   3   3 -11   20.41    0.55
  -3  -3  11   20.11    0.56
   2   3 -11    1.65    0.08
  -2  -3  11    1.61    0.08
   1   3 -11    7.90    0.22
  -1  -3  11    7.99    0.23
  -1  -3  11    7.72    0.24
  -1  -3  11    7.53    0.23
   0  -3  11    0.02    0.02
   0  -3  11    0.00    0.02
   1  -3  11   41.51    1.08
   1  -3  11   43.63    1.08
  -2   3 -11    2.28    0.10
   2  -3  11    2.22    0.07
  -3   3 -11   12.93    0.38
  -4   3 -11   24.83    0.66
  -5   3 -11    2.12    0.11
  -6   3 -11    9.01    0.29
   6  -3  11    8.66    0.24
  -7   3 -11    9.62    0.31
   7  -3  11    9.28    0.27
   7   2 -11    2.62    0.15
  -7  -2  11    2.96    0.16
   6   2 -11    2.45    0.13
  -6  -2  11    2.47    0.13
   5   2 -11    1.15    0.09
  -5  -2  11    1.06    0.09
   4   2 -11    8.32    0.26
  -4  -2  11    8.33    0.27
   3   2 -11    9.04    0.26
  -3  -2  11    8.59    0.27
   2   2 -11    6.98    0.21
  -2  -2  11    7.33    0.22
  -2  -2  11    7.04    0.22
   1   2 -11    6.49    0.19
  -1  -2  11    6.41    0.20
  -1  -2  11    6.70    0.20
  -1  -2  11    6.74    0.20
   0  -2  11    4.35    0.14
   0  -2  11    4.55    0.14
   1  -2  11    8.45    0.23
   1  -2  11    8.34    0.23
  -2   2 -11    1.97    0.09
   2  -2  11    2.04    0.07
   2  -2  11    2.02    0.07
   3  -2  11   13.92    0.35
   3  -2  11   13.44    0.35
  -4   2 -11    0.23    0.05
   4  -2  11    0.20    0.02
   4  -2  11    0.17    0.03
  -5   2 -11    0.06    0.04
   5  -2  11    0.04    0.02
  -6   2 -11    0.06    0.05
   6  -2  11    0.06    0.03
  -7   2 -11    6.95    0.25
   7  -2  11    6.67    0.21
   7   1 -11    2.98    0.16
  -7  -1  11    2.93    0.16
   6   1 -11    0.71    0.08
  -6  -1  11    0.72    0.08
   5   1 -11    0.74    0.07
  -5  -1  11    0.66    0.07
   4   1 -11   55.30    1.39
  -4  -1  11   52.75    1.40
   3   1 -11   37.06    0.95
  -3  -1  11   36.17    0.96
   2   1 -11    1.26    0.06
  -2  -1  11    1.22    0.07
  -2  -1  11    1.31    0.07
   1   1 -11    0.73    0.04
  -1  -1  11    0.71    0.05
  -1  -1  11    0.64    0.05
   0  -1  11   30.20    0.80
   0  -1  11   32.04    0.80
   1  -1  11   17.08    0.44
   1  -1  11   16.27    0.44
  -2   1 -11    5.21    0.17
   2  -1  11    5.42    0.15
   2  -1  11    5.37    0.15
   3  -1  11    1.45    0.06
   3  -1  11    1.35    0.06
  -4   1 -11    0.77    0.07
   4  -1  11    0.70    0.05
   4  -1  11    0.80    0.05
  -5   1 -11    0.10    0.05
   5  -1  11   -0.02    0.03
  -6   1 -11    2.16    0.13
   6  -1  11    2.15    0.10
  -7   1 -11    3.53    0.18
   7  -1  11    3.46    0.14
   8   0 -11    0.90    0.10
  -8   0  11    1.00    0.10
   7   0 -11    0.12    0.06
  -7   0  11    0.19    0.06
   6   0 -11    2.24    0.12
  -6   0  11    2.21    0.13
   5   0 -11    0.68    0.07
  -5   0  11    0.68    0.07
   4   0 -11    3.02    0.12
  -4   0  11    3.07    0.13
   3   0 -11    0.08    0.03
  -3   0  11    0.06    0.03
   2   0 -11    5.85    0.18
  -2   0  11    6.41    0.19
  -2   0  11    5.95    0.17
  -2   0  11    5.78    0.19
   1   0 -11    0.87    0.05
  -1   0  11    0.80    0.05
  -1   0  11    0.79    0.05
   0   0 -11   29.05    0.73
   0   0  11   29.44    0.74
   0   0  11   27.61    0.74
  -1   0 -11   12.73    0.35
   1   0  11   12.96    0.34
   1   0  11   12.51    0.34
   2   0  11   17.67    0.46
   2   0  11   17.20    0.46
   3   0  11    1.53    0.07
   3   0  11    1.68    0.07
  -4   0 -11    0.05    0.04
   4   0  11    0.04    0.03
  -5   0 -11    2.86    0.14
   5   0  11    2.60    0.11
  -6   0 -11    1.03    0.10
   6   0  11    1.00    0.08
   8  -1 -11   -0.01    0.06
  -8   1  11    0.02    0.06
   7  -1 -11    1.35    0.11
  -7   1  11    1.23    0.10
   6  -1 -11    1.73    0.11
  -6   1  11    1.78    0.11
   5  -1 -11   14.01    0.40
  -5   1  11   13.80    0.41
   4  -1 -11    0.42    0.05
  -4   1  11    0.33    0.05
   3  -1 -11    3.34    0.12
  -3   1  11    3.26    0.13
   2  -1 -11    3.92    0.13
  -2   1  11    3.86    0.14
   1  -1 -11   28.72    0.74
  -1   1  11   30.16    0.75
  -1   1  11   27.36    0.75
   0  -1 -11    4.41    0.13
   0   1  11    3.96    0.14
   0   1  11    4.51    0.14
  -1  -1 -11   10.63    0.30
  -1  -1 -11   10.87    0.29
   1   1  11   11.34    0.30
   1   1  11   10.66    0.30
   2   1  11    3.90    0.13
   2   1  11    4.00    0.13
  -3  -1 -11   41.15    1.05
   3   1  11   40.85    1.05
  -4  -1 -11    0.06    0.04
   4   1  11    0.13    0.04
  -5  -1 -11    0.67    0.08
   5   1  11    0.61    0.06
  -6  -1 -11    5.65    0.22
   6   1  11    5.68    0.20
   8  -2 -11    6.44    0.25
  -8   2  11    6.17    0.24
   7  -2 -11    0.45    0.07
  -7   2  11    0.40    0.07
   6  -2 -11    0.48    0.06
  -6   2  11    0.55    0.07
   5  -2 -11    4.28    0.16
  -5   2  11    4.32    0.17
   4  -2 -11    0.35    0.05
  -4   2  11    0.44    0.05
   3  -2 -11    0.79    0.06
  -3   2  11    0.73    0.06
   2  -2 -11    0.37    0.04
  -2   2  11    0.29    0.04
   1  -2 -11   11.84    0.33
  -1   2  11   12.24    0.34
  -1   2  11   11.53    0.33
   0  -2 -11    8.39    0.24
   0   2  11    8.30    0.25
   0   2  11    8.61    0.25
  -1  -2 -11    1.23    0.06
   1   2  11    1.29    0.07
   1   2  11    1.30    0.07
   2   2  11    0.02    0.03
  -3  -2 -11    6.35    0.22
   3   2  11    6.52    0.20
  -4  -2 -11    2.05    0.12
   4   2  11    1.77    0.10
  -5  -2 -11    2.96    0.15
   5   2  11    2.89    0.13
  -6  -2 -11   -0.02    0.05
   6   2  11    0.11    0.05
   8  -3 -11    3.31    0.17
  -8   3  11    3.21    0.16
   7  -3 -11    0.61    0.08
  -7   3  11    0.57    0.08
   6  -3 -11    7.04    0.24
  -6   3  11    6.80    0.24
   5  -3 -11    2.21    0.11
  -5   3  11    2.37    0.12
   4  -3 -11    0.51    0.06
  -4   3  11    0.42    0.06
   3  -3 -11    7.54    0.23
  -3   3  11    7.56    0.24
   2  -3 -11   34.46    0.89
  -2   3  11   33.57    0.89
   1  -3 -11   42.00    1.07
  -1   3  11   41.24    1.08
   0  -3 -11    8.34    0.24
   0   3  11    8.52    0.25
   1   3  11   15.33    0.43
   2   3  11    8.21    0.25
  -3  -3 -11   35.11    0.92
   3   3  11   35.36    0.93
  -4  -3 -11    7.11    0.24
   4   3  11    6.60    0.23
  -5  -3 -11    2.33    0.14
   5   3  11    2.18    0.12
   8  -4 -11    0.14    0.06
  -8   4  11    0.18    0.06
   7  -4 -11    0.27    0.07
  -7   4  11    0.18    0.06
   6  -4 -11    2.49    0.13
  -6   4  11    2.40    0.13
   5  -4 -11    0.57    0.06
  -5   4  11    0.62    0.07
   4  -4 -11    2.67    0.12
  -4   4  11    2.62    0.12
   3  -4 -11    2.07    0.10
  -3   4  11    1.91    0.10
   2  -4 -11    0.62    0.06
  -2   4  11    0.59    0.06
   1  -4 -11    7.97    0.24
  -1   4  11    7.57    0.24
   0  -4 -11   12.54    0.35
   0   4  11   11.91    0.35
   1   4  11    0.02    0.03
   2   4  11    9.81    0.30
  -3  -4 -11    0.14    0.05
   3   4  11    0.05    0.04
  -4  -4 -11    0.08    0.05
   4   4  11    0.01    0.04
  -5  -4 -11    1.33    0.11
   5   4  11    0.93    0.09
   8  -5 -11    0.82    0.09
  -8   5  11    0.82    0.10
   7  -5 -11    3.91    0.17
  -7   5  11    3.64    0.16
   6  -5 -11    1.41    0.11
  -6   5  11    1.74    0.11
   5  -5 -11    5.21    0.19
  -5   5  11    5.14    0.16
  -5   5  11    5.13    0.19
   4  -5 -11    1.00    0.08
  -4   5  11    1.15    0.09
   3  -5 -11    7.27    0.24
  -3   5  11    7.45    0.24
   2  -5 -11   12.01    0.35
  -2   5  11   11.93    0.36
   1  -5 -11    1.57    0.09
  -1   5  11    1.55    0.10
   0  -5 -11    7.57    0.24
   0   5  11    7.74    0.25
   1   5  11   12.22    0.36
  -2  -5 -11    4.94    0.18
   2   5  11    4.91    0.19
  -3  -5 -11    1.07    0.09
   3   5  11    0.99    0.09
  -4  -5 -11    0.63    0.08
   4   5  11    0.52    0.07
   8  -6 -11    2.10    0.14
  -8   6  11    1.80    0.13
   7  -6 -11    9.37    0.31
  -7   6  11    8.89    0.31
   6  -6 -11    9.44    0.31
  -6   6  11    9.28    0.31
   5  -6 -11   15.77    0.46
  -5   6  11   15.46    0.46
   4  -6 -11    1.88    0.11
  -4   6  11    2.09    0.12
   3  -6 -11    1.54    0.10
  -3   6  11    1.65    0.10
   2  -6 -11    7.04    0.23
  -2   6  11    7.20    0.24
   1  -6 -11    6.91    0.23
  -1   6  11    6.92    0.24
   0   6  11    0.13    0.05
   1   6  11    2.13    0.12
  -2  -6 -11    0.21    0.06
   2   6  11    0.19    0.06
  -3  -6 -11    0.00    0.05
   3   6  11    0.02    0.06
   8  -7 -11    0.46    0.08
   7  -7 -11    0.99    0.10
  -7   7  11    1.12    0.11
   6  -7 -11    9.04    0.30
  -6   7  11    8.90    0.30
   5  -7 -11   17.24    0.50
  -5   7  11   16.71    0.50
   4  -7 -11    6.17    0.22
  -4   7  11    5.65    0.22
   3  -7 -11    0.30    0.06
  -3   7  11    0.23    0.06
   2  -7 -11    2.26    0.12
  -2   7  11    2.22    0.13
   1  -7 -11    0.19    0.06
  -1   7  11    0.17    0.05
   0   7  11    4.72    0.19
  -1  -7 -11    4.75    0.18
   1   7  11    4.40    0.19
  -2  -7 -11    0.72    0.08
   2   7  11    0.84    0.09
   7  -8 -11    0.33    0.07
  -7   8  11    0.21    0.07
   6  -8 -11    0.43    0.07
  -6   8  11    0.51    0.08
   5  -8 -11    0.03    0.05
  -5   8  11    0.04    0.05
   4  -8 -11    0.55    0.07
  -4   8  11    0.63    0.08
   3  -8 -11    1.60    0.11
  -3   8  11    1.85    0.12
   2  -8 -11    0.03    0.04
  -2   8  11    0.05    0.05
  -1   8  11    0.69    0.09
   0   8  11    1.21    0.11
  -1  -8 -11    1.15    0.10
   1   8  11    0.77    0.10
   6  -9 -11    0.11    0.06
  -6   9  11    0.10    0.06
   5  -9 -11    1.36    0.12
  -5   9  11    1.14    0.11
   4  -9 -11    4.77    0.20
  -4   9  11    4.90    0.21
   3  -9 -11    0.72    0.09
  -3   9  11    0.74    0.09
  -2   9  11   -0.02    0.06
  -1   9  11    4.05    0.19
   0   9  11    6.70    0.26
   4 -10 -11    0.25    0.07
  -4  10  11    0.09    0.07
  -3  10  11    3.61    0.19
   1 -10  12    0.77    0.08
   2 -10  12   12.97    0.38
   3 -10  12    0.48    0.05
  -1  -9  12    0.42    0.07
   0  -9  12    0.41    0.06
   1  -9  12    5.26    0.18
   2  -9  12    6.86    0.22
   3  -9  12    1.38    0.07
   4  -9  12    0.57    0.05
  -3  -8  12    0.09    0.05
  -2  -8  12    1.47    0.11
  -1  -8  12    4.08    0.16
   0  -8  12    0.89    0.08
   1  -8  12    0.60    0.06
   2  -8  12    0.52    0.05
   3  -8  12    4.90    0.15
   4  -8  12    0.54    0.04
  -6   8 -12    0.15    0.06
  -4  -7  12    1.19    0.11
  -3  -7  12    0.58    0.08
  -2  -7  12    8.80    0.28
  -1  -7  12    2.06    0.11
   0  -7  12    1.34    0.08
   1  -7  12    0.97    0.06
   2  -7  12    7.46    0.22
  -3   7 -12    2.17    0.09
   3  -7  12    2.28    0.08
  -4   7 -12    0.52    0.06
  -5   7 -12    7.30    0.23
  -5   7 -12    7.56    0.27
  -6   7 -12    1.12    0.08
  -6   7 -12    1.47    0.11
  -4  -6  12   12.94    0.40
  -3  -6  12   13.96    0.42
  -2  -6  12    4.82    0.18
  -1  -6  12    1.08    0.08
   0  -6  12    3.52    0.13
   1  -6  12    8.12    0.23
   2  -6  12    3.23    0.11
  -3   6 -12    0.82    0.06
  -4   6 -12    7.22    0.23
  -4   6 -12    7.72    0.26
  -5   6 -12    1.63    0.11
  -5   6 -12    1.46    0.09
  -6   6 -12    1.84    0.12
  -6   6 -12    1.66    0.10
  -7   6 -12    0.77    0.09
  -5  -5  12    0.21    0.06
  -4  -5  12    1.93    0.12
  -3  -5  12    4.82    0.18
  -2  -5  12    7.70    0.24
  -1  -5  12    0.10    0.03
   0  -5  12    8.28    0.24
   1  -5  12    0.21    0.03
   2  -5  12    0.40    0.03
   2  -5  12    0.43    0.03
  -3   5 -12    0.06    0.04
  -3   5 -12    0.04    0.03
  -4   5 -12    9.09    0.29
  -4   5 -12    8.92    0.27
  -5   5 -12    6.32    0.21
  -5   5 -12    6.18    0.23
  -6   5 -12    0.26    0.06
  -6   5 -12    0.29    0.06
  -7   5 -12    1.18    0.10
  -6  -4  12    0.04    0.06
  -5  -4  12    0.06    0.04
  -4  -4  12    1.82    0.11
  -3  -4  12    6.44    0.22
  -2  -4  12    0.72    0.06
  -1  -4  12    2.90    0.11
   0  -4  12    0.56    0.05
   1  -4  12    6.19    0.18
   1  -4  12    6.45    0.18
   2  -4  12    1.27    0.05
   2  -4  12    1.31    0.05
  -3   4 -12    0.30    0.05
  -4   4 -12    1.64    0.10
  -4   4 -12    1.82    0.09
  -5   4 -12   10.08    0.33
  -5   4 -12   10.38    0.31
  -6   4 -12    1.67    0.11
  -7   4 -12    0.15    0.06
  -6  -3  12    0.10    0.05
  -5  -3  12    3.05    0.15
  -4  -3  12    0.24    0.05
  -3  -3  12    7.34    0.24
  -2  -3  12    2.28    0.10
  -1  -3  12    1.23    0.07
  -1  -3  12    1.18    0.07
   0  -3  12   31.27    0.79
   0  -3  12   29.71    0.79
   1  -3  12   13.45    0.37
   1  -3  12   14.26    0.37
  -2   3 -12    0.21    0.04
   2  -3  12    0.21    0.02
   2  -3  12    0.19    0.02
  -3   3 -12    0.71    0.07
  -4   3 -12   12.67    0.38
  -4   3 -12   12.65    0.36
  -5   3 -12    2.03    0.11
  -6   3 -12    0.35    0.06
   6  -3  12    0.29    0.03
  -7   3 -12    1.56    0.12
   7  -3  12    1.56    0.07
  -7  -2  12    0.56    0.09
  -6  -2  12    7.65    0.27
  -5  -2  12    1.08    0.09
   4   2 -12   13.48    0.39
  -4  -2  12   13.25    0.39
   3   2 -12    2.68    0.11
  -3  -2  12    2.56    0.12
   2   2 -12   24.94    0.65
  -2  -2  12   24.40    0.66
  -2  -2  12   25.46    0.68
   1   2 -12   25.62    0.67
  -1  -2  12   26.08    0.68
  -1  -2  12   26.20    0.70
  -1  -2  12   25.33    0.68
   0  -2  12   51.27    1.26
   0  -2  12   47.51    1.25
   1  -2  12   16.32    0.44
   1  -2  12   17.41    0.44
  -2   2 -12   15.58    0.44
   2  -2  12   16.29    0.41
   2  -2  12   15.43    0.41
  -3   2 -12   14.81    0.43
   3  -2  12   14.89    0.39
   3  -2  12   15.07    0.39
  -4   2 -12   18.85    0.53
   4  -2  12   19.40    0.49
   4  -2  12   19.40    0.49
  -5   2 -12    3.74    0.16
   5  -2  12    3.84    0.12
  -6   2 -12    0.01    0.05
   6  -2  12    0.01    0.03
   7  -2  12    0.04    0.04
  -7  -1  12    0.95    0.10
   6   1 -12    0.46    0.07
  -6  -1  12    0.50    0.08
   5   1 -12    8.58    0.27
  -5  -1  12    8.18    0.28
   4   1 -12   11.99    0.35
  -4  -1  12   11.86    0.36
   3   1 -12    0.03    0.03
  -3  -1  12    0.01    0.03
   2   1 -12    0.30    0.04
  -2  -1  12    0.27    0.04
  -2  -1  12    0.29    0.03
   1   1 -12   16.50    0.43
  -1  -1  12   15.85    0.44
  -1  -1  12   16.62    0.44
   0  -1  12   23.10    0.58
   0  -1  12   21.12    0.58
   1  -1  12    1.65    0.07
   1  -1  12    1.80    0.07
  -2   1 -12    2.52    0.10
   2  -1  12    2.56    0.09
   2  -1  12    2.55    0.09
   3  -1  12    3.64    0.11
   3  -1  12    3.64    0.11
  -4   1 -12    4.73    0.18
   4  -1  12    4.75    0.14
  -5   1 -12    2.28    0.13
   5  -1  12    2.31    0.09
  -6   1 -12   -0.05    0.05
   6  -1  12    0.02    0.03
   7   0 -12   10.90    0.35
  -7   0  12   10.33    0.35
   6   0 -12    2.03    0.12
  -6   0  12    2.07    0.12
   5   0 -12    0.00    0.04
  -5   0  12   -0.02    0.04
   4   0 -12    3.49    0.14
  -4   0  12    3.43    0.14
   3   0 -12    1.08    0.07
  -3   0  12    1.07    0.07
   2   0 -12    2.18    0.09
  -2   0  12    2.09    0.07
  -2   0  12    1.99    0.09
   1   0 -12    6.13    0.18
  -1   0  12    6.29    0.19
  -1   0  12    5.69    0.19
   0   0  12    4.10    0.14
   0   0  12    4.22    0.14
   1   0  12    0.47    0.04
   1   0  12    0.47    0.04
   2   0  12    3.63    0.12
   2   0  12    3.67    0.12
   3   0  12   14.23    0.38
  -4   0 -12    1.10    0.09
   4   0  12    1.05    0.06
  -5   0 -12    0.31    0.06
   5   0  12    0.29    0.04
  -6   0 -12    0.09    0.06
   6   0  12    0.10    0.04
   8  -1 -12    4.49    0.20
  -8   1  12    4.37    0.20
   7  -1 -12    0.11    0.05
  -7   1  12    0.13    0.06
   6  -1 -12    5.23    0.20
  -6   1  12    4.97    0.20
   5  -1 -12    1.33    0.09
  -5   1  12    1.26    0.09
   4  -1 -12    1.44    0.08
  -4   1  12    1.44    0.09
   3  -1 -12    1.45    0.08
  -3   1  12    1.48    0.08
   2  -1 -12   11.20    0.31
  -2   1  12   11.19    0.32
   1  -1 -12   11.91    0.32
  -1   1  12   12.26    0.33
  -1   1  12   11.11    0.33
   0  -1 -12    1.46    0.06
   0   1  12    1.30    0.07
   0   1  12    1.45    0.07
  -1  -1 -12    0.17    0.02
   1   1  12    0.20    0.03
   1   1  12    0.18    0.03
   2   1  12    0.18    0.03
  -3  -1 -12    7.05    0.24
   3   1  12    7.35    0.22
  -4  -1 -12    3.78    0.16
   4   1  12    3.59    0.13
  -5  -1 -12    0.46    0.07
   5   1  12    0.49    0.06
  -6  -1 -12    1.17    0.11
   6   1  12    1.09    0.09
   8  -2 -12    2.32    0.15
  -8   2  12    2.22    0.14
   7  -2 -12    0.80    0.09
  -7   2  12    0.94    0.10
   6  -2 -12   -0.02    0.04
  -6   2  12   -0.04    0.04
   5  -2 -12   14.63    0.42
  -5   2  12   14.63    0.43
   4  -2 -12    9.52    0.29
  -4   2  12    9.37    0.29
   3  -2 -12    1.07    0.07
  -3   2  12    1.13    0.08
   2  -2 -12    5.47    0.17
  -2   2  12    5.36    0.18
   1  -2 -12    0.01    0.02
  -1   2  12   -0.03    0.02
   0  -2 -12    5.79    0.17
   0   2  12    5.66    0.18
   1   2  12    2.18    0.10
   2   2  12   34.45    0.90
  -3  -2 -12   24.87    0.67
   3   2  12   25.15    0.67
  -4  -2 -12    0.52    0.07
   4   2  12    0.59    0.06
  -5  -2 -12    6.14    0.23
   5   2  12    6.27    0.21
   8  -3 -12    1.60    0.13
  -8   3  12    1.82    0.13
   7  -3 -12    0.44    0.08
  -7   3  12    0.45    0.07
   6  -3 -12    5.17    0.20
  -6   3  12    4.97    0.20
   5  -3 -12    1.01    0.08
  -5   3  12    0.87    0.08
   4  -3 -12    3.80    0.15
  -4   3  12    3.92    0.15
   3  -3 -12    6.88    0.22
  -3   3  12    6.62    0.22
   2  -3 -12   30.76    0.79
  -2   3  12   29.14    0.79
   1  -3 -12    0.13    0.03
  -1   3  12    0.09    0.04
   0   3  12    0.97    0.07
   1   3  12    5.68    0.19
   2   3  12   12.01    0.35
  -3  -3 -12    1.69    0.11
   3   3  12    1.91    0.10
  -4  -3 -12    1.82    0.12
   4   3  12    1.48    0.10
  -5  -3 -12    0.08    0.06
   5   3  12    0.05    0.05
   8  -4 -12    2.12    0.14
  -8   4  12    1.86    0.13
   7  -4 -12    3.62    0.17
  -7   4  12    3.72    0.17
   6  -4 -12    0.05    0.05
  -6   4  12    0.20    0.06
   5  -4 -12   23.65    0.64
  -5   4  12   22.17    0.63
   4  -4 -12   23.65    0.64
  -4   4  12   23.42    0.65
   3  -4 -12    0.25    0.05
  -3   4  12    0.33    0.05
   2  -4 -12    3.78    0.14
  -2   4  12    3.70    0.15
   1  -4 -12    5.45    0.18
  -1   4  12    5.45    0.19
   0   4  12    0.65    0.06
   1   4  12    1.37    0.09
   2   4  12    1.26    0.09
  -3  -4 -12    0.36    0.06
   3   4  12    0.34    0.06
  -4  -4 -12    0.38    0.07
   4   4  12    0.31    0.06
   8  -5 -12    0.12    0.06
  -8   5  12    0.14    0.06
   7  -5 -12    1.39    0.12
  -7   5  12    1.21    0.10
   6  -5 -12    3.05    0.15
  -6   5  12    3.09    0.15
   5  -5 -12    0.83    0.08
  -5   5  12    0.68    0.08
   4  -5 -12    0.11    0.04
  -4   5  12    0.08    0.04
   3  -5 -12   11.40    0.34
  -3   5  12   11.21    0.34
   2  -5 -12   14.00    0.40
  -2   5  12   13.32    0.40
   1  -5 -12    8.26    0.27
  -1   5  12    7.96    0.26
   0   5  12    9.38    0.30
   1   5  12    0.02    0.04
  -2  -5 -12    1.17    0.10
   2   5  12    0.95    0.09
  -3  -5 -12    0.68    0.08
   3   5  12    0.75    0.08
  -4  -5 -12    3.66    0.17
   4   5  12    3.48    0.17
   8  -6 -12    2.01    0.15
  -8   6  12    1.89    0.13
   7  -6 -12    5.16    0.21
  -7   6  12    5.07    0.21
   6  -6 -12    4.91    0.20
  -6   6  12    4.90    0.20
   5  -6 -12    2.63    0.14
  -5   6  12    2.69    0.14
   4  -6 -12    1.18    0.09
  -4   6  12    1.30    0.10
   3  -6 -12   12.46    0.37
  -3   6  12   12.46    0.38
   2  -6 -12   13.62    0.40
  -2   6  12   13.48    0.40
  -1   6  12    5.83    0.21
   0   6  12    0.02    0.04
   1   6  12    2.17    0.13
  -2  -6 -12    5.97    0.21
   2   6  12    5.46    0.22
  -3  -6 -12    0.34    0.07
   3   6  12    0.36    0.07
   7  -7 -12    1.08    0.10
  -7   7  12    1.17    0.11
   6  -7 -12    4.08    0.18
  -6   7  12    3.89    0.18
   5  -7 -12    0.05    0.05
  -5   7  12    0.10    0.05
   4  -7 -12    2.61    0.13
  -4   7  12    2.41    0.14
   3  -7 -12    0.88    0.08
  -3   7  12    0.98    0.09
  -2   7  12    6.93    0.25
  -1   7  12    1.38    0.11
   0   7  12    3.86    0.18
  -1  -7 -12    0.61    0.08
   1   7  12    0.69    0.09
  -2  -7 -12    0.49    0.08
   2   7  12    0.57    0.09
   7  -8 -12    3.22    0.17
  -7   8  12    3.22    0.17
   6  -8 -12    0.06    0.05
  -6   8  12    0.06    0.05
   5  -8 -12    1.53    0.12
  -5   8  12    1.70    0.12
   4  -8 -12    4.16    0.18
  -4   8  12    3.98    0.18
   3  -8 -12    7.05    0.26
  -3   8  12    7.63    0.27
  -2   8  12    7.13    0.26
  -1   8  12    1.81    0.13
   0   8  12    4.02    0.19
  -1  -8 -12    2.24    0.13
   1   8  12    2.14    0.15
   5  -9 -12    2.53    0.15
  -5   9  12    2.63    0.16
   4  -9 -12    1.24    0.11
  -4   9  12    1.18    0.11
  -3   9  12    1.44    0.12
  -2   9  12    3.19    0.17
  -1   9  12    2.99    0.17
   0  -9  13    2.23    0.12
   1  -9  13    0.06    0.04
   2  -9  13    0.31    0.05
   3  -9  13    2.52    0.10
   4  -9  13    0.55    0.05
  -2  -8  13    2.68    0.14
  -1  -8  13    0.04    0.04
   0  -8  13    1.00    0.08
   1  -8  13    0.37    0.05
   2  -8  13    3.31    0.12
   3  -8  13    0.04    0.03
  -3  -7  13    0.59    0.08
  -2  -7  13    0.05    0.04
  -1  -7  13   10.85    0.33
   0  -7  13   13.39    0.38
   1  -7  13    3.65    0.13
   2  -7  13    1.51    0.07
  -3   7 -13    3.83    0.14
   3  -7  13    3.91    0.12
  -4   7 -13    1.78    0.09
  -5   7 -13    4.94    0.20
  -5   7 -13    4.92    0.18
  -6   7 -13    0.89    0.08
  -6   7 -13    0.78    0.09
  -4  -6  13    0.01    0.05
  -3  -6  13    6.18    0.22
  -2  -6  13    3.81    0.15
  -1  -6  13    9.21    0.28
   0  -6  13    2.15    0.10
   1  -6  13   11.00    0.31
   2  -6  13   15.06    0.40
  -3   6 -13    2.28    0.10
  -4   6 -13   -0.02    0.04
  -4   6 -13    0.06    0.04
  -5   6 -13    0.96    0.09
  -5   6 -13    0.97    0.08
  -6   6 -13    4.72    0.20
  -6   6 -13    4.82    0.18
  -5  -5  13    0.52    0.08
  -4  -5  13    0.07    0.05
  -3  -5  13    1.68    0.10
  -2  -5  13    1.64    0.09
  -1  -5  13    0.03    0.03
   0  -5  13    2.34    0.10
   1  -5  13   30.93    0.80
   2  -5  13    0.08    0.02
   2  -5  13    0.07    0.02
  -3   5 -13    5.10    0.17
  -4   5 -13    1.61    0.10
  -4   5 -13    1.44    0.09
  -5   5 -13    5.87    0.21
  -5   5 -13    5.90    0.22
  -6   5 -13    1.15    0.10
  -6   5 -13    1.16    0.10
  -5  -4  13    0.09    0.05
  -4  -4  13    1.48    0.10
  -3  -4  13   18.34    0.52
  -2  -4  13    0.52    0.06
  -1  -4  13    9.33    0.27
   0  -4  13    3.45    0.12
   1  -4  13    5.36    0.16
   1  -4  13    5.74    0.17
   2  -4  13    3.15    0.09
   2  -4  13    3.05    0.10
  -3   4 -13    0.77    0.07
  -4   4 -13   12.58    0.37
  -4   4 -13   12.98    0.39
  -5   4 -13    0.09    0.05
  -5   4 -13    0.16    0.05
  -6   4 -13    0.92    0.09
  -6   4 -13    0.73    0.08
  -6  -3  13    0.77    0.09
  -5  -3  13    1.13    0.11
  -4  -3  13    0.03    0.04
  -3  -3  13   11.29    0.34
  -2  -3  13    3.09    0.13
  -1  -3  13    4.03    0.14
   0  -3  13    6.64    0.20
   1  -3  13    3.94    0.12
   1  -3  13    3.96    0.12
   2  -3  13   37.69    0.94
   2  -3  13   36.74    0.94
  -3   3 -13    4.94    0.17
  -4   3 -13    2.10    0.11
  -4   3 -13    1.90    0.11
  -5   3 -13    1.41    0.10
  -6   3 -13   19.27    0.55
  -6  -2  13    0.75    0.09
  -5  -2  13    0.94    0.09
  -4  -2  13    0.97    0.09
  -3  -2  13   12.95    0.38
  -2  -2  13    5.97    0.20
  -2  -2  13    6.16    0.19
  -1  -2  13    5.74    0.18
   0  -2  13    1.44    0.07
   0  -2  13    1.44    0.07
   1  -2  13    7.62    0.22
   1  -2  13    7.67    0.22
  -2   2 -13    3.38    0.12
   2  -2  13    3.11    0.10
   2  -2  13    3.20    0.10
  -3   2 -13   15.69    0.46
   3  -2  13   16.17    0.42
   3  -2  13   16.61    0.42
  -4   2 -13   13.26    0.39
   4  -2  13   13.63    0.35
  -5   2 -13    0.98    0.09
   5  -2  13    0.87    0.05
  -6   2 -13    0.91    0.09
   6  -2  13    0.91    0.06
  -7  -1  13    9.96    0.34
  -6  -1  13    2.47    0.14
  -5  -1  13    3.00    0.14
  -4  -1  13    8.91    0.29
  -3  -1  13   18.47    0.51
  -2  -1  13    0.24    0.04
  -2  -1  13    0.26    0.03
  -1  -1  13    0.00    0.02
   0  -1  13    4.22    0.14
   0  -1  13    4.12    0.14
   1  -1  13    6.64    0.19
   1  -1  13    6.63    0.19
  -2   1 -13    0.64    0.05
   2  -1  13    0.66    0.04
   2  -1  13    0.67    0.05
  -3   1 -13    5.05    0.17
   3  -1  13    5.11    0.15
  -4   1 -13    0.09    0.05
   4  -1  13    0.13    0.03
  -5   1 -13    0.33    0.06
   5  -1  13    0.29    0.04
  -6   1 -13   -0.01    0.06
   6  -1  13    0.05    0.03
  -7   0  13    1.68    0.13
  -6   0  13    0.91    0.09
   5   0 -13    0.12    0.05
  -5   0  13    0.05    0.05
   4   0 -13   13.97    0.40
  -4   0  13   13.81    0.41
   3   0 -13    1.80    0.09
  -3   0  13    1.91    0.10
   2   0 -13    5.86    0.19
  -2   0  13    5.98    0.19
  -1   0  13   15.36    0.42
   0   0  13   10.05    0.28
   1   0  13    2.33    0.09
  -2   0 -13    0.27    0.03
   2   0  13    0.15    0.03
   3   0  13    9.11    0.26
  -4   0 -13    6.90    0.24
   4   0  13    6.99    0.21
  -5   0 -13    0.03    0.05
   5   0  13    0.06    0.04
   6   0  13    1.26    0.09
   7  -1 -13    2.76    0.16
  -7   1  13    2.78    0.15
   6  -1 -13    0.16    0.05
  -6   1  13    0.13    0.05
   5  -1 -13    0.35    0.06
  -5   1  13    0.23    0.05
   4  -1 -13    1.42    0.09
  -4   1  13    1.49    0.09
   3  -1 -13    1.38    0.08
  -3   1  13    1.47    0.09
   2  -1 -13    0.80    0.06
  -2   1  13    0.71    0.06
  -1   1  13   20.66    0.55
   0   1  13    0.41    0.05
   1   1  13   10.10    0.29
   2   1  13    3.19    0.12
  -3  -1 -13    0.42    0.06
   3   1  13    0.54    0.05
  -4  -1 -13    8.73    0.28
   4   1  13    8.53    0.26
  -5  -1 -13    0.49    0.08
   5   1  13    0.40    0.05
   8  -2 -13    0.40    0.08
  -8   2  13    0.40    0.08
   7  -2 -13    0.29    0.06
  -7   2  13    0.37    0.07
   6  -2 -13    0.35    0.06
  -6   2  13    0.43    0.07
   5  -2 -13    2.77    0.13
  -5   2  13    2.44    0.13
   4  -2 -13   10.00    0.30
  -4   2  13    9.85    0.31
   3  -2 -13    0.46    0.05
  -3   2  13    0.43    0.05
   2  -2 -13    0.17    0.04
  -2   2  13    0.09    0.04
  -1   2  13    8.82    0.27
   0   2  13   17.34    0.48
   1   2  13    3.36    0.13
   2   2  13    0.81    0.07
  -3  -2 -13    4.22    0.17
   3   2  13    4.36    0.16
  -4  -2 -13    1.39    0.11
   4   2  13    1.17    0.09
  -5  -2 -13    4.75    0.20
   5   2  13    4.70    0.18
   8  -3 -13    0.54    0.09
  -8   3  13    0.49    0.08
   7  -3 -13    0.27    0.07
  -7   3  13    0.30    0.07
   6  -3 -13    2.62    0.14
  -6   3  13    2.68    0.14
   5  -3 -13   25.13    0.69
  -5   3  13   24.82    0.69
   4  -3 -13    0.00    0.04
  -4   3  13   -0.02    0.04
   3  -3 -13    1.59    0.09
  -3   3  13    1.54    0.09
   2  -3 -13    8.12    0.24
  -2   3  13    7.70    0.25
  -1   3  13   59.02    1.52
   0   3  13    6.55    0.21
   1   3  13    2.66    0.12
   2   3  13    5.46    0.19
  -3  -3 -13   15.39    0.44
   3   3  13   14.98    0.43
  -4  -3 -13    1.85    0.12
   4   3  13    1.50    0.10
   8  -4 -13    0.10    0.06
  -8   4  13    0.07    0.05
   7  -4 -13    0.25    0.07
  -7   4  13    0.23    0.06
   6  -4 -13    6.81    0.24
  -6   4  13    6.66    0.24
   5  -4 -13   11.72    0.36
  -5   4  13   11.32    0.36
   4  -4 -13    5.50    0.20
  -4   4  13    5.51    0.20
   3  -4 -13    0.16    0.04
  -3   4  13    0.16    0.05
   2  -4 -13   19.26    0.54
  -2   4  13   18.76    0.53
  -1   4  13    9.91    0.30
   0   4  13    0.00    0.04
   1   4  13    0.89    0.08
   2   4  13    1.64    0.10
  -3  -4 -13    0.01    0.05
   3   4  13    0.02    0.04
  -4  -4 -13    1.43    0.12
   4   4  13    1.59    0.11
   7  -5 -13    0.15    0.06
  -7   5  13    0.18    0.06
   6  -5 -13    3.68    0.17
  -6   5  13    3.45    0.16
   5  -5 -13    2.05    0.12
  -5   5  13    1.64    0.11
   4  -5 -13   10.94    0.33
  -4   5  13   10.79    0.34
   3  -5 -13    0.20    0.05
  -3   5  13    0.27    0.06
  -2   5  13    0.12    0.04
  -1   5  13    0.60    0.07
   0   5  13    1.89    0.11
   1   5  13    5.03    0.19
  -2  -5 -13    1.83    0.12
   2   5  13    1.74    0.12
  -3  -5 -13    0.56    0.08
   3   5  13    0.60    0.08
   7  -6 -13    0.19    0.06
  -7   6  13    0.17    0.07
   6  -6 -13    0.15    0.06
  -6   6  13    0.12    0.06
   5  -6 -13    2.27    0.13
  -5   6  13    2.18    0.13
   4  -6 -13    0.64    0.08
  -4   6  13    0.61    0.08
   3  -6 -13    0.05    0.04
  -3   6  13   -0.02    0.04
  -2   6  13    2.67    0.14
  -1   6  13    0.00    0.04
   0   6  13    0.47    0.07
   1   6  13    1.16    0.10
  -2  -6 -13    5.59    0.21
   2   6  13    5.49    0.22
   7  -7 -13    0.41    0.08
  -7   7  13    0.50    0.08
   6  -7 -13    2.05    0.13
  -6   7  13    2.09    0.14
   5  -7 -13    2.14    0.13
  -5   7  13    1.87    0.13
   4  -7 -13    0.13    0.05
  -4   7  13    0.22    0.06
  -3   7  13    6.20    0.23
  -2   7  13    0.00    0.05
  -1   7  13    0.06    0.05
   0   7  13    0.17    0.06
  -1  -7 -13   26.51    0.72
   1   7  13   26.01    0.74
   6  -8 -13    0.04    0.06
  -6   8  13    0.04    0.06
   5  -8 -13    1.60    0.12
  -5   8  13    1.59    0.13
  -4   8  13    1.04    0.10
  -3   8  13    5.45    0.22
  -2   8  13    8.86    0.31
  -1   8  13    0.40    0.08
   0   8  13    3.34    0.18
  -4   9  13    4.51    0.21
  -3   9  13    0.62    0.09
   1  -9  14    8.09    0.26
   2  -9  14    3.80    0.14
   3  -9  14    0.67    0.06
  -1  -8  14    0.11    0.05
   0  -8  14    0.32    0.05
   1  -8  14    0.16    0.04
   2  -8  14    0.02    0.03
   3  -8  14    2.90    0.10
  -3  -7  14    0.61    0.08
  -2  -7  14    0.01    0.04
  -1  -7  14    5.85    0.21
   0  -7  14    0.11    0.04
   1  -7  14    0.93    0.07
   2  -7  14    0.17    0.03
  -3   7 -14   12.67    0.36
  -4   7 -14    0.89    0.07
  -5   7 -14    1.27    0.09
  -4  -6  14    1.33    0.11
  -3  -6  14    2.57    0.14
  -2  -6  14    0.43    0.06
  -1  -6  14   -0.03    0.03
   0  -6  14    0.19    0.04
   1  -6  14    0.67    0.06
   2  -6  14    4.89    0.15
  -3   6 -14    5.91    0.20
  -4   6 -14    3.52    0.14
  -5   6 -14    5.65    0.20
  -5   6 -14    5.56    0.22
  -4  -5  14    0.19    0.06
  -3  -5  14    0.35    0.06
  -2  -5  14   15.16    0.44
  -1  -5  14    4.14    0.15
   0  -5  14    5.65    0.18
   1  -5  14    2.30    0.09
   2  -5  14    5.38    0.16
  -3   5 -14   14.36    0.41
  -4   5 -14   15.16    0.46
  -4   5 -14   15.11    0.43
  -5   5 -14    3.39    0.15
  -5   5 -14    3.26    0.14
  -6   5 -14    1.70    0.12
  -6   5 -14    2.00    0.12
  -5  -4  14    0.56    0.08
  -4  -4  14    0.12    0.05
  -3  -4  14    0.29    0.06
  -2  -4  14    0.91    0.08
  -1  -4  14    0.09    0.04
   0  -4  14    2.94    0.11
   1  -4  14    1.40    0.07
   2  -4  14    6.69    0.18
   2  -4  14    6.55    0.18
  -4   4 -14    0.07    0.04
  -4   4 -14    0.06    0.04
  -5   4 -14    0.43    0.07
  -5   4 -14    0.35    0.06
  -6   4 -14    2.84    0.14
  -6   4 -14    2.94    0.15
  -6  -3  14    0.78    0.10
  -5  -3  14    0.86    0.10
  -4  -3  14    4.85    0.19
  -3  -3  14   19.64    0.55
  -2  -3  14    1.33    0.08
  -1  -3  14    4.64    0.16
   0  -3  14    2.87    0.11
   1  -3  14    6.03    0.18
   2  -3  14    0.81    0.04
   2  -3  14    0.85    0.04
  -3   3 -14   -0.01    0.03
  -4   3 -14    0.34    0.06
  -4   3 -14    0.34    0.05
  -5   3 -14    4.86    0.19
  -5   3 -14    5.09    0.19
  -6   3 -14    1.16    0.10
  -6  -2  14    5.89    0.24
  -5  -2  14    6.54    0.24
  -4  -2  14    0.20    0.05
  -3  -2  14    0.15    0.05
  -2  -2  14   13.62    0.39
  -1  -2  14   21.24    0.57
   0  -2  14    2.36    0.09
   1  -2  14    1.05    0.06
   2  -2  14    5.45    0.16
   2  -2  14    5.41    0.16
  -3   2 -14    2.60    0.11
   3  -2  14    2.68    0.09
  -4   2 -14    1.74    0.10
  -4   2 -14    1.84    0.11
   4  -2  14    1.76    0.07
  -5   2 -14    1.57    0.11
   5  -2  14    1.38    0.06
  -6   2 -14    0.06    0.06
   6  -2  14    0.09    0.03
  -6  -1  14    4.87    0.21
  -5  -1  14    3.61    0.16
  -4  -1  14   16.04    0.47
  -3  -1  14    0.45    0.06
  -2  -1  14    3.17    0.13
  -1  -1  14    5.82    0.19
   0  -1  14   23.95    0.63
   1  -1  14    1.52    0.07
  -2   1 -14    0.02    0.03
   2  -1  14    0.01    0.02
  -3   1 -14    7.10    0.22
   3  -1  14    6.91    0.20
  -4   1 -14    0.16    0.05
   4  -1  14    0.14    0.03
  -5   1 -14   10.94    0.35
   5  -1  14   11.07    0.31
  -7   0  14    0.72    0.09
  -6   0  14    0.08    0.05
  -5   0  14    0.54    0.07
  -4   0  14    0.13    0.05
  -3   0  14    0.17    0.04
  -2   0  14    3.83    0.14
  -1   0  14    2.73    0.11
   0   0  14   13.65    0.38
   1   0  14    3.23    0.12
  -2   0 -14    0.04    0.02
   2   0  14    0.05    0.03
   3   0  14    0.75    0.06
  -4   0 -14    1.03    0.09
   4   0  14    1.09    0.07
  -5   0 -14    2.95    0.15
   5   0  14    2.93    0.12
  -7   1  14    1.91    0.13
  -6   1  14    0.05    0.05
  -5   1  14    3.96    0.17
  -4   1  14    8.48    0.27
  -3   1  14    2.31    0.11
  -2   1  14    0.24    0.04
  -1   1  14    7.90    0.24
   0   1  14   12.06    0.34
   1   1  14    1.15    0.07
   2   1  14    4.34    0.15
   3   1  14    3.60    0.13
  -4  -1 -14    2.09    0.13
   4   1  14    2.27    0.10
  -5  -1 -14    0.35    0.07
   5   1  14    0.29    0.05
  -7   2  14    0.69    0.09
  -6   2  14    0.07    0.05
  -5   2  14    0.08    0.05
  -4   2  14    3.58    0.16
  -3   2  14    1.46    0.09
  -2   2  14    2.08    0.10
  -1   2  14    8.28    0.26
   0   2  14    8.05    0.25
   1   2  14   25.85    0.69
   2   2  14    8.88    0.27
  -3  -2 -14    4.12    0.18
   3   2  14    4.12    0.16
  -4  -2 -14    3.25    0.16
   4   2  14    3.14    0.14
  -7   3  14    1.82    0.13
  -6   3  14    2.48    0.14
  -5   3  14    0.02    0.05
  -4   3  14   18.68    0.53
  -3   3  14    8.35    0.27
  -2   3  14   12.71    0.37
  -1   3  14    2.11    0.11
   0   3  14    2.10    0.11
   1   3  14    4.48    0.17
   2   3  14   19.34    0.54
  -3  -3 -14    7.51    0.26
   3   3  14    7.39    0.24
  -4  -3 -14    0.11    0.06
   4   3  14    0.11    0.05
  -7   4  14    0.14    0.06
  -6   4  14    3.07    0.15
  -5   4  14    2.03    0.12
  -4   4  14    0.40    0.06
  -3   4  14    0.97    0.09
  -2   4  14    2.25    0.12
  -1   4  14    0.60    0.07
   0   4  14    2.22    0.12
   1   4  14    0.50    0.06
   2   4  14    1.43    0.10
  -3  -4 -14    1.18    0.10
   3   4  14    0.86    0.09
  -7   5  14    0.72    0.09
  -6   5  14    0.00    0.05
  -5   5  14   17.03    0.50
  -4   5  14    1.65    0.11
  -3   5  14    0.86    0.08
  -2   5  14    4.43    0.18
  -1   5  14    0.34    0.06
   0   5  14    1.47    0.11
   1   5  14    0.15    0.06
  -2  -5 -14    8.91    0.30
   2   5  14    8.87    0.30
  -7   6  14    2.23    0.15
  -6   6  14    1.52    0.12
  -5   6  14    0.08    0.06
  -4   6  14    1.60    0.12
  -3   6  14    2.10    0.13
  -2   6  14    2.03    0.13
  -1   6  14    0.19    0.06
   0   6  14    0.53    0.08
   1   6  14    1.48    0.12
  -2  -6 -14    0.25    0.07
   2   6  14    0.18    0.07
  -6   7  14    6.19    0.25
  -5   7  14    1.62    0.13
  -4   7  14    0.20    0.06
  -3   7  14    0.32    0.07
  -2   7  14    5.76    0.23
  -1   7  14    7.68    0.28
   0   7  14    2.62    0.16
  -5   8  14    0.29    0.08
  -4   8  14    0.42    0.08
  -3   8  14    1.11    0.11
  -2   8  14   12.30    0.40
  -1   8  14    1.74    0.14
   0  -8  15    1.63    0.10
   1  -8  15    0.02    0.03
   2  -8  15    2.31    0.10
   3  -8  15    4.47    0.14
  -2  -7  15    0.96    0.09
  -1  -7  15    1.38    0.10
   0  -7  15    0.06    0.04
   1  -7  15    0.03    0.03
   2  -7  15    0.08    0.03
  -3  -6  15    0.46    0.07
  -2  -6  15    3.34    0.15
  -1  -6  15    3.66    0.15
   0  -6  15   13.77    0.39
   1  -6  15    1.34    0.07
   2  -6  15    9.19    0.26
  -3   6 -15    1.98    0.10
  -4   6 -15    0.82    0.08
  -5   6 -15    7.30    0.27
  -5   6 -15    7.54    0.25
  -4  -5  15    0.04    0.05
  -3  -5  15    7.39    0.26
  -2  -5  15    1.62    0.10
  -1  -5  15   12.97    0.38
   0  -5  15    1.07    0.07
   1  -5  15    1.79    0.08
   2  -5  15    1.90    0.07
  -3   5 -15    1.44    0.09
  -4   5 -15    1.57    0.10
  -5   5 -15    0.03    0.04
  -5   5 -15   -0.02    0.04
  -5  -4  15   11.21    0.37
  -4  -4  15    5.41    0.21
  -3  -4  15    0.82    0.08
  -2  -4  15    0.09    0.04
  -1  -4  15    5.08    0.18
   0  -4  15   16.22    0.44
   1  -4  15    6.74    0.20
   2  -4  15    2.54    0.09
  -4   4 -15    0.87    0.08
  -4   4 -15    0.92    0.08
  -5   4 -15    2.17    0.12
  -5   4 -15    2.17    0.12
  -5  -3  15    1.69    0.13
  -4  -3  15    0.19    0.06
  -3  -3  15    3.40    0.15
  -2  -3  15   11.75    0.35
  -1  -3  15    0.54    0.06
   0  -3  15    3.80    0.13
   1  -3  15    0.62    0.05
   2  -3  15    8.76    0.24
  -3   3 -15    1.95    0.10
  -4   3 -15    5.20    0.19
  -4   3 -15    5.13    0.20
  -5   3 -15    0.97    0.09
  -5   3 -15    0.77    0.08
  -6  -2  15    2.94    0.17
  -5  -2  15    0.02    0.05
  -4  -2  15    0.48    0.07
  -3  -2  15    7.87    0.26
  -2  -2  15    8.77    0.27
  -1  -2  15    2.04    0.10
   0  -2  15    4.66    0.15
   1  -2  15    5.93    0.18
   2  -2  15   20.40    0.53
  -3   2 -15    4.57    0.16
   3  -2  15    4.54    0.13
  -4   2 -15    4.89    0.19
  -4   2 -15    4.69    0.19
   4  -2  15    5.38    0.15
  -5   2 -15    0.26    0.06
  -6  -1  15    0.28    0.07
  -5  -1  15    2.63    0.14
  -4  -1  15    0.09    0.05
  -3  -1  15    4.92    0.18
  -2  -1  15    0.01    0.03
  -1  -1  15    0.12    0.04
   0  -1  15    3.56    0.13
   1  -1  15    1.11    0.06
   2  -1  15    1.48    0.07
   3  -1  15    6.71    0.20
  -4   1 -15    5.91    0.22
   4  -1  15    6.13    0.18
  -5   1 -15    4.85    0.20
   5  -1  15    4.40    0.15
  -6   0  15    1.13    0.11
  -5   0  15    0.06    0.05
  -4   0  15    2.74    0.13
  -3   0  15   16.20    0.46
  -2   0  15   15.44    0.44
  -1   0  15    1.97    0.10
   0   0  15    5.56    0.18
   1   0  15    3.77    0.13
   2   0  15   15.58    0.42
   3   0  15   12.55    0.35
  -4   0 -15    2.27    0.13
   4   0  15    2.37    0.10
   5   0  15    1.67    0.09
  -7   1  15    0.27    0.07
  -6   1  15    0.02    0.05
  -5   1  15    0.23    0.06
  -4   1  15    0.41    0.06
  -3   1  15    4.34    0.17
  -2   1  15    1.00    0.08
  -1   1  15    7.49    0.24
   0   1  15    5.33    0.18
   1   1  15    0.28    0.05
   2   1  15    0.15    0.04
   3   1  15    0.93    0.07
  -4  -1 -15    5.58    0.22
   4   1  15    5.61    0.19
  -7   2  15   -0.01    0.05
  -6   2  15    1.70    0.12
  -5   2  15    4.31    0.18
  -4   2  15   11.68    0.36
  -3   2  15    0.50    0.06
  -2   2  15    3.60    0.15
  -1   2  15    7.92    0.25
   0   2  15   12.77    0.37
   1   2  15    1.20    0.08
   2   2  15    3.03    0.13
  -3  -2 -15    2.65    0.14
   3   2  15    2.65    0.12
  -4  -2 -15   14.05    0.44
   4   2  15   13.86    0.40
  -7   3  15    4.94    0.22
  -6   3  15    1.07    0.11
  -5   3  15    7.43    0.26
  -4   3  15    2.61    0.13
  -3   3  15   13.44    0.40
  -2   3  15    6.82    0.23
  -1   3  15    4.55    0.17
   0   3  15    1.03    0.08
   1   3  15    3.64    0.15
   2   3  15    0.16    0.05
  -3  -3 -15    1.01    0.10
   3   3  15    0.97    0.08
  -7   4  15    2.78    0.16
  -6   4  15    9.15    0.31
  -5   4  15    9.85    0.32
  -4   4  15    0.43    0.07
  -3   4  15    1.67    0.11
  -2   4  15    0.78    0.08
  -1   4  15    8.42    0.27
   0   4  15    0.20    0.05
   1   4  15    2.67    0.13
   2   4  15    4.37    0.18
  -3  -4 -15    1.86    0.13
   3   4  15    1.85    0.12
  -6   5  15    1.40    0.12
  -5   5  15    1.11    0.10
  -4   5  15    0.28    0.06
  -3   5  15   -0.01    0.04
  -2   5  15    0.10    0.05
  -1   5  15    0.65    0.08
   0   5  15    0.24    0.06
   1   5  15    0.35    0.07
  -2  -5 -15    0.28    0.07
   2   5  15    0.27    0.07
  -6   6  15    2.14    0.14
  -5   6  15    0.17    0.07
  -4   6  15    0.41    0.07
  -3   6  15    0.42    0.07
  -2   6  15    7.25    0.26
  -1   6  15    1.37    0.11
   0   6  15    0.33    0.07
   1   6  15    2.86    0.16
  -5   7  15    1.51    0.13
  -4   7  15    0.38    0.08
  -3   7  15    5.89    0.24
  -2   7  15    6.70    0.26
  -1   7  15    4.81    0.21
  -1  -7  16    4.41    0.17
   0  -7  16    1.53    0.10
   1  -7  16    0.71    0.06
   2  -7  16    0.26    0.04
  -2  -6  16    0.16    0.05
  -1  -6  16    5.09    0.19
   0  -6  16    0.96    0.08
   1  -6  16    0.34    0.04
   2  -6  16    1.54    0.07
  -3   6 -16   15.73    0.45
  -4   6 -16    0.51    0.07
  -3  -5  16    0.81    0.09
  -2  -5  16    9.30    0.30
  -1  -5  16   14.22    0.41
   0  -5  16    3.51    0.13
   1  -5  16    0.11    0.03
   2  -5  16   14.19    0.38
  -3   5 -16   19.13    0.53
  -4   5 -16    4.23    0.17
  -4  -4  16    0.06    0.05
  -3  -4  16    0.13    0.05
  -2  -4  16    7.83    0.26
  -1  -4  16    0.06    0.04
   0  -4  16    0.04    0.03
   1  -4  16    5.20    0.16
   2  -4  16    1.89    0.07
  -4   4 -16   -0.03    0.04
  -5  -3  16    8.98    0.32
  -4  -3  16    0.20    0.06
  -3  -3  16    0.48    0.07
  -2  -3  16    0.22    0.05
  -1  -3  16    1.30    0.08
   0  -3  16    0.18    0.04
   1  -3  16    2.90    0.11
   2  -3  16    4.77    0.14
  -4   3 -16    0.09    0.05
  -5   3 -16    3.38    0.16
  -5  -2  16    2.34    0.14
  -4  -2  16    0.02    0.05
  -3  -2  16    0.41    0.06
  -2  -2  16    0.63    0.07
  -1  -2  16    2.30    0.11
   0  -2  16    0.34    0.04
   1  -2  16    0.44    0.05
   2  -2  16    0.01    0.03
   3  -2  16    0.15    0.03
  -4   2 -16    0.48    0.07
  -6  -1  16    6.69    0.26
  -5  -1  16    4.73    0.20
  -4  -1  16    3.08    0.15
  -3  -1  16    0.99    0.09
  -2  -1  16    4.41    0.17
  -1  -1  16    0.63    0.06
   0  -1  16    4.48    0.15
   1  -1  16   27.75    0.73
   2  -1  16    6.42    0.19
   3  -1  16    0.81    0.06
  -4   1 -16    3.35    0.16
   4  -1  16    3.19    0.11
  -6   0  16    0.05    0.06
  -5   0  16    0.76    0.08
  -4   0  16   12.30    0.38
  -3   0  16    0.33    0.06
  -2   0  16    1.74    0.10
  -1   0  16    0.81    0.07
   0   0  16    5.94    0.19
   1   0  16    0.48    0.05
   2   0  16    0.31    0.05
   3   0  16    5.70    0.18
  -4   0 -16    1.21    0.11
   4   0  16    1.18    0.08
  -6   1  16    3.46    0.17
  -5   1  16    1.42    0.11
  -4   1  16    7.40    0.26
  -3   1  16    1.40    0.10
  -2   1  16    9.83    0.30
  -1   1  16    2.77    0.12
   0   1  16    2.63    0.12
   1   1  16    0.28    0.05
   2   1  16    3.81    0.14
  -3  -1 -16    0.96    0.10
   3   1  16    0.92    0.08
   4   1  16    2.27    0.11
  -6   2  16    0.05    0.06
  -5   2  16    1.33    0.11
  -4   2  16    0.08    0.05
  -3   2  16    9.81    0.31
  -2   2  16    0.55    0.07
  -1   2  16    0.17    0.05
   0   2  16    1.72    0.10
   1   2  16   11.36    0.34
   2   2  16    0.35    0.06
  -3  -2 -16    0.77    0.09
   3   2  16    0.88    0.08
  -6   3  16    0.15    0.06
  -5   3  16    0.05    0.05
  -4   3  16    7.77    0.27
  -3   3  16    9.56    0.31
  -2   3  16    7.30    0.25
  -1   3  16    2.95    0.14
   0   3  16    6.22    0.22
   1   3  16   10.98    0.34
   2   3  16    4.98    0.19
   3   3  16    4.03    0.17
  -6   4  16    0.88    0.10
  -5   4  16    0.32    0.07
  -4   4  16    3.42    0.16
  -3   4  16    0.17    0.06
  -2   4  16    0.70    0.08
  -1   4  16    1.06    0.09
   0   4  16    0.19    0.05
   1   4  16    0.57    0.07
   2   4  16    1.20    0.11
  -6   5  16    1.42    0.12
  -5   5  16    0.15    0.06
  -4   5  16    2.32    0.14
  -3   5  16    0.03    0.05
  -2   5  16    9.48    0.31
  -1   5  16    3.23    0.16
   0   5  16    4.66    0.19
   1   5  16    4.60    0.19
  -5   6  16    0.00    0.06
  -4   6  16    0.17    0.06
  -3   6  16    0.47    0.08
  -2   6  16    2.02    0.14
  -1   6  16    2.30    0.14
   0   6  16    0.66    0.09
  -3   7  16    0.24    0.07
  -1  -6  17    0.16    0.05
   0  -6  17    7.53    0.24
   1  -6  17    7.50    0.23
   2  -6  17    4.22    0.13
  -3   6 -17    0.01    0.04
  -2  -5  17    2.62    0.13
  -1  -5  17    0.20    0.05
   0  -5  17    2.45    0.11
   1  -5  17    0.36    0.04
   2  -5  17   12.26    0.33
  -3   5 -17    2.56    0.13
  -3  -4  17    1.21    0.10
  -2  -4  17    2.28    0.12
  -1  -4  17    7.23    0.24
   0  -4  17    0.45    0.05
   1  -4  17    2.26    0.09
   2  -4  17    0.03    0.03
  -4   4 -17    2.36    0.13
  -4  -3  17    0.99    0.10
  -3  -3  17    0.26    0.06
  -2  -3  17    0.51    0.07
  -1  -3  17    0.45    0.06
   0  -3  17    2.33    0.10
   1  -3  17    0.23    0.04
   2  -3  17    3.32    0.11
  -4   3 -17    0.59    0.08
  -5  -2  17    0.15    0.06
  -4  -2  17    0.11    0.06
  -3  -2  17    0.89    0.08
  -2  -2  17   12.16    0.36
  -1  -2  17    0.59    0.06
   0  -2  17    0.56    0.06
   1  -2  17    0.56    0.05
   2  -2  17    8.34    0.24
   3  -2  17    1.40    0.06
  -4   2 -17    2.12    0.13
  -5  -1  17    0.25    0.07
  -4  -1  17    2.33    0.13
  -3  -1  17   -0.06    0.04
  -2  -1  17    9.69    0.30
  -1  -1  17    4.57    0.17
   0  -1  17    5.09    0.17
   1  -1  17    1.50    0.08
   2  -1  17    8.71    0.25
   3  -1  17    0.01    0.03
   4  -1  17    5.74    0.18
  -5   0  17    1.02    0.10
  -4   0  17    1.28    0.11
  -3   0  17    2.78    0.14
  -2   0  17   19.90    0.55
  -1   0  17    5.14    0.18
   0   0  17    0.10    0.04
   1   0  17   11.32    0.33
   2   0  17   13.99    0.39
   3   0  17    2.43    0.11
  -5   1  17    5.30    0.22
  -4   1  17    0.90    0.09
  -3   1  17    8.02    0.27
  -2   1  17    0.07    0.04
  -1   1  17    2.12    0.11
   0   1  17    0.13    0.04
   1   1  17    4.07    0.15
   2   1  17    0.45    0.06
  -3  -1 -17    0.47    0.08
   3   1  17    0.45    0.06
  -5   2  17    2.33    0.14
  -4   2  17    1.18    0.10
  -3   2  17    0.01    0.05
  -2   2  17    1.99    0.12
  -1   2  17    1.06    0.09
   0   2  17   13.79    0.40
   1   2  17    0.51    0.06
   2   2  17    1.30    0.09
  -5   3  17    0.02    0.05
  -4   3  17    0.53    0.07
  -3   3  17    0.81    0.08
  -2   3  17    0.38    0.06
  -1   3  17    0.96    0.08
   0   3  17    1.41    0.10
   1   3  17    5.72    0.21
   2   3  17    0.38    0.06
  -5   4  17    1.48    0.12
  -4   4  17    2.06    0.13
  -3   4  17    0.80    0.09
  -2   4  17    0.11    0.05
  -1   4  17    4.89    0.19
   0   4  17   10.72    0.34
   1   4  17    0.80    0.09
  -5   5  17    1.15    0.11
  -4   5  17    0.63    0.08
  -3   5  17    1.56    0.12
  -2   5  17    0.15    0.06
  -1   5  17    0.57    0.08
   0   5  17    2.07    0.14
  -3   6  17    2.11    0.14
  -2   6  17    3.22    0.17
  -1  -5  18    9.16    0.29
   0  -5  18   -0.01    0.04
   1  -5  18    4.38    0.15
  -2  -4  18    1.10    0.09
  -1  -4  18   12.63    0.37
   0  -4  18    0.59    0.06
   1  -4  18    1.23    0.07
   2  -4  18    0.07    0.03
  -3  -3  18   -0.04    0.05
  -2  -3  18    2.08    0.12
  -1  -3  18    0.05    0.04
   0  -3  18    0.63    0.06
   1  -3  18    0.03    0.03
   2  -3  18    3.49    0.12
  -4  -2  18    0.03    0.05
  -3  -2  18    0.04    0.05
  -2  -2  18    2.24    0.12
  -1  -2  18    0.11    0.04
   0  -2  18    0.98    0.07
   1  -2  18    1.68    0.09
   2  -2  18    9.62    0.27
   3  -2  18    0.32    0.04
  -4  -1  18    0.35    0.07
  -3  -1  18    3.88    0.17
  -2  -1  18    0.11    0.05
  -1  -1  18   10.78    0.32
   0  -1  18    8.08    0.25
   1  -1  18    5.57    0.18
   2  -1  18    4.43    0.15
   3  -1  18    2.94    0.11
  -4   0  18    2.52    0.14
  -3   0  18    9.01    0.30
  -2   0  18    0.26    0.06
  -1   0  18    0.06    0.04
   0   0  18    2.96    0.13
   1   0  18   17.19    0.47
   2   0  18    1.58    0.09
  -5   1  18    0.65    0.09
  -4   1  18    0.09    0.06
  -3   1  18    0.05    0.05
  -2   1  18    4.80    0.18
  -1   1  18    0.84    0.08
   0   1  18    0.05    0.04
   1   1  18    0.07    0.04
   2   1  18    1.91    0.10
  -5   2  18    0.14    0.06
  -4   2  18    0.07    0.05
  -3   2  18    0.76    0.08
  -2   2  18    0.29    0.06
  -1   2  18    2.36    0.12
   0   2  18    0.02    0.04
   1   2  18    0.60    0.07
  -4   3  18    3.44    0.17
  -3   3  18    8.77    0.30
  -2   3  18    0.45    0.07
  -1   3  18    0.10    0.05
   0   3  18    1.28    0.10
   1   3  18    3.96    0.17
  -4   4  18    0.25    0.07
  -3   4  18    2.10    0.14
  -2   4  18    2.08    0.13
  -1   4  18   10.20    0.33
   0  -4  19   -0.02    0.04
  -2  -3  19    4.01    0.17
  -1  -3  19    0.14    0.05
   0  -3  19    2.03    0.10
   1  -3  19    1.18    0.07
  -2  -2  19    0.28    0.06
  -1  -2  19    0.81    0.08
   0  -2  19    0.53    0.06
   1  -2  19    0.06    0.04
  -3  -1  19    0.87    0.09
  -2  -1  19   10.53    0.33
  -1  -1  19    2.66    0.13
   0  -1  19    0.38    0.06
   1  -1  19    2.51    0.11
  -3   0  19    6.57    0.24
  -2   0  19    7.02    0.24
  -1   0  19    0.06    0.05
   0   0  19    1.85    0.10
   1   0  19    3.09    0.13
  -3   1  19    4.43    0.18
  -2   1  19    3.07    0.15
  -1   1  19    0.04    0.05
   0   1  19    1.71    0.11
   1   1  19    0.05    0.05
  -3   2  19    0.37    0.07
  -2   2  19    4.12    0.18
  -1   2  19   -0.02    0.05
   0   2  19    0.09    0.05
  -3   3  19    4.50    0.19
  -2   3  19    0.26    0.07
  -1   3  19    1.03    0.10
   0   0   0    0.00    0.00
;
loop_
_space_group_symop_operation_xyz
'x, y, z'
'-x, -y, -z'
loop_
_atom_site_label
_atom_site_type_symbol
_atom_site_fract_x
_atom_site_fract_y
_atom_site_fract_z
_atom_site_U_iso_or_equiv
_atom_site_adp_type
_atom_site_occupancy
_atom_site_site_symmetry_order
_atom_site_calc_flag
_atom_site_refinement_flags_posn
_atom_site_refinement_flags_adp
_atom_site_refinement_flags_occupancy
_atom_site_disorder_assembly
_atom_site_disorder_group
Co1 Co 0.60509(3) 0.57323(2) 0.22248(2) 0.01632(5) Uani 1 1 d . . . . .
Cl1 Cl 0.16836(6) 1.01505(4) 0.40354(3) 0.03227(9) Uani 1 1 d . . . . .
Cl2 Cl 0.39681(5) 0.93319(4) 0.18208(2) 0.02966(9) Uani 1 1 d . . . . .
Cl3 Cl 0.65080(5) 0.74847(4) 0.33961(2) 0.02748(8) Uani 1 1 d . . . . .
Cl4 Cl 0.32038(5) 0.51840(4) 0.12816(2) 0.02619(8) Uani 1 1 d . . . . .
Cl5 Cl 0.87413(5) 0.66162(4) 0.14671(2) 0.02187(7) Uani 1 1 d . . . . .
Cl6 Cl 0.58620(6) 0.33973(4) 0.26988(2) 0.02546(8) Uani 1 1 d . . . . .
N11 N 0.11962(17) 0.73639(13) 0.34339(8) 0.0214(2) Uani 1 1 d . . . . .
H11 H 0.0714 0.7631 0.2932 0.026 Uiso 1 1 calc R U . . .
N12 N 0.3151(2) 0.89883(15) 0.57330(9) 0.0313(3) Uani 1 1 d . . . . .
H12A H 0.3089 0.9908 0.5719 0.038 Uiso 1 1 calc R U . . .
H12B H 0.3604 0.8708 0.6238 0.038 Uiso 1 1 calc R U . . .
N21 N 0.24930(16) 0.77680(12) 0.02601(8) 0.0189(2) Uani 1 1 d . . . . .
H21 H 0.2684 0.7028 0.0554 0.023 Uiso 1 1 calc R U . . .
N22 N 0.3296(2) 1.17883(14) 0.06978(10) 0.0314(3) Uani 1 1 d . . . . .
H22A H 0.3816 1.1965 0.1269 0.038 Uiso 1 1 calc R U . . .
H22B H 0.3125 1.2536 0.0404 0.038 Uiso 1 1 calc R U . . .
C11 C 0.1818(2) 0.83890(15) 0.41577(9) 0.0204(3) Uani 1 1 d . . . . .
C12 C 0.25489(19) 0.80033(15) 0.49763(9) 0.0202(3) Uani 1 1 d . . . . .
C13 C 0.2620(2) 0.65205(16) 0.49768(9) 0.0204(3) Uani 1 1 d . . . . .
H13 H 0.3110 0.6215 0.5520 0.024 Uiso 1 1 calc R U . . .
C14 C 0.2005(2) 0.54972(16) 0.42168(9) 0.0199(3) Uani 1 1 d . . . . .
C15 C 0.1266(2) 0.59527(16) 0.34318(9) 0.0218(3) Uani 1 1 d . . . . .
H15 H 0.0814 0.5271 0.2898 0.026 Uiso 1 1 calc R U . . .
C16 C 0.2144(2) 0.39369(17) 0.42257(10) 0.0276(3) Uani 1 1 d . . . . .
H16A H 0.2523 0.3753 0.4847 0.041 Uiso 1 1 calc R U . . .
H16B H 0.3133 0.3892 0.3843 0.041 Uiso 1 1 calc R U . . .
H16C H 0.0867 0.3148 0.3992 0.041 Uiso 1 1 calc R U . . .
C21 C 0.30007(19) 0.91491(15) 0.07085(9) 0.0188(2) Uani 1 1 d . . . . .
C22 C 0.27590(19) 1.03673(15) 0.02717(9) 0.0197(3) Uani 1 1 d . . . . .
C23 C 0.1923(2) 1.00308(16) -0.06416(10) 0.0217(3) Uani 1 1 d . . . . .
H23 H 0.1713 1.0825 -0.0962 0.026 Uiso 1 1 calc R U . . .
C24 C 0.1397(2) 0.85982(16) -0.10874(9) 0.0199(3) Uani 1 1 d . . . . .
C25 C 0.1711(2) 0.74448(16) -0.06097(9) 0.0207(3) Uani 1 1 d . . . . .
H25 H 0.1374 0.6443 -0.0896 0.025 Uiso 1 1 calc R U . . .
C26 C 0.0522(2) 0.82827(19) -0.20643(10) 0.0296(3) Uani 1 1 d . . . . .
H26A H -0.0905 0.7756 -0.2102 0.044 Uiso 1 1 calc R U . . .
H26B H 0.1076 0.7630 -0.2380 0.044 Uiso 1 1 calc R U . . .
H26C H 0.0824 0.9256 -0.2347 0.044 Uiso 1 1 calc R U . . .
loop_
_atom_site_aniso_label
_atom_site_aniso_U_11
_atom_site_aniso_U_22
_atom_site_aniso_U_33
_atom_site_aniso_U_23
_atom_site_aniso_U_13
_atom_site_aniso_U_12
Co1 0.01838(9) 0.01414(9) 0.01585(9) 0.00039(6) 0.00016(6) 0.00592(7)
Cl1 0.0365(2) 0.02108(17) 0.0393(2) 0.00545(14) -0.00406(16) 0.01269(15)
Cl2 0.02944(18) 0.03075(19) 0.01819(16) 0.00154(13) -0.00060(13) -0.00040(14)
Cl3 0.02892(18) 0.02385(17) 0.02709(18) -0.00934(13) 0.00147(13) 0.00838(14)
Cl4 0.02530(17) 0.01831(15) 0.03284(18) -0.00019(13) -0.00965(13) 0.00919(13)
Cl5 0.02203(16) 0.02373(16) 0.02085(15) 0.00545(12) 0.00443(12) 0.00885(13)
Cl6 0.0401(2) 0.01769(15) 0.01842(15) 0.00250(12) -0.00247(13) 0.01190(14)
N11 0.0201(6) 0.0242(6) 0.0183(5) 0.0059(4) -0.0009(4) 0.0068(5)
N12 0.0463(8) 0.0262(7) 0.0228(6) -0.0044(5) -0.0048(6) 0.0180(6)
N21 0.0203(6) 0.0153(5) 0.0209(5) 0.0041(4) 0.0028(4) 0.0058(4)
N22 0.0348(7) 0.0192(6) 0.0380(7) -0.0072(5) -0.0021(6) 0.0101(5)
C11 0.0184(6) 0.0188(6) 0.0239(7) 0.0046(5) 0.0018(5) 0.0067(5)
C12 0.0191(6) 0.0209(6) 0.0195(6) 0.0007(5) 0.0021(5) 0.0064(5)
C13 0.0230(7) 0.0233(7) 0.0165(6) 0.0041(5) 0.0021(5) 0.0103(5)
C14 0.0192(6) 0.0215(6) 0.0196(6) 0.0020(5) 0.0040(5) 0.0077(5)
C15 0.0218(7) 0.0230(7) 0.0189(6) 0.0001(5) 0.0014(5) 0.0066(5)
C16 0.0354(8) 0.0238(7) 0.0262(7) 0.0006(6) 0.0026(6) 0.0145(6)
C21 0.0163(6) 0.0209(6) 0.0168(6) 0.0006(5) 0.0032(5) 0.0036(5)
C22 0.0151(6) 0.0174(6) 0.0265(7) -0.0011(5) 0.0045(5) 0.0055(5)
C23 0.0201(6) 0.0200(6) 0.0270(7) 0.0054(5) 0.0032(5) 0.0094(5)
C24 0.0186(6) 0.0221(6) 0.0196(6) 0.0016(5) 0.0023(5) 0.0082(5)
C25 0.0219(7) 0.0182(6) 0.0217(6) -0.0013(5) 0.0025(5) 0.0075(5)
C26 0.0325(8) 0.0351(8) 0.0202(7) 0.0017(6) -0.0018(6) 0.0125(7)
loop_
_atom_type_symbol
_atom_type_description
_atom_type_scat_dispersion_real
_atom_type_scat_dispersion_imag
_atom_type_scat_source
C C 0.0033 0.0016 'International Tables Vol C Tables 4.2.6.8 and 6.1.1.4'
H H 0.0000 0.0000 'International Tables Vol C Tables 4.2.6.8 and 6.1.1.4'
N N 0.0061 0.0033 'International Tables Vol C Tables 4.2.6.8 and 6.1.1.4'
Cl Cl 0.1484 0.1585 'International Tables Vol C Tables 4.2.6.8 and 6.1.1.4'
Co Co 0.3494 0.9721 'International Tables Vol C Tables 4.2.6.8 and 6.1.1.4'
loop_
_geom_angle_atom_site_label_1
_geom_angle_atom_site_label_2
_geom_angle_atom_site_label_3
_geom_angle
_geom_angle_site_symmetry_1
_geom_angle_site_symmetry_3
Cl3 Co1 Cl4 114.552(19) . .
Cl3 Co1 Cl5 107.131(19) . .
Cl4 Co1 Cl5 111.77(2) . .
Cl3 Co1 Cl6 112.19(2) . .
Cl4 Co1 Cl6 103.888(17) . .
Cl5 Co1 Cl6 107.134(17) . .
C11 N11 C15 123.66(12) . .
C11 N11 H11 118.2 . .
C15 N11 H11 118.2 . .
C12 N12 H12A 120.0 . .
C12 N12 H12B 120.0 . .
H12A N12 H12B 120.0 . .
C21 N21 C25 123.87(12) . .
C21 N21 H21 118.1 . .
C25 N21 H21 118.1 . .
C22 N22 H22A 120.0 . .
C22 N22 H22B 120.0 . .
H22A N22 H22B 120.0 . .
N11 C11 C12 120.20(12) . .
N11 C11 Cl1 117.62(10) . .
C12 C11 Cl1 122.18(11) . .
N12 C12 C11 122.35(13) . .
N12 C12 C13 121.40(13) . .
C11 C12 C13 116.25(12) . .
C14 C13 C12 122.37(12) . .
C14 C13 H13 118.8 . .
C12 C13 H13 118.8 . .
C13 C14 C15 118.10(13) . .
C13 C14 C16 121.48(12) . .
C15 C14 C16 120.41(13) . .
N11 C15 C14 119.39(13) . .
N11 C15 H15 120.3 . .
C14 C15 H15 120.3 . .
C14 C16 H16A 109.5 . .
C14 C16 H16B 109.5 . .
H16A C16 H16B 109.5 . .
C14 C16 H16C 109.5 . .
H16A C16 H16C 109.5 . .
H16B C16 H16C 109.5 . .
N21 C21 C22 120.42(12) . .
N21 C21 Cl2 116.90(10) . .
C22 C21 Cl2 122.68(10) . .
N22 C22 C21 122.06(13) . .
N22 C22 C23 121.99(13) . .
C21 C22 C23 115.95(12) . .
C24 C23 C22 122.63(12) . .
C24 C23 H23 118.7 . .
C22 C23 H23 118.7 . .
C23 C24 C25 118.09(12) . .
C23 C24 C26 121.22(13) . .
C25 C24 C26 120.69(13) . .
N21 C25 C24 119.03(12) . .
N21 C25 H25 120.5 . .
C24 C25 H25 120.5 . .
C24 C26 H26A 109.5 . .
C24 C26 H26B 109.5 . .
H26A C26 H26B 109.5 . .
C24 C26 H26C 109.5 . .
H26A C26 H26C 109.5 . .
H26B C26 H26C 109.5 . .
loop_
_geom_bond_atom_site_label_1
_geom_bond_atom_site_label_2
_geom_bond_distance
_geom_bond_site_symmetry_2
Co1 Cl3 2.2592(6) .
Co1 Cl4 2.2818(6) .
Co1 Cl5 2.2836(6) .
Co1 Cl6 2.2849(6) .
Cl1 C11 1.7043(14) .
Cl2 C21 1.7125(14) .
N11 C11 1.3389(18) .
N11 C15 1.3414(18) .
N11 H11 0.8800 .
N12 C12 1.3555(18) .
N12 H12A 0.8800 .
N12 H12B 0.8800 .
N21 C21 1.3375(17) .
N21 C25 1.3394(17) .
N21 H21 0.8800 .
N22 C22 1.3529(18) .
N22 H22A 0.8800 .
N22 H22B 0.8800 .
C11 C12 1.3968(19) .
C12 C13 1.4089(19) .
C13 C14 1.3785(19) .
C13 H13 0.9500 .
C14 C15 1.3876(19) .
C14 C16 1.5025(19) .
C15 H15 0.9500 .
C16 H16A 0.9800 .
C16 H16B 0.9800 .
C16 H16C 0.9800 .
C21 C22 1.3929(19) .
C22 C23 1.4091(19) .
C23 C24 1.3752(19) .
C23 H23 0.9500 .
C24 C25 1.3913(19) .
C24 C26 1.5028(19) .
C25 H25 0.9500 .
C26 H26A 0.9800 .
C26 H26B 0.9800 .
C26 H26C 0.9800 .
