#------------------------------------------------------------------------------
#$Date: 2021-12-10 11:16:28 +0200 (Fri, 10 Dec 2021) $
#$Revision: 271325 $
#$URL: file:///home/coder/svn-repositories/cod/cif/1/56/56/1565659.cif $
#------------------------------------------------------------------------------
#
# This file is available in the Crystallography Open Database (COD),
# http://www.crystallography.net/
#
# All data on this site have been placed in the public domain by the
# contributors.
#
data_1565659
loop_
_publ_author_name
'Shakirova, Olga'
'Protsenko, Alexandra'
'Protsenko, Alexander'
'Kuratieva, Natalia'
'Fowles, Samantha'
'Turnbull, Mark M.'
_publ_section_title
;
 Syntheses, structures and properties of copper(II) and cobalt(II)
 complexes with 5(3)-amino-2-chloro-3(5)-methylpyridine isomer cations
;
_journal_name_full               'Inorganica Chimica Acta'
_journal_page_first              119246
_journal_paper_doi               10.1016/j.ica.2019.119246
_journal_volume                  500
_journal_year                    2020
_chemical_formula_moiety         'C9 H12 Cl4 Cu N2'
_chemical_formula_sum            'C9 H12 Cl4 Cu N2'
_chemical_formula_weight         353.55
_space_group_crystal_system      triclinic
_space_group_IT_number           2
_space_group_name_Hall           '-P 1'
_space_group_name_H-M_alt        'P -1'
_atom_sites_solution_hydrogens   geom
_atom_sites_solution_primary     direct
_atom_sites_solution_secondary   difmap
_cell_angle_alpha                105.909(9)
_cell_angle_beta                 102.298(9)
_cell_angle_gamma                111.663(10)
_cell_formula_units_Z            2
_cell_length_a                   8.732(3)
_cell_length_b                   9.132(3)
_cell_length_c                   9.792(3)
_cell_measurement_reflns_used    3342
_cell_measurement_temperature    150(2)
_cell_measurement_theta_max      27.19
_cell_measurement_theta_min      2.31
_cell_volume                     653.3(4)
_computing_cell_refinement       'Bruker SAINT'
_computing_data_collection       'Bruker APEX2'
_computing_data_reduction        'Bruker SAINT'
_computing_molecular_graphics    'Bruker SHELXTL'
_computing_publication_material  'Bruker SHELXTL'
_computing_structure_refinement  'Bruker SHELXTL'
_computing_structure_solution    'Bruker SHELXTL'
_diffrn_ambient_temperature      150(2)
_diffrn_detector_area_resol_mean 25
_diffrn_measured_fraction_theta_full 0.995
_diffrn_measured_fraction_theta_max 0.987
_diffrn_measurement_device_type  'Bruker Apex DUO CCD area-detector'
_diffrn_measurement_method       '\f scans'
_diffrn_radiation_probe          x-ray
_diffrn_radiation_type           MoK\a
_diffrn_radiation_wavelength     0.71073
_diffrn_reflns_av_R_equivalents  0.0219
_diffrn_reflns_av_unetI/netI     0.0303
_diffrn_reflns_Laue_measured_fraction_full 0.995
_diffrn_reflns_Laue_measured_fraction_max 0.987
_diffrn_reflns_limit_h_max       11
_diffrn_reflns_limit_h_min       -11
_diffrn_reflns_limit_k_max       11
_diffrn_reflns_limit_k_min       -11
_diffrn_reflns_limit_l_max       12
_diffrn_reflns_limit_l_min       -12
_diffrn_reflns_number            5610
_diffrn_reflns_point_group_measured_fraction_full 0.995
_diffrn_reflns_point_group_measured_fraction_max 0.987
_diffrn_reflns_theta_full        25.250
_diffrn_reflns_theta_max         27.194
_diffrn_reflns_theta_min         2.310
_exptl_absorpt_coefficient_mu    2.462
_exptl_absorpt_correction_T_max  0.746
_exptl_absorpt_correction_T_min  0.644
_exptl_absorpt_correction_type   multi-scan
_exptl_absorpt_process_details   'Bruker SADABS'
_exptl_crystal_colour            green
_exptl_crystal_density_diffrn    1.797
_exptl_crystal_description       prism
_exptl_crystal_F_000             354
_exptl_crystal_size_max          0.160
_exptl_crystal_size_mid          0.100
_exptl_crystal_size_min          0.060
_refine_diff_density_max         0.397
_refine_diff_density_min         -0.342
_refine_diff_density_rms         0.067
_refine_ls_extinction_coef       .
_refine_ls_extinction_method     none
_refine_ls_goodness_of_fit_ref   1.048
_refine_ls_hydrogen_treatment    constr
_refine_ls_matrix_type           full
_refine_ls_number_parameters     148
_refine_ls_number_reflns         2883
_refine_ls_number_restraints     0
_refine_ls_restrained_S_all      1.048
_refine_ls_R_factor_all          0.0261
_refine_ls_R_factor_gt           0.0228
_refine_ls_shift/su_max          0.001
_refine_ls_shift/su_mean         0.000
_refine_ls_structure_factor_coef Fsqd
_refine_ls_weighting_details
'w=1/[\s^2^(Fo^2^)+(0.0257P)^2^+0.1506P] where P=(Fo^2^+2Fc^2^)/3'
_refine_ls_weighting_scheme      calc
_refine_ls_wR_factor_gt          0.0557
_refine_ls_wR_factor_ref         0.0571
_reflns_Friedel_coverage         0.000
_reflns_Friedel_fraction_full    .
_reflns_Friedel_fraction_max     .
_reflns_number_gt                2587
_reflns_number_total             2883
_reflns_threshold_expression     >2\s(I)
_cod_data_source_file            ICA-2020-500-119246.cif
_cod_data_source_block           shak120
_cod_original_cell_volume        653.4(4)
_cod_database_code               1565659
_shelx_space_group_comment
;
The symmetry employed for this shelxl refinement is uniquely defined
by the following loop, which should always be used as a source of
symmetry information in preference to the above space-group names.
They are only intended as comments.
;
_shelx_estimated_absorpt_t_min   0.694
_shelx_estimated_absorpt_t_max   0.866
_shelx_res_file
;

    D:\Job\SHAKIR~1\shak120\shak120.res created by SHELXL-2014/7

TITL shak120 in P-1
CELL 0.71073 8.7322 9.1322 9.7919 105.909 102.298 111.663
ZERR 2.0000 0.0028 0.0032 0.0030 0.009 0.009 0.010
LATT 1
SFAC C H N CL CU
UNIT 18 24 4 8 2
MERG 2
OMIT 0 180
FMAP 2
GRID
PLAN 5
TEMP -123
SIZE 0.16 0.1 0.06
OMIT  4 0 1
OMIT  4 -1 1
OMIT  2 -3 2
OMIT  -1 3 3
OMIT  -2 2 0
BOND $H
L.S. 10
ACTA 50.5
WGHT    0.025700    0.150600
FVAR       0.19128
CU1   5    0.294266    0.330992    0.799087    11.00000    0.01220    0.01847 =
         0.01298    0.00756    0.00713    0.00971
CL1   4    0.193421    0.023205    0.492426    11.00000    0.01001    0.01730 =
         0.01971    0.00362    0.00397    0.00438
CL2   4    0.438751    0.282173    0.990026    11.00000    0.02292    0.03139 =
         0.02059    0.01588    0.01159    0.01924
CL3   4    0.186034    0.414483    0.616351    11.00000    0.02667    0.03071 =
         0.01952    0.01608    0.01441    0.02154
CL4   4    0.063399    0.299955    0.876750    11.00000    0.01198    0.02764 =
         0.01488    0.00949    0.00709    0.00936
N1    3    0.463545    0.301974    0.690385    11.00000    0.01167    0.01653 =
         0.01156    0.00559    0.00523    0.00795
N2    3    0.926346    0.538779    0.739798    11.00000    0.01191    0.01607 =
         0.01657    0.00515    0.00573    0.00814
AFIX  43
H2    2    1.002826    0.497334    0.743802    11.00000   -1.20000
AFIX   0
C1    1    0.405691    0.181138    0.551124    11.00000    0.00985    0.01323 =
         0.01349    0.00476    0.00251    0.00624
C2    1    0.508465    0.173718    0.459669    11.00000    0.01617    0.01548 =
         0.01304    0.00697    0.00556    0.01074
C3    1    0.683020    0.295730    0.524948    11.00000    0.01642    0.01531 =
         0.01623    0.00843    0.00959    0.01063
AFIX  43
H3    2    0.760564    0.295998    0.470016    11.00000   -1.20000
AFIX   0
C4    1    0.744833    0.417811    0.670807    11.00000    0.01157    0.01268 =
         0.01547    0.00668    0.00429    0.00625
C5    1    0.632226    0.418675    0.751255    11.00000    0.01306    0.01461 =
         0.01208    0.00266    0.00398    0.00767
AFIX  43
H5    2    0.675557    0.503180    0.850707    11.00000   -1.20000
AFIX   0
C6    1    0.435823    0.046533    0.297504    11.00000    0.01896    0.02022 =
         0.01265    0.00305    0.00520    0.00898
AFIX 137
H6A   2    0.411724    0.101536    0.228252    11.00000   -1.50000
H6B   2    0.326555   -0.051191    0.281152    11.00000   -1.50000
H6C   2    0.522135    0.006868    0.278061    11.00000   -1.50000
AFIX   0
C7    1    0.989705    0.703153    0.797009    11.00000    0.01834    0.01806 =
         0.01202    0.00597    0.00776    0.00802
C8    1    1.182663    0.807411    0.872848    11.00000    0.01807    0.02265 =
         0.03228    0.00377    0.00849    0.00446
AFIX 137
H8A   2    1.239414    0.732305    0.862863    11.00000   -1.50000
H8B   2    1.210031    0.870861    0.980547    11.00000   -1.50000
H8C   2    1.226268    0.888078    0.825333    11.00000   -1.50000
AFIX   0
C9    1    0.875965    0.790269    0.789928    11.00000    0.02573    0.01912 =
         0.02243    0.00903    0.00922    0.01365
AFIX 137
H9A   2    0.770994    0.720836    0.697868    11.00000   -1.50000
H9B   2    0.941398    0.902524    0.788010    11.00000   -1.50000
H9C   2    0.840496    0.804897    0.879236    11.00000   -1.50000
AFIX   0
HKLF 4

REM  shak120 in P-1
REM R1 =  0.0228 for    2587 Fo > 4sig(Fo)  and  0.0261 for all    2883 data
REM    148 parameters refined using      0 restraints

END

WGHT      0.0257      0.1528

REM Highest difference peak  0.397,  deepest hole -0.342,  1-sigma level  0.067
Q1    1   0.2926  0.1079  0.5160  11.00000  0.05    0.40
Q2    1   0.1911  0.2199  0.7680  11.00000  0.05    0.39
Q3    1   0.4731  0.1536  0.5207  11.00000  0.05    0.36
Q4    1   0.3422  0.1795  0.9630  11.00000  0.05    0.35
Q5    1   0.7160  0.3419  0.6086  11.00000  0.05    0.32
;
_shelx_hkl_file
;
  -1   0   0    5.04    0.20
  -1   0   0    4.99    0.19
   1   0   0    5.18    0.20
   1   0   0    5.52    0.20
  -2   0   0   25.99    0.79
  -2   0   0   25.75    0.78
  -2   0   0   25.39    0.73
   2   0   0   25.49    0.78
   2   0   0   26.34    0.78
  -3   0   0    7.60    0.32
  -3   0   0    7.17    0.35
   3   0   0    7.08    0.35
  -4   0   0   23.09    0.86
  -4   0   0   24.74    0.79
   4   0   0   24.73    0.87
  -5   0   0    1.76    0.21
  -5   0   0    1.34    0.23
  -6   0   0    0.15    0.15
  -6   0   0    0.07    0.10
   6   0   0    0.24    0.16
  -7   0   0    3.04    0.40
   7   0   0    4.43    0.50
  -8   0   0   96.72    3.07
   8   0   0   96.65    3.05
  -9   0   0    9.39    0.75
   9   0   0    9.89    0.76
  10  -1   0    0.05    0.25
 -10   1   0   -0.03    0.22
   9  -1   0    5.41    0.60
  -9   1   0    6.40    0.70
   8  -1   0   16.96    0.91
  -8   1   0   17.58    0.91
   7  -1   0    5.68    0.47
  -7   1   0    5.93    0.48
   6  -1   0   15.16    0.72
   6  -1   0   15.58    0.65
  -6   1   0   14.94    0.59
  -6   1   0   15.00    0.72
   5  -1   0  193.39    4.95
  -5   1   0  176.94    5.03
  -5   1   0  191.54    4.77
   4  -1   0    0.86    0.13
   4  -1   0    0.88    0.17
  -4   1   0    0.59    0.13
  -4   1   0    0.89    0.12
   3  -1   0    0.14    0.07
   3  -1   0    0.22    0.08
   3  -1   0    0.11    0.08
  -3   1   0    0.09    0.08
   2  -1   0    2.81    0.15
   2  -1   0    3.03    0.19
   2  -1   0    2.86    0.14
   2  -1   0    3.12    0.19
  -2   1   0    2.85    0.15
  -2   1   0    3.20    0.19
  -2   1   0    3.27    0.19
   1  -1   0  149.19    4.01
   1  -1   0  156.22    3.93
  -1   1   0  157.25    3.93
  -1   1   0  150.17    3.93
   0  -1   0   97.00    2.42
   0   1   0   88.65    2.41
   0   1   0   92.89    2.41
  -1  -1   0  292.99    7.46
  -1  -1   0  293.89    7.45
   1   1   0  267.50    7.43
   1   1   0  290.62    7.32
  -2  -1   0   13.65    0.52
   2   1   0   14.56    0.52
  -3  -1   0  178.61    4.77
   3   1   0  180.90    4.77
  -4  -1   0   13.17    0.54
  -4  -1   0   12.52    0.59
   4   1   0   12.66    0.58
  -5  -1   0    3.36    0.34
  -5  -1   0    2.92    0.34
   5   1   0    3.02    0.37
  -6  -1   0   26.65    1.11
   6   1   0   27.46    1.11
  -7  -1   0   24.51    1.10
   7   1   0   22.54    1.07
  -8  -1   0    3.96    0.56
   8   1   0    4.09    0.53
  -9  -1   0   27.18    1.38
   9   1   0   30.83    1.42
  10  -2   0   16.90    1.01
 -10   2   0   16.15    1.00
   9  -2   0   19.17    1.02
  -9   2   0   21.24    1.06
   8  -2   0    0.65    0.25
  -8   2   0    0.77    0.24
   7  -2   0  136.54    3.91
  -7   2   0  135.11    3.90
   6  -2   0   54.29    1.58
  -6   2   0   49.87    1.67
   5  -2   0   19.52    0.66
   5  -2   0   18.00    0.74
   5  -2   0   17.51    0.60
  -5   2   0   18.57    0.75
   4  -2   0   44.11    1.37
   4  -2   0   47.10    1.29
   4  -2   0   42.86    1.22
  -4   2   0   45.55    1.38
  -4   2   0   44.88    1.37
   3  -2   0   18.68    0.66
  -3   2   0   19.53    0.67
  -3   2   0   19.69    0.60
   2  -2   0  140.05    3.67
  -2   2   0  138.63    3.67
  -2   2   0  141.92    3.67
   1  -2   0   21.82    0.67
   1  -2   0   21.98    0.67
  -1   2   0   21.53    0.67
  -1   2   0   21.88    0.67
   0  -2   0  117.57    3.18
   0   2   0  119.09    3.19
   0   2   0  125.92    3.19
  -1  -2   0  187.69    5.04
  -1  -2   0  202.17    5.07
   1   2   0  189.71    5.04
  -2  -2   0   17.53    0.65
   2   2   0   17.00    0.65
  -3  -2   0   49.60    1.52
   3   2   0   47.27    1.51
  -4  -2   0    3.62    0.38
   4   2   0    2.72    0.29
   5   2   0   81.48    2.50
  -6  -2   0    0.36    0.19
   6   2   0    0.07    0.16
  -7  -2   0    0.22    0.20
   7   2   0    0.18    0.20
  -8  -2   0    6.27    0.72
   8   2   0    7.61    0.67
  10  -3   0    2.15    0.46
 -10   3   0    1.71    0.39
   9  -3   0   22.17    1.08
  -9   3   0   22.11    1.09
   8  -3   0   80.32    2.57
  -8   3   0   80.76    2.56
   7  -3   0   56.53    1.86
  -7   3   0   55.51    1.85
   6  -3   0   15.62    0.55
   6  -3   0   14.83    0.70
  -6   3   0   15.42    0.71
   5  -3   0  101.44    2.92
   5  -3   0  107.58    2.67
  -5   3   0  101.11    2.91
  -5   3   0  102.35    2.78
   4  -3   0    6.56    0.38
  -4   3   0    7.18    0.39
  -4   3   0    6.87    0.31
   3  -3   0    2.27    0.21
  -3   3   0    2.60    0.26
   2  -3   0    0.42    0.12
  -2   3   0    0.40    0.12
   1  -3   0    0.02    0.08
   1  -3   0    0.03    0.07
  -1   3   0    0.27    0.11
   0  -3   0  279.86    7.25
  -1  -3   0    8.17    0.41
  -2  -3   0   99.14    2.79
   2   3   0   98.09    2.79
  -3  -3   0   70.12    2.11
   3   3   0   68.80    2.11
  -4  -3   0   46.36    1.60
   4   3   0   48.30    1.61
  -5  -3   0    1.06    0.27
   5   3   0    0.91    0.26
  -6  -3   0    3.96    0.53
   6   3   0    2.38    0.37
  -7  -3   0    0.10    0.19
   7   3   0    0.36    0.24
  -8  -3   0   26.50    1.35
   8   3   0   27.00    1.35
  10  -4   0   16.65    0.97
 -10   4   0   16.43    0.98
   9  -4   0    1.10    0.30
  -9   4   0    0.91    0.27
   8  -4   0    0.39    0.20
  -8   4   0    0.29    0.20
   7  -4   0    5.24    0.44
   7  -4   0    5.81    0.31
  -7   4   0    5.07    0.43
   6  -4   0   57.12    1.83
   6  -4   0   60.58    1.59
  -6   4   0   56.42    1.83
  -6   4   0   56.18    1.66
   5  -4   0  159.27    4.44
  -5   4   0  162.73    4.45
  -5   4   0  166.62    4.29
   4  -4   0    8.76    0.46
  -4   4   0    9.47    0.47
   3  -4   0   13.08    0.56
  -3   4   0   14.59    0.58
   2  -4   0   -0.08    0.09
  -2   4   0   -0.07    0.10
   1  -4   0  107.32    2.96
   0  -4   0    9.32    0.47
   0   4   0    9.94    0.49
  -1  -4   0   38.69    1.30
   1   4   0   39.97    1.32
  -2  -4   0   60.50    1.87
   2   4   0   58.99    1.88
   3   4   0    7.66    0.51
  -4  -4   0   10.93    0.66
   4   4   0   11.28    0.67
  -5  -4   0    4.46    0.55
   5   4   0    3.51    0.48
  -6  -4   0    2.24    0.44
   6   4   0    2.81    0.47
  -7  -4   0   16.44    1.02
   7   4   0   15.89    1.01
  10  -5   0    9.97    0.76
 -10   5   0   10.14    0.75
   9  -5   0    1.55    0.35
  -9   5   0    1.58    0.33
   8  -5   0    0.24    0.19
   8  -5   0    0.06    0.09
  -8   5   0    0.10    0.17
   7  -5   0    6.40    0.49
   7  -5   0    6.63    0.34
  -7   5   0    7.26    0.51
  -7   5   0    6.76    0.38
   6  -5   0  117.72    3.42
  -6   5   0  114.69    3.42
  -6   5   0  124.36    3.24
   5  -5   0  102.07    2.91
  -5   5   0   98.85    2.89
   4  -5   0  196.60    5.26
  -4   5   0  194.13    5.25
   3  -5   0   20.41    0.80
  -3   5   0   21.13    0.81
   2  -5   0    0.15    0.12
  -2   5   0    0.13    0.10
   1  -5   0    0.12    0.13
  -1   5   0    0.12    0.11
   0  -5   0   10.39    0.55
   0   5   0   11.07    0.57
  -1  -5   0    7.81    0.49
   1   5   0    7.45    0.49
  -2  -5   0   81.82    2.51
   2   5   0   80.95    2.51
  -3  -5   0   90.53    2.80
   3   5   0   91.41    2.82
  -4  -5   0   14.29    0.82
   4   5   0   15.46    0.85
  -5  -5   0   25.01    1.20
   5   5   0   24.30    1.19
  -6  -5   0    0.63    0.33
   6   5   0    0.05    0.22
  10  -6   0   39.45    1.67
 -10   6   0   43.21    1.72
   9  -6   0   12.59    0.79
  -9   6   0   12.57    0.79
   8  -6   0    4.78    0.52
   8  -6   0    5.56    0.32
  -8   6   0    5.30    0.35
  -8   6   0    5.27    0.55
   7  -6   0    3.26    0.40
  -7   6   0    3.38    0.28
  -7   6   0    4.06    0.47
   6  -6   0    5.48    0.44
  -6   6   0    4.89    0.42
   5  -6   0  206.76    5.71
  -5   6   0  213.62    5.73
   4  -6   0    0.71    0.19
  -4   6   0    0.92    0.22
   3  -6   0    1.23    0.22
  -3   6   0    0.98    0.21
   2  -6   0    5.44    0.40
  -2   6   0    5.47    0.41
   1  -6   0    0.40    0.16
  -1   6   0    0.62    0.20
   0  -6   0   25.44    1.05
   0   6   0   28.91    1.10
  -1  -6   0    1.28    0.25
   1   6   0    1.38    0.27
  -2  -6   0    4.18    0.47
  -3  -6   0   34.39    1.41
   3   6   0   35.41    1.44
  -4  -6   0   17.93    1.00
   4   6   0   18.80    1.02
  -5  -6   0    0.14    0.23
   5   6   0    0.57    0.29
  10  -7   0   15.89    0.97
 -10   7   0   16.91    1.00
   9  -7   0   10.50    0.74
  -9   7   0   10.37    0.74
   8  -7   0    3.87    0.47
  -8   7   0    5.80    0.60
  -8   7   0    4.36    0.33
   7  -7   0    5.82    0.50
  -7   7   0    4.14    0.46
  -7   7   0    6.62    0.40
   6  -7   0    9.13    0.60
  -6   7   0   10.40    0.64
   5  -7   0   72.92    2.33
  -5   7   0   75.72    2.35
   4  -7   0   38.58    1.40
  -4   7   0   37.96    1.39
  -3   7   0   15.73    0.77
   2  -7   0    1.06    0.25
  -2   7   0    1.32    0.28
   1  -7   0   41.65    1.50
  -1   7   0   40.31    1.48
   0  -7   0   33.46    1.29
   0   7   0   32.10    1.29
  -1  -7   0   24.32    1.09
   1   7   0   24.61    1.11
  -2  -7   0    6.21    0.56
   2   7   0    7.06    0.59
  -3  -7   0    1.01    0.30
   3   7   0    1.01    0.30
  -4  -7   0    1.01    0.32
   4   7   0    1.89    0.43
  10  -8   0    1.36    0.37
 -10   8   0    1.18    0.37
 -10   8   0    1.40    0.41
   9  -8   0    0.55    0.28
  -9   8   0    0.75    0.29
   8  -8   0    0.00    0.18
  -8   8   0    0.35    0.15
  -8   8   0    0.17    0.22
   7  -8   0    6.50    0.56
  -7   8   0    6.33    0.55
   6  -8   0   39.00    1.49
  -6   8   0   38.46    1.50
   5  -8   0   23.92    1.06
  -5   8   0   22.94    1.04
   4  -8   0  127.64    3.75
  -4   8   0  126.44    3.74
   3  -8   0    1.84    0.31
  -3   8   0    2.34    0.36
   2  -8   0   11.44    0.70
  -2   8   0   12.15    0.72
   1  -8   0    0.38    0.21
  -1   8   0    0.72    0.25
   0  -8   0   45.62    1.71
   0   8   0   46.06    1.71
  -1  -8   0    0.17    0.20
   1   8   0    0.27    0.24
  -2  -8   0    7.21    0.63
   2   8   0    5.51    0.60
  -3  -8   0   13.14    0.89
   3   8   0   12.61    0.89
   9  -9   0    5.99    0.68
  -9   9   0    5.80    0.70
   8  -9   0    1.74    0.35
  -8   9   0    1.13    0.34
   7  -9   0    0.23    0.21
  -7   9   0    0.02    0.18
   6  -9   0    4.46    0.53
  -6   9   0    4.05    0.50
   5  -9   0   36.85    1.50
  -5   9   0   38.72    1.52
   4  -9   0    0.12    0.17
  -4   9   0    0.09    0.18
   3  -9   0    0.37    0.22
  -3   9   0    0.32    0.20
   2  -9   0   35.67    1.48
  -2   9   0   36.59    1.48
   1  -9   0    2.61    0.41
  -1   9   0    2.89    0.43
   0  -9   0    0.63    0.27
   0   9   0    0.33    0.22
  -1  -9   0    0.07    0.19
   1   9   0    0.10    0.21
   8 -10   0   -0.24    0.19
  -8  10   0   -0.03    0.22
   7 -10   0    7.80    0.68
  -7  10   0    7.44    0.68
   6 -10   0    0.13    0.21
  -6  10   0    0.11    0.21
   5 -10   0    0.08    0.19
  -5  10   0    0.15    0.21
   4 -10   0    0.41    0.26
  -4  10   0    0.14    0.23
   3 -10   0   33.52    1.47
  -3  10   0   34.24    1.47
   2 -10   0    8.65    0.71
  -2  10   0    7.42    0.67
   1 -10   0   22.93    1.20
  -1  10   0   24.95    1.23
   0 -10   0    6.29    0.69
   0  10   0    7.00    0.80
   7 -11   0    0.59    0.30
  -7  11   0    0.35    0.30
   6 -11   0    2.92    0.54
  -6  11   0    1.12    0.34
   5 -11   0    8.55    0.75
  -5  11   0    5.28    0.63
   4 -11   0   11.89    0.86
  -4  11   0   10.82    0.82
   3 -11   0    3.48    0.50
  -2  11  -1   16.04    1.01
   2 -11   1   15.17    0.99
  -3  11  -1   10.24    0.80
   3 -11   1   10.85    0.81
  -4  11  -1   -0.05    0.22
   4 -11   1   -0.10    0.21
  -5  11  -1    3.82    0.58
   5 -11   1    2.55    0.50
  -6  11  -1    2.63    0.46
   6 -11   1    3.07    0.52
  -7  11  -1    1.14    0.37
   7 -11   1    0.74    0.33
   0  10  -1   13.01    0.89
   0 -10   1   12.93    0.88
  -1  10  -1    0.51    0.27
   1 -10   1    0.46    0.27
  -2  10  -1   26.74    1.28
   2 -10   1   27.89    1.30
  -3  10  -1    0.06    0.20
   3 -10   1    0.29    0.21
  -4  10  -1    0.81    0.29
   4 -10   1    1.12    0.34
  -5  10  -1   10.98    0.77
   5 -10   1   11.19    0.77
  -6  10  -1    6.06    0.67
   6 -10   1    6.73    0.74
  -7  10  -1   12.52    0.88
   7 -10   1   13.18    0.86
  -8  10  -1    5.40    0.69
   8 -10   1    5.50    0.70
   2   9  -1    2.68    0.51
  -2  -9   1    3.03    0.51
   1   9  -1    0.83    0.31
  -1  -9   1    1.33    0.35
   0   9  -1   11.13    0.76
   0  -9   1   11.11    0.77
  -1   9  -1    0.28    0.22
   1  -9   1    0.46    0.23
  -2   9  -1   29.11    1.28
   2  -9   1   30.20    1.30
  -3   9  -1    5.87    0.53
  -4   9  -1    3.85    0.47
   4  -9   1    3.76    0.46
  -5   9  -1   13.66    0.80
   5  -9   1   13.21    0.79
  -6   9  -1   13.78    0.83
   6  -9   1   13.23    0.81
  -7   9  -1    2.61    0.42
   7  -9   1    2.06    0.42
  -8   9  -1    7.16    0.65
   8  -9   1    7.35    0.64
  -9   9  -1   35.28    1.55
   9  -9   1   33.03    1.50
   3   8  -1    1.48    0.38
  -3  -8   1    0.94    0.29
   2   8  -1    0.48    0.25
  -2  -8   1    0.35    0.22
   1   8  -1    0.75    0.26
  -1  -8   1    0.31    0.20
   0   8  -1    1.10    0.29
   0  -8   1    1.97    0.36
  -1   8  -1   91.98    2.87
   1  -8   1   90.65    2.84
  -2   8  -1   16.02    0.84
   2  -8   1   17.13    0.85
  -3   8  -1   66.61    2.18
   3  -8   1   65.96    2.16
  -4   8  -1    6.03    0.51
   4  -8   1    5.53    0.49
  -5   8  -1    0.18    0.17
   5  -8   1    0.21    0.17
  -6   8  -1    0.26    0.18
   6  -8   1    0.26    0.19
  -7   8  -1    1.31    0.34
  -7   8  -1    1.36    0.22
   7  -8   1    1.28    0.31
  -8   8  -1    0.79    0.29
   8  -8   1    0.37    0.23
  -9   8  -1   34.17    1.49
   9  -8   1   33.68    1.48
 -10   8  -1   58.82    2.22
  10  -8   1   56.61    2.18
   5   7  -1    1.92    0.44
  -5  -7   1    2.28    0.49
   4   7  -1   12.19    0.86
  -4  -7   1   12.14    0.84
   3   7  -1   14.35    0.88
  -3  -7   1   15.35    0.88
   2   7  -1   18.08    0.95
  -2  -7   1   18.56    0.94
   1   7  -1    2.69    0.41
  -1  -7   1    2.41    0.38
   0   7  -1   12.82    0.72
   0  -7   1   13.22    0.71
  -1   7  -1   -0.02    0.14
   1  -7   1    0.30    0.19
  -2   7  -1  141.43    4.06
   2  -7   1  144.23    4.06
  -3   7  -1    0.03    0.13
   3  -7   1    0.03    0.11
  -4   7  -1    1.01    0.22
   4  -7   1    1.09    0.23
  -5   7  -1   38.47    1.41
   5  -7   1   38.19    1.39
  -6   7  -1   20.17    0.92
   6  -7   1   18.13    0.89
  -7   7  -1    0.12    0.17
  -7   7  -1    0.23    0.11
   7  -7   1    0.09    0.15
  -8   7  -1    0.72    0.25
   8  -7   1    0.86    0.28
  -9   7  -1   14.20    0.88
  -9   7  -1   14.09    0.87
   9  -7   1   13.12    0.84
 -10   7  -1   48.90    1.95
  10  -7   1   49.60    1.93
   6   6  -1    9.46    0.80
  -6  -6   1    8.92    0.78
   5   6  -1    4.11    0.54
  -5  -6   1    3.78    0.51
   4   6  -1   29.57    1.35
  -4  -6   1   32.17    1.36
   3   6  -1   15.90    0.87
  -3  -6   1   15.67    0.84
  -2  -6   1    6.42    0.50
   1   6  -1    0.77    0.23
  -1  -6   1    0.89    0.24
   0  -6   1   12.50    0.64
  -1   6  -1    2.83    0.32
   1  -6   1    4.57    0.36
   2  -6   1   68.90    2.10
  -3   6  -1   20.90    0.88
   3  -6   1   22.84    0.88
  -4   6  -1   98.72    2.86
   4  -6   1   96.90    2.83
  -5   6  -1   15.59    0.75
   5  -6   1   15.40    0.73
  -6   6  -1   50.91    1.73
  -6   6  -1   52.60    1.49
   6  -6   1   49.87    1.71
  -7   6  -1    7.32    0.54
  -7   6  -1    8.17    0.38
   7  -6   1    7.04    0.54
  -8   6  -1    0.22    0.20
   8  -6   1    0.09    0.17
   8  -6   1   -0.04    0.10
  -9   6  -1   -0.05    0.19
   9  -6   1    0.20    0.14
   9  -6   1    0.29    0.22
 -10   6  -1    6.13    0.66
  10  -6   1    5.27    0.60
   6   5  -1    1.31    0.37
  -6  -5   1    1.49    0.40
   5   5  -1   17.77    0.96
  -5  -5   1   16.71    0.94
   4   5  -1   16.09    0.85
  -4  -5   1   15.35    0.82
   3   5  -1    8.13    0.55
  -3  -5   1    7.80    0.54
   2   5  -1    5.77    0.44
  -2  -5   1    5.07    0.42
  -1  -5   1   26.70    1.01
   0   5  -1   19.79    0.80
   0  -5   1   18.37    0.76
  -1   5  -1   71.13    2.14
   1  -5   1   74.12    2.14
  -2   5  -1    9.16    0.48
   2  -5   1    9.43    0.47
  -3   5  -1  137.02    3.82
   3  -5   1  141.25    3.82
  -4   5  -1   37.34    1.27
   4  -5   1   38.76    1.27
  -5   5  -1  132.21    3.74
  -5   5  -1  132.75    3.51
   5  -5   1  135.63    3.74
  -6   5  -1   10.21    0.59
  -6   5  -1   10.36    0.42
   6  -5   1   10.84    0.60
  -7   5  -1    9.52    0.61
   7  -5   1    9.14    0.45
   7  -5   1    9.72    0.60
  -8   5  -1    3.11    0.42
   8  -5   1    3.55    0.43
   8  -5   1    3.64    0.30
  -9   5  -1    4.42    0.56
   9  -5   1    6.09    0.65
 -10   5  -1   21.21    1.14
  10  -5   1   22.23    1.15
   7   4  -1    0.29    0.26
  -7  -4   1    0.25    0.25
   6   4  -1    1.83    0.36
  -6  -4   1    2.30    0.43
   5   4  -1   14.25    0.80
  -5  -4   1   14.87    0.81
   4   4  -1    5.34    0.46
   3   4  -1   55.31    1.82
  -3  -4   1   58.05    1.84
   2   4  -1   47.17    1.56
  -2  -4   1   48.95    1.55
   1   4  -1    9.06    0.49
  -1  -4   1   10.47    0.50
   0   4  -1   40.96    1.31
   0  -4   1   41.38    1.29
  -1   4  -1    2.64    0.28
   1  -4   1    1.60    0.19
  -2   4  -1   20.99    0.75
   2  -4   1   20.61    0.74
  -3   4  -1    1.93    0.23
   3  -4   1    2.20    0.25
  -4   4  -1    4.91    0.34
  -4   4  -1    4.74    0.23
   4  -4   1    5.05    0.34
  -5   4  -1  217.73    5.83
  -5   4  -1  211.15    5.57
   5  -4   1  222.24    5.82
  -6   4  -1    0.44    0.18
   6  -4   1    0.55    0.17
   6  -4   1    0.35    0.13
  -7   4  -1    0.05    0.14
   7  -4   1    0.25    0.12
   7  -4   1   -0.01    0.13
  -8   4  -1   20.62    0.98
   8  -4   1   20.12    0.97
  -9   4  -1    7.79    0.64
   9  -4   1    8.29    0.64
 -10   4  -1   17.03    1.02
  10  -4   1   17.49    1.01
   8   3  -1   10.30    0.80
  -8  -3   1    8.70    0.74
   7   3  -1    7.36    0.63
  -7  -3   1    6.61    0.60
   6   3  -1    0.41    0.21
  -6  -3   1    0.09    0.16
  -5  -3   1   55.29    1.85
   4   3  -1   84.12    2.54
  -4  -3   1   84.39    2.53
   3   3  -1   74.18    2.21
   2   3  -1  193.17    5.19
  -2  -3   1  196.19    5.19
   1   3  -1   43.31    1.32
  -1  -3   1   42.67    1.31
   0   3  -1    1.14    0.17
   0   3  -1    0.70    0.14
   0  -3   1    0.60    0.13
  -1   3  -1   12.54    0.50
  -1   3  -1   12.86    0.49
   1  -3   1   13.07    0.49
  -2   3  -1  155.30    3.94
  -2   3  -1  146.02    3.94
   2  -3   1  146.30    3.93
  -3   3  -1    7.81    0.39
   3  -3   1    7.83    0.38
  -4   3  -1  274.26    7.07
   4  -3   1  265.47    7.05
  -5   3  -1   44.63    1.47
  -5   3  -1   44.67    1.48
   5  -3   1   47.57    1.33
   5  -3   1   45.66    1.47
  -6   3  -1  208.22    5.64
   6  -3   1  211.91    5.31
   6  -3   1  201.62    5.61
  -7   3  -1    0.26    0.18
   7  -3   1    0.13    0.10
   7  -3   1    0.17    0.14
  -8   3  -1    0.37    0.22
   8  -3   1    0.23    0.17
  -9   3  -1    2.58    0.45
   9  -3   1    1.80    0.34
 -10   3  -1   18.02    1.08
  10  -3   1   20.12    1.09
   9   2  -1   27.68    1.37
  -9  -2   1   24.23    1.30
   8   2  -1   14.61    0.91
  -8  -2   1   14.37    0.89
   7   2  -1   16.45    0.89
  -7  -2   1   16.26    0.88
   6   2  -1    2.35    0.34
  -6  -2   1    2.37    0.36
   5   2  -1    0.40    0.16
  -5  -2   1    0.75    0.21
   4   2  -1   63.73    1.94
  -4  -2   1   64.05    1.95
   3   2  -1   73.70    2.12
  -3  -2   1   73.15    2.12
   2   2  -1  147.26    3.97
  -2  -2   1  150.86    3.97
   1   2  -1   33.59    1.03
   1   2  -1   34.97    1.04
  -1  -2   1   34.93    1.03
   0   2  -1   15.74    0.53
   0   2  -1   16.20    0.53
   0  -2   1   15.75    0.51
   0  -2   1   15.74    0.53
  -1   2  -1  471.75   12.07
  -1   2  -1  448.89   11.90
   1  -2   1  447.03   11.85
   1  -2   1  478.87   12.04
  -2   2  -1    2.73    0.19
  -2   2  -1    2.61    0.20
  -2   2  -1    2.41    0.11
   2  -2   1    2.60    0.19
  -3   2  -1    9.14    0.41
   3  -2   1    8.51    0.31
   3  -2   1    9.50    0.41
  -4   2  -1   46.97    1.48
   4  -2   1   47.83    1.37
   4  -2   1   46.91    1.47
   4  -2   1   52.65    1.37
  -5   2  -1  301.24    7.88
   5  -2   1  295.39    7.53
   5  -2   1  304.31    7.88
   5  -2   1  297.16    7.69
  -6   2  -1   29.42    1.13
   6  -2   1   30.47    0.99
  -7   2  -1    0.68    0.21
   7  -2   1    1.24    0.21
   7  -2   1    1.06    0.23
  -8   2  -1    0.39    0.22
   8  -2   1    0.13    0.17
  -9   2  -1    1.63    0.39
   9  -2   1    1.59    0.40
 -10   2  -1   10.83    0.85
  10  -2   1   10.84    0.83
   9   1  -1    2.26    0.45
  -9  -1   1    2.30    0.46
   8   1  -1   50.79    1.90
  -8  -1   1   52.33    1.92
   7   1  -1    0.32    0.19
  -7  -1   1    0.13    0.17
   6   1  -1    4.48    0.47
  -6  -1   1    4.57    0.41
   5   1  -1    0.55    0.16
  -5  -1   1    0.53    0.17
   4   1  -1   87.32    2.51
  -4  -1   1   88.52    2.51
   3   1  -1  128.91    3.47
  -3  -1   1  129.09    3.47
   2   1  -1   62.24    1.76
   2   1  -1   67.28    1.78
  -2  -1   1   62.75    1.77
   1   1  -1   68.53    1.88
   1   1  -1   72.32    1.89
  -1  -1   1   70.41    1.88
  -1  -1   1   73.02    1.88
   0   1  -1  339.72    8.42
   0   1  -1  314.89    8.43
   0  -1   1  321.26    8.35
  -1   1  -1   31.52    0.87
  -1   1  -1   31.37    0.87
   1  -1   1   30.73    0.87
   1  -1   1   30.79    0.87
  -2   1  -1    0.28    0.08
  -2   1  -1    0.43    0.10
  -2   1  -1    0.28    0.08
   2  -1   1    0.38    0.10
   2  -1   1    0.31    0.09
  -3   1  -1    2.44    0.21
  -3   1  -1    2.49    0.21
   3  -1   1    2.57    0.21
   3  -1   1    2.84    0.20
  -4   1  -1    6.39    0.37
  -4   1  -1    6.29    0.32
   4  -1   1    6.14    0.32
   4  -1   1    5.74    0.35
  -5   1  -1  101.11    2.67
  -5   1  -1   98.17    2.85
   5  -1   1   97.46    2.83
  -6   1  -1    0.12    0.14
   6  -1   1    0.14    0.14
   6  -1   1    0.27    0.12
  -7   1  -1    8.38    0.58
   7  -1   1    7.83    0.56
  -8   1  -1   24.63    1.15
   8  -1   1   25.64    1.16
  -9   1  -1   27.86    1.32
   9  -1   1   28.74    1.32
  10   0  -1    0.45    0.29
 -10   0   1    0.93    0.36
   9   0  -1   25.20    1.22
  -9   0   1   24.77    1.22
   8   0  -1   14.35    0.83
  -8   0   1   14.79    0.83
   7   0  -1    2.05    0.34
  -7   0   1    1.79    0.30
  -7   0   1    2.02    0.29
   6   0  -1    2.09    0.30
  -6   0   1    2.74    0.24
  -6   0   1    2.81    0.36
   5   0  -1   62.42    1.96
   5   0  -1   65.64    1.92
  -5   0   1   66.41    1.80
  -5   0   1   66.37    1.97
   4   0  -1   15.23    0.57
  -4   0   1   13.40    0.48
  -4   0   1   13.89    0.57
   3   0  -1  203.79    5.48
   3   0  -1  212.01    5.52
   3   0  -1  219.91    5.52
  -3   0   1  212.03    5.51
   2   0  -1   94.39    2.57
   2   0  -1   95.38    2.56
   2   0  -1  101.31    2.57
  -2   0   1   99.63    2.57
  -2   0   1   95.43    2.56
   1   0  -1   77.44    1.99
   1   0  -1   78.11    1.99
  -1   0   1   77.13    1.99
  -1   0   1   76.19    2.01
   0   0  -1    6.08    0.17
   0   0  -1    5.88    0.17
   0   0   1    5.87    0.17
   0   0   1    6.26    0.20
  -1   0  -1  108.95    2.80
  -1   0  -1  111.16    2.88
  -1   0  -1  115.09    2.88
   1   0   1  110.89    2.87
   1   0   1  112.03    2.87
   1   0   1  107.27    2.80
  -2   0  -1   57.18    1.54
  -2   0  -1   54.84    1.48
  -2   0  -1   54.57    1.53
   2   0   1   52.27    1.53
  -3   0  -1    3.18    0.23
  -3   0  -1    3.15    0.24
   3   0   1    2.74    0.23
  -4   0  -1    6.96    0.37
  -4   0  -1    6.76    0.40
   4   0   1    6.37    0.38
  -5   0  -1    9.61    0.48
  -5   0  -1    9.68    0.54
   5   0   1    9.60    0.53
  -6   0  -1   70.46    2.22
   6   0   1   68.64    2.19
  -7   0  -1   57.31    1.97
   7   0   1   56.46    1.95
  -8   0  -1    3.62    0.53
   8   0   1    4.55    0.55
  -9   0  -1   13.04    0.90
   9   0   1   12.65    0.87
  10  -1  -1    0.28    0.26
 -10   1   1   -0.01    0.23
   9  -1  -1   45.54    1.77
  -9   1   1   44.33    1.73
   8  -1  -1    0.31    0.19
  -8   1   1    0.49    0.22
   7  -1  -1   48.05    1.65
  -7   1   1   47.09    1.64
   6  -1  -1   67.39    2.02
  -6   1   1   67.05    2.08
  -6   1   1   68.33    1.84
   5  -1  -1    0.53    0.14
   5  -1  -1    0.95    0.17
  -5   1   1    0.83    0.18
  -5   1   1    0.98    0.12
   4  -1  -1   52.26    1.57
   4  -1  -1   55.42    1.62
  -4   1   1   55.11    1.43
  -4   1   1   55.86    1.61
   3  -1  -1   94.05    2.63
   3  -1  -1   99.30    2.61
   3  -1  -1  102.26    2.64
  -3   1   1   95.46    2.60
  -3   1   1   97.59    2.63
   2  -1  -1  165.93    4.26
   2  -1  -1  166.75    4.26
  -2   1   1  162.22    4.25
  -2   1   1  157.60    4.24
  -2   1   1  170.08    4.26
   1  -1  -1   38.10    1.01
   1  -1  -1   35.89    1.00
  -1   1   1   36.92    1.00
   0  -1  -1   38.00    1.07
   0  -1  -1   37.99    1.06
   0   1   1   39.43    1.06
  -1  -1  -1  119.41    3.24
  -1  -1  -1  129.82    3.25
   1   1   1  120.78    3.24
  -2  -1  -1    4.16    0.26
  -2  -1  -1    3.66    0.25
  -2  -1  -1    3.95    0.25
   2   1   1    3.70    0.25
  -3  -1  -1   15.96    0.60
  -3  -1  -1   14.70    0.62
   3   1   1   15.15    0.61
  -4  -1  -1    6.60    0.42
  -4  -1  -1    6.06    0.38
   4   1   1    6.81    0.42
  -5  -1  -1  111.28    3.21
   5   1   1  108.25    3.17
  -6  -1  -1   19.48    0.93
   6   1   1   19.27    0.90
  -7  -1  -1    2.00    0.35
   7   1   1    2.06    0.37
  -8  -1  -1   10.10    0.76
   8   1   1    7.93    0.68
  10  -2  -1   22.33    1.18
 -10   2   1   22.80    1.17
   9  -2  -1    8.42    0.66
  -9   2   1    8.80    0.66
   8  -2  -1  107.47    3.26
  -8   2   1  107.83    3.25
   7  -2  -1    1.53    0.30
  -7   2   1    2.03    0.31
   6  -2  -1    0.68    0.16
   6  -2  -1    0.41    0.15
  -6   2   1    0.35    0.15
   5  -2  -1    3.08    0.28
  -5   2   1    3.15    0.28
   4  -2  -1    1.03    0.19
   4  -2  -1    1.16    0.10
  -4   2   1    1.13    0.17
  -4   2   1    1.20    0.19
  -4   2   1    0.95    0.18
   3  -2  -1   39.18    1.14
   3  -2  -1   36.27    1.12
  -3   2   1   37.56    1.13
   2  -2  -1  107.43    2.73
   2  -2  -1   99.27    2.72
  -2   2   1  100.99    2.71
   1  -2  -1    1.72    0.17
   1  -2  -1    1.23    0.15
  -1   2   1    1.48    0.16
   0  -2  -1  950.22   25.29
   0  -2  -1 1000.00   25.12
   0   2   1  966.57   25.28
  -1  -2  -1   10.12    0.44
  -1  -2  -1   10.37    0.45
   1   2   1    9.95    0.44
  -2  -2  -1   72.48    2.05
   2   2   1   69.02    2.03
  -3  -2  -1    4.20    0.34
   3   2   1    4.43    0.34
  -4  -2  -1   19.48    0.84
   4   2   1   19.91    0.84
  -5  -2  -1    0.67    0.22
   5   2   1    0.53    0.19
  -6  -2  -1    0.67    0.25
   6   2   1    0.70    0.25
  -7  -2  -1    2.98    0.49
   7   2   1    2.85    0.47
  -8  -2  -1   47.84    1.93
   8   2   1   47.39    1.90
  10  -3  -1    8.26    0.68
 -10   3   1    7.41    0.65
   9  -3  -1   27.16    1.22
  -9   3   1   26.81    1.20
   8  -3  -1    0.26    0.19
  -8   3   1    0.21    0.18
   7  -3  -1   16.05    0.77
  -7   3   1   15.30    0.74
   6  -3  -1   18.16    0.79
  -6   3   1   18.42    0.78
  -6   3   1   18.71    0.71
   5  -3  -1   45.89    1.21
   5  -3  -1   46.36    1.46
  -5   3   1   45.90    1.38
  -5   3   1   46.06    1.45
   4  -3  -1   21.65    0.79
  -4   3   1   22.91    0.80
   3  -3  -1    1.11    0.15
   3  -3  -1    2.11    0.23
  -3   3   1    1.68    0.20
   2  -3  -1    0.00    0.08
   2  -3  -1    0.06    0.08
  -2   3   1    0.26    0.10
   1  -3  -1  353.78    8.51
   1  -3  -1  312.19    8.46
  -1   3   1  321.36    8.48
   0  -3  -1   18.57    0.69
   0  -3  -1   19.96    0.72
   0   3   1   18.52    0.69
  -1  -3  -1  126.49    3.47
  -2  -3  -1    1.07    0.20
   2   3   1    1.17    0.21
  -3  -3  -1    9.30    0.54
   3   3   1   10.86    0.57
  -4  -3  -1   18.14    0.85
   4   3   1   18.01    0.84
  -5  -3  -1    3.54    0.48
   5   3   1    4.12    0.52
  -6  -3  -1   11.11    0.75
   6   3   1   10.25    0.71
  -7  -3  -1   26.26    1.29
   7   3   1   26.39    1.28
  11  -4  -1    0.86    0.31
 -11   4   1    0.56    0.29
  10  -4  -1    2.73    0.43
 -10   4   1    2.82    0.44
   9  -4  -1   77.15    2.52
  -9   4   1   74.46    2.49
   8  -4  -1    0.44    0.21
  -8   4   1    0.30    0.18
   7  -4  -1   66.33    2.07
  -7   4   1   65.82    2.05
  -7   4   1   60.37    1.90
   6  -4  -1   55.22    1.44
   6  -4  -1   52.43    1.73
  -6   4   1   54.17    1.63
  -6   4   1   53.69    1.72
   5  -4  -1   89.91    2.56
  -5   4   1   86.96    2.55
  -4   4   1   22.14    0.82
   3  -4  -1   21.07    0.77
  -3   4   1   20.57    0.76
   2  -4  -1    4.13    0.30
  -2   4   1    4.59    0.30
   1  -4  -1   66.01    1.92
  -1   4   1   65.17    1.92
   0  -4  -1   50.13    1.58
   0   4   1   51.41    1.58
  -1  -4  -1   69.10    2.06
   1   4   1   66.30    2.05
  -2  -4  -1   11.53    0.62
   2   4   1   11.66    0.61
  -3  -4  -1    4.67    0.50
   3   4   1    3.92    0.43
  -4  -4  -1    2.37    0.38
   4   4   1    2.12    0.34
  -5  -4  -1   54.22    1.98
   5   4   1   55.79    1.97
  -6  -4  -1    0.09    0.20
   6   4   1    0.07    0.20
  11  -5  -1   13.01    0.90
 -11   5   1   11.29    0.86
  10  -5  -1    7.11    0.63
 -10   5   1    7.43    0.65
   9  -5  -1   29.41    1.28
  -9   5   1   28.98    1.26
   8  -5  -1   92.22    2.86
  -8   5   1   96.89    2.87
  -8   5   1   88.08    2.65
   7  -5  -1   44.57    1.61
   7  -5  -1   46.25    1.29
  -7   5   1   49.26    1.50
  -7   5   1   47.60    1.62
   6  -5  -1    8.90    0.53
  -6   5   1    9.20    0.47
  -6   5   1    8.26    0.52
   5  -5  -1   56.73    1.81
  -5   5   1   58.44    1.80
   4  -5  -1    7.16    0.43
  -4   5   1    6.92    0.42
   3  -5  -1   13.16    0.60
  -3   5   1   13.34    0.60
   2  -5  -1   10.93    0.54
  -2   5   1   10.67    0.53
   1  -5  -1    0.40    0.14
  -1   5   1    0.87    0.19
   0  -5  -1  188.07    5.12
   0   5   1  187.03    5.11
  -1  -5  -1   -0.06    0.10
   1   5   1    0.34    0.17
  -2  -5  -1   23.78    1.03
   2   5   1   24.18    1.03
   3   5   1   10.39    0.66
  -4  -5  -1   29.43    1.31
   4   5   1   32.15    1.34
  -5  -5  -1    2.67    0.49
   5   5   1    2.75    0.47
  -6  -5  -1   15.80    1.03
  11  -6  -1   -0.03    0.24
  10  -6  -1    7.78    0.66
 -10   6   1    7.10    0.63
   9  -6  -1   13.55    0.82
  -9   6   1   12.94    0.79
   8  -6  -1    6.44    0.30
   8  -6  -1    6.46    0.54
  -8   6   1    6.17    0.42
  -8   6   1    5.70    0.51
   7  -6  -1    6.58    0.51
  -7   6   1    7.27    0.52
  -7   6   1    7.27    0.44
   6  -6  -1   35.46    1.31
  -6   6   1   34.65    1.28
   5  -6  -1   32.23    1.20
  -5   6   1   32.48    1.19
   4  -6  -1   11.43    0.61
  -4   6   1   11.81    0.61
   3  -6  -1   10.50    0.58
  -3   6   1   10.56    0.57
   2  -6  -1    0.94    0.22
  -2   6   1    0.75    0.20
   1  -6  -1   42.00    1.49
  -1   6   1   45.22    1.51
   0  -6  -1    5.77    0.46
   0   6   1    4.78    0.43
  -1  -6  -1  104.81    3.15
   1   6   1  104.54    3.15
  -2  -6  -1   22.72    1.05
   2   6   1   22.74    1.05
  -3  -6  -1    4.47    0.52
   3   6   1    4.82    0.58
  -4  -6  -1    4.91    0.59
   4   6   1    3.97    0.56
  -5  -6  -1    2.72    0.48
  10  -7  -1    6.97    0.75
 -10   7   1    6.63    0.72
   9  -7  -1    0.53    0.26
  -9   7   1    0.39    0.23
  -9   7   1   -0.07    0.12
   8  -7  -1    0.18    0.20
  -8   7   1    0.12    0.14
  -8   7   1   -0.01    0.16
   7  -7  -1   19.46    0.95
  -7   7   1   20.56    0.96
   6  -7  -1   73.66    2.32
  -6   7   1   69.86    2.30
   5  -7  -1   44.78    1.57
  -5   7   1   42.95    1.54
   4  -7  -1   79.22    2.45
  -4   7   1   77.62    2.43
   3  -7  -1    5.70    0.47
  -3   7   1    5.48    0.45
   2  -7  -1    0.40    0.19
  -2   7   1    0.33    0.17
   1  -7  -1    2.83    0.37
  -1   7   1    3.70    0.46
   0  -7  -1    2.03    0.37
   0   7   1    1.23    0.28
  -1  -7  -1    5.83    0.53
   1   7   1    5.86    0.53
  -2  -7  -1   18.87    1.00
   2   7   1   18.67    1.00
  -3  -7  -1   30.50    1.39
   3   7   1   29.22    1.36
  -4  -7  -1   11.10    0.85
  10  -8  -1    7.33    0.79
   9  -8  -1    0.41    0.26
  -9   8   1    0.59    0.21
  -9   8   1    0.42    0.25
   8  -8  -1    7.43    0.63
  -8   8   1    8.21    0.53
  -8   8   1    8.13    0.65
   7  -8  -1   10.81    0.72
  -7   8   1   10.31    0.69
   6  -8  -1   21.40    1.03
  -6   8   1   21.09    1.01
   5  -8  -1   65.32    2.19
  -5   8   1   64.00    2.14
   4  -8  -1    0.69    0.22
  -4   8   1    0.81    0.24
   3  -8  -1    1.10    0.26
  -3   8   1    0.90    0.24
   2  -8  -1    0.06    0.16
  -2   8   1    0.03    0.15
   1  -8  -1   -0.04    0.18
  -1   8   1   -0.05    0.14
   0  -8  -1    0.40    0.23
   0   8   1    0.59    0.24
  -1  -8  -1   -0.03    0.19
   1   8   1    0.05    0.19
  -2  -8  -1   12.53    0.85
   9  -9  -1    9.22    0.76
   8  -9  -1    6.59    0.73
  -8   9   1    6.00    0.68
   7  -9  -1   -0.01    0.17
  -7   9   1   -0.12    0.18
   6  -9  -1   34.99    1.47
  -6   9   1   35.77    1.46
   5  -9  -1   16.81    0.95
  -5   9   1   18.44    0.95
   4  -9  -1   14.35    0.85
  -4   9   1   13.99    0.82
   3  -9  -1   14.32    0.87
  -3   9   1   16.36    0.89
   2  -9  -1    0.61    0.26
  -2   9   1    0.38    0.24
   1  -9  -1   17.92    0.99
  -1   9   1   15.46    0.92
   0  -9  -1    9.47    0.74
  -1  -9  -1    8.26    0.71
   8 -10  -1    0.68    0.31
   7 -10  -1   11.45    0.83
   6 -10  -1   17.46    1.04
  -6  10   1   19.82    1.05
   5 -10  -1   15.25    0.96
  -5  10   1   14.96    0.90
   4 -10  -1   45.78    1.82
  -4  10   1   43.68    1.76
   3 -10  -1    0.31    0.26
   2 -10  -1    9.94    0.78
   1 -10  -1    0.62    0.32
  -2  11  -2   -0.03    0.22
   2 -11   2   -0.06    0.23
  -3  11  -2    0.07    0.23
   3 -11   2    0.05    0.21
  -4  11  -2    6.98    0.78
   4 -11   2    6.13    0.72
  -5  11  -2   10.17    0.80
   5 -11   2   10.76    0.80
  -6  11  -2    1.74    0.40
   6 -11   2    2.32    0.44
  -7  11  -2   80.09    2.84
   7 -11   2   79.63    2.78
   1  10  -2    0.45    0.30
  -1 -10   2    0.40    0.26
   0  10  -2    1.05    0.37
   0 -10   2    1.09    0.34
  -1  10  -2    2.25    0.42
   1 -10   2    3.06    0.46
  -2  10  -2   17.43    0.98
   2 -10   2   14.67    0.90
  -3  10  -2    2.54    0.45
   3 -10   2    1.90    0.38
  -4  10  -2    0.20    0.23
   4 -10   2    0.03    0.20
  -5  10  -2    0.90    0.29
   5 -10   2    0.35    0.23
  -6  10  -2   46.09    1.79
   6 -10   2   42.40    1.71
  -7  10  -2    2.86    0.51
   7 -10   2    3.98    0.55
  -8  10  -2   38.34    1.66
   8 -10   2   37.91    1.62
   2   9  -2    5.03    0.65
  -2  -9   2    5.41    0.67
   1   9  -2   -0.06    0.19
  -1  -9   2    0.11    0.19
   0   9  -2   38.68    1.56
   0  -9   2   37.26    1.52
  -1   9  -2   39.51    1.60
   1  -9   2   41.79    1.58
  -2   9  -2   11.83    0.75
   2  -9   2   11.75    0.74
  -3   9  -2   10.03    0.68
   3  -9   2    9.32    0.64
  -4   9  -2    0.22    0.20
   4  -9   2    0.42    0.22
  -5   9  -2    0.24    0.20
   5  -9   2    0.15    0.18
  -6   9  -2   13.17    0.82
   6  -9   2   12.15    0.77
  -7   9  -2    3.27    0.47
   7  -9   2    3.35    0.44
  -8   9  -2   18.46    1.05
   8  -9   2   18.49    1.02
  -9   9  -2    6.89    0.77
   9  -9   2    7.50    0.68
   4   8  -2   19.37    1.14
  -4  -8   2   18.40    1.07
   3   8  -2    2.42    0.46
  -3  -8   2    2.52    0.46
   2   8  -2   17.87    0.99
  -2  -8   2   16.35    0.91
   1   8  -2   16.77    0.92
  -1  -8   2   16.23    0.87
   0   8  -2   30.66    1.28
   0  -8   2   29.83    1.25
  -1   8  -2   16.07    0.85
   1  -8   2   16.05    0.81
  -2   8  -2   50.22    1.76
   2  -8   2   49.38    1.73
  -3   8  -2    0.92    0.24
   3  -8   2    1.17    0.28
  -4   8  -2    6.54    0.52
   4  -8   2    6.25    0.49
  -5   8  -2    2.34    0.38
   5  -8   2    1.66    0.32
  -6   8  -2    2.70    0.44
   6  -8   2    3.14    0.43
  -7   8  -2   28.57    1.25
   7  -8   2   28.54    1.23
  -8   8  -2    4.35    0.52
   8  -8   2    4.80    0.56
  -9   8  -2   16.62    0.99
   9  -8   2   16.85    0.98
 -10   8  -2   12.43    0.90
  10  -8   2   12.63    0.89
   5   7  -2    1.66    0.43
  -5  -7   2    1.68    0.39
   4   7  -2    0.99    0.32
  -4  -7   2    1.08    0.32
   3   7  -2   18.71    0.99
  -3  -7   2   16.59    0.91
   2   7  -2    8.92    0.64
  -2  -7   2    7.96    0.59
   1   7  -2    2.47    0.39
  -1  -7   2    2.03    0.35
   0   7  -2    0.08    0.15
   0  -7   2    0.00    0.11
  -1   7  -2   49.23    1.70
   1  -7   2   51.01    1.68
  -2   7  -2   26.03    1.07
   2  -7   2   27.09    1.05
  -3   7  -2    0.60    0.21
   3  -7   2    0.73    0.21
  -4   7  -2   16.27    0.79
   4  -7   2   15.90    0.75
  -5   7  -2    4.27    0.47
   5  -7   2    3.40    0.42
  -6   7  -2   43.80    1.58
  -6   7  -2   43.01    1.24
   6  -7   2   42.93    1.54
  -7   7  -2    0.05    0.17
   7  -7   2    0.32    0.19
  -8   7  -2   17.65    0.95
   8  -7   2   17.26    0.92
  -9   7  -2   36.26    1.54
   9  -7   2   35.90    1.25
   9  -7   2   33.66    1.47
 -10   7  -2    1.83    0.42
  10  -7   2    1.83    0.42
   6   6  -2    5.64    0.67
  -6  -6   2    4.38    0.59
   5   6  -2   19.35    1.06
  -5  -6   2   18.90    1.03
   4   6  -2   16.47    0.93
  -4  -6   2   17.60    0.92
   3   6  -2    1.07    0.28
  -3  -6   2    1.44    0.31
   2   6  -2    1.44    0.26
  -2  -6   2    1.71    0.31
   1   6  -2   10.18    0.61
  -1  -6   2   10.49    0.59
   0   6  -2    0.23    0.14
   0  -6   2    0.53    0.18
  -1   6  -2  141.51    4.02
   1  -6   2  146.60    3.99
  -2   6  -2   51.04    1.67
   2  -6   2   52.59    1.63
  -3   6  -2  109.88    3.14
   3  -6   2  108.97    3.10
  -4   6  -2   -0.02    0.11
   4  -6   2   -0.01    0.11
  -5   6  -2    4.19    0.45
   5  -6   2    4.22    0.37
  -6   6  -2    2.68    0.39
   6  -6   2    3.29    0.39
  -7   6  -2    4.36    0.51
   7  -6   2    4.41    0.48
  -8   6  -2    4.24    0.53
  -8   6  -2    4.33    0.54
   8  -6   2    4.21    0.53
   8  -6   2    4.81    0.38
  -9   6  -2   59.05    2.17
   9  -6   2   61.71    2.15
   9  -6   2   60.17    1.87
 -10   6  -2   38.25    1.65
  10  -6   2   37.31    1.62
   7   5  -2    0.21    0.27
  -7  -5   2   -0.13    0.23
   6   5  -2   18.09    1.04
  -6  -5   2   19.69    1.05
   5   5  -2    1.49    0.34
  -5  -5   2    0.55    0.23
   4   5  -2   37.73    1.44
  -4  -5   2   36.36    1.39
   3   5  -2   32.23    1.25
  -3  -5   2   32.27    1.23
   2   5  -2    4.11    0.44
  -2  -5   2    4.54    0.38
   1   5  -2    0.18    0.14
  -1  -5   2    0.23    0.13
   0   5  -2   59.41    1.83
   0  -5   2   59.11    1.80
  -1   5  -2   15.61    0.67
   1  -5   2   15.78    0.64
  -2   5  -2  183.50    4.96
   2  -5   2  185.24    4.92
  -3   5  -2   25.73    0.93
   3  -5   2   24.31    0.89
  -4   5  -2   10.22    0.53
   4  -5   2    9.91    0.51
  -5   5  -2   12.74    0.64
   5  -5   2   13.49    0.64
  -6   5  -2    0.04    0.14
   6  -5   2    0.20    0.14
  -7   5  -2    2.54    0.39
  -7   5  -2    1.54    0.32
   7  -5   2    1.96    0.26
   7  -5   2    2.42    0.37
  -8   5  -2    3.54    0.45
   8  -5   2    4.10    0.39
   8  -5   2    4.56    0.50
  -9   5  -2   11.87    0.79
   9  -5   2   11.04    0.76
   9  -5   2   11.42    0.62
 -10   5  -2   50.35    1.96
  10  -5   2   46.19    1.88
  -8  -4   2   13.49    0.93
   7   4  -2    0.04    0.22
  -7  -4   2    0.06    0.19
   6   4  -2    9.02    0.68
  -6  -4   2   10.66    0.70
   5   4  -2    1.92    0.31
  -5  -4   2    2.71    0.39
   4   4  -2   61.12    2.01
  -4  -4   2   63.08    2.01
   3   4  -2   36.97    1.29
  -3  -4   2   35.87    1.27
   2   4  -2   68.65    2.08
  -2  -4   2   69.41    2.06
   1   4  -2    3.12    0.28
  -1  -4   2    3.38    0.28
   0   4  -2   31.89    1.08
   0  -4   2   33.31    1.06
  -1   4  -2  158.36    4.08
  -1   4  -2  149.50    4.08
   1  -4   2  149.52    4.05
  -2   4  -2  138.67    3.71
   2  -4   2  136.45    3.68
  -3   4  -2   56.43    1.68
   3  -4   2   56.32    1.66
  -4   4  -2   80.29    2.34
   4  -4   2   82.12    2.34
  -5   4  -2    3.77    0.33
   5  -4   2    3.45    0.32
  -6   4  -2   79.40    2.42
  -6   4  -2   77.91    2.41
   6  -4   2   80.18    2.22
   6  -4   2   76.88    2.38
  -7   4  -2    7.02    0.53
   7  -4   2    7.07    0.44
   7  -4   2    7.23    0.52
  -8   4  -2    7.70    0.60
   8  -4   2    7.25    0.47
   8  -4   2    7.19    0.56
  -9   4  -2   11.68    0.79
   9  -4   2   11.37    0.75
 -10   4  -2    0.01    0.23
  10  -4   2    0.23    0.24
   8   3  -2   19.17    1.08
  -8  -3   2   19.02    1.06
   7   3  -2   39.30    1.59
  -7  -3   2   40.93    1.59
   6   3  -2    0.74    0.26
  -6  -3   2    0.28    0.19
   5   3  -2   49.84    1.70
  -5  -3   2   50.16    1.69
   4   3  -2   87.24    2.57
  -4  -3   2   85.43    2.54
   3   3  -2   12.04    0.57
   2   3  -2    2.91    0.25
  -2  -3   2    2.79    0.28
   1   3  -2    0.77    0.15
   1   3  -2    1.14    0.18
  -1  -3   2    1.67    0.21
   0   3  -2   12.41    0.51
   0   3  -2   14.31    0.51
   0  -3   2   13.25    0.50
  -1   3  -2  429.76   11.39
  -1   3  -2  454.80   11.18
   1  -3   2  429.64   11.46
  -2   3  -2    2.32    0.20
  -2   3  -2    2.26    0.22
   2  -3   2    2.41    0.20
  -3   3  -2  188.47    5.29
  -3   3  -2  214.05    5.32
   3  -3   2  201.62    5.29
  -4   3  -2   26.47    0.94
   4  -3   2   26.60    0.92
  -5   3  -2   54.73    1.74
   5  -3   2   57.66    1.53
   5  -3   2   56.12    1.62
   5  -3   2   53.06    1.71
  -6   3  -2    0.47    0.18
   6  -3   2    1.12    0.21
   6  -3   2    0.98    0.15
   6  -3   2    1.06    0.23
  -7   3  -2   28.68    1.20
   7  -3   2   31.73    1.00
   7  -3   2   30.98    1.21
   7  -3   2   28.58    1.06
  -8   3  -2    6.43    0.57
   8  -3   2    6.18    0.53
  -9   3  -2    2.62    0.46
   9  -3   2    2.37    0.40
 -10   3  -2   20.87    1.18
   9   2  -2    6.11    0.75
  -9  -2   2    4.49    0.59
   8   2  -2   12.93    0.82
  -8  -2   2   11.49    0.78
   7   2  -2    1.42    0.30
  -7  -2   2    1.29    0.27
   6   2  -2   24.18    1.04
  -6  -2   2   25.82    1.05
   5   2  -2   14.85    0.71
  -5  -2   2   14.76    0.70
   4   2  -2    0.01    0.10
  -4  -2   2    0.06    0.11
   3   2  -2   81.86    2.29
  -3  -2   2   79.26    2.27
   2   2  -2   27.45    0.87
   2   2  -2   25.57    0.85
  -2  -2   2   26.02    0.85
   1   2  -2   87.22    2.28
   1   2  -2   84.26    2.27
  -1  -2   2   81.51    2.26
   0   2  -2    4.19    0.22
   0   2  -2    4.62    0.22
   0  -2   2    4.09    0.20
  -1   2  -2   89.78    2.51
  -1   2  -2   96.45    2.43
  -1   2  -2   98.50    2.52
   1  -2   2   95.82    2.51
  -2   2  -2  213.04    5.62
  -2   2  -2  221.87    5.62
   2  -2   2  216.49    5.61
  -3   2  -2    1.10    0.16
  -3   2  -2    0.93    0.14
   3  -2   2    1.35    0.17
   3  -2   2    1.29    0.17
  -4   2  -2   14.72    0.63
   4  -2   2   16.29    0.60
   4  -2   2   13.94    0.60
  -5   2  -2   32.02    1.13
   5  -2   2   31.46    0.97
   5  -2   2   32.57    1.06
   5  -2   2   30.86    1.11
  -6   2  -2    4.27    0.44
   6  -2   2    4.73    0.30
   6  -2   2    3.96    0.42
  -7   2  -2    0.37    0.20
   7  -2   2    0.42    0.14
   7  -2   2    0.49    0.21
  -8   2  -2    0.82    0.29
   8  -2   2    1.15    0.31
  -9   2  -2   13.98    0.90
   9  -2   2   12.45    0.83
   9   1  -2    0.26    0.25
  -9  -1   2   -0.09    0.19
   8   1  -2   11.96    0.77
  -8  -1   2   11.54    0.75
   7   1  -2    3.19    0.44
  -7  -1   2    3.32    0.43
   6   1  -2    5.72    0.45
  -6  -1   2    6.24    0.45
   5   1  -2   65.93    2.03
  -5  -1   2   67.73    2.02
   4   1  -2  288.42    7.45
   4   1  -2  276.25    7.41
  -4  -1   2  289.57    7.44
   3   1  -2  160.75    4.08
   3   1  -2  153.79    4.08
   3   1  -2  147.30    4.07
  -3  -1   2  152.36    4.06
   2   1  -2  118.69    3.15
   2   1  -2  121.60    3.15
  -2  -1   2  118.67    3.14
   1   1  -2   51.39    1.37
   1   1  -2   49.88    1.40
   1   1  -2   51.23    1.37
  -1  -1   2   51.07    1.36
  -1  -1   2   52.30    1.41
  -1  -1   2   52.37    1.36
   0   1  -2  113.14    2.90
   0   1  -2  114.13    2.89
   0  -1   2  115.79    2.88
   0  -1   2  110.49    2.91
  -1   1  -2    8.36    0.31
  -1   1  -2    9.34    0.32
   1  -1   2    8.78    0.31
   1  -1   2    8.91    0.31
  -2   1  -2   30.82    0.93
  -2   1  -2   31.65    0.93
   2  -1   2   29.58    0.92
   2  -1   2   30.83    0.92
  -3   1  -2    0.16    0.10
  -3   1  -2    0.14    0.10
   3  -1   2    0.09    0.08
   3  -1   2    0.04    0.10
  -4   1  -2  233.26    6.15
   4  -1   2  231.29    6.13
   4  -1   2  232.03    5.93
  -5   1  -2   20.47    0.85
   5  -1   2   20.21    0.82
  -6   1  -2  111.94    3.30
   6  -1   2  112.94    3.28
  -7   1  -2    1.24    0.29
   7  -1   2    0.59    0.23
  -8   1  -2    2.95    0.47
   8  -1   2    3.17    0.44
  -9   1  -2    1.31    0.38
  10   0  -2    0.81    0.34
   9   0  -2   19.52    1.03
  -9   0   2   19.13    1.03
   8   0  -2   20.71    1.01
  -8   0   2   20.44    0.98
   7   0  -2   15.04    0.78
  -7   0   2   16.02    0.61
  -7   0   2   15.23    0.76
   6   0  -2   12.15    0.61
  -6   0   2   10.77    0.58
  -6   0   2   11.10    0.46
   5   0  -2   19.49    0.75
   5   0  -2   18.37    0.75
  -5   0   2   18.77    0.74
   4   0  -2  166.24    4.47
   4   0  -2  167.42    4.46
   4   0  -2  173.98    4.48
  -4   0   2  164.06    4.45
   3   0  -2  132.22    3.52
   3   0  -2  129.54    3.50
   3   0  -2  135.09    3.50
  -3   0   2  131.19    3.49
  -3   0   2  133.55    3.52
   2   0  -2   20.72    0.63
   2   0  -2   21.58    0.63
  -2   0   2   20.33    0.68
  -2   0   2   21.39    0.62
   1   0  -2  115.70    2.98
   1   0  -2  118.94    2.98
   0   0  -2   18.87    0.50
   0   0  -2   18.07    0.50
   0   0   2   16.97    0.55
  -1   0  -2    3.78    0.20
  -1   0  -2    4.24    0.21
   1   0   2    4.00    0.20
   1   0   2    4.23    0.24
  -2   0  -2    0.63    0.13
  -2   0  -2    0.65    0.13
  -2   0  -2    0.63    0.12
   2   0   2    0.71    0.14
   2   0   2    0.56    0.11
  -3   0  -2  118.64    3.14
  -3   0  -2  117.41    3.23
   3   0   2  118.77    3.22
  -4   0  -2   53.17    1.57
  -4   0  -2   51.57    1.64
   4   0   2   51.96    1.62
  -5   0  -2  153.59    4.29
   5   0   2  153.54    4.26
  -6   0  -2    1.53    0.30
   6   0   2    1.39    0.27
  -7   0  -2    6.13    0.55
   7   0   2    5.00    0.52
  -8   0  -2    0.89    0.32
   8   0   2    0.81    0.28
  -9   0  -2    0.26    0.26
  10  -1  -2   16.52    1.00
 -10   1   2   15.53    0.95
   9  -1  -2   12.22    0.79
  -9   1   2   11.35    0.75
   8  -1  -2   29.58    1.24
  -8   1   2   30.39    1.22
  -7   1   2   31.53    1.19
   6  -1  -2    0.09    0.13
  -6   1   2    0.20    0.12
  -6   1   2    0.11    0.07
   5  -1  -2   13.22    0.55
   5  -1  -2   12.17    0.56
  -5   1   2   12.21    0.55
  -5   1   2   12.31    0.39
   4  -1  -2    3.19    0.25
   4  -1  -2    2.85    0.24
   4  -1  -2    3.34    0.25
  -4   1   2    2.87    0.25
  -4   1   2    3.50    0.13
  -4   1   2    3.61    0.25
   3  -1  -2  254.18    6.54
   3  -1  -2  251.14    6.54
  -3   1   2  252.30    6.53
  -3   1   2  257.01    6.55
   2  -1  -2   72.98    1.89
   2  -1  -2   68.83    1.89
  -2   1   2   70.88    1.88
   1  -1  -2    8.65    0.32
   1  -1  -2    9.43    0.31
   1  -1  -2    9.07    0.31
  -1   1   2    9.35    0.30
  -1   1   2    9.06    0.30
   0  -1  -2  164.25    4.15
   0  -1  -2  168.85    4.26
   0  -1  -2  163.51    4.25
   0   1   2  161.29    4.24
  -1  -1  -2   76.39    2.10
  -1  -1  -2   77.96    2.10
   1   1   2   75.42    2.09
  -2  -1  -2    1.15    0.17
  -2  -1  -2    1.16    0.18
  -2  -1  -2    1.89    0.23
   2   1   2    1.21    0.17
  -3  -1  -2    0.56    0.16
  -3  -1  -2    0.40    0.13
   3   1   2    0.45    0.14
  -4  -1  -2   19.78    0.83
   4   1   2   20.34    0.82
  -5  -1  -2   53.80    1.83
   5   1   2   56.11    1.81
  -6  -1  -2    6.72    0.55
   6   1   2    5.90    0.60
  -7  -1  -2    0.85    0.28
   7   1   2    1.77    0.37
  -8  -1  -2   10.14    0.79
  10  -2  -2    0.45    0.24
 -10   2   2    0.09    0.22
   9  -2  -2   47.95    1.79
  -9   2   2   48.52    1.77
   8  -2  -2   26.83    1.14
  -8   2   2   26.26    1.11
   7  -2  -2   11.13    0.62
  -7   2   2   10.81    0.60
   6  -2  -2   37.52    1.30
  -6   2   2   39.44    1.30
   5  -2  -2   51.82    1.59
  -5   2   2   53.26    1.58
  -5   2   2   50.32    1.56
   4  -2  -2  235.35    5.93
   4  -2  -2  223.85    5.92
  -4   2   2  219.23    5.90
  -4   2   2  222.40    5.90
  -4   2   2  229.80    5.90
   3  -2  -2  248.49    6.31
   3  -2  -2  234.98    6.30
   3  -2  -2  246.77    6.00
  -3   2   2  244.03    6.29
   2  -2  -2   64.59    1.73
   2  -2  -2   61.05    1.72
  -2   2   2   62.52    1.71
   1  -2  -2  308.81    7.68
   1  -2  -2  290.92    7.67
  -1   2   2  297.51    7.65
   0  -2  -2    3.65    0.24
   0  -2  -2    3.42    0.23
   0   2   2    3.21    0.22
  -1  -2  -2   27.99    0.91
  -1  -2  -2   24.90    0.87
   1   2   2   26.63    0.88
  -2  -2  -2   60.37    1.73
  -2  -2  -2   58.54    1.77
   2   2   2   57.65    1.75
  -3  -2  -2    1.78    0.26
   3   2   2    1.92    0.27
  -4  -2  -2   22.00    0.93
   4   2   2   21.58    0.91
  -5  -2  -2    7.02    0.54
   5   2   2    7.50    0.53
  -6  -2  -2   31.04    1.32
   6   2   2   30.62    1.29
  -7  -2  -2   15.83    0.95
   7   2   2   16.40    0.99
  11  -3  -2    6.29    0.72
  10  -3  -2    4.55    0.57
 -10   3   2    5.83    0.62
   9  -3  -2   98.62    3.05
  -9   3   2   94.28    3.00
   8  -3  -2    2.44    0.35
  -8   3   2    3.33    0.42
   7  -3  -2   12.34    0.66
  -7   3   2   11.25    0.61
  -7   3   2   12.83    0.60
   6  -3  -2   18.60    0.79
  -6   3   2   18.23    0.77
  -6   3   2   19.13    0.75
   5  -3  -2    2.07    0.27
  -5   3   2    1.96    0.24
  -5   3   2    1.89    0.23
   4  -3  -2  123.61    3.45
   4  -3  -2  129.46    3.46
  -4   3   2  128.61    3.45
   3  -3  -2  146.74    3.78
   3  -3  -2  137.15    3.78
  -3   3   2  139.95    3.76
   2  -3  -2   61.31    1.79
   2  -3  -2   64.55    1.81
  -2   3   2   63.70    1.78
   1  -3  -2    1.28    0.20
   1  -3  -2    0.85    0.16
  -1   3   2    0.85    0.14
   0  -3  -2   45.69    1.33
   0  -3  -2   39.19    1.29
   0   3   2   39.57    1.28
  -1  -3  -2   15.88    0.67
   1   3   2   16.12    0.67
  -2  -3  -2   -0.03    0.10
   2   3   2    0.11    0.12
  -3  -3  -2    0.43    0.18
   3   3   2    0.85    0.21
  -4  -3  -2    0.44    0.19
   4   3   2    0.53    0.19
  -5  -3  -2   63.23    2.19
   5   3   2   65.78    2.18
  -6  -3  -2    4.51    0.61
   6   3   2    3.28    0.48
  -7  -3  -2    4.04    0.62
  11  -4  -2    0.43    0.29
  10  -4  -2   21.60    1.12
 -10   4   2   22.57    1.12
   9  -4  -2    6.35    0.67
  -9   4   2    5.98    0.61
   8  -4  -2  184.02    5.19
  -8   4   2  185.65    5.17
   7  -4  -2    0.69    0.21
  -7   4   2    0.44    0.17
  -7   4   2    0.65    0.17
   6  -4  -2    0.53    0.19
  -6   4   2    0.83    0.19
  -6   4   2    0.62    0.17
   5  -4  -2    1.28    0.21
  -5   4   2    1.73    0.24
   4  -4  -2    6.46    0.39
  -4   4   2    6.41    0.38
   3  -4  -2    7.41    0.41
   3  -4  -2    8.53    0.43
  -3   4   2    7.32    0.39
   2  -4  -2   37.05    1.22
   2  -4  -2   40.29    1.25
  -2   4   2   37.04    1.20
   1  -4  -2   16.79    0.68
  -1   4   2   16.69    0.67
   0  -4  -2  228.23    6.06
   0   4   2  225.84    6.04
  -1  -4  -2   16.96    0.76
   1   4   2   18.06    0.77
  -2  -4  -2   86.52    2.65
   2   4   2   88.62    2.64
  -3  -4  -2    1.92    0.35
   3   4   2    1.79    0.32
  -4  -4  -2   11.95    0.73
   4   4   2   10.33    0.68
  -5  -4  -2    0.03    0.22
   5   4   2    0.17    0.22
  -6  -4  -2    1.54    0.43
  11  -5  -2    7.63    0.80
  10  -5  -2    0.40    0.25
 -10   5   2    0.75    0.29
   9  -5  -2   73.73    2.43
  -9   5   2   71.19    2.39
   8  -5  -2   10.10    0.66
  -8   5   2   10.29    0.58
  -8   5   2   10.44    0.64
   7  -5  -2   13.92    0.73
  -7   5   2   14.03    0.71
  -7   5   2   13.90    0.66
   6  -5  -2    0.30    0.15
  -6   5   2    0.44    0.16
   5  -5  -2   18.49    0.79
  -5   5   2   17.53    0.75
   4  -5  -2   17.96    0.77
  -4   5   2   18.60    0.75
   3  -5  -2   16.99    0.74
  -3   5   2   18.27    0.73
   2  -5  -2    0.43    0.17
  -2   5   2    0.58    0.17
   1  -5  -2  129.25    3.70
  -1   5   2  135.60    3.70
   0  -5  -2    0.07    0.13
   0   5   2   -0.06    0.11
  -1  -5  -2   43.44    1.56
   1   5   2   46.20    1.56
  -2  -5  -2    0.15    0.17
   2   5   2    0.34    0.19
  -3  -5  -2    0.04    0.15
   3   5   2    0.02    0.17
  -4  -5  -2    2.00    0.43
   4   5   2    2.12    0.41
  -5  -5  -2    1.72    0.42
  11  -6  -2    0.71    0.33
  10  -6  -2   -0.12    0.19
   9  -6  -2   31.60    1.39
  -9   6   2   34.76    1.26
  -9   6   2   33.80    1.38
   8  -6  -2    7.33    0.57
  -8   6   2    7.60    0.56
  -8   6   2    6.86    0.49
   7  -6  -2   45.92    1.65
  -7   6   2   47.78    1.57
  -7   6   2   45.55    1.62
   6  -6  -2   36.63    1.35
  -6   6   2   35.57    1.30
   5  -6  -2   36.17    1.30
  -5   6   2   34.75    1.27
   4  -6  -2    0.17    0.13
  -4   6   2    0.18    0.13
   3  -6  -2   24.02    0.97
  -3   6   2   22.48    0.93
   2  -6  -2    5.25    0.42
  -2   6   2    5.10    0.41
   1  -6  -2   15.33    0.76
  -1   6   2   16.03    0.76
   0  -6  -2   12.48    0.70
   0   6   2   12.38    0.68
  -1  -6  -2    0.20    0.18
   1   6   2    0.26    0.19
  -2  -6  -2   -0.06    0.17
   2   6   2   -0.09    0.16
  -3  -6  -2    6.91    0.62
   3   6   2    6.01    0.67
  -4  -6  -2   -0.05    0.22
  10  -7  -2    7.39    0.66
 -10   7   2    7.40    0.54
   9  -7  -2    6.61    0.60
  -9   7   2    6.71    0.68
  -9   7   2    6.65    0.50
   8  -7  -2   87.41    2.84
  -8   7   2   88.08    2.80
  -8   7   2   91.86    2.70
   7  -7  -2   22.06    1.04
  -7   7   2   22.92    1.03
   6  -7  -2   23.43    1.06
  -6   7   2   24.08    1.03
   5  -7  -2   53.22    1.86
  -5   7   2   56.41    1.84
   4  -7  -2   40.11    1.49
  -4   7   2   42.08    1.48
   3  -7  -2    5.91    0.49
  -3   7   2    5.76    0.46
   2  -7  -2    1.60    0.33
  -2   7   2    0.92    0.24
   1  -7  -2    3.18    0.44
  -1   7   2    2.06    0.32
   0  -7  -2   48.22    1.80
   0   7   2   52.70    1.80
  -1  -7  -2    0.20    0.21
   1   7   2    0.23    0.21
  -2  -7  -2   15.97    0.94
  -3  -7  -2    0.80    0.34
  10  -8  -2   13.38    0.90
   9  -8  -2   20.33    1.10
  -9   8   2   21.07    0.96
   8  -8  -2    5.05    0.56
  -8   8   2    7.07    0.70
   7  -8  -2    2.00    0.38
  -7   8   2    2.32    0.39
   6  -8  -2   18.07    0.93
  -6   8   2   17.03    0.89
   5  -8  -2    4.89    0.53
  -5   8   2    4.17    0.47
   4  -8  -2    5.78    0.52
  -4   8   2    5.89    0.51
   3  -8  -2   -0.12    0.16
  -3   8   2    0.14    0.18
   2  -8  -2    1.67    0.37
  -2   8   2    2.22    0.37
   1  -8  -2   53.41    1.93
  -1   8   2   52.09    1.89
   0  -8  -2    0.90    0.30
  -1  -8  -2   19.88    1.07
  -2  -8  -2   -0.11    0.22
   9  -9  -2    3.51    0.58
  -9   9   2    3.20    0.45
   8  -9  -2   -0.09    0.19
   7  -9  -2    1.35    0.37
   6  -9  -2   24.21    1.18
   5  -9  -2   34.94    1.47
  -5   9   2   32.64    1.42
   4  -9  -2    7.75    0.64
  -4   9   2    8.01    0.67
   3  -9  -2   12.70    0.83
   2  -9  -2    1.85    0.37
   1  -9  -2    1.16    0.35
   0  -9  -2    4.18    0.55
   8 -10  -2   33.56    1.56
   7 -10  -2   14.14    0.95
   6 -10  -2    4.88    0.61
   5 -10  -2   27.83    1.35
   4 -10  -2   10.28    0.79
   3 -10  -2    1.81    0.44
   2 -10  -2    0.10    0.22
  -1  11  -3    0.23    0.25
   1 -11   3   -0.09    0.20
  -2  11  -3   23.76    1.26
   2 -11   3   26.45    1.26
  -3  11  -3    2.18    0.46
   3 -11   3    1.49    0.37
  -4  11  -3   11.89    0.85
   4 -11   3   11.34    0.80
  -5  11  -3    8.37    0.73
   5 -11   3    9.60    0.75
  -6  11  -3   52.45    2.06
   6 -11   3   50.94    2.00
  -7  11  -3    0.62    0.32
   1  10  -3    0.04    0.23
  -1 -10   3    0.27    0.24
   0  10  -3    1.73    0.38
   0 -10   3    2.88    0.44
  -1  10  -3   27.91    1.33
   1 -10   3   29.77    1.32
  -2  10  -3   -0.09    0.19
   2 -10   3    0.24    0.22
  -3  10  -3   13.43    0.85
   3 -10   3   15.25    0.87
  -4  10  -3    2.39    0.42
   4 -10   3    2.21    0.41
  -5  10  -3   20.26    1.06
   5 -10   3   18.70    1.01
  -6  10  -3    8.01    0.69
   6 -10   3    9.90    0.71
  -7  10  -3    9.43    0.75
   7 -10   3    8.28    0.68
  -8  10  -3    1.26    0.37
   3   9  -3    6.30    0.71
   2   9  -3    1.07    0.32
  -2  -9   3    0.86    0.31
   1   9  -3   52.69    1.97
  -1  -9   3   50.18    1.90
   0   9  -3    5.77    0.64
   0  -9   3    6.22    0.64
  -1   9  -3    0.16    0.19
   1  -9   3    0.11    0.18
  -2   9  -3    8.54    0.64
   2  -9   3    9.13    0.62
  -3   9  -3    1.39    0.32
   3  -9   3    1.16    0.29
  -4   9  -3    8.66    0.64
   4  -9   3    9.23    0.63
  -5   9  -3   17.00    0.91
   5  -9   3   16.43    0.87
  -6   9  -3    6.97    0.61
   6  -9   3    6.12    0.67
  -7   9  -3  106.66    3.40
   7  -9   3  109.18    3.36
  -8   9  -3    1.57    0.40
   8  -9   3    0.31    0.24
  -9   9  -3    5.93    0.72
   4   8  -3    7.63    0.82
  -4  -8   3    5.29    0.60
   3   8  -3   12.26    0.84
  -3  -8   3   10.45    0.74
   2   8  -3   40.03    1.63
  -2  -8   3   41.49    1.58
   1   8  -3    1.00    0.28
  -1  -8   3    1.45    0.31
   0   8  -3    1.91    0.36
   0  -8   3    1.38    0.31
  -1   8  -3    5.71    0.50
   1  -8   3    5.90    0.48
  -2   8  -3   20.41    0.95
   2  -8   3   19.38    0.89
  -3   8  -3    0.08    0.17
   3  -8   3    0.02    0.14
  -4   8  -3    0.30    0.19
   4  -8   3    0.40    0.18
  -5   8  -3    8.00    0.59
   5  -8   3    7.56    0.55
  -6   8  -3  124.15    3.72
   6  -8   3  122.88    3.65
  -7   8  -3    1.47    0.34
   7  -8   3    1.16    0.29
  -8   8  -3   33.05    1.46
   8  -8   3   36.01    1.47
  -9   8  -3    4.55    0.62
   9  -8   3    4.57    0.64
   9  -8   3    3.75    0.45
   5   7  -3    7.33    0.81
  -5  -7   3    4.43    0.55
   4   7  -3    2.71    0.46
  -4  -7   3    2.91    0.48
   3   7  -3   14.65    0.86
  -3  -7   3   12.50    0.77
   2   7  -3   19.32    0.97
  -2  -7   3   19.06    0.91
   1   7  -3    4.24    0.48
  -1  -7   3    3.90    0.44
   0   7  -3   25.60    1.07
   0  -7   3   24.45    1.01
  -1   7  -3   73.78    2.34
   1  -7   3   76.53    2.31
  -2   7  -3   32.30    1.25
   2  -7   3   34.92    1.23
  -3   7  -3   -0.03    0.12
   3  -7   3    0.16    0.12
  -4   7  -3    7.60    0.52
   4  -7   3    7.67    0.49
  -5   7  -3    1.87    0.33
   5  -7   3    2.14    0.33
  -6   7  -3   15.75    0.82
   6  -7   3   16.09    0.81
  -7   7  -3   34.57    1.42
   7  -7   3   36.62    1.41
  -8   7  -3   15.59    0.91
   8  -7   3   16.23    0.89
   8  -7   3   17.00    0.77
  -9   7  -3   10.33    0.78
   9  -7   3   10.63    0.76
   9  -7   3   11.61    0.67
   6   6  -3   11.77    0.85
  -6  -6   3    8.20    0.74
   5   6  -3    0.73    0.30
  -5  -6   3    0.58    0.27
   4   6  -3   24.80    1.16
  -4  -6   3   25.60    1.12
   3   6  -3    3.79    0.47
  -3  -6   3    4.35    0.47
   2   6  -3   14.64    0.77
  -2  -6   3   13.98    0.71
   1   6  -3  127.87    3.71
  -1  -6   3  130.75    3.65
   0   6  -3   73.49    2.27
   0  -6   3   74.15    2.22
  -1   6  -3   18.66    0.81
   1  -6   3   20.22    0.80
  -2   6  -3  126.51    3.57
   2  -6   3  127.39    3.53
  -3   6  -3   20.70    0.86
   3  -6   3   21.45    0.83
  -4   6  -3    8.03    0.50
   4  -6   3    7.64    0.47
  -5   6  -3    3.51    0.41
   5  -6   3    2.43    0.31
  -6   6  -3    3.67    0.45
   6  -6   3    3.98    0.43
  -7   6  -3   79.33    2.57
   7  -6   3   80.53    2.35
   7  -6   3   80.68    2.53
  -8   6  -3    6.10    0.65
   8  -6   3    6.29    0.48
   8  -6   3    6.01    0.54
  -9   6  -3   21.47    1.13
   9  -6   3   21.72    1.10
   9  -6   3   21.35    0.94
 -10   6  -3   16.63    1.04
   7   5  -3    2.49    0.46
   6   5  -3   23.16    1.15
  -6  -5   3   21.77    1.09
   5   5  -3    0.14    0.19
  -5  -5   3    0.08    0.15
   4   5  -3    0.80    0.24
  -4  -5   3    0.77    0.24
   3   5  -3   68.51    2.17
  -3  -5   3   67.69    2.13
   2   5  -3   23.04    0.94
  -2  -5   3   22.35    0.89
   1   5  -3   12.68    0.62
  -1  -5   3   12.63    0.58
   0   5  -3   19.66    0.80
   0  -5   3   21.02    0.78
  -1   5  -3  184.85    5.01
   1  -5   3  187.89    4.96
  -2   5  -3  106.30    3.00
   2  -5   3  108.27    2.97
  -3   5  -3   17.66    0.72
   3  -5   3   17.52    0.70
  -4   5  -3    0.18    0.13
   4  -5   3    0.09    0.11
  -5   5  -3    7.15    0.47
   5  -5   3    6.44    0.44
  -6   5  -3   55.77    1.85
   6  -5   3   55.77    1.82
  -7   5  -3    0.18    0.18
   7  -5   3    0.20    0.16
   7  -5   3    0.25    0.18
  -8   5  -3   38.95    1.56
   8  -5   3   41.59    1.55
   8  -5   3   37.75    1.36
  -9   5  -3   24.83    1.24
   9  -5   3   26.62    1.24
   9  -5   3   26.97    1.09
 -10   5  -3    1.32    0.43
   8   4  -3   -0.07    0.24
   7   4  -3   74.22    2.55
  -7  -4   3   73.61    2.50
   6   4  -3    6.06    0.55
  -6  -4   3    5.91    0.62
   5   4  -3   54.57    1.86
  -5  -4   3   53.14    1.83
   4   4  -3    6.72    0.48
  -4  -4   3    6.43    0.46
   3   4  -3    9.44    0.53
  -3  -4   3    8.76    0.50
   2   4  -3    3.79    0.32
  -2  -4   3    3.06    0.28
   1   4  -3    2.46    0.27
   1   4  -3    3.34    0.28
  -1  -4   3    2.31    0.25
   0   4  -3    8.27    0.40
   0   4  -3    7.17    0.39
   0  -4   3    7.67    0.37
  -1   4  -3  185.74    4.74
  -1   4  -3  177.35    4.75
   1  -4   3  174.38    4.70
  -2   4  -3   89.55    2.56
  -2   4  -3   94.86    2.56
   2  -4   3   92.40    2.53
  -3   4  -3   93.39    2.55
  -3   4  -3   86.13    2.53
   3  -4   3   91.07    2.52
  -4   4  -3    0.55    0.17
   4  -4   3    0.57    0.16
  -5   4  -3    3.51    0.39
   5  -4   3    3.40    0.37
  -6   4  -3   36.57    1.37
   6  -4   3   37.61    1.34
   6  -4   3   39.21    1.28
  -7   4  -3   12.89    0.75
   7  -4   3   13.57    0.66
   7  -4   3   12.96    0.71
  -8   4  -3    7.29    0.61
   8  -4   3    8.15    0.60
   8  -4   3    7.55    0.52
  -9   4  -3   13.35    0.89
   8   3  -3   26.52    1.28
  -8  -3   3   25.43    1.22
   7   3  -3    0.70    0.27
  -7  -3   3    0.65    0.25
   6   3  -3   58.21    2.02
  -6  -3   3   61.55    2.00
   5   3  -3    5.12    0.43
  -5  -3   3    5.69    0.43
   4   3  -3   24.21    0.95
  -4  -3   3   24.84    0.94
   3   3  -3   37.46    1.25
  -3  -3   3   38.63    1.24
   2   3  -3   21.53    0.78
   2   3  -3   22.82    0.80
  -2  -3   3   21.97    0.77
   1   3  -3    1.10    0.17
   1   3  -3    0.37    0.11
  -1  -3   3    0.47    0.11
   0   3  -3   56.40    1.64
   0   3  -3   60.02    1.63
   0  -3   3   58.28    1.61
  -1   3  -3  257.34    6.62
  -1   3  -3  254.00    6.73
  -1   3  -3  271.91    6.74
   1  -3   3  261.64    6.71
  -2   3  -3  465.65   11.57
  -2   3  -3  435.77   11.56
   2  -3   3  455.27   11.54
  -3   3  -3    3.47    0.27
  -3   3  -3    4.39    0.29
   3  -3   3    4.19    0.27
  -4   3  -3    5.63    0.37
   4  -3   3    5.11    0.33
   4  -3   3    5.30    0.34
  -5   3  -3    0.73    0.20
   5  -3   3    0.62    0.16
   5  -3   3    0.88    0.11
   5  -3   3    0.91    0.20
  -6   3  -3    8.37    0.56
   6  -3   3    9.29    0.39
   6  -3   3    8.99    0.54
   6  -3   3    9.80    0.53
  -7   3  -3    1.20    0.29
   7  -3   3    1.14    0.25
   7  -3   3    1.41    0.29
  -8   3  -3   19.73    1.03
   8  -3   3   20.45    1.00
  -9   3  -3   21.96    1.16
   9   2  -3    4.42    0.59
   8   2  -3   10.89    0.75
  -8  -2   3   10.93    0.73
   7   2  -3    8.68    0.62
  -7  -2   3    9.01    0.61
   6   2  -3   33.51    1.28
  -6  -2   3   33.99    1.26
   5   2  -3   11.41    0.59
  -5  -2   3   10.25    0.55
   4   2  -3   80.02    2.35
  -4  -2   3   82.55    2.33
   3   2  -3   78.30    2.21
   3   2  -3   80.79    2.19
   3   2  -3   74.70    2.17
  -3  -2   3   74.87    2.16
   2   2  -3   37.62    1.11
   2   2  -3   36.98    1.11
   2   2  -3   38.09    1.14
  -2  -2   3   34.99    1.08
   1   2  -3   48.78    1.32
   1   2  -3   46.63    1.34
   1   2  -3   46.42    1.32
  -1  -2   3   46.97    1.29
   0   2  -3   31.52    0.89
   0   2  -3   31.80    0.90
   0   2  -3   30.52    0.90
   0  -2   3   32.14    0.87
   0  -2   3   30.93    0.90
  -1   2  -3  335.98    8.23
  -1   2  -3  303.56    8.22
   1  -2   3  328.39    8.24
   1  -2   3  322.94    8.21
  -2   2  -3   25.66    0.80
  -2   2  -3   24.00    0.79
   2  -2   3   25.27    0.78
  -3   2  -3   33.25    1.04
  -3   2  -3   31.88    1.04
  -3   2  -3   32.38    1.04
   3  -2   3   31.71    1.01
   3  -2   3   30.47    1.01
  -4   2  -3  111.31    3.15
   4  -2   3  117.24    3.06
   4  -2   3  109.21    3.11
  -5   2  -3    2.23    0.28
   5  -2   3    2.18    0.29
   5  -2   3    2.02    0.26
  -6   2  -3   19.77    0.90
   6  -2   3   20.19    0.84
   6  -2   3   18.84    0.85
  -7   2  -3    8.06    0.61
   7  -2   3    9.44    0.61
  -8   2  -3    5.14    0.57
   8  -2   3    5.09    0.57
  -9   2  -3   16.19    1.00
   9   1  -3    6.28    0.66
   8   1  -3   17.09    0.92
  -8  -1   3   17.17    0.89
   7   1  -3   27.57    1.15
  -7  -1   3   29.54    1.16
  -7  -1   3   28.32    0.97
   6   1  -3   24.15    0.98
  -6  -1   3   24.52    0.96
   5   1  -3  132.14    3.66
  -5  -1   3  131.07    3.63
   4   1  -3  171.31    4.41
   4   1  -3  161.18    4.41
   4   1  -3  163.01    4.40
  -4  -1   3  161.63    4.37
   3   1  -3   82.03    2.30
   3   1  -3   86.96    2.31
  -3  -1   3   82.58    2.28
   2   1  -3   32.81    0.93
   2   1  -3   31.54    0.92
  -2  -1   3   32.11    0.91
  -2  -1   3   31.92    0.99
   1   1  -3   11.59    0.37
   1   1  -3   11.55    0.36
  -1  -1   3   10.85    0.44
   0   1  -3   63.39    1.68
   0   1  -3   66.98    1.68
  -1   1  -3  200.49    5.28
  -1   1  -3  209.06    5.28
   1  -1   3  208.43    5.26
  -2   1  -3  119.53    3.28
  -2   1  -3  126.06    3.28
   2  -1   3  125.10    3.27
   2  -1   3  123.25    3.25
  -3   1  -3  143.46    3.97
  -3   1  -3  153.42    3.98
   3  -1   3  148.59    3.96
   3  -1   3  146.39    3.89
  -4   1  -3   36.17    1.22
   4  -1   3   35.59    1.19
   4  -1   3   35.48    1.18
  -5   1  -3   73.90    2.27
   5  -1   3   73.97    2.23
  -6   1  -3   10.37    0.64
   6  -1   3   11.12    0.62
  -7   1  -3   26.73    1.19
   7  -1   3   26.78    1.15
  -8   1  -3    0.37    0.26
  -9   1  -3    0.94    0.36
  10   0  -3   16.19    1.00
   9   0  -3   20.16    1.05
  -9   0   3   19.59    1.01
   8   0  -3   19.57    0.97
  -8   0   3   20.07    0.95
   7   0  -3    0.25    0.15
  -7   0   3    0.58    0.19
  -7   0   3    0.86    0.15
   6   0  -3  116.74    3.38
  -6   0   3  118.52    3.34
  -6   0   3  121.31    3.07
   5   0  -3   16.33    0.68
  -5   0   3   16.51    0.66
   4   0  -3   10.43    0.48
   4   0  -3   10.51    0.45
   4   0  -3    9.77    0.45
  -4   0   3   10.01    0.43
  -4   0   3    9.56    0.48
   3   0  -3  349.01    8.83
   3   0  -3  346.66    8.83
  -3   0   3  344.73    8.80
  -3   0   3  339.12    8.87
   2   0  -3    1.81    0.12
   2   0  -3    1.67    0.12
  -2   0   3    2.01    0.11
  -2   0   3    1.53    0.17
  -1   0   3  177.16    4.44
   0   0  -3  108.00    2.73
   0   0  -3  105.41    2.72
   0   0   3  103.38    2.74
  -1   0  -3   19.51    0.61
  -1   0  -3   18.25    0.60
   1   0   3   19.17    0.67
   1   0   3   18.92    0.59
  -2   0  -3  204.74    5.06
  -2   0  -3  189.99    5.14
  -2   0  -3  201.19    5.16
   2   0   3  196.05    5.12
   2   0   3  190.57    5.05
  -3   0  -3    4.57    0.32
  -3   0  -3    4.84    0.32
  -3   0  -3    4.72    0.33
   3   0   3    4.77    0.30
  -4   0  -3   23.60    0.90
   4   0   3   21.80    0.86
  -5   0  -3   23.92    1.01
   5   0   3   24.94    0.98
  -6   0  -3    5.91    0.52
   6   0   3    6.89    0.51
  -7   0  -3    1.31    0.33
   7   0   3    1.54    0.32
  -8   0  -3    1.44    0.37
  10  -1  -3    8.22    0.85
   9  -1  -3    1.76    0.34
  -9   1   3    2.33    0.38
   8  -1  -3   32.11    1.29
  -8   1   3   32.43    1.26
   7  -1  -3   10.98    0.63
  -7   1   3   11.49    0.61
   6  -1  -3    1.51    0.25
  -6   1   3    2.84    0.32
   5  -1  -3   12.71    0.57
   5  -1  -3   15.25    0.60
  -5   1   3   13.67    0.57
  -5   1   3   12.94    0.60
   4  -1  -3  336.06    8.69
   4  -1  -3  349.98    8.70
  -4   1   3  335.77    8.66
  -4   1   3  326.36    8.72
   3  -1  -3  235.65    6.10
   3  -1  -3  244.82    6.11
  -3   1   3  231.04    5.82
  -3   1   3  237.04    6.07
  -3   1   3  234.91    6.17
   2  -1  -3  162.70    4.09
   2  -1  -3  158.12    4.09
  -2   1   3  160.85    4.06
  -2   1   3  152.72    3.96
   1  -1  -3    4.69    0.24
   1  -1  -3    4.53    0.21
   1  -1  -3    4.35    0.21
  -1   1   3    4.49    0.24
  -1   1   3    4.94    0.18
   0  -1  -3    7.87    0.32
   0  -1  -3    7.92    0.33
   0   1   3    7.52    0.30
  -1  -1  -3   36.43    1.13
  -1  -1  -3   38.11    1.13
  -1  -1  -3   35.90    1.11
   1   1   3   36.88    1.10
  -2  -1  -3   19.73    0.72
  -2  -1  -3   19.02    0.72
  -2  -1  -3   17.92    0.70
   2   1   3   18.80    0.69
  -3  -1  -3    1.13    0.21
   3   1   3    1.08    0.20
  -4  -1  -3   53.47    1.75
   4   1   3   53.23    1.71
  -5  -1  -3    2.69    0.39
   5   1   3    3.27    0.40
  -6  -1  -3   39.56    1.56
   6   1   3   41.24    1.53
  -7  -1  -3    0.55    0.27
  -8  -1  -3   11.09    0.86
  10  -2  -3    2.16    0.46
   9  -2  -3    9.98    0.69
  -9   2   3   10.66    0.68
   8  -2  -3   32.35    1.29
  -8   2   3   32.72    1.25
   7  -2  -3   15.40    0.75
  -7   2   3   16.80    0.75
   6  -2  -3    7.13    0.44
  -6   2   3    7.69    0.43
  -6   2   3    7.06    0.45
   5  -2  -3   48.88    1.44
   5  -2  -3   46.41    1.44
  -5   2   3   44.90    1.40
  -5   2   3   44.24    1.45
   4  -2  -3   89.16    2.55
   4  -2  -3   95.22    2.57
  -4   2   3   96.74    2.62
  -4   2   3   90.49    2.53
   3  -2  -3  172.57    4.56
   3  -2  -3  172.52    4.33
   3  -2  -3  178.27    4.56
  -3   2   3  173.32    4.53
   2  -2  -3   19.55    0.65
   2  -2  -3   20.72    0.66
   2  -2  -3   19.94    0.63
  -2   2   3   19.94    0.63
   1  -2  -3    2.62    0.20
   1  -2  -3    2.40    0.20
  -1   2   3    2.30    0.17
   0  -2  -3   13.57    0.54
   0  -2  -3   13.44    0.53
   0  -2  -3   13.37    0.53
   0   2   3   13.04    0.50
  -1  -2  -3    3.05    0.31
  -1  -2  -3    3.10    0.26
  -1  -2  -3    3.19    0.25
   1   2   3    2.86    0.24
  -2  -2  -3   17.57    0.73
   2   2   3   17.83    0.71
  -3  -2  -3   75.17    2.33
   3   2   3   79.92    2.32
  -4  -2  -3   21.41    0.96
   4   2   3   22.78    0.94
  -5  -2  -3   70.28    2.34
   5   2   3   72.70    2.31
  -6  -2  -3    0.36    0.23
  -7  -2  -3   16.65    1.01
  11  -3  -3   22.47    1.21
  10  -3  -3   24.00    1.18
   9  -3  -3    0.56    0.24
  -9   3   3    0.51    0.23
   8  -3  -3   32.07    1.27
  -8   3   3   33.10    1.25
   7  -3  -3    0.18    0.16
  -7   3   3    0.08    0.12
  -7   3   3    0.28    0.16
   6  -3  -3    4.67    0.37
  -6   3   3    5.10    0.36
  -6   3   3    4.98    0.38
   5  -3  -3    4.67    0.33
   5  -3  -3    4.58    0.33
  -5   3   3    4.44    0.31
  -5   3   3    4.85    0.36
   4  -3  -3   10.66    0.35
   4  -3  -3   11.72    0.51
   4  -3  -3   10.50    0.49
  -4   3   3   10.78    0.47
   3  -3  -3  208.38    5.32
   3  -3  -3  206.71    5.57
   3  -3  -3  222.97    5.59
  -3   3   3  211.10    5.54
   2  -3  -3   68.31    1.89
   2  -3  -3   63.35    1.87
  -2   3   3   65.05    1.84
   1  -3  -3    1.97    0.24
   1  -3  -3    1.46    0.20
   1  -3  -3    1.94    0.25
  -1   3   3    1.61    0.20
   0  -3  -3   33.02    1.12
   0  -3  -3   34.27    1.12
   0  -3  -3   34.96    1.15
   0   3   3   33.91    1.10
  -1  -3  -3   56.10    1.75
   1   3   3   56.71    1.73
  -2  -3  -3   19.74    0.84
   2   3   3   19.55    0.82
  -3  -3  -3   19.16    0.87
   3   3   3   19.12    0.85
  -4  -3  -3   17.63    0.88
   4   3   3   16.56    0.83
  -5  -3  -3   12.73    0.80
  -6  -3  -3    0.73    0.30
  11  -4  -3   23.62    1.24
  10  -4  -3    0.64    0.26
   9  -4  -3   57.99    1.98
  -9   4   3   53.28    1.90
   8  -4  -3    3.33    0.42
  -8   4   3    4.63    0.41
  -8   4   3    3.45    0.39
   7  -4  -3    3.99    0.43
  -7   4   3    4.83    0.47
  -7   4   3    4.13    0.43
   6  -4  -3   13.76    0.66
  -6   4   3   14.40    0.65
  -6   4   3   13.10    0.65
   5  -4  -3   13.57    0.42
   5  -4  -3   12.20    0.60
  -5   4   3   13.90    0.60
   4  -4  -3  100.61    2.75
   4  -4  -3   94.60    2.73
  -4   4   3   94.63    2.70
   3  -4  -3   73.80    2.05
   3  -4  -3   67.28    2.03
  -3   4   3   67.13    1.99
   2  -4  -3   26.90    0.93
   2  -4  -3   23.73    0.90
  -2   4   3   24.58    0.86
   1  -4  -3  107.76    3.10
   1  -4  -3  118.84    3.16
  -1   4   3  105.83    3.07
   0  -4  -3    6.85    0.44
   0   4   3    6.03    0.40
  -1  -4  -3    2.15    0.31
   1   4   3    3.79    0.39
  -2  -4  -3   68.86    2.25
   2   4   3   73.02    2.24
  -3  -4  -3    0.18    0.18
   3   4   3   -0.06    0.13
  -4  -4  -3   22.51    1.09
  -5  -4  -3    1.19    0.35
  11  -5  -3    9.63    0.77
  10  -5  -3   14.92    0.90
   9  -5  -3   42.69    1.62
  -9   5   3   42.19    1.57
  -9   5   3   40.53    1.50
   8  -5  -3    3.70    0.47
  -8   5   3    4.45    0.48
  -8   5   3    3.96    0.47
   7  -5  -3    4.01    0.43
  -7   5   3    3.89    0.42
  -7   5   3    4.21    0.38
   6  -5  -3    7.80    0.50
  -6   5   3    7.16    0.46
   5  -5  -3    3.23    0.35
  -5   5   3    4.96    0.35
   4  -5  -3   75.67    2.26
  -4   5   3   74.43    2.20
   3  -5  -3  115.15    3.31
  -3   5   3  118.29    3.27
   2  -5  -3   50.26    1.65
  -2   5   3   51.40    1.61
   1  -5  -3    4.77    0.40
  -1   5   3    5.43    0.39
   0  -5  -3   23.90    0.99
   0   5   3   23.67    0.95
  -1  -5  -3   11.76    0.68
   1   5   3   11.79    0.65
  -2  -5  -3    1.79    0.35
   2   5   3    1.89    0.35
  -3  -5  -3    7.95    0.62
  -4  -5  -3    0.92    0.29
  11  -6  -3    0.36    0.26
  10  -6  -3   43.56    1.75
 -10   6   3   44.25    1.62
   9  -6  -3    6.87    0.69
  -9   6   3    5.43    0.55
   8  -6  -3  118.30    3.52
  -8   6   3  113.67    3.40
  -8   6   3  117.30    3.46
   7  -6  -3    1.51    0.32
  -7   6   3    1.64    0.29
   6  -6  -3    0.17    0.17
  -6   6   3    0.09    0.13
   5  -6  -3    0.12    0.14
  -5   6   3    0.37    0.16
   4  -6  -3    4.58    0.41
  -4   6   3    5.29    0.39
   3  -6  -3   19.96    0.89
  -3   6   3   20.44    0.85
   2  -6  -3   12.69    0.69
  -2   6   3   14.09    0.68
   1  -6  -3    0.40    0.19
  -1   6   3    0.54    0.19
   0  -6  -3   90.58    2.83
   0   6   3   92.99    2.78
  -1  -6  -3   10.15    0.68
   1   6   3   11.02    0.69
  -2  -6  -3    6.81    0.60
  -3  -6  -3    1.43    0.37
  10  -7  -3   -0.04    0.21
 -10   7   3    0.25    0.21
   9  -7  -3   79.46    2.70
  -9   7   3   83.21    2.59
   8  -7  -3   10.77    0.71
  -8   7   3    9.32    0.63
   7  -7  -3    6.60    0.65
  -7   7   3    5.30    0.48
   6  -7  -3   31.59    1.28
  -6   7   3   30.90    1.21
   5  -7  -3    0.45    0.23
  -5   7   3    0.34    0.18
   4  -7  -3   15.75    0.81
  -4   7   3   16.41    0.79
   3  -7  -3    2.78    0.38
  -3   7   3    3.94    0.46
   2  -7  -3    3.85    0.46
  -2   7   3    4.12    0.45
   1  -7  -3   60.79    2.09
  -1   7   3   61.76    2.07
   0  -7  -3    0.19    0.20
  -1  -7  -3   16.56    0.94
  -2  -7  -3    4.72    0.55
  10  -8  -3   11.66    0.85
 -10   8   3   12.24    0.76
   9  -8  -3   24.98    1.25
  -9   8   3   26.24    1.16
   8  -8  -3   11.68    0.80
   7  -8  -3   28.22    1.27
   6  -8  -3    5.22    0.56
   5  -8  -3    3.66    0.51
   4  -8  -3    0.29    0.20
   3  -8  -3   42.15    1.63
   2  -8  -3   12.85    0.79
   1  -8  -3    5.08    0.63
   0  -8  -3   12.88    0.84
  -1  -8  -3    0.71    0.30
   9  -9  -3   -0.09    0.21
  -9   9   3    0.28    0.22
   8  -9  -3   77.85    2.70
   7  -9  -3   33.39    1.49
   6  -9  -3    6.23    0.69
   5  -9  -3    7.19    0.64
   4  -9  -3   15.50    0.91
   3  -9  -3    0.97    0.31
   2  -9  -3    0.10    0.22
   1  -9  -3    0.19    0.25
   7 -10  -3    6.83    0.77
   6 -10  -3    8.66    0.74
   5 -10  -3    0.44    0.29
   4 -10  -3    0.49    0.27
  -1  11  -4    9.86    0.80
  -2  11  -4    4.22    0.63
  -3  11  -4   20.89    1.15
  -4  11  -4   17.82    1.05
  -5  11  -4    7.08    0.74
  -6  11  -4    3.96    0.59
   1  10  -4   24.45    1.25
   0  10  -4    0.56    0.30
  -1  10  -4    1.23    0.35
   1 -10   4    2.84    0.47
  -2  10  -4    2.37    0.45
   2 -10   4    2.01    0.36
  -3  10  -4    0.03    0.21
   3 -10   4    0.21    0.21
  -4  10  -4   23.42    1.17
   4 -10   4   23.89    1.12
  -5  10  -4    6.97    0.63
   5 -10   4    6.62    0.59
  -6  10  -4    2.14    0.44
  -7  10  -4   31.55    1.45
  -8  10  -4    0.55    0.31
   3   9  -4    4.88    0.66
   2   9  -4   19.55    1.09
   1   9  -4    4.28    0.57
  -1  -9   4    3.49    0.49
   0   9  -4    0.39    0.22
   0  -9   4    0.99    0.28
  -1   9  -4   10.82    0.72
   1  -9   4   10.11    0.66
  -2   9  -4   20.93    1.04
   2  -9   4   23.04    1.02
  -3   9  -4   16.52    0.89
   3  -9   4   16.76    0.85
  -4   9  -4   13.04    0.79
   4  -9   4   13.10    0.75
  -5   9  -4   12.57    0.78
   5  -9   4   12.39    0.74
  -6   9  -4   72.26    2.47
   6  -9   4   71.88    2.38
  -7   9  -4    0.46    0.24
  -8   9  -4    4.53    0.63
   4   8  -4    0.70    0.32
   3   8  -4    5.16    0.65
  -3  -8   4    3.15    0.44
   2   8  -4   16.17    0.92
  -2  -8   4   15.45    0.85
   1   8  -4    6.34    0.56
  -1  -8   4    6.48    0.53
   0   8  -4    8.52    0.60
   0  -8   4    8.74    0.57
  -1   8  -4   29.27    1.22
   1  -8   4   29.62    1.16
  -2   8  -4    3.05    0.41
   2  -8   4    2.99    0.36
  -3   8  -4   38.19    1.42
   3  -8   4   35.42    1.33
  -4   8  -4   50.30    1.76
   4  -8   4   50.05    1.70
  -5   8  -4   64.08    2.18
   5  -8   4   67.45    2.14
  -6   8  -4    9.31    0.66
   6  -8   4   10.09    0.66
  -7   8  -4   31.57    1.37
   7  -8   4   32.33    1.33
  -8   8  -4    0.16    0.23
  -9   8  -4    1.79    0.45
  -9   8  -4    2.08    0.46
   9  -8   4    2.14    0.36
   5   7  -4   -0.03    0.23
   4   7  -4    3.72    0.52
  -4  -7   4    4.09    0.52
   3   7  -4   24.71    1.16
  -3  -7   4   24.00    1.08
   2   7  -4    1.89    0.33
  -2  -7   4    2.99    0.41
   1   7  -4  123.73    3.65
  -1  -7   4  124.32    3.58
   0   7  -4   16.11    0.80
   0  -7   4   16.95    0.76
  -1   7  -4    0.05    0.13
   1  -7   4   -0.02    0.10
  -2   7  -4   17.42    0.82
   2  -7   4   19.00    0.80
  -3   7  -4    2.55    0.34
   3  -7   4    3.39    0.38
  -4   7  -4    1.77    0.29
   4  -7   4    1.80    0.30
  -5   7  -4    6.70    0.52
   5  -7   4    7.01    0.49
  -6   7  -4    9.37    0.64
   6  -7   4   11.11    0.65
  -7   7  -4  113.08    3.49
   7  -7   4  116.10    3.44
  -8   7  -4    0.31    0.26
   8  -7   4    0.65    0.23
  -9   7  -4    6.66    0.70
   9  -7   4    6.22    0.53
   6   6  -4   17.74    1.05
   5   6  -4   10.90    0.77
  -5  -6   4   10.43    0.70
   4   6  -4   21.18    1.03
  -4  -6   4   20.98    0.97
   3   6  -4    9.28    0.63
  -3  -6   4    9.27    0.58
   2   6  -4   76.19    2.42
  -2  -6   4   78.19    2.35
   1   6  -4    0.58    0.19
  -1  -6   4    0.66    0.18
   0   6  -4   29.06    1.12
   0  -6   4   31.20    1.07
  -1   6  -4    4.93    0.38
   1  -6   4    4.88    0.34
  -2   6  -4   34.79    1.21
   2  -6   4   33.65    1.15
  -3   6  -4    8.00    0.49
   3  -6   4    8.31    0.46
  -4   6  -4    0.84    0.21
   4  -6   4    0.43    0.16
  -5   6  -4    0.98    0.25
   5  -6   4    1.09    0.23
  -6   6  -4  117.10    3.50
   6  -6   4  120.48    3.46
  -7   6  -4    2.61    0.40
   7  -6   4    3.28    0.39
   7  -6   4    2.07    0.35
  -8   6  -4   36.36    1.52
   8  -6   4   37.58    1.38
  -9   6  -4    0.72    0.32
   9  -6   4    0.78    0.27
   7   5  -4   41.73    1.75
   6   5  -4    0.10    0.23
  -6  -5   4    0.17    0.21
   5   5  -4    3.34    0.47
  -5  -5   4    3.99    0.50
   4   5  -4    8.87    0.60
  -4  -5   4    9.16    0.57
   3   5  -4    3.74    0.42
  -3  -5   4    3.70    0.39
   2   5  -4   27.25    1.04
  -2  -5   4   26.90    0.99
   1   5  -4    9.22    0.51
  -1  -5   4    9.09    0.46
   0   5  -4   61.89    1.80
   0   5  -4   58.23    1.80
   0  -5   4   56.28    1.73
  -1   5  -4   39.51    1.24
  -1   5  -4   36.77    1.24
   1  -5   4   37.79    1.20
  -2   5  -4  105.73    2.77
  -2   5  -4  102.49    2.97
  -2   5  -4  109.93    2.98
   2  -5   4  107.00    2.93
  -3   5  -4   10.59    0.53
   3  -5   4   11.03    0.51
  -4   5  -4    3.55    0.37
   4  -5   4    3.14    0.33
  -5   5  -4    9.50    0.56
   5  -5   4    9.92    0.54
  -6   5  -4    5.64    0.48
   6  -5   4    7.33    0.48
   6  -5   4    6.08    0.46
  -7   5  -4   77.52    2.54
   7  -5   4   79.43    2.40
   7  -5   4   80.18    2.50
  -8   5  -4    8.92    0.68
   8  -5   4    8.28    0.59
  -9   5  -4    7.56    0.68
   9  -5   4    7.33    0.59
   8   4  -4   16.70    1.03
   7   4  -4    0.00    0.19
   6   4  -4   17.18    0.92
  -6  -4   4   19.75    0.93
   5   4  -4    1.50    0.31
  -5  -4   4    1.77    0.32
   4   4  -4   57.84    1.87
  -4  -4   4   57.16    1.82
   3   4  -4   15.76    0.70
  -3  -4   4   15.00    0.66
   2   4  -4    8.22    0.46
   2   4  -4    9.87    0.49
  -2  -4   4    8.60    0.43
   1   4  -4  123.44    3.32
   1   4  -4  116.76    3.32
  -1  -4   4  123.24    3.27
   0   4  -4  117.57    3.04
   0   4  -4  104.83    3.03
   0  -4   4  110.67    2.98
  -1   4  -4   57.45    1.56
  -1   4  -4   55.51    1.66
  -1   4  -4   57.90    1.65
   1  -4   4   57.48    1.62
  -2   4  -4  199.16    5.13
  -2   4  -4  189.71    5.12
   2  -4   4  193.79    5.09
  -3   4  -4   47.31    1.53
  -3   4  -4   53.44    1.55
   3  -4   4   49.25    1.50
  -4   4  -4   15.06    0.68
   4  -4   4   16.25    0.66
  -5   4  -4   13.43    0.67
   5  -4   4   12.70    0.62
   5  -4   4   13.30    0.62
  -6   4  -4    7.39    0.53
   6  -4   4    6.55    0.47
   6  -4   4    7.04    0.50
  -7   4  -4   51.99    1.86
   7  -4   4   52.30    1.80
   7  -4   4   53.51    1.76
  -8   4  -4    4.06    0.52
   8  -4   4    4.88    0.53
  -9   4  -4    6.31    0.71
   8   3  -4    0.11    0.21
   7   3  -4   21.36    1.05
  -7  -3   4   21.86    1.02
   6   3  -4    5.55    0.48
  -6  -3   4    5.40    0.45
   5   3  -4    1.42    0.25
  -5  -3   4    1.52    0.26
   4   3  -4    1.50    0.23
  -4  -3   4    1.92    0.26
   3   3  -4   81.74    2.41
   3   3  -4   88.86    2.44
  -3  -3   4   83.07    2.38
   2   3  -4   62.87    1.84
   2   3  -4   61.88    1.81
   2   3  -4   65.45    1.84
  -2  -3   4   62.38    1.78
   1   3  -4    9.43    0.41
   1   3  -4    9.18    0.41
   1   3  -4    9.75    0.41
  -1  -3   4    9.42    0.36
   0   3  -4   59.72    1.62
   0   3  -4   57.84    1.60
   0   3  -4   56.87    1.62
   0  -3   4   56.62    1.57
  -1   3  -4  183.95    4.97
  -1   3  -4  193.34    4.98
   1  -3   4  196.48    4.94
  -2   3  -4    2.51    0.21
  -2   3  -4    2.60    0.22
   2  -3   4    2.65    0.19
  -3   3  -4    2.50    0.26
  -3   3  -4    1.88    0.22
   3  -3   4    2.02    0.21
  -4   3  -4    2.04    0.26
  -4   3  -4    1.92    0.25
  -4   3  -4    2.43    0.28
   4  -3   4    2.74    0.31
   4  -3   4    2.54    0.27
  -5   3  -4   28.85    1.07
   5  -3   4   27.12    0.81
   5  -3   4   28.22    1.02
   5  -3   4   26.29    1.02
  -6   3  -4   79.73    2.49
   6  -3   4   81.94    2.45
   6  -3   4   78.83    2.18
   6  -3   4   79.37    2.40
  -7   3  -4    6.30    0.55
   7  -3   4    5.13    0.51
   7  -3   4    6.13    0.50
  -8   3  -4   38.21    1.58
  -9   3  -4   19.10    1.10
   9   2  -4    6.31    0.67
   8   2  -4    0.42    0.24
   7   2  -4   92.69    2.92
  -7  -2   4   96.43    2.88
   6   2  -4   48.55    1.67
  -6  -2   4   50.25    1.64
   5   2  -4  108.62    3.09
  -5  -2   4  107.27    3.04
   4   2  -4    9.00    0.45
   4   2  -4    7.86    0.44
  -4  -2   4    8.12    0.42
   3   2  -4    0.27    0.10
   3   2  -4    0.21    0.11
   3   2  -4    0.24    0.10
  -3  -2   4    0.15    0.09
   2   2  -4    9.89    0.45
   2   2  -4    9.41    0.39
   2   2  -4   10.38    0.40
  -2  -2   4    9.75    0.36
   1   2  -4    6.44    0.27
   1   2  -4    7.03    0.28
  -1  -2   4    6.55    0.32
   0   2  -4   21.24    0.64
   0   2  -4   22.43    0.64
   0  -2   4   21.68    0.69
  -1   2  -4  207.32    5.46
  -1   2  -4  217.27    5.47
   1  -2   4  212.04    5.42
  -2   2  -4  110.98    2.88
  -2   2  -4  102.38    2.86
   2  -2   4  106.46    2.83
  -3   2  -4   45.54    1.41
  -3   2  -4   46.45    1.40
   3  -2   4   45.26    1.42
   3  -2   4   45.97    1.37
  -4   2  -4    3.80    0.32
  -4   2  -4    3.95    0.33
   4  -2   4    3.78    0.29
   4  -2   4    3.59    0.37
  -5   2  -4   11.34    0.61
   5  -2   4   11.33    0.62
   5  -2   4   11.11    0.57
  -6   2  -4    4.01    0.46
   6  -2   4    4.09    0.43
   6  -2   4    3.23    0.39
  -7   2  -4   29.61    1.27
  -8   2  -4    1.93    0.43
  10   1  -4   13.97    0.96
   9   1  -4    2.52    0.46
   8   1  -4   75.89    2.49
  -8  -1   4   77.17    2.46
   7   1  -4   -0.03    0.14
  -7  -1   4    0.15    0.15
   6   1  -4   85.24    2.58
  -6  -1   4   87.51    2.54
   5   1  -4    0.02    0.09
   5   1  -4    0.13    0.12
  -5  -1   4    0.02    0.09
   4   1  -4    6.06    0.34
   4   1  -4    5.92    0.33
  -4  -1   4    5.95    0.32
   3   1  -4   25.52    0.82
   3   1  -4   26.77    0.90
   3   1  -4   26.51    0.82
  -3  -1   4   25.37    0.90
  -3  -1   4   25.22    0.79
   2   1  -4  100.24    2.59
   2   1  -4   99.02    2.58
  -2  -1   4   96.84    2.70
  -1  -1   4   29.64    0.93
  -1   1  -4   63.60    1.70
  -1   1  -4   61.92    1.70
   1  -1   4   62.24    1.77
   1  -1   4   62.70    1.66
  -2   1  -4  239.45    6.41
  -2   1  -4  253.20    6.42
   2  -1   4  247.40    6.33
   2  -1   4  248.76    6.38
  -3   1  -4   30.85    1.05
  -3   1  -4   32.02    1.04
   3  -1   4   30.86    1.08
   3  -1   4   30.69    1.00
  -4   1  -4    0.05    0.12
   4  -1   4    0.46    0.14
   4  -1   4   -0.06    0.12
  -5   1  -4    3.60    0.41
   5  -1   4    3.41    0.36
  -6   1  -4   12.57    0.74
   6  -1   4   12.44    0.69
  -7   1  -4    0.39    0.23
  -8   1  -4    7.49    0.68
  10   0  -4    0.55    0.28
   9   0  -4    0.07    0.20
   8   0  -4   16.06    0.85
  -8   0   4   17.51    0.84
   7   0  -4   19.21    0.88
  -7   0   4   19.73    0.64
  -7   0   4   19.75    0.85
   6   0  -4   18.81    0.78
  -6   0   4   18.07    0.74
   5   0  -4    0.56    0.15
   5   0  -4    0.33    0.14
  -5   0   4    0.16    0.13
  -5   0   4    0.41    0.12
   4   0  -4   42.78    1.28
   4   0  -4   42.88    1.28
  -4   0   4   42.95    1.25
  -4   0   4   41.60    1.36
   3   0  -4   27.45    0.83
   3   0  -4   27.68    0.82
  -3   0   4   26.33    0.93
  -3   0   4   27.51    0.79
   2   0  -4   17.07    0.50
  -1   0   4    2.57    0.20
   0   0  -4   60.05    1.58
   0   0  -4   60.15    1.58
   0   0   4   57.08    1.66
  -1   0  -4  247.66    6.54
  -1   0  -4  259.07    6.55
   1   0   4  253.18    6.51
   1   0   4  256.14    6.47
  -2   0  -4   17.71    0.64
  -2   0  -4   15.28    0.62
   2   0   4   16.16    0.68
   2   0   4   16.84    0.60
  -3   0  -4   32.80    1.08
  -3   0  -4   28.95    1.05
   3   0   4   30.74    1.03
  -4   0  -4   12.77    0.65
   4   0   4   12.94    0.61
  -5   0  -4    1.06    0.26
   5   0   4    1.52    0.29
  -6   0  -4   13.37    0.79
  -7   0  -4    8.54    0.69
  -8   0  -4   12.04    0.89
  10  -1  -4    2.90    0.45
   9  -1  -4   11.80    0.75
   8  -1  -4    0.07    0.15
  -8   1   4    0.02    0.14
   7  -1  -4   60.34    1.95
  -7   1   4   61.33    1.90
   6  -1  -4    2.86    0.32
  -6   1   4    3.46    0.33
  -6   1   4    3.49    0.40
   5  -1  -4  146.64    3.91
   5  -1  -4  144.04    3.92
  -5   1   4  142.95    3.86
   4  -1  -4   53.54    1.52
   4  -1  -4   51.35    1.51
  -4   1   4   52.56    1.47
  -4   1   4   50.16    1.60
  -4   1   4   52.35    1.34
   3  -1  -4  106.79    2.81
   3  -1  -4  105.08    2.81
  -3   1   4  107.80    2.76
  -3   1   4  104.92    2.70
   2  -1  -4    2.34    0.15
   2  -1  -4    2.10    0.15
  -2   1   4    1.79    0.18
   1  -1  -4    1.17    0.17
   1  -1  -4    1.38    0.14
   1  -1  -4    1.39    0.14
  -1   1   4    1.43    0.18
   0  -1  -4    3.08    0.21
   0  -1  -4    3.29    0.26
   0  -1  -4    2.65    0.19
   0   1   4    2.99    0.17
   0   1   4    2.83    0.27
  -1  -1  -4   51.72    1.51
  -1  -1  -4   47.62    1.45
  -1  -1  -4   49.86    1.46
   1   1   4   48.23    1.42
  -2  -1  -4   72.80    2.09
  -2  -1  -4   69.82    2.07
   2   1   4   70.38    2.03
  -3  -1  -4  149.76    4.18
   3   1   4  153.29    4.14
  -4  -1  -4   34.89    1.29
   4   1   4   34.48    1.24
  -5  -1  -4   30.28    1.25
   5   1   4   30.65    1.30
  -6  -1  -4   17.18    0.95
  -7  -1  -4   11.14    0.82
  10  -2  -4    9.03    0.71
   9  -2  -4   26.90    1.20
   8  -2  -4   56.27    1.93
  -8   2   4   58.56    1.89
   7  -2  -4    4.96    0.41
  -7   2   4    5.02    0.42
  -7   2   4    4.62    0.37
   6  -2  -4   88.74    2.57
   6  -2  -4   89.58    2.56
  -6   2   4   87.52    2.51
  -6   2   4   86.65    2.60
   5  -2  -4   41.25    1.35
   5  -2  -4   45.87    1.38
  -5   2   4   44.41    1.32
  -5   2   4   42.04    1.42
   4  -2  -4   40.80    1.22
   4  -2  -4   37.98    1.21
  -4   2   4   40.69    1.18
   3  -2  -4   75.73    2.14
   3  -2  -4   80.32    2.15
  -3   2   4   77.45    2.09
   2  -2  -4    0.07    0.07
   2  -2  -4    0.05    0.07
   2  -2  -4    0.01    0.06
  -2   2   4    0.03    0.06
   1  -2  -4   68.84    1.93
   1  -2  -4   66.69    1.92
   1  -2  -4   71.66    1.95
  -1   2   4   68.23    1.86
   0  -2  -4   27.13    0.95
   0  -2  -4   30.60    1.00
   0  -2  -4   29.93    0.97
   0   2   4   29.03    0.92
  -1  -2  -4   23.23    0.87
  -1  -2  -4   26.23    0.90
   1   2   4   24.16    0.85
  -2  -2  -4   91.26    2.68
  -2  -2  -4   93.98    2.70
   2   2   4   92.20    2.65
  -3  -2  -4    4.85    0.41
   3   2   4    4.97    0.39
  -4  -2  -4   14.72    0.78
   4   2   4   14.12    0.73
  -5  -2  -4    2.64    0.42
  -6  -2  -4    5.70    0.68
  11  -3  -4   12.12    0.86
  10  -3  -4    3.74    0.53
   9  -3  -4    2.33    0.37
   8  -3  -4    1.72    0.31
  -8   3   4    2.18    0.36
  -8   3   4    1.82    0.30
   7  -3  -4    6.70    0.47
  -7   3   4    6.51    0.44
  -7   3   4    7.48    0.50
   6  -3  -4    3.69    0.33
   6  -3  -4    3.04    0.35
  -6   3   4    3.16    0.31
  -6   3   4    3.66    0.40
   5  -3  -4   14.39    0.63
   5  -3  -4   15.25    0.63
  -5   3   4   14.00    0.58
   4  -3  -4  261.45    6.66
   4  -3  -4  259.67    6.99
   4  -3  -4  274.00    7.01
  -4   3   4  276.70    6.95
   3  -3  -4   36.33    1.10
   3  -3  -4   31.52    1.06
  -3   3   4   33.13    1.03
   2  -3  -4   95.13    2.54
   2  -3  -4   89.10    2.45
   2  -3  -4   86.45    2.51
  -2   3   4   90.92    2.46
   1  -3  -4    0.54    0.14
   1  -3  -4    0.44    0.14
   1  -3  -4    0.23    0.13
  -1   3   4    0.46    0.12
   0  -3  -4    4.50    0.33
   0  -3  -4    4.78    0.34
   0   3   4    4.27    0.30
  -1  -3  -4   31.75    1.12
  -1  -3  -4   29.24    1.10
   1   3   4   30.45    1.07
  -2  -3  -4   40.20    1.43
   2   3   4   41.96    1.41
  -3  -3  -4    8.24    0.57
   3   3   4    7.92    0.53
  -4  -3  -4   29.46    1.25
  -5  -3  -4    0.30    0.24
  -6  -3  -4   12.62    0.89
  11  -4  -4   21.35    1.16
  10  -4  -4    0.33    0.23
   9  -4  -4   16.33    0.88
  -9   4   4   16.69    0.85
   8  -4  -4   10.70    0.65
  -8   4   4    9.77    0.62
  -8   4   4   10.76    0.61
   7  -4  -4    5.35    0.43
  -7   4   4    6.34    0.43
  -7   4   4    5.74    0.46
   6  -4  -4    3.01    0.35
  -6   4   4    3.07    0.32
   5  -4  -4  104.43    2.87
   5  -4  -4   95.25    2.84
   5  -4  -4   99.07    2.56
  -5   4   4   99.82    2.80
   4  -4  -4  102.72    3.04
   4  -4  -4  121.07    3.29
   4  -4  -4  128.22    3.31
  -4   4   4  119.57    3.22
   3  -4  -4  112.99    3.05
   3  -4  -4  103.19    3.02
   3  -4  -4  109.16    2.89
  -3   4   4  106.13    2.95
   2  -4  -4    7.35    0.44
   2  -4  -4    8.08    0.44
   2  -4  -4    8.99    0.48
  -2   4   4    8.52    0.42
   1  -4  -4    1.62    0.25
   1  -4  -4    1.77    0.26
  -1   4   4    1.52    0.22
   0  -4  -4    0.34    0.15
   0   4   4    0.30    0.14
  -1  -4  -4    3.16    0.38
   1   4   4    3.37    0.36
  -2  -4  -4   17.06    0.85
  -3  -4  -4   16.87    0.90
  -4  -4  -4   10.89    0.76
  -5  -4  -4   47.73    1.91
  11  -5  -4   26.10    1.30
  10  -5  -4   10.72    0.76
 -10   5   4   11.49    0.73
   9  -5  -4    6.64    0.56
  -9   5   4    6.75    0.54
   8  -5  -4   12.17    0.73
  -8   5   4   13.90    0.75
   7  -5  -4    0.80    0.23
  -7   5   4    0.52    0.20
  -7   5   4    1.18    0.25
   6  -5  -4    1.74    0.29
   6  -5  -4    1.67    0.14
  -6   5   4    1.28    0.23
   5  -5  -4    0.70    0.14
   5  -5  -4    0.46    0.17
  -5   5   4    0.56    0.16
   4  -5  -4   35.37    1.30
   4  -5  -4   38.91    1.33
   4  -5  -4   38.95    1.19
  -4   5   4   38.78    1.26
   3  -5  -4   98.56    2.76
   3  -5  -4   90.24    2.71
  -3   5   4   89.53    2.64
   2  -5  -4    1.99    0.28
  -2   5   4    2.45    0.29
   1  -5  -4    0.34    0.18
  -1   5   4    0.72    0.18
   0  -5  -4    6.83    0.50
   0   5   4    6.84    0.46
  -1  -5  -4    8.46    0.59
  -2  -5  -4    7.06    0.59
  -3  -5  -4    0.29    0.22
  -4  -5  -4   10.45    0.78
  10  -6  -4    8.47    0.69
 -10   6   4    8.05    0.63
   9  -6  -4   55.14    1.99
  -9   6   4   55.39    1.95
   8  -6  -4    0.37    0.22
  -8   6   4    0.80    0.25
   7  -6  -4    1.51    0.30
   6  -6  -4    9.33    0.60
  -6   6   4    9.84    0.57
   5  -6  -4    1.82    0.30
   5  -6  -4    2.19    0.25
  -5   6   4    2.23    0.31
   4  -6  -4   45.43    1.56
  -4   6   4   43.98    1.48
   3  -6  -4   22.01    0.96
  -3   6   4   22.51    0.91
   2  -6  -4   35.21    1.35
  -2   6   4   36.34    1.29
   1  -6  -4   41.25    1.51
   0  -6  -4    4.76    0.53
  -1  -6  -4    7.63    0.61
  -2  -6  -4   18.20    1.00
  -3  -6  -4   -0.12    0.20
  10  -7  -4   19.42    1.07
 -10   7   4   18.94    1.00
   9  -7  -4   11.37    0.79
  -9   7   4   13.20    0.79
   8  -7  -4    6.36    0.57
   7  -7  -4    5.15    0.54
   6  -7  -4   23.06    1.05
   5  -7  -4    4.52    0.53
   4  -7  -4   17.36    0.88
   3  -7  -4   36.24    1.41
   2  -7  -4   36.80    1.45
   1  -7  -4    0.52    0.25
   0  -7  -4    5.66    0.64
  -1  -7  -4    7.37    0.65
   9  -8  -4   -0.01    0.22
  -9   8   4    0.20    0.23
   8  -8  -4   40.57    1.66
   7  -8  -4    0.37    0.24
   6  -8  -4    0.91    0.29
   5  -8  -4    0.22    0.21
   4  -8  -4    3.96    0.48
   3  -8  -4    1.02    0.30
   2  -8  -4    2.00    0.40
   1  -8  -4    1.94    0.42
   0  -8  -4    9.35    0.73
   8  -9  -4    0.73    0.32
   7  -9  -4    9.69    0.76
   6  -9  -4    2.97    0.49
   5  -9  -4   -0.11    0.18
   4  -9  -4    2.67    0.46
   3  -9  -4    0.56    0.29
   2  -9  -4    4.27    0.56
  -1  11  -5    6.69    0.76
  -2  11  -5    6.65    0.74
  -3  11  -5   12.54    0.88
  -4  11  -5   17.47    1.04
  -5  11  -5    0.31    0.26
  -6  11  -5   11.51    0.86
   1  10  -5    0.59    0.30
   0  10  -5    0.20    0.24
  -1  10  -5    1.51    0.38
  -2  10  -5    2.25    0.43
  -3  10  -5   43.23    1.72
  -4  10  -5   11.25    0.79
  -5  10  -5   19.45    1.05
  -6  10  -5   10.88    0.80
  -7  10  -5   -0.19    0.18
   3   9  -5    2.93    0.55
   2   9  -5    5.92    0.66
   1   9  -5    6.18    0.64
   0   9  -5    3.77    0.46
  -1   9  -5   29.91    1.31
   1  -9   5   32.33    1.28
  -2   9  -5   22.27    1.08
   2  -9   5   24.10    1.05
  -3   9  -5   38.27    1.51
   3  -9   5   37.87    1.42
  -4   9  -5   27.37    1.20
   4  -9   5   26.20    1.23
  -5   9  -5   15.27    0.87
  -6   9  -5    0.18    0.21
  -7   9  -5    0.10    0.21
  -8   9  -5    0.30    0.25
   4   8  -5    3.65    0.53
   3   8  -5   23.54    1.18
   2   8  -5    2.83    0.46
   1   8  -5   11.24    0.73
  -1  -8   5   12.09    0.68
   0   8  -5    1.01    0.27
   0  -8   5    0.94    0.23
  -1   8  -5    0.41    0.20
   1  -8   5    0.77    0.22
  -2   8  -5   17.33    0.86
   2  -8   5   17.33    0.79
  -3   8  -5    1.31    0.28
   3  -8   5    2.10    0.32
  -4   8  -5    8.92    0.62
   4  -8   5    9.66    0.59
  -5   8  -5    0.94    0.26
   5  -8   5    1.64    0.31
  -6   8  -5    2.00    0.39
  -7   8  -5    7.29    0.63
  -8   8  -5    3.38    0.51
   8  -8   5    3.72    0.48
   5   7  -5    3.88    0.59
   4   7  -5   17.28    0.98
   3   7  -5    2.78    0.41
  -3  -7   5    1.98    0.35
   2   7  -5   81.52    2.59
  -2  -7   5   79.58    2.48
   1   7  -5    0.30    0.18
  -1  -7   5    0.28    0.15
   0   7  -5    0.34    0.18
   0  -7   5    0.21    0.13
  -1   7  -5    1.94    0.31
   1  -7   5    2.46    0.32
  -2   7  -5    0.44    0.18
   2  -7   5    0.36    0.15
  -3   7  -5   58.00    1.58
  -3   7  -5   58.72    1.90
   3  -7   5   57.95    1.83
  -4   7  -5   28.96    1.15
   4  -7   5   29.35    1.10
  -5   7  -5   10.80    0.65
   5  -7   5   11.85    0.64
  -6   7  -5   66.65    2.23
  -7   7  -5   10.04    0.70
  -8   7  -5    7.70    0.68
  -8   7  -5    8.97    0.70
   8  -7   5    7.09    0.58
  -9   7  -5    8.35    0.74
   9  -7   5    8.19    0.65
   6   6  -5    0.36    0.26
   5   6  -5   14.56    0.88
   4   6  -5    0.27    0.22
  -4  -6   5    0.15    0.16
   3   6  -5   16.85    0.86
  -3  -6   5   18.48    0.82
   2   6  -5   45.77    1.59
  -2  -6   5   45.13    1.51
   1   6  -5   12.38    0.66
  -1  -6   5   13.38    0.61
   0   6  -5    1.64    0.27
   0  -6   5    1.61    0.23
  -1   6  -5   38.92    1.20
  -1   6  -5   43.14    1.36
  -1   6  -5   38.25    1.33
   1  -6   5   38.25    1.27
  -2   6  -5    8.49    0.34
  -2   6  -5    8.77    0.49
  -2   6  -5    7.52    0.47
   2  -6   5    8.41    0.44
  -3   6  -5   79.22    2.39
   3  -6   5   81.90    2.34
  -4   6  -5   34.08    1.27
   4  -6   5   36.01    1.22
  -5   6  -5   84.70    2.61
   5  -6   5   85.38    2.54
  -6   6  -5    4.75    0.49
   6  -6   5    5.54    0.45
  -7   6  -5   31.60    1.35
  -7   6  -5   32.10    1.34
   7  -6   5   31.47    1.25
  -8   6  -5    4.27    0.55
   8  -6   5    5.41    0.57
  -9   6  -5    4.96    0.66
   9  -6   5    3.28    0.47
   7   5  -5    2.78    0.50
   6   5  -5    6.71    0.61
   5   5  -5    3.63    0.45
  -5  -5   5    4.44    0.48
   4   5  -5    8.76    0.58
  -4  -5   5    8.31    0.52
   3   5  -5   49.78    1.68
  -3  -5   5   50.86    1.61
   2   5  -5    0.00    0.12
   2   5  -5   -0.03    0.09
  -2  -5   5    0.01    0.10
   1   5  -5  140.21    3.73
   1   5  -5  127.36    3.70
   1   5  -5  135.99    3.66
  -1  -5   5  132.44    3.62
   0   5  -5    3.10    0.24
   0   5  -5    3.23    0.27
   0   5  -5    2.43    0.29
   0  -5   5    2.74    0.23
  -1   5  -5    0.42    0.14
  -1   5  -5    0.25    0.09
  -1   5  -5    0.29    0.11
   1  -5   5    0.63    0.13
  -2   5  -5    8.75    0.46
  -2   5  -5    9.60    0.48
   2  -5   5    9.05    0.43
  -3   5  -5   15.73    0.67
  -3   5  -5   14.91    0.66
   3  -5   5   14.36    0.61
  -4   5  -5   13.31    0.63
   4  -5   5   11.77    0.57
  -5   5  -5   10.82    0.62
   5  -5   5   11.42    0.58
  -6   5  -5    2.53    0.40
  -6   5  -5    3.16    0.43
   6  -5   5    3.14    0.39
   6  -5   5    2.48    0.37
  -7   5  -5   49.57    1.83
   7  -5   5   51.47    1.75
  -8   5  -5    4.50    0.59
   8  -5   5    4.92    0.55
  -9   5  -5    1.50    0.40
   9  -5   5    2.10    0.42
   8   4  -5    0.18    0.25
   7   4  -5    0.45    0.28
   6   4  -5   12.81    0.76
   5   4  -5    2.29    0.34
  -5  -4   5    2.05    0.31
   4   4  -5   48.15    1.63
  -4  -4   5   50.83    1.59
   3   4  -5   25.51    0.97
   3   4  -5   26.41    0.99
  -3  -4   5   26.78    0.93
   2   4  -5  290.58    7.90
   2   4  -5  310.93    7.92
  -2  -4   5  305.63    7.84
   1   4  -5    2.84    0.24
   1   4  -5    2.34    0.25
   1   4  -5    2.65    0.23
  -1  -4   5    2.84    0.21
   0   4  -5   39.57    1.25
   0   4  -5   43.27    1.26
   0  -4   5   41.07    1.19
  -1   4  -5    0.82    0.15
  -1   4  -5    0.60    0.13
   1  -4   5    0.77    0.12
  -2   4  -5    6.30    0.36
  -2   4  -5    6.00    0.35
   2  -4   5    6.60    0.32
  -3   4  -5    1.10    0.20
  -3   4  -5    1.16    0.20
   3  -4   5    0.92    0.16
  -4   4  -5    3.69    0.38
  -4   4  -5    2.76    0.33
   4  -4   5    2.68    0.28
  -5   4  -5    2.28    0.32
   5  -4   5    2.18    0.28
   5  -4   5    1.88    0.30
  -6   4  -5  113.88    3.38
   6  -4   5  113.10    3.26
  -7   4  -5   -0.03    0.19
   7  -4   5    0.21    0.20
  -8   4  -5   36.95    1.54
   8  -4   5   34.07    1.40
   9   3  -5    1.69    0.43
   8   3  -5    0.90    0.30
   7   3  -5   62.68    2.15
   6   3  -5    0.37    0.19
  -6  -3   5    0.61    0.21
   5   3  -5    4.95    0.40
  -5  -3   5    5.18    0.39
   4   3  -5    6.86    0.43
   4   3  -5    7.62    0.44
  -4  -3   5    7.47    0.41
   3   3  -5   53.51    1.59
   3   3  -5   50.97    1.57
  -3  -3   5   51.44    1.52
   2   3  -5  115.77    3.13
   2   3  -5  117.01    3.18
   2   3  -5  112.56    3.11
  -2  -3   5  115.43    3.05
   1   3  -5   11.73    0.46
   1   3  -5   11.90    0.46
   1   3  -5   11.75    0.49
  -1  -3   5   11.37    0.39
   0   3  -5   35.94    1.05
   0   3  -5   36.09    1.06
   0  -3   5   35.51    1.08
  -1   3  -5   31.53    0.97
  -1   3  -5   33.57    0.98
   1  -3   5   31.62    0.94
   1  -3   5   32.42    0.91
  -2   3  -5    6.88    0.35
  -2   3  -5    6.39    0.34
   2  -3   5    6.25    0.29
   2  -3   5    5.93    0.25
  -3   3  -5    0.48    0.14
  -3   3  -5    0.68    0.16
   3  -3   5    0.47    0.18
   3  -3   5    0.53    0.12
  -4   3  -5   21.02    0.86
  -4   3  -5   23.34    0.87
   4  -3   5   21.22    0.88
   4  -3   5   21.60    0.81
  -5   3  -5   25.30    1.04
   5  -3   5   27.22    0.99
   5  -3   5   26.12    1.05
  -6   3  -5    2.90    0.38
   6  -3   5    3.09    0.42
  -7   3  -5   43.52    1.67
   7  -3   5   44.01    1.61
  -8   3  -5    0.94    0.33
   9   2  -5   21.74    1.13
   8   2  -5   43.20    1.67
   7   2  -5    1.49    0.29
   6   2  -5    3.50    0.41
  -6  -2   5    4.14    0.41
   5   2  -5    6.04    0.40
   5   2  -5    5.82    0.40
  -5  -2   5    5.94    0.37
   4   2  -5   27.95    0.98
   4   2  -5   29.99    0.99
  -4  -2   5   28.76    0.95
   3   2  -5   32.00    0.98
   3   2  -5   31.85    1.07
   3   2  -5   29.32    0.97
  -3  -2   5   31.74    0.93
   2   2  -5    2.13    0.16
   2   2  -5    1.97    0.16
  -2  -2   5    1.70    0.22
   1   2  -5  116.45    2.98
   1   2  -5  112.86    2.98
  -1  -2   5  114.90    3.10
   0   2  -5  110.37    2.79
   0   2  -5  106.72    2.79
   0  -2   5  104.61    2.87
  -1   2  -5  115.00    2.99
  -1   2  -5  111.15    2.99
  -2   2  -5   67.42    1.89
  -2   2  -5   65.71    1.88
  -2   2  -5   66.20    1.88
   2  -2   5   66.60    1.81
   2  -2   5   65.84    1.94
  -3   2  -5   37.73    1.17
  -3   2  -5   34.91    1.16
   3  -2   5   32.60    1.21
   3  -2   5   36.39    1.11
  -4   2  -5    1.74    0.27
  -4   2  -5    2.45    0.32
   4  -2   5    2.37    0.34
   4  -2   5    2.17    0.26
  -5   2  -5    1.16    0.26
   5  -2   5    1.38    0.28
   5  -2   5    1.23    0.22
  -6   2  -5   18.12    0.90
  -7   2  -5   33.31    1.41
  -8   2  -5    0.10    0.25
  10   1  -5   20.67    1.15
   9   1  -5    7.72    0.76
   8   1  -5    0.80    0.25
   7   1  -5   51.82    1.80
  -7  -1   5   55.23    1.75
   6   1  -5    2.41    0.30
  -6  -1   5    3.46    0.35
   5   1  -5   20.84    0.80
   5   1  -5   20.61    0.79
  -5  -1   5   21.18    0.75
   4   1  -5    1.61    0.20
   4   1  -5    1.78    0.20
  -4  -1   5    1.69    0.25
  -4  -1   5    2.38    0.18
   3   1  -5   12.52    0.46
   3   1  -5   13.49    0.47
  -3  -1   5   12.43    0.58
   2   1  -5  184.49    4.67
   2   1  -5  183.40    4.67
  -2  -1   5  180.24    4.85
   0  -1   5   58.87    1.69
  -1   1  -5  203.31    5.40
  -1   1  -5  212.00    5.40
   1  -1   5  211.44    5.41
  -2   1  -5    9.66    0.44
  -2   1  -5   10.73    0.45
   2  -1   5    9.94    0.40
   2  -1   5    9.46    0.52
  -3   1  -5    0.13    0.12
  -3   1  -5    0.21    0.12
   3  -1   5    0.01    0.14
   3  -1   5    0.25    0.11
  -4   1  -5    1.76    0.27
   4  -1   5    1.40    0.28
   4  -1   5    1.55    0.23
  -5   1  -5   15.85    0.80
  -6   1  -5   43.42    1.63
  -7   1  -5    2.24    0.42
  10   0  -5    0.40    0.29
   9   0  -5    2.74    0.46
   8   0  -5    3.21    0.42
   7   0  -5  159.85    4.56
  -7   0   5  166.85    4.50
   6   0  -5   29.34    1.04
   6   0  -5   28.18    1.04
   6   0  -5   28.16    1.03
  -6   0   5   27.25    0.97
   5   0  -5   23.61    0.84
   5   0  -5   23.33    0.83
  -5   0   5   22.58    0.78
  -5   0   5   22.78    0.92
   4   0  -5   14.87    0.56
   4   0  -5   15.93    0.57
  -4   0   5   14.60    0.67
  -4   0   5   15.34    0.51
   3   0  -5   50.16    1.39
   3   0  -5   51.33    1.39
  -3   0   5   48.25    1.54
  -2   0   5    0.37    0.11
  -1   0   5    0.62    0.14
   0   0  -5   21.10    0.64
   0   0  -5   20.84    0.64
   0   0   5   20.00    0.76
  -1   0  -5   48.19    1.43
  -1   0  -5   51.15    1.45
   1   0   5   50.36    1.55
   1   0   5   49.94    1.38
  -2   0  -5   70.47    1.99
  -2   0  -5   66.62    1.98
   2   0   5   67.68    2.05
   2   0   5   68.55    1.92
  -3   0  -5    6.33    0.41
  -3   0  -5    6.26    0.42
   3   0   5    6.70    0.38
  -4   0  -5    0.28    0.18
   4   0   5    0.57    0.17
  -5   0  -5    7.22    0.56
  -6   0  -5    2.86    0.46
  -7   0  -5   15.35    0.95
  10  -1  -5    0.38    0.26
   9  -1  -5    0.33    0.22
   8  -1  -5  102.14    3.09
   7  -1  -5    8.88    0.55
  -7   1   5    9.25    0.50
  -7   1   5    9.02    0.58
   6  -1  -5  155.71    4.34
   6  -1  -5  163.77    4.35
  -6   1   5  160.33    4.44
  -6   1   5  156.44    4.27
   5  -1  -5    2.11    0.24
   5  -1  -5    2.28    0.26
  -5   1   5    1.92    0.12
  -5   1   5    1.41    0.24
  -5   1   5    2.28    0.22
   4  -1  -5   17.58    0.62
   4  -1  -5   18.46    0.62
  -4   1   5   16.75    0.73
  -4   1   5   16.67    0.55
  -4   1   5   17.58    0.55
   3  -1  -5    9.17    0.35
   3  -1  -5    8.63    0.35
  -3   1   5    8.33    0.36
   2  -1  -5    2.72    0.17
   2  -1  -5    2.67    0.17
  -2   1   5    2.71    0.23
   1  -1  -5   22.79    0.70
   1  -1  -5   21.63    0.70
  -1   1   5   22.29    0.79
   0  -1  -5   98.91    2.62
   0  -1  -5   98.96    2.74
   0  -1  -5   93.25    2.61
   0   1   5   94.52    2.66
  -1  -1  -5   70.80    2.10
  -1  -1  -5   75.78    2.12
   1   1   5   75.44    2.06
  -2  -1  -5   69.50    1.98
  -2  -1  -5   61.77    1.95
   2   1   5   64.49    1.90
  -3  -1  -5   66.95    2.08
   3   1   5   66.56    2.01
  -4  -1  -5    2.75    0.37
  -5  -1  -5    0.22    0.19
  -6  -1  -5    9.76    0.73
  10  -2  -5    4.19    0.51
   9  -2  -5    0.23    0.19
   8  -2  -5   13.79    0.73
  -8   2   5   12.73    0.74
   7  -2  -5  111.19    3.32
  -7   2   5  120.43    3.42
  -7   2   5  117.03    3.27
   6  -2  -5   13.23    0.63
   6  -2  -5   13.43    0.62
  -6   2   5   14.17    0.58
  -6   2   5   13.97    0.71
   5  -2  -5    0.17    0.10
   5  -2  -5    0.24    0.12
  -5   2   5    0.19    0.09
  -5   2   5    0.14    0.14
   4  -2  -5   26.20    0.89
   4  -2  -5   28.40    0.90
  -4   2   5   27.17    0.82
   3  -2  -5   30.97    0.97
   3  -2  -5   32.21    0.98
   2  -2  -5   18.82    0.66
   2  -2  -5   19.46    0.69
   2  -2  -5   19.00    0.66
   1  -2  -5    3.19    0.24
   1  -2  -5    2.62    0.28
   1  -2  -5    2.93    0.24
  -1   2   5    3.51    0.19
   0  -2  -5   17.34    0.66
   0  -2  -5   16.19    0.65
   0   2   5   16.19    0.58
  -1  -2  -5  117.85    3.38
  -1  -2  -5  125.55    3.41
   1   2   5  121.88    3.32
  -2  -2  -5    0.36    0.15
   2   2   5    0.22    0.12
  -3  -2  -5   17.27    0.82
  -4  -2  -5    0.92    0.28
  -5  -2  -5    0.18    0.19
  -6  -2  -5   12.88    0.88
  11  -3  -5    0.44    0.28
  10  -3  -5    3.72    0.49
   9  -3  -5    3.41    0.44
  -9   3   5    3.74    0.48
   8  -3  -5    2.86    0.39
  -8   3   5    2.68    0.39
   7  -3  -5   66.38    2.13
  -7   3   5   69.29    2.07
  -7   3   5   70.03    2.22
   6  -3  -5   20.50    0.84
   6  -3  -5   22.06    0.85
  -6   3   5   21.71    0.78
  -6   3   5   18.97    0.89
   5  -3  -5   67.40    1.93
   5  -3  -5   60.87    1.89
  -5   3   5   63.38    1.83
   4  -3  -5   20.55    0.78
   4  -3  -5   22.99    0.81
  -4   3   5   22.33    0.73
   3  -3  -5   59.10    1.68
   3  -3  -5   58.62    1.73
   3  -3  -5   58.63    1.74
  -3   3   5   59.55    1.65
   2  -3  -5    1.94    0.24
   2  -3  -5    1.86    0.24
   2  -3  -5    1.78    0.23
  -2   3   5    1.97    0.17
   1  -3  -5    6.16    0.37
   1  -3  -5    5.47    0.36
  -1   3   5    5.85    0.31
   0  -3  -5    0.34    0.14
   0  -3  -5    0.34    0.14
   0   3   5    0.50    0.13
  -1  -3  -5   11.12    0.61
   1   3   5   12.33    0.57
  -2  -3  -5    7.68    0.52
  -3  -3  -5   29.23    1.22
  -4  -3  -5    0.23    0.23
  -5  -3  -5   16.34    0.98
  10  -4  -5    1.18    0.33
   9  -4  -5    9.07    0.64
  -9   4   5    9.20    0.66
   8  -4  -5   63.67    2.10
  -8   4   5   63.16    2.13
   7  -4  -5    3.02    0.38
  -7   4   5    4.05    0.48
   6  -4  -5   82.09    2.50
  -6   4   5   86.03    2.43
   5  -4  -5    0.60    0.18
   5  -4  -5    0.53    0.16
  -5   4   5    0.65    0.15
   4  -4  -5   69.23    2.13
   4  -4  -5   74.63    2.16
   4  -4  -5   72.87    2.01
  -4   4   5   71.96    2.06
   3  -4  -5   15.58    0.68
   3  -4  -5   14.58    0.67
   3  -4  -5   16.24    0.65
  -3   4   5   15.68    0.60
   2  -4  -5    4.24    0.35
   2  -4  -5    4.73    0.36
  -2   4   5    4.76    0.30
   1  -4  -5    1.11    0.22
  -1   4   5    1.31    0.20
   0  -4  -5   20.33    0.88
  -1  -4  -5    8.61    0.57
  -2  -4  -5   40.35    1.51
  -3  -4  -5    1.56    0.33
  -4  -4  -5   11.65    0.82
  10  -5  -5    1.76    0.39
 -10   5   5    1.64    0.36
   9  -5  -5    5.32    0.60
  -9   5   5    5.57    0.58
   8  -5  -5   -0.15    0.14
  -8   5   5    0.13    0.19
   7  -5  -5   29.19    1.17
   6  -5  -5   12.21    0.65
   5  -5  -5   15.48    0.74
   5  -5  -5   16.53    0.62
   4  -5  -5   90.05    2.70
   4  -5  -5   92.83    2.64
   3  -5  -5    0.12    0.15
   2  -5  -5   20.45    0.89
   1  -5  -5    4.08    0.43
   0  -5  -5    9.62    0.62
  -1  -5  -5   12.56    0.75
  -2  -5  -5    3.34    0.47
  -3  -5  -5    0.99    0.33
  10  -6  -5    1.06    0.33
 -10   6   5    0.09    0.21
   9  -6  -5    1.46    0.36
  -9   6   5    1.13    0.31
   8  -6  -5    0.07    0.18
  -8   6   5    0.13    0.19
   7  -6  -5    3.27    0.42
   6  -6  -5    8.82    0.59
   5  -6  -5   40.41    1.49
   4  -6  -5   36.91    1.37
   3  -6  -5   54.14    1.83
   2  -6  -5    3.23    0.44
   1  -6  -5    3.22    0.44
   0  -6  -5    0.81    0.27
  -1  -6  -5    2.44    0.43
  -2  -6  -5    8.00    0.69
   9  -7  -5    2.53    0.44
  -9   7   5    2.78    0.47
   8  -7  -5    7.59    0.62
   7  -7  -5   12.58    0.77
   6  -7  -5    6.64    0.56
   5  -7  -5   18.53    0.94
   4  -7  -5   26.31    1.15
   3  -7  -5   11.57    0.72
   2  -7  -5    4.71    0.58
   1  -7  -5    0.32    0.21
   0  -7  -5    4.22    0.53
   9  -8  -5   17.36    1.03
  -9   8   5   18.94    1.05
   8  -8  -5    0.26    0.24
   7  -8  -5    9.62    0.73
   6  -8  -5    4.46    0.57
   5  -8  -5    0.18    0.20
   4  -8  -5   28.87    1.29
   3  -8  -5    2.09    0.40
   2  -8  -5    3.35    0.48
   6  -9  -5    0.74    0.31
   5  -9  -5    9.15    0.74
  -1  11  -6    4.75    0.65
  -2  11  -6    1.67    0.40
  -3  11  -6   11.15    0.82
  -4  11  -6    5.75    0.67
  -5  11  -6    0.19    0.25
   1  10  -6    0.70    0.29
   0  10  -6    6.10    0.66
  -1  10  -6    0.04    0.20
  -2  10  -6   29.62    1.33
  -3  10  -6   28.46    1.29
  -4  10  -6    3.26    0.48
  -5  10  -6   12.45    0.82
  -6  10  -6   -0.20    0.22
  -7  10  -6    1.24    0.36
   3   9  -6    6.26    0.70
   2   9  -6   24.03    1.20
   1   9  -6   20.44    1.05
   0   9  -6    3.47    0.50
  -1   9  -6   27.49    1.21
  -2   9  -6   26.49    1.17
  -3   9  -6   38.02    1.49
  -4   9  -6   10.79    0.71
  -5   9  -6    0.76    0.28
  -6   9  -6   12.30    0.80
  -7   9  -6    3.73    0.53
   4   8  -6   15.84    0.99
   3   8  -6    1.81    0.38
   2   8  -6    7.97    0.63
   1   8  -6    4.77    0.57
   0   8  -6    2.70    0.39
  -1   8  -6    0.06    0.16
  -2   8  -6    1.04    0.27
  -3   8  -6  161.32    4.59
  -4   8  -6   15.44    0.81
  -5   8  -6    0.27    0.21
  -6   8  -6    5.48    0.58
  -7   8  -6    0.33    0.26
  -8   8  -6   12.87    0.88
   8  -8   6   13.85    0.83
   5   7  -6   37.03    1.60
   4   7  -6   21.25    1.09
   3   7  -6    0.09    0.20
   2   7  -6    7.20    0.55
   1   7  -6    4.97    0.44
  -1  -7   6    5.02    0.41
   0   7  -6   -0.01    0.14
   0  -7   6    0.23    0.13
  -1   7  -6   16.39    0.78
  -1   7  -6   17.75    0.67
   1  -7   6   16.61    0.71
  -2   7  -6   54.08    1.78
   2  -7   6   54.68    1.71
  -3   7  -6   60.30    1.97
   3  -7   6   63.35    1.91
  -4   7  -6   68.72    2.19
  -5   7  -6    6.41    0.51
  -6   7  -6    1.15    0.30
  -7   7  -6    0.71    0.28
   7  -7   6    0.72    0.26
  -8   7  -6    3.36    0.51
   8  -7   6    2.49    0.45
   6   6  -6    8.65    0.72
   5   6  -6    2.55    0.44
   4   6  -6   56.75    1.97
   3   6  -6   24.23    1.05
   2   6  -6   12.41    0.67
  -2  -6   6   11.70    0.58
   1   6  -6   24.32    0.97
  -1  -6   6   23.83    0.88
   0   6  -6    0.42    0.15
   0   6  -6    0.24    0.12
   0   6  -6    0.18    0.14
   0  -6   6    0.22    0.12
  -1   6  -6    2.53    0.30
  -1   6  -6    2.75    0.32
  -1   6  -6    3.14    0.24
   1  -6   6    2.93    0.26
  -2   6  -6   30.26    1.11
  -2   6  -6   33.45    1.13
   2  -6   6   30.43    1.04
  -3   6  -6   51.94    1.72
   3  -6   6   56.18    1.67
  -4   6  -6   46.52    1.59
   4  -6   6   48.14    1.60
  -5   6  -6    1.76    0.31
  -6   6  -6    0.13    0.19
   6  -6   6   -0.04    0.16
  -7   6  -6    1.64    0.37
   7  -6   6    0.96    0.29
  -8   6  -6    5.04    0.63
   8  -6   6    5.84    0.64
   7   5  -6    4.28    0.59
   6   5  -6   22.69    1.10
   5   5  -6   28.34    1.20
   4   5  -6   58.96    1.94
   3   5  -6    0.37    0.16
  -3  -5   6    0.36    0.14
   2   5  -6  107.04    3.08
   2   5  -6  110.44    3.10
  -2  -5   6  105.50    2.96
   1   5  -6   14.91    0.65
   1   5  -6   14.47    0.66
   1   5  -6   16.92    0.69
  -1  -5   6   15.67    0.59
   0   5  -6    0.74    0.17
   0   5  -6    0.77    0.15
   0   5  -6    0.82    0.17
   0  -5   6    0.69    0.13
  -1   5  -6    4.96    0.33
  -1   5  -6    4.39    0.32
   1  -5   6    4.50    0.27
  -2   5  -6    0.11    0.10
  -2   5  -6    0.17    0.12
   2  -5   6   -0.05    0.08
  -3   5  -6   52.73    1.75
  -3   5  -6   60.23    1.79
   3  -5   6   57.81    1.69
  -4   5  -6    9.70    0.56
   4  -5   6   10.24    0.50
  -5   5  -6   15.63    0.77
   5  -5   6   14.90    0.77
  -6   5  -6   67.35    2.18
   6  -5   6   61.96    2.10
  -7   5  -6    5.09    0.56
   7  -5   6    5.53    0.59
  -8   5  -6    1.51    0.38
   8  -5   6    1.43    0.37
   8   4  -6    2.62    0.45
   7   4  -6   49.67    1.86
   6   4  -6    8.74    0.61
   5   4  -6   16.71    0.81
   4   4  -6   20.38    0.87
  -4  -4   6   21.78    0.81
   3   4  -6   76.61    2.34
   3   4  -6   85.84    2.39
  -3  -4   6   78.77    2.25
   2   4  -6   39.08    1.31
   2   4  -6   43.58    1.34
  -2  -4   6   42.54    1.23
   1   4  -6    8.80    0.42
   1   4  -6    8.35    0.43
   1   4  -6    8.16    0.41
  -1  -4   6    8.33    0.33
   0   4  -6   17.70    0.62
   0   4  -6   15.80    0.61
  -1   4  -6   32.54    1.02
  -1   4  -6   31.20    1.01
   1  -4   6   32.61    0.94
  -2   4  -6   19.04    0.73
  -2   4  -6   19.86    0.73
   2  -4   6   19.62    0.65
  -3   4  -6   29.35    1.00
  -3   4  -6   26.65    0.98
   3  -4   6   27.07    0.91
  -4   4  -6   35.90    1.27
   4  -4   6   36.60    1.19
   4  -4   6   36.36    1.30
  -5   4  -6   86.24    2.66
   5  -4   6   89.55    2.66
  -6   4  -6    2.93    0.42
   6  -4   6    3.60    0.46
  -7   4  -6   30.04    1.32
   7  -4   6   30.76    1.30
  -8   4  -6   13.00    0.87
   8  -4   6   12.20    0.83
   8   3  -6   15.60    0.92
   7   3  -6    2.03    0.37
   6   3  -6    8.59    0.56
   5   3  -6   15.23    0.72
  -5  -3   6   16.74    0.69
   4   3  -6    0.72    0.17
   4   3  -6    0.58    0.16
  -4  -3   6    0.85    0.16
   3   3  -6   55.73    1.67
   3   3  -6   56.49    1.67
  -3  -3   6   56.16    1.57
   2   3  -6   14.31    0.54
   2   3  -6   14.69    0.63
   2   3  -6   13.56    0.53
   1   3  -6  143.65    3.91
   1   3  -6  153.15    3.92
  -1  -3   6  150.23    4.00
   0   3  -6    3.72    0.21
   0   3  -6    3.27    0.21
   0  -3   6    3.75    0.26
  -1   3  -6    2.84    0.21
  -1   3  -6    3.23    0.22
   1  -3   6    2.60    0.20
  -2   3  -6   40.90    1.22
  -2   3  -6   38.37    1.21
   2  -3   6   37.82    1.12
  -3   3  -6   38.89    1.25
  -3   3  -6   37.85    1.25
   3  -3   6   35.76    1.30
   3  -3   6   38.97    1.16
  -4   3  -6   10.45    0.57
   4  -3   6   10.76    0.64
  -5   3  -6   21.21    0.93
   5  -3   6   20.61    0.96
  -6   3  -6   13.10    0.77
   6  -3   6   12.28    0.77
  -7   3  -6    7.21    0.63
   9   2  -6    3.39    0.52
   8   2  -6    1.12    0.32
   7   2  -6    0.90    0.25
   6   2  -6   25.29    1.01
   5   2  -6    0.03    0.10
   5   2  -6    0.12    0.12
  -5  -2   6    0.06    0.09
   4   2  -6   19.10    0.72
   4   2  -6   19.73    0.72
  -4  -2   6   19.15    0.65
   3   2  -6   12.57    0.49
   3   2  -6   13.69    0.50
  -3  -2   6   13.18    0.62
   2   2  -6  509.82   13.23
   2   2  -6  524.75   13.25
  -2  -2   6  520.27   13.29
  -1  -2   6    1.02    0.17
   0   2  -6    3.71    0.19
   0   2  -6    4.07    0.20
   0  -2   6    3.89    0.27
  -1   2  -6    6.38    0.30
  -1   2  -6    6.27    0.30
   1  -2   6    5.90    0.40
  -2   2  -6    2.75    0.23
  -2   2  -6    2.66    0.24
   2  -2   6    2.71    0.32
  -3   2  -6    6.42    0.39
  -3   2  -6    6.24    0.40
   3  -2   6    5.79    0.45
   3  -2   6    6.17    0.33
  -4   2  -6    6.99    0.47
   4  -2   6    6.57    0.51
  -5   2  -6    2.82    0.38
   5  -2   6    2.43    0.38
  -6   2  -6   54.55    1.93
  -7   2  -6    4.37    0.56
   9   1  -6    1.25    0.32
   8   1  -6    2.76    0.43
   7   1  -6   65.95    2.11
   6   1  -6   -0.11    0.11
  -6  -1   6    0.16    0.12
   5   1  -6    4.77    0.33
   5   1  -6    4.48    0.31
  -5  -1   6    5.08    0.28
  -5  -1   6    3.81    0.41
   4   1  -6    2.40    0.21
   4   1  -6    3.02    0.22
  -4  -1   6    3.07    0.37
   3   1  -6   62.97    1.70
   3   1  -6   61.58    1.69
  -3  -1   6   61.95    1.90
  -2  -1   6  108.99    3.04
  -1  -1   6  127.10    3.38
   0   1  -6    0.57    0.09
   0   1  -6    0.58    0.09
   0  -1   6    0.58    0.17
  -1   1  -6   21.02    0.67
  -1   1  -6   19.84    0.67
   1  -1   6   18.55    0.80
  -2   1  -6   12.18    0.53
  -2   1  -6   13.07    0.54
   2  -1   6   12.27    0.64
  -3   1  -6    4.93    0.35
  -3   1  -6    4.47    0.35
   3  -1   6    3.72    0.41
   3  -1   6    3.80    0.28
  -4   1  -6   27.74    1.09
   4  -1   6   28.59    1.17
  -5   1  -6   46.82    1.67
  -6   1  -6    0.91    0.30
  -7   1  -6   21.10    1.13
  10   0  -6    0.43    0.25
   9   0  -6   52.02    1.90
   8   0  -6   44.09    1.59
   7   0  -6    0.05    0.13
   6   0  -6   30.90    1.10
   6   0  -6   30.72    1.10
  -6   0   6   32.52    1.24
  -6   0   6   31.08    1.02
   5   0  -6    6.64    0.38
   5   0  -6    6.79    0.37
  -5   0   6    7.12    0.49
  -5   0   6    6.66    0.32
   4   0  -6   18.03    0.62
   4   0  -6   17.80    0.62
  -4   0   6   17.46    0.78
   3   0  -6   47.02    1.27
   3   0  -6   45.60    1.26
  -3   0   6   45.29    1.32
  -3   0   6   44.24    1.47
  -2   0   6    6.88    0.37
  -1   0   6  142.44    3.78
   0   0  -6   40.91    1.18
   0   0  -6   42.05    1.18
   0   0   6   40.01    1.33
  -1   0  -6   17.06    0.64
  -1   0  -6   17.85    0.64
   1   0   6   17.50    0.76
  -2   0  -6   32.78    1.11
  -2   0  -6   32.82    1.12
   2   0   6   33.85    1.23
   2   0   6   33.31    1.03
  -3   0  -6   67.66    2.08
  -4   0  -6    4.97    0.51
  -5   0  -6    0.42    0.22
  -6   0  -6    9.96    0.74
  10  -1  -6   20.82    1.08
   9  -1  -6   22.57    1.07
   8  -1  -6    5.05    0.45
   7  -1  -6   20.89    0.88
  -7   1   6   19.45    0.94
   6  -1  -6    0.33    0.14
   6  -1  -6    0.61    0.17
  -6   1   6    0.75    0.23
  -6   1   6    0.54    0.13
   5  -1  -6    7.15    0.39
   5  -1  -6    7.36    0.38
  -5   1   6    6.55    0.48
  -5   1   6    7.60    0.30
   4  -1  -6    0.14    0.09
   4  -1  -6    0.14    0.10
  -4   1   6    0.09    0.13
  -4   1   6    0.17    0.09
   3  -1  -6   28.69    0.87
   3  -1  -6   29.83    0.88
  -3   1   6   29.16    0.93
   2  -1  -6  162.80    4.24
   2  -1  -6  163.09    4.24
  -2   1   6  163.74    4.26
   1  -1  -6   16.38    0.57
   1  -1  -6   16.55    0.57
  -1   1   6   16.92    0.69
   0  -1  -6   29.23    0.96
   0  -1  -6   30.43    0.96
   0   1   6   30.02    1.08
  -1  -1  -6   47.16    1.47
  -1  -1  -6   48.63    1.49
  -2  -1  -6   14.70    0.67
  -3  -1  -6    1.89    0.30
  -4  -1  -6    1.97    0.33
  -5  -1  -6    0.35    0.24
  -6  -1  -6   26.40    1.29
  10  -2  -6    0.68    0.26
   9  -2  -6    0.44    0.22
   8  -2  -6   21.46    0.96
  -8   2   6   22.22    1.05
   7  -2  -6   73.44    2.30
  -7   2   6   78.54    2.44
   6  -2  -6    7.28    0.43
   6  -2  -6    6.08    0.42
  -6   2   6    7.74    0.54
   5  -2  -6    6.55    0.37
   5  -2  -6    6.10    0.37
  -5   2   6    6.21    0.47
   4  -2  -6    5.36    0.31
   4  -2  -6    4.95    0.30
   3  -2  -6   94.36    2.52
   3  -2  -6   89.86    2.51
   2  -2  -6    3.48    0.25
   2  -2  -6    2.98    0.24
   1  -2  -6   12.91    0.54
   1  -2  -6   12.96    0.54
   0  -2  -6   30.44    1.01
   0  -2  -6   27.80    1.00
  -1  -2  -6   19.13    0.79
  -2  -2  -6   15.00    0.73
  -3  -2  -6    1.64    0.32
  -4  -2  -6    1.00    0.28
  -5  -2  -6   13.84    0.87
  10  -3  -6    2.41    0.41
   9  -3  -6    8.15    0.61
  -9   3   6    9.33    0.68
   8  -3  -6  118.43    3.50
  -8   3   6  120.90    3.60
   7  -3  -6    8.78    0.54
  -7   3   6    8.79    0.62
   6  -3  -6  100.19    2.87
  -6   3   6   99.89    3.02
   5  -3  -6    0.27    0.14
   5  -3  -6    0.35    0.14
   4  -3  -6    2.79    0.28
   4  -3  -6    2.63    0.28
   3  -3  -6    1.19    0.20
   3  -3  -6    1.37    0.20
   3  -3  -6    1.13    0.19
   2  -3  -6   14.57    0.61
   2  -3  -6   13.13    0.59
   1  -3  -6   19.81    0.78
   1  -3  -6   19.19    0.78
   0  -3  -6   87.70    2.58
  -1  -3  -6   38.50    1.37
  -2  -3  -6   16.09    0.82
  -3  -3  -6   14.24    0.81
  -4  -3  -6    0.08    0.21
  10  -4  -6    0.03    0.20
 -10   4   6    0.47    0.27
   9  -4  -6    2.25    0.38
  -9   4   6    2.23    0.39
   8  -4  -6    0.07    0.17
  -8   4   6   -0.01    0.15
   7  -4  -6  114.86    3.47
  -7   4   6  126.40    3.62
   6  -4  -6   12.82    0.65
   5  -4  -6    7.81    0.47
   4  -4  -6    0.26    0.12
   4  -4  -6    0.44    0.16
   3  -4  -6    0.90    0.21
   2  -4  -6    9.45    0.53
   1  -4  -6    0.35    0.17
   0  -4  -6    6.78    0.50
  -1  -4  -6   67.88    2.22
  -2  -4  -6   16.61    0.88
  -3  -4  -6    0.95    0.31
  10  -5  -6    2.79    0.47
 -10   5   6    3.42    0.52
   9  -5  -6    0.13    0.20
  -9   5   6   -0.07    0.20
   8  -5  -6    2.78    0.41
  -8   5   6    2.71    0.42
   7  -5  -6   43.20    1.54
   6  -5  -6   27.34    1.09
   5  -5  -6   24.19    0.99
   4  -5  -6   10.05    0.58
   3  -5  -6   28.01    1.09
   2  -5  -6    9.64    0.59
   1  -5  -6   16.85    0.83
   0  -5  -6    5.94    0.51
  -1  -5  -6    2.43    0.39
  -2  -5  -6    9.10    0.70
  10  -6  -6    0.11    0.23
 -10   6   6    0.23    0.22
   9  -6  -6    7.51    0.62
  -9   6   6    7.69    0.66
   8  -6  -6   44.78    1.70
  -8   6   6   47.80    1.81
   7  -6  -6    5.48    0.50
   6  -6  -6  108.24    3.25
   5  -6  -6    0.21    0.19
   4  -6  -6    8.46    0.58
   3  -6  -6    1.85    0.33
   2  -6  -6   13.15    0.76
   1  -6  -6    1.08    0.29
   0  -6  -6   15.79    0.89
  -1  -6  -6    2.14    0.42
   9  -7  -6   -0.03    0.20
  -9   7   6    0.12    0.23
   8  -7  -6    0.75    0.29
   7  -7  -6   31.68    1.34
   6  -7  -6    1.16    0.30
   5  -7  -6    0.15    0.19
   4  -7  -6   26.84    1.19
   3  -7  -6    2.37    0.40
   2  -7  -6    4.27    0.51
   1  -7  -6    0.00    0.19
   7  -8  -6    1.66    0.39
   6  -8  -6    0.37    0.24
   5  -8  -6   26.04    1.23
   4  -8  -6   15.43    0.91
  -2  11  -7    7.87    0.70
  -3  11  -7   11.27    0.83
  -4  11  -7    1.77    0.41
   1  10  -7   34.46    1.51
   0  10  -7    2.81    0.45
  -1  10  -7   43.98    1.73
  -2  10  -7   -0.11    0.19
  -3  10  -7   -0.12    0.18
  -4  10  -7    7.21    0.63
  -5  10  -7    2.38    0.45
  -6  10  -7    0.33    0.26
   3   9  -7    0.82    0.33
   2   9  -7    0.22    0.24
   1   9  -7    1.23    0.33
   0   9  -7   42.16    1.63
  -1   9  -7    0.90    0.28
  -2   9  -7    0.08    0.19
  -3   9  -7    7.31    0.59
  -4   9  -7   13.21    0.79
  -5   9  -7    0.55    0.26
  -6   9  -7    2.17    0.43
  -7   9  -7    1.18    0.36
   4   8  -7    2.00    0.43
   3   8  -7    0.11    0.21
   2   8  -7    6.63    0.58
   1   8  -7    0.15    0.19
   0   8  -7   20.03    0.95
  -1   8  -7   13.59    0.74
  -2   8  -7   36.08    1.36
  -3   8  -7   17.40    0.85
  -4   8  -7   15.81    0.83
  -5   8  -7    1.67    0.33
  -6   8  -7    0.35    0.24
  -7   8  -7    1.81    0.41
   7  -8   7    1.30    0.35
   5   7  -7    5.16    0.60
   4   7  -7    5.73    0.61
   3   7  -7   30.67    1.29
   2   7  -7   36.87    1.41
   1   7  -7   32.12    1.24
   0   7  -7   -0.03    0.14
  -1   7  -7   64.32    2.07
  -1   7  -7   67.68    1.92
  -2   7  -7   16.16    0.76
  -3   7  -7   40.89    1.44
  -4   7  -7    6.99    0.52
  -5   7  -7    3.45    0.46
  -6   7  -7    7.77    0.60
  -7   7  -7    6.99    0.64
   7  -7   7    7.61    0.66
   6   6  -7    6.91    0.71
   5   6  -7    9.39    0.69
   4   6  -7    9.76    0.65
   3   6  -7    1.53    0.30
   2   6  -7   22.90    0.96
   1   6  -7    4.42    0.38
   0   6  -7    5.33    0.39
   0   6  -7    5.55    0.35
  -1   6  -7    0.23    0.14
  -2   6  -7    1.34    0.24
  -3   6  -7   98.72    2.88
  -4   6  -7    0.08    0.15
  -5   6  -7    0.50    0.21
  -6   6  -7    4.39    0.52
  -6   6  -7    4.32    0.51
   6  -6   7    4.86    0.57
  -7   6  -7    6.47    0.69
   7  -6   7    6.26    0.65
   7   5  -7   23.85    1.19
   6   5  -7   24.46    1.14
   5   5  -7   21.71    1.00
   4   5  -7   39.23    1.42
   3   5  -7    6.54    0.46
   2   5  -7    2.79    0.33
   2   5  -7    2.40    0.30
   1   5  -7    0.44    0.14
   1   5  -7    0.18    0.13
   0   5  -7    0.30    0.13
   0   5  -7    0.01    0.10
  -1   5  -7    6.79    0.40
  -1   5  -7    8.09    0.42
  -2   5  -7  110.47    3.14
  -2   5  -7  115.44    3.15
  -3   5  -7   79.71    2.36
  -4   5  -7   70.26    2.17
  -5   5  -7    0.21    0.18
   5  -5   7   -0.03    0.18
  -6   5  -7   -0.06    0.17
   6  -5   7   -0.02    0.19
  -7   5  -7    5.52    0.60
   7  -5   7    6.62    0.69
   8   4  -7    3.86    0.58
   7   4  -7    0.15    0.20
   6   4  -7   48.58    1.73
   5   4  -7    6.73    0.49
   4   4  -7   37.02    1.29
   3   4  -7   15.48    0.67
   3   4  -7   16.73    0.69
   2   4  -7    1.54    0.21
   2   4  -7    1.33    0.21
   1   4  -7   35.12    1.08
   1   4  -7   32.33    1.05
   0   4  -7   -0.01    0.08
   0   4  -7    0.02    0.08
  -1   4  -7    1.87    0.21
  -1   4  -7    1.79    0.21
  -2   4  -7   60.29    1.72
  -2   4  -7   54.64    1.70
   2  -4   7   56.95    1.59
  -3   4  -7   79.61    2.36
   3  -4   7   82.25    2.14
  -4   4  -7   41.22    1.43
   4  -4   7   41.90    1.51
  -5   4  -7    1.06    0.26
   5  -4   7    0.80    0.28
  -6   4  -7   12.98    0.78
   6  -4   7   13.76    0.83
  -7   4  -7    0.50    0.26
   7  -4   7   -0.04    0.23
   8   3  -7    4.62    0.57
   7   3  -7    0.77    0.26
   6   3  -7   22.42    0.97
   5   3  -7   40.04    1.37
   4   3  -7   46.90    1.44
   4   3  -7   44.03    1.43
   3   3  -7    0.55    0.13
   3   3  -7    0.52    0.13
   2   3  -7   86.31    2.40
   2   3  -7   88.43    2.40
  -2  -3   7   89.44    2.56
   1   3  -7    3.48    0.21
   1   3  -7    3.69    0.22
  -1  -3   7    3.78    0.30
   0   3  -7    2.69    0.19
   0   3  -7    2.90    0.19
   0  -3   7    2.42    0.26
  -1   3  -7   15.60    0.59
  -1   3  -7   17.48    0.60
   1  -3   7   16.64    0.62
  -2   3  -7    5.26    0.32
  -2   3  -7    4.91    0.33
   2  -3   7    5.56    0.43
   2  -3   7    4.88    0.29
  -3   3  -7   88.54    2.52
   3  -3   7   85.41    2.61
  -4   3  -7    0.03    0.14
   4  -3   7    0.21    0.20
  -5   3  -7    3.79    0.44
   5  -3   7    4.02    0.51
  -6   3  -7   24.44    1.11
   6  -3   7   22.04    1.11
  -7   3  -7    5.90    0.63
   9   2  -7    2.35    0.44
   8   2  -7    3.33    0.46
   7   2  -7   52.41    1.79
   6   2  -7    0.62    0.20
   5   2  -7   84.67    2.48
   5   2  -7   85.01    2.45
   4   2  -7   19.04    0.71
   4   2  -7   20.86    0.72
  -4  -2   7   19.58    0.87
   3   2  -7   99.10    2.63
   3   2  -7   96.14    2.63
  -3  -2   7   98.62    2.85
  -2  -2   7    7.85    0.46
  -1  -2   7   13.66    0.60
   0   2  -7    3.79    0.20
   0   2  -7    4.29    0.21
   0  -2   7    3.88    0.30
  -1   2  -7   11.77    0.47
  -1   2  -7   12.95    0.48
   1  -2   7   12.43    0.63
  -2   2  -7   10.73    0.49
  -2   2  -7   11.31    0.50
   2  -2   7   10.55    0.62
  -3   2  -7   24.57    0.92
   3  -2   7   23.90    1.04
  -4   2  -7   75.22    2.34
   4  -2   7   77.51    2.43
  -5   2  -7   75.72    2.39
   5  -2   7   73.37    2.44
  -6   2  -7    0.06    0.20
   9   1  -7   13.36    0.82
   8   1  -7   17.48    0.88
   7   1  -7    3.13    0.40
   6   1  -7   11.98    0.60
   5   1  -7   10.89    0.51
   5   1  -7   11.37    0.51
  -5  -1   7   10.87    0.64
   4   1  -7   31.80    1.00
   4   1  -7   33.11    1.00
  -4  -1   7   32.01    1.20
   3   1  -7   35.62    1.02
  -3  -1   7   37.19    1.29
  -2  -1   7    0.52    0.14
  -2  -1   7    0.63    0.18
  -1  -1   7   45.19    1.43
   0   1  -7    0.91    0.12
   0   1  -7    1.31    0.13
   0  -1   7    1.04    0.22
  -1   1  -7    1.06    0.16
  -1   1  -7    0.97    0.15
   1  -1   7    0.73    0.21
  -2   1  -7    8.74    0.45
  -2   1  -7    7.95    0.43
   2  -1   7    8.89    0.58
  -3   1  -7   34.14    1.21
   3  -1   7   34.78    1.34
  -4   1  -7   12.52    0.68
   4  -1   7   11.73    0.76
  -5   1  -7    3.99    0.47
  -6   1  -7    7.55    0.65
  10   0  -7   43.76    1.75
   9   0  -7    0.52    0.24
   8   0  -7    0.85    0.25
   7   0  -7    0.30    0.16
  -7   0   7    0.32    0.08
  -7   0   7    0.24    0.19
   6   0  -7    0.93    0.20
  -6   0   7    0.52    0.11
  -6   0   7    0.62    0.23
   5   0  -7    0.51    0.14
   5   0  -7    0.54    0.13
  -5   0   7    0.55    0.12
  -5   0   7    0.23    0.17
   4   0  -7   28.43    0.86
   4   0  -7   26.66    0.84
  -4   0   7   26.28    1.06
  -4   0   7   26.21    0.87
  -3   0   7    9.50    0.46
  -3   0   7    8.86    0.53
  -2   0   7  319.86    8.12
  -1   0   7    3.95    0.38
   0   0  -7   10.58    0.43
   0   0  -7   10.68    0.42
   0   0   7   11.25    0.59
  -1   0  -7    6.65    0.38
  -1   0  -7    6.94    0.37
   1   0   7    6.54    0.48
  -2   0  -7    7.15    0.44
   2   0   7    7.71    0.55
  -3   0  -7    0.63    0.21
  -4   0  -7    0.20    0.19
  -5   0  -7    1.66    0.37
  10  -1  -7    9.53    0.71
   9  -1  -7    2.98    0.41
   8  -1  -7    7.73    0.55
  -8   1   7    8.35    0.64
   7  -1  -7   63.22    1.95
  -7   1   7   59.36    2.08
   6  -1  -7    0.10    0.12
  -6   1   7   -0.05    0.14
   5  -1  -7    1.40    0.20
   5  -1  -7    1.29    0.19
  -5   1   7    1.71    0.19
  -5   1   7    1.16    0.27
   4  -1  -7    0.21    0.10
   4  -1  -7    0.17    0.09
  -4   1   7    0.27    0.11
  -4   1   7    0.20    0.16
   3  -1  -7  160.54    4.20
   3  -1  -7  163.47    4.20
  -3   1   7  159.69    4.22
   2  -1  -7   48.33    1.36
   2  -1  -7   47.70    1.35
  -2   1   7   47.01    1.49
   1  -1  -7   84.02    2.29
   1  -1  -7   81.76    2.29
  -1   1   7   85.75    2.44
   0  -1  -7    3.10    0.24
   0  -1  -7    2.82    0.25
  -1  -1  -7    9.80    0.50
  -2  -1  -7    1.19    0.25
  -3  -1  -7    1.83    0.32
  -4  -1  -7    3.91    0.48
  -5  -1  -7   24.20    1.17
  10  -2  -7    0.28    0.24
   9  -2  -7   15.86    0.85
  -9   2   7   16.14    0.93
   8  -2  -7   53.12    1.79
  -8   2   7   52.71    1.93
   7  -2  -7    3.79    0.39
  -7   2   7    3.56    0.47
   6  -2  -7   16.85    0.72
  -6   2   7   17.67    0.88
   5  -2  -7    0.32    0.12
   5  -2  -7    0.28    0.13
  -5   2   7    0.18    0.16
   4  -2  -7   19.78    0.72
   4  -2  -7   21.26    0.73
   3  -2  -7    9.63    0.42
   3  -2  -7    9.22    0.42
   2  -2  -7   25.96    0.88
   2  -2  -7   26.37    0.88
   1  -2  -7   55.39    1.60
   1  -2  -7   49.66    1.57
   0  -2  -7    9.58    0.50
  -1  -2  -7    2.35    0.32
  -2  -2  -7   12.54    0.69
  -3  -2  -7   35.50    1.39
  -4  -2  -7   -0.10    0.18
  10  -3  -7   50.96    1.91
 -10   3   7   52.01    1.99
   9  -3  -7   14.21    0.80
  -9   3   7   14.48    0.89
   8  -3  -7    9.92    0.63
  -8   3   7   11.28    0.75
   7  -3  -7   38.07    1.34
  -7   3   7   37.22    1.48
   6  -3  -7    6.60    0.43
  -6   3   7    6.01    0.53
   5  -3  -7   10.41    0.52
   4  -3  -7    0.94    0.18
   4  -3  -7    0.72    0.17
   3  -3  -7    5.34    0.35
   3  -3  -7    5.30    0.36
   2  -3  -7  107.59    3.03
   1  -3  -7    0.54    0.17
   0  -3  -7   30.79    1.15
  -1  -3  -7   13.32    0.70
  -2  -3  -7   15.68    0.83
  -3  -3  -7    0.85    0.29
  10  -4  -7    5.30    0.62
 -10   4   7    5.66    0.68
   9  -4  -7    1.26    0.31
  -9   4   7    0.70    0.31
   8  -4  -7   24.75    1.06
  -8   4   7   25.07    1.19
   7  -4  -7   32.26    1.25
  -7   4   7   35.90    1.44
   6  -4  -7    8.10    0.51
   5  -4  -7    8.92    0.51
   4  -4  -7    0.19    0.14
   3  -4  -7   27.93    1.04
   2  -4  -7    1.38    0.26
   1  -4  -7   33.80    1.25
   0  -4  -7    8.92    0.59
  -1  -4  -7   10.14    0.67
  -2  -4  -7    2.02    0.38
   9  -5  -7    7.88    0.62
  -9   5   7    6.11    0.69
   8  -5  -7   50.97    1.81
  -8   5   7   51.79    1.93
   7  -5  -7   14.66    0.77
   6  -5  -7   40.34    1.44
   5  -5  -7    0.38    0.18
   4  -5  -7    0.04    0.15
   3  -5  -7    0.08    0.16
   2  -5  -7    2.01    0.34
   1  -5  -7    6.66    0.52
   0  -5  -7   11.25    0.71
  -1  -5  -7    9.22    0.69
   9  -6  -7    6.00    0.63
  -9   6   7    5.10    0.62
   8  -6  -7    7.36    0.59
  -8   6   7    7.47    0.79
   7  -6  -7   63.81    2.15
   6  -6  -7    0.19    0.19
   5  -6  -7    0.63    0.24
   4  -6  -7    0.16    0.18
   3  -6  -7    0.15    0.18
   2  -6  -7    2.63    0.41
   1  -6  -7    3.61    0.49
   8  -7  -7   10.03    0.74
   7  -7  -7   11.01    0.73
   6  -7  -7    1.42    0.35
   5  -7  -7    7.12    0.59
   4  -7  -7    0.07    0.18
   3  -7  -7   11.30    0.76
   1  10  -8    8.10    0.81
   0  10  -8   18.90    1.03
  -1  10  -8    0.23    0.22
  -2  10  -8    5.20    0.59
  -3  10  -8    0.45    0.25
  -4  10  -8    3.16    0.50
   2   9  -8    6.60    0.71
   1   9  -8   10.26    0.71
   0   9  -8    9.86    0.67
  -1   9  -8    0.13    0.19
  -2   9  -8    8.35    0.61
  -3   9  -8    5.12    0.54
  -4   9  -8    9.11    0.67
  -5   9  -8    0.52    0.25
  -6   9  -8    6.12    0.67
   4   8  -8    0.49    0.29
   3   8  -8    4.95    0.57
   2   8  -8    0.09    0.20
   1   8  -8   64.19    2.13
   0   8  -8    6.40    0.51
  -1   8  -8   21.68    0.96
  -2   8  -8    0.27    0.18
  -3   8  -8    0.78    0.24
  -4   8  -8    0.32    0.22
  -5   8  -8    1.48    0.33
  -6   8  -8    3.65    0.51
   5   7  -8    3.64    0.52
   4   7  -8   -0.06    0.18
   3   7  -8    0.09    0.18
   2   7  -8   18.80    0.89
   1   7  -8    0.39    0.19
   0   7  -8   84.81    2.55
  -1   7  -8    0.24    0.16
  -2   7  -8    0.65    0.21
  -3   7  -8    7.19    0.51
  -4   7  -8    2.84    0.39
  -5   7  -8    0.10    0.20
  -6   7  -8    2.60    0.43
   6  -7   8    3.06    0.49
   6   6  -8   13.90    0.88
   5   6  -8   40.89    1.58
   4   6  -8    6.77    0.55
   3   6  -8    3.04    0.40
   2   6  -8    8.35    0.53
   1   6  -8   27.70    1.03
   0   6  -8   31.98    1.12
  -1   6  -8    8.01    0.47
  -2   6  -8   35.49    1.23
  -3   6  -8   21.72    0.90
  -4   6  -8    6.92    0.51
  -5   6  -8    1.80    0.33
   5  -6   8    1.47    0.34
  -6   6  -8    0.32    0.24
   6  -6   8    0.21    0.25
   7   5  -8   10.50    0.76
   6   5  -8   30.71    1.30
   5   5  -8    3.55    0.44
   4   5  -8    0.17    0.16
   3   5  -8    3.22    0.37
   2   5  -8   27.76    1.01
   1   5  -8   61.69    1.86
   1   5  -8   65.37    1.91
   0   5  -8    1.91    0.25
   0   5  -8    1.99    0.24
  -1   5  -8   81.12    2.31
  -1   5  -8   81.29    2.32
  -2   5  -8    3.28    0.33
  -3   5  -8   45.76    1.51
  -4   5  -8    2.27    0.32
   4  -5   8    2.43    0.40
  -5   5  -8    7.03    0.54
   5  -5   8    6.58    0.66
  -6   5  -8   10.41    0.70
   6  -5   8    9.64    0.73
   7   4  -8    3.94    0.51
   6   4  -8    5.90    0.59
   5   4  -8   36.70    1.32
   4   4  -8   10.35    0.55
   3   4  -8   12.89    0.59
   3   4  -8   13.94    0.60
   2   4  -8   15.73    0.63
   2   4  -8   18.08    0.66
   1   4  -8    0.28    0.11
   1   4  -8    0.18    0.10
   0   4  -8   57.58    1.61
   0   4  -8   53.30    1.59
   0  -4   8   55.66    1.67
  -1   4  -8    4.80    0.30
  -1   4  -8    4.27    0.28
   1  -4   8    4.34    0.30
  -2   4  -8   10.03    0.50
   2  -4   8   10.53    0.44
  -3   4  -8   42.66    1.43
   3  -4   8   44.35    1.25
   3  -4   8   42.88    1.56
  -4   4  -8    0.01    0.15
   4  -4   8    0.28    0.23
  -5   4  -8    8.22    0.58
   5  -4   8    7.97    0.66
  -6   4  -8    6.12    0.62
   6  -4   8    6.46    0.68
   8   3  -8    2.40    0.42
   7   3  -8   22.37    1.02
   6   3  -8   56.03    1.84
   5   3  -8   45.12    1.48
   4   3  -8   20.08    0.74
   4   3  -8   18.52    0.73
   3   3  -8    3.00    0.22
   3   3  -8    2.86    0.24
   2   3  -8    2.40    0.18
   2   3  -8    2.52    0.19
  -2  -3   8    2.59    0.32
  -1  -3   8    0.07    0.12
   0   3  -8    0.71    0.12
   0   3  -8    0.64    0.11
   0  -3   8    0.52    0.15
  -1   3  -8    2.06    0.21
  -1   3  -8    2.10    0.22
   1  -3   8    2.14    0.25
   1  -3   8    1.66    0.29
  -2   3  -8   83.45    2.42
  -2   3  -8   88.68    2.44
   2  -3   8   86.25    2.59
   2  -3   8   83.29    2.38
  -3   3  -8   26.50    1.00
   3  -3   8   27.58    1.17
  -4   3  -8   39.04    1.39
   4  -3   8   38.49    1.51
  -5   3  -8    1.23    0.29
   5  -3   8    1.03    0.33
  -6   3  -8    0.53    0.25
   6  -3   8   -0.05    0.25
   9   2  -8    1.22    0.34
   8   2  -8    2.37    0.40
   7   2  -8    1.58    0.29
   6   2  -8   52.52    1.69
   5   2  -8   51.39    1.58
   4   2  -8   26.67    0.90
   4   2  -8   28.55    0.91
  -4  -2   8   29.37    1.14
   3   2  -8   15.93    0.54
   3   2  -8   16.72    0.55
  -3  -2   8   16.75    0.77
  -2  -2   8    1.52    0.26
  -1  -2   8    2.96    0.33
   0  -2   8    0.11    0.14
   0  -2   8    0.04    0.11
  -1   2  -8   11.64    0.48
  -1   2  -8   12.86    0.50
   1  -2   8   12.06    0.67
  -2   2  -8   29.35    1.01
   2  -2   8   30.60    1.20
  -3   2  -8   70.73    2.21
   3  -2   8   77.94    2.41
  -4   2  -8    7.26    0.52
   4  -2   8    7.39    0.64
  -5   2  -8    5.84    0.53
   5  -2   8    6.84    0.71
   9   1  -8    0.22    0.23
   8   1  -8    0.55    0.23
   7   1  -8    5.23    0.43
   6   1  -8    7.28    0.45
  -6  -1   8    7.87    0.60
   5   1  -8   60.36    1.77
   5   1  -8   61.63    1.77
  -5  -1   8   58.31    2.01
   4   1  -8   18.17    0.62
   4   1  -8   17.64    0.62
  -4  -1   8   18.39    0.85
  -3  -1   8    2.08    0.26
  -3  -1   8    1.47    0.26
  -2  -1   8  152.58    4.28
  -2  -1   8  156.40    4.14
  -1  -1   8   -0.06    0.12
   0   1  -8    1.08    0.14
   0   1  -8    0.98    0.13
   0  -1   8    1.26    0.26
  -1   1  -8    1.79    0.21
  -1   1  -8    1.76    0.21
   1  -1   8    1.92    0.33
  -2   1  -8    8.26    0.46
   2  -1   8    8.00    0.59
  -3   1  -8   37.83    1.33
   3  -1   8   38.27    1.49
  -4   1  -8    3.30    0.42
  -5   1  -8    0.85    0.29
   9   0  -8    2.00    0.37
   8   0  -8   15.64    0.79
   7   0  -8   61.73    1.95
  -7   0   8   61.48    2.15
   6   0  -8   10.76    0.53
  -6   0   8   10.50    0.69
  -6   0   8   10.79    0.45
   5   0  -8   74.19    2.05
   5   0  -8   71.18    2.04
  -5   0   8   70.85    2.32
  -5   0   8   71.52    2.00
   4   0  -8    3.80    0.23
   4   0  -8    4.25    0.24
  -4   0   8    3.58    0.30
  -4   0   8    4.68    0.50
  -3   0   8   54.97    1.65
  -3   0   8   53.42    1.79
  -2   0   8    0.44    0.17
  -1   0   8   19.31    0.83
   0   0  -8   12.85    0.50
   0   0  -8   13.09    0.51
   0   0   8   11.79    0.67
  -1   0  -8   13.44    0.58
   1   0   8   13.15    0.74
  -2   0  -8   11.43    0.59
  -3   0  -8   11.25    0.64
  -4   0  -8   23.08    1.06
   9  -1  -8    9.82    0.66
   8  -1  -8    1.40    0.28
  -8   1   8    1.72    0.39
   7  -1  -8    1.06    0.23
  -7   1   8    1.23    0.33
   6  -1  -8   46.08    1.46
  -6   1   8   45.75    1.70
   5  -1  -8   26.87    0.89
   5  -1  -8   25.22    0.88
  -5   1   8   26.69    1.13
  -5   1   8   25.91    0.87
   4  -1  -8   12.41    0.48
   4  -1  -8   12.94    0.49
  -4   1   8   12.37    0.71
  -4   1   8   12.47    0.56
   3  -1  -8    5.52    0.27
   3  -1  -8    5.82    0.28
  -3   1   8    6.11    0.40
   2  -1  -8   14.66    0.51
   2  -1  -8   13.00    0.49
  -2   1   8   13.69    0.67
   1  -1  -8    5.40    0.31
   1  -1  -8    5.67    0.30
   0  -1  -8    0.65    0.17
  -1  -1  -8    4.83    0.38
  -2  -1  -8    7.25    0.50
  -3  -1  -8   35.06    1.35
  -4  -1  -8   12.74    0.79
   9  -2  -8    0.83    0.27
  -9   2   8    1.20    0.34
   8  -2  -8    0.19    0.18
  -8   2   8    0.43    0.26
   7  -2  -8    0.24    0.16
  -7   2   8    0.59    0.26
   6  -2  -8    0.41    0.16
  -6   2   8    0.49    0.25
   5  -2  -8   20.31    0.76
  -5   2   8   20.46    0.98
   4  -2  -8   29.44    0.96
   4  -2  -8   29.26    0.96
   3  -2  -8    1.35    0.19
   3  -2  -8    1.30    0.19
   2  -2  -8  110.11    3.06
   2  -2  -8  113.29    3.07
   1  -2  -8    0.70    0.17
   0  -2  -8   15.98    0.71
  -1  -2  -8    0.48    0.19
  -2  -2  -8    4.15    0.47
  -3  -2  -8    1.28    0.31
   9  -3  -8    9.29    0.64
  -9   3   8    9.87    0.77
   8  -3  -8    0.10    0.17
  -8   3   8    0.29    0.24
   7  -3  -8   21.52    0.90
  -7   3   8   21.43    1.08
   6  -3  -8    1.42    0.25
  -6   3   8    1.23    0.33
   5  -3  -8    6.32    0.40
   4  -3  -8    1.59    0.23
   3  -3  -8   82.97    2.40
   2  -3  -8    5.73    0.40
   1  -3  -8   26.95    1.02
   0  -3  -8    0.01    0.15
  -1  -3  -8    0.65    0.24
  -2  -3  -8    0.17    0.20
   9  -4  -8    9.44    0.66
  -9   4   8   10.13    0.79
   8  -4  -8   13.07    0.74
  -8   4   8   15.85    0.94
   7  -4  -8    8.18    0.54
  -7   4   8    8.44    0.68
   6  -4  -8    8.35    0.52
   5  -4  -8    7.26    0.47
   4  -4  -8    2.14    0.30
   3  -4  -8   15.02    0.71
   2  -4  -8   11.41    0.63
   1  -4  -8    4.88    0.48
   0  -4  -8    1.74    0.33
  -1  -4  -8    6.55    0.57
   9  -5  -8   16.41    0.91
  -9   5   8   17.36    1.05
   8  -5  -8    2.58    0.39
  -8   5   8    2.69    0.47
   7  -5  -8   22.42    0.99
   6  -5  -8   16.36    0.80
   5  -5  -8    7.80    0.53
   4  -5  -8    0.74    0.23
   3  -5  -8    0.01    0.16
   2  -5  -8   48.52    1.71
   1  -5  -8    2.04    0.37
   7  -6  -8    7.40    0.58
   6  -6  -8    4.37    0.51
   5  -6  -8    2.13    0.37
   4  -6  -8    0.38    0.21
   3  -6  -8   32.06    1.32
  -1  10  -9    1.63    0.36
  -2  10  -9    0.96    0.31
   2   9  -9   12.36    0.80
   1   9  -9   34.34    1.42
   0   9  -9    1.66    0.33
  -1   9  -9    0.71    0.26
  -2   9  -9    0.31    0.21
  -3   9  -9    0.18    0.21
  -4   9  -9   13.00    0.81
   3   8  -9   28.95    1.28
   2   8  -9   20.47    0.99
   1   8  -9    4.82    0.51
   0   8  -9   56.39    1.89
  -1   8  -9    1.67    0.31
  -2   8  -9   14.62    0.76
  -3   8  -9    2.10    0.36
  -4   8  -9    3.64    0.45
  -5   8  -9   21.44    1.05
   5   7  -9   27.29    1.28
   4   7  -9    1.12    0.31
   3   7  -9    4.53    0.51
   2   7  -9    1.57    0.31
   1   7  -9   29.88    1.15
   0   7  -9   18.38    0.81
  -1   7  -9    0.06    0.14
  -2   7  -9    0.17    0.17
  -3   7  -9    4.44    0.46
  -4   7  -9   26.05    1.11
  -5   7  -9    0.40    0.23
   5  -7   9    0.49    0.29
   6   6  -9    1.17    0.34
   5   6  -9   10.41    0.70
   4   6  -9    0.08    0.18
   3   6  -9    0.95    0.24
   2   6  -9    2.29    0.31
   1   6  -9   64.39    1.96
   0   6  -9   22.63    0.86
  -1   6  -9   30.47    1.07
  -2   6  -9    0.50    0.19
  -3   6  -9    3.95    0.42
  -4   6  -9    0.86    0.25
   4  -6   9    0.56    0.28
  -5   6  -9    7.54    0.58
   5  -6   9    7.40    0.65
   6   5  -9   10.60    0.70
   5   5  -9    2.76    0.39
   4   5  -9    9.88    0.58
   3   5  -9    0.54    0.18
   2   5  -9   19.94    0.78
   1   5  -9    5.30    0.34
   0   5  -9  109.89    3.02
  -1   5  -9    0.01    0.12
  -2   5  -9    0.27    0.15
  -3   5  -9    1.47    0.26
   3  -5   9    2.10    0.38
  -4   5  -9    0.97    0.25
   4  -5   9    0.90    0.31
  -5   5  -9    0.01    0.18
   5  -5   9    0.02    0.24
   7   4  -9    0.78    0.27
   6   4  -9   12.65    0.71
   5   4  -9   29.29    1.12
   4   4  -9   10.50    0.55
   3   4  -9    0.41    0.14
   2   4  -9    4.25    0.28
   2   4  -9    4.20    0.28
   1   4  -9   49.64    1.46
   1   4  -9   52.25    1.49
   0   4  -9    4.19    0.27
   0   4  -9    4.13    0.27
   0  -4   9    4.36    0.34
  -1   4  -9    8.72    0.43
   1  -4   9    7.96    0.44
  -2   4  -9   20.29    0.78
   2  -4   9   19.89    0.72
   2  -4   9   19.26    0.94
  -3   4  -9    2.76    0.34
   3  -4   9    2.83    0.43
  -4   4  -9    6.82    0.50
   4  -4   9    7.38    0.74
  -5   4  -9    4.33    0.50
   5  -4   9    4.96    0.61
   8   3  -9    0.42    0.25
   7   3  -9   30.03    1.21
   6   3  -9   41.69    1.45
   5   3  -9   13.08    0.62
   4   3  -9    0.11    0.11
   3   3  -9    0.42    0.12
   3   3  -9    0.49    0.11
  -3  -3   9    0.71    0.23
  -2  -3   9    5.55    0.43
  -1  -3   9  123.40    3.48
   0   3  -9    7.31    0.33
   0  -3   9    7.89    0.47
   0  -3   9    7.99    0.55
  -1   3  -9   56.15    1.59
  -1   3  -9   54.37    1.59
   1  -3   9   55.83    1.69
   1  -3   9   52.17    1.82
  -2   3  -9   12.49    0.56
   2  -3   9   12.19    0.75
   2  -3   9   11.98    0.56
  -3   3  -9   44.24    1.46
   3  -3   9   42.50    1.64
  -4   3  -9    3.04    0.39
   4  -3   9    3.67    0.53
  -5   3  -9   12.55    0.76
   5  -3   9   13.95    0.90
   8   2  -9   16.65    0.86
   7   2  -9    9.19    0.57
   6   2  -9    7.15    0.45
   5   2  -9   32.05    1.09
  -5  -2   9   34.97    1.36
   4   2  -9    0.84    0.14
   4   2  -9    0.83    0.14
  -4  -2   9    0.35    0.20
  -3  -2   9   22.69    0.98
  -2  -2   9   16.42    0.75
  -2  -2   9   17.18    0.79
  -1  -2   9    0.13    0.14
  -1  -2   9    0.34    0.17
   0  -2   9   88.64    2.57
   0  -2   9   85.37    2.61
  -1   2  -9    1.94    0.22
  -1   2  -9    2.29    0.25
   1  -2   9    2.66    0.41
  -2   2  -9    0.83    0.19
   2  -2   9    1.11    0.30
  -3   2  -9   13.74    0.68
   3  -2   9   13.10    0.83
  -4   2  -9    3.32    0.42
   4  -2   9    3.63    0.53
   8   1  -9    1.15    0.28
   7   1  -9    3.79    0.41
   6   1  -9   68.46    2.04
  -6  -1   9   70.03    2.34
  -6  -1   9   68.14    1.94
   5   1  -9   54.65    1.63
  -5  -1   9   55.85    1.66
  -5  -1   9   58.37    1.97
  -4  -1   9   18.23    0.76
  -4  -1   9   20.01    0.93
  -3  -1   9   14.79    0.76
  -3  -1   9   14.75    0.68
  -2  -1   9    0.56    0.20
  -2  -1   9    1.19    0.25
  -1  -1   9   22.25    0.94
   0   1  -9    1.01    0.15
   0  -1   9    0.99    0.27
  -1   1  -9    1.56    0.21
   1  -1   9    1.20    0.32
  -2   1  -9   44.13    1.46
   2  -1   9   46.28    1.70
  -3   1  -9    8.30    0.56
   3  -1   9   10.33    0.75
  -4   1  -9   18.28    0.91
   9   0  -9    4.87    0.56
   8   0  -9    5.64    0.47
   7   0  -9   16.61    0.75
  -7   0   9   16.63    0.94
   6   0  -9   69.48    2.03
  -6   0   9   68.28    2.33
  -6   0   9   69.36    1.94
   5   0  -9   45.71    1.39
   5   0  -9   49.66    1.42
  -5   0   9   45.12    1.71
  -5   0   9   46.46    1.44
  -4   0   9   33.79    1.32
  -4   0   9   33.49    1.15
  -3   0   9    0.93    0.26
  -3   0   9    1.14    0.24
  -2   0   9    0.68    0.22
  -1   0   9    1.17    0.28
   0   0  -9    6.29    0.35
   0   0   9    6.36    0.52
  -1   0  -9   21.72    0.83
   1   0   9   22.16    1.06
  -2   0  -9   28.57    1.08
  -3   0  -9   39.97    1.46
   9  -1  -9    0.35    0.23
   8  -1  -9    0.57    0.22
  -8   1   9    0.28    0.23
   7  -1  -9    5.57    0.42
  -7   1   9    6.12    0.68
   6  -1  -9   -0.06    0.11
  -6   1   9    0.12    0.21
   5  -1  -9   59.30    1.70
  -5   1   9   58.56    2.03
  -5   1   9   57.72    1.73
   4  -1  -9   17.21    0.60
   4  -1  -9   17.68    0.60
  -4   1   9   18.11    0.75
  -4   1   9   17.19    0.90
  -3   1   9    2.81    0.35
   2  -1  -9   29.21    0.89
   2  -1  -9   28.32    0.89
   1  -1  -9    4.78    0.31
   0  -1  -9    5.07    0.36
  -1  -1  -9    3.40    0.38
  -2  -1  -9    8.53    0.56
  -3  -1  -9    5.87    0.53
   9  -2  -9    1.03    0.28
  -9   2   9    0.97    0.34
   8  -2  -9    9.66    0.59
  -8   2   9    9.44    0.74
   7  -2  -9    8.59    0.51
  -7   2   9    7.67    0.67
   6  -2  -9   26.12    0.96
  -6   2   9   27.66    1.24
   5  -2  -9   49.04    1.48
  -5   2   9   47.66    1.79
   4  -2  -9    7.59    0.39
   3  -2  -9   44.50    1.35
   2  -2  -9    0.37    0.14
   1  -2  -9    6.80    0.42
   0  -2  -9   26.74    1.03
  -1  -2  -9    1.53    0.29
  -2  -2  -9   20.35    0.97
   9  -3  -9    0.80    0.26
  -9   3   9    0.79    0.31
   8  -3  -9    2.50    0.36
  -8   3   9    2.64    0.50
   7  -3  -9    0.74    0.22
  -7   3   9    0.77    0.31
   6  -3  -9   35.42    1.23
  -6   3   9   36.00    1.51
   5  -3  -9   28.90    1.02
   4  -3  -9   20.66    0.79
   3  -3  -9    7.85    0.45
   2  -3  -9    7.62    0.47
   1  -3  -9    0.50    0.19
   0  -3  -9    0.27    0.19
   8  -4  -9    3.53    0.43
  -8   4   9    2.97    0.50
   7  -4  -9    0.86    0.24
  -7   4   9    0.78    0.34
   6  -4  -9    0.41    0.20
   5  -4  -9   11.94    0.62
   4  -4  -9    1.43    0.26
   3  -4  -9    1.71    0.29
   2  -4  -9   48.68    1.65
   1  -4  -9    5.86    0.49
   7  -5  -9    3.75    0.44
   6  -5  -9    5.06    0.45
   5  -5  -9    7.96    0.54
   4  -5  -9    0.11    0.17
   3  -5  -9   33.65    1.31
   0   9 -10    1.75    0.35
  -1   9 -10    2.32    0.38
  -2   9 -10    0.32    0.21
   3   8 -10    3.16    0.45
   2   8 -10    3.70    0.46
   1   8 -10    0.31    0.21
   0   8 -10   10.19    0.62
  -1   8 -10    1.03    0.26
  -2   8 -10    0.20    0.19
  -3   8 -10    0.01    0.18
  -4   8 -10   68.04    2.26
   4   7 -10    7.63    0.60
   3   7 -10    2.36    0.38
   2   7 -10    8.33    0.55
   1   7 -10   18.08    0.81
   0   7 -10    1.74    0.29
  -1   7 -10    3.09    0.35
  -2   7 -10   -0.01    0.16
  -3   7 -10    1.38    0.30
  -4   7 -10   10.14    0.66
   5   6 -10    3.36    0.46
   4   6 -10    4.25    0.47
   3   6 -10   31.72    1.18
   2   6 -10   30.48    1.10
   1   6 -10    6.37    0.42
   0   6 -10   31.76    1.10
  -1   6 -10   16.28    0.71
  -2   6 -10   10.40    0.57
  -3   6 -10    0.43    0.19
   3  -6  10    0.54    0.27
  -4   6 -10    0.01    0.18
   4  -6  10    0.37    0.28
   6   5 -10    1.07    0.29
   5   5 -10   22.49    0.98
   4   5 -10   21.77    0.91
   3   5 -10   12.52    0.60
   2   5 -10    4.91    0.34
   1   5 -10   61.02    1.78
   0   5 -10   13.86    0.57
  -1   5 -10    0.08    0.13
  -2   5 -10    4.50    0.37
   2  -5  10    4.70    0.55
  -3   5 -10    7.61    0.50
   3  -5  10    7.73    0.65
  -4   5 -10   43.55    1.54
   4  -5  10   43.95    1.75
   7   4 -10   10.17    0.68
   6   4 -10    7.97    0.55
   5   4 -10    8.43    0.52
   4   4 -10    0.24    0.15
   3   4 -10    0.23    0.12
   2   4 -10   14.98    0.55
   2   4 -10   14.47    0.54
  -1  -4  10   86.53    2.59
   0   4 -10   11.60    0.47
   0  -4  10   11.37    0.59
  -1   4 -10   14.33    0.57
   1  -4  10   13.42    0.62
   1  -4  10   13.56    0.78
  -2   4 -10    1.00    0.21
   2  -4  10    0.84    0.30
  -3   4 -10    0.41    0.18
   3  -4  10    0.40    0.26
  -4   4 -10    0.17    0.18
   4  -4  10   -0.32    0.23
   7   3 -10    0.14    0.19
   6   3 -10    5.53    0.44
   5   3 -10    0.65    0.18
   4   3 -10    8.78    0.42
  -3  -3  10    0.16    0.16
  -2  -3  10    6.61    0.49
  -1  -3  10   22.84    1.00
  -1  -3  10   24.61    0.99
   0  -3  10  124.79    3.48
   0  -3  10  119.61    3.54
  -1   3 -10    1.38    0.19
   1  -3  10    1.21    0.24
   1  -3  10    1.27    0.32
  -2   3 -10    0.42    0.16
   2  -3  10    0.38    0.24
  -3   3 -10    0.15    0.17
   3  -3  10    0.03    0.23
  -4   3 -10    2.42    0.38
   4  -3  10    2.72    0.49
   8   2 -10    7.82    0.57
   7   2 -10   -0.11    0.14
   6   2 -10   16.41    0.71
   5   2 -10   24.70    0.86
  -5  -2  10   25.14    1.16
  -4  -2  10    3.06    0.43
  -3  -2  10    2.42    0.37
  -3  -2  10    1.94    0.30
  -2  -2  10    4.78    0.49
  -2  -2  10    4.53    0.48
  -1  -2  10   63.03    2.04
  -1  -2  10   62.04    2.01
   0  -2  10    3.75    0.42
   0  -2  10    3.07    0.43
  -1   2 -10   16.03    0.62
   1  -2  10   15.27    0.87
  -2   2 -10    8.95    0.50
   2  -2  10   10.32    0.73
  -3   2 -10    4.12    0.42
   3  -2  10    2.50    0.47
   8   1 -10    0.02    0.16
   7   1 -10   35.67    1.26
   6   1 -10   31.66    1.07
  -6  -1  10   31.42    1.38
   5   1 -10   10.35    0.44
  -5  -1  10   11.43    0.74
  -5  -1  10   11.08    0.57
  -4  -1  10    0.23    0.19
  -4  -1  10    0.13    0.15
  -3  -1  10    0.75    0.25
  -3  -1  10    1.12    0.25
  -2  -1  10    3.17    0.40
  -2  -1  10    2.83    0.39
  -1  -1  10   31.27    1.25
   0  -1  10   10.14    0.68
  -1   1 -10   48.83    1.53
   1  -1  10   52.59    1.86
  -2   1 -10    8.34    0.51
   2  -1  10    8.84    0.71
  -3   1 -10   14.68    0.76
   8   0 -10   29.34    1.17
  -8   0  10   30.81    1.43
   7   0 -10   11.23    0.59
  -7   0  10   11.67    0.81
   6   0 -10    2.07    0.24
  -6   0  10    1.52    0.35
  -5   0  10   18.76    0.77
  -5   0  10   17.39    0.95
  -4   0  10    0.22    0.17
  -4   0  10    0.15    0.19
  -3   0  10   14.90    0.74
  -3   0  10   14.12    0.80
  -2   0  10   10.36    0.63
  -1   0  10    2.58    0.40
   0   0 -10   48.25    1.47
   0   0  10   49.93    1.79
  -1   0 -10    0.10    0.14
  -2   0 -10    6.50    0.48
   8  -1 -10    0.16    0.17
  -8   1  10    0.14    0.24
   7  -1 -10    2.26    0.30
  -7   1  10    2.06    0.41
   6  -1 -10   92.76    2.64
  -6   1  10   95.75    3.07
   5  -1 -10   21.75    0.73
  -5   1  10   20.57    1.05
  -4   1  10   12.65    0.79
   1  -1 -10   11.36    0.50
   0  -1 -10    2.38    0.31
  -1  -1 -10    2.28    0.32
   8  -2 -10    6.67    0.48
  -8   2  10    4.26    0.60
   7  -2 -10   10.10    0.55
  -7   2  10   10.42    0.80
   6  -2 -10   45.55    1.43
  -6   2  10   43.63    1.76
   5  -2 -10   44.43    1.34
  -5   2  10   42.01    1.70
   4  -2 -10    4.72    0.31
   3  -2 -10    2.55    0.26
   2  -2 -10    0.15    0.13
   1  -2 -10    2.58    0.30
   0  -2 -10    4.63    0.41
   7  -3 -10    4.49    0.40
  -7   3  10    4.40    0.60
   6  -3 -10    7.29    0.46
  -6   3  10    7.70    0.69
   5  -3 -10   35.78    1.20
   4  -3 -10    0.58    0.18
   3  -3 -10    0.23    0.14
   2  -3 -10    6.19    0.43
   1  -3 -10    5.42    0.44
   6  -4 -10   21.48    0.90
   5  -4 -10   33.65    1.21
   4  -4 -10    2.56    0.34
   1   8 -11   13.33    0.73
   0   8 -11    0.13    0.17
  -1   8 -11   12.03    0.67
   3   7 -11   47.30    1.63
   2   7 -11    4.38    0.44
   1   7 -11    2.74    0.34
   0   7 -11    4.79    0.40
  -1   7 -11    0.88    0.24
  -2   7 -11    5.63    0.47
   4   6 -11   48.91    1.67
   3   6 -11    3.17    0.36
   2   6 -11    5.91    0.41
   1   6 -11    1.38    0.23
   0   6 -11   17.51    0.72
  -1   6 -11    3.31    0.35
  -2   6 -11    0.86    0.23
   2  -6  11    0.53    0.25
  -3   6 -11   -0.02    0.16
   3  -6  11    0.11    0.24
   5   5 -11    2.07    0.33
   4   5 -11   13.64    0.65
   3   5 -11   14.34    0.61
   2   5 -11    2.43    0.25
   1   5 -11    5.28    0.32
   0   5 -11    1.65    0.22
  -1   5 -11    4.60    0.34
   1  -5  11    4.22    0.55
  -2   5 -11    0.05    0.15
   2  -5  11    0.16    0.24
  -3   5 -11    4.78    0.46
   3  -5  11    4.75    0.63
   6   4 -11    8.87    0.57
   5   4 -11   14.73    0.68
   4   4 -11    1.09    0.20
  -1  -4  11   24.90    1.04
   0  -4  11   28.17    1.23
   0  -4  11   29.17    1.10
  -1   4 -11    9.24    0.44
   1  -4  11    9.07    0.68
  -2   4 -11    0.06    0.14
   2  -4  11   -0.03    0.24
   3  -4  11    0.80    0.33
   6   3 -11    0.26    0.17
   5   3 -11   22.56    0.83
  -4  -3  11   37.00    1.48
  -3  -3  11   17.39    0.88
  -3  -3  11   14.70    0.77
  -2  -3  11    0.85    0.25
  -2  -3  11    1.20    0.29
  -1  -3  11   43.89    1.60
  -1  -3  11   42.88    1.53
   0  -3  11    0.45    0.19
   0  -3  11    0.30    0.25
   1  -3  11    0.24    0.23
  -2   3 -11    0.18    0.15
   2  -3  11   -0.04    0.21
   7   2 -11    4.16    0.41
   6   2 -11    8.03    0.45
  -5  -2  11    0.43    0.19
  -5  -2  11    0.67    0.30
  -4  -2  11    0.35    0.19
  -4  -2  11    0.31    0.24
  -3  -2  11   -0.02    0.15
  -3  -2  11    0.22    0.19
  -2  -2  11    9.97    0.64
  -2  -2  11    8.01    0.59
  -1  -2  11   28.90    1.22
  -1  -2  11   28.55    1.17
   0  -2  11   20.74    1.03
   0  -2  11   18.08    0.87
  -1   2 -11    0.70    0.17
   1  -2  11    1.05    0.26
   1  -2  11    0.72    0.30
  -2   2 -11    0.26    0.16
   2  -2  11   -0.15    0.21
   7   1 -11    0.85    0.21
  -7  -1  11    0.68    0.30
   6   1 -11    2.31    0.25
  -6  -1  11    2.81    0.50
  -5  -1  11    8.02    0.66
  -5  -1  11    7.97    0.52
  -4  -1  11    0.18    0.21
  -4  -1  11    0.07    0.16
  -3  -1  11    0.42    0.21
  -3  -1  11    0.48    0.23
  -2  -1  11   34.10    1.33
  -2  -1  11   33.53    1.35
  -1  -1  11   12.98    0.79
  -1  -1  11   13.20    0.76
   0  -1  11   41.12    1.61
  -1   1 -11    9.28    0.49
   1  -1  11   10.57    0.77
   7   0 -11    0.16    0.14
  -7   0  11    0.03    0.22
   6   0 -11    1.84    0.22
  -6   0  11    1.89    0.43
  -5   0  11   13.44    0.71
  -5   0  11   13.09    0.85
  -4   0  11    6.49    0.50
  -4   0  11    5.71    0.62
  -3   0  11    2.58    0.39
  -3   0  11    2.18    0.39
  -2   0  11    2.67    0.41
  -1   0  11   57.64    2.02
   0   0 -11   -0.05    0.12
   7  -1 -11   11.43    0.56
  -7   1  11   11.92    0.86
   6  -1 -11    7.76    0.40
  -6   1  11    7.73    0.69
  -5   1  11   15.63    0.94
  -4   1  11    0.68    0.29
   1  -1 -11   13.47    0.57
   6  -2 -11    3.24    0.32
  -6   2  11    3.47    0.55
  -5   2  11    9.45    0.75
   3  -2 -11    7.06    0.37
   2   6 -12    3.23    0.31
   1   6 -12    3.21    0.31
   0   6 -12   11.44    0.54
   0  -5  12    7.84    0.65
  -2  -4  12    0.17    0.21
  -1  -4  12    2.51    0.39
  -1  -4  12    1.86    0.40
   0  -4  12    0.44    0.27
  -4  -3  12   38.56    1.45
  -4  -3  12   40.27    1.60
  -3  -3  12   28.39    1.20
  -3  -3  12   28.90    1.25
  -2  -3  12    0.01    0.18
  -2  -3  12    0.34    0.20
  -1  -3  12    6.36    0.64
  -1  -3  12    7.87    0.57
   0  -3  12    0.68    0.32
  -5  -2  12   16.08    0.96
  -4  -2  12   -0.12    0.18
  -4  -2  12    0.16    0.22
  -3  -2  12   44.91    1.70
  -3  -2  12   43.98    1.62
  -2  -2  12   11.24    0.73
  -2  -2  12   11.39    0.73
  -1  -2  12    1.27    0.34
  -1  -2  12    0.97    0.29
  -5  -1  12    8.22    0.69
  -4  -1  12   54.40    2.02
  -4  -1  12   54.47    1.85
  -3  -1  12    5.88    0.64
  -3  -1  12    6.23    0.55
  -2  -1  12   10.40    0.71
  -2  -1  12   11.28    0.74
  -1  -1  12   25.76    1.17
  -4   0  12    5.44    0.55
  -4   0  12    5.97    0.68
  -3   0  12    2.42    0.43
  -3   0  12    2.37    0.41
   0   0   0    0.00    0.00
;
loop_
_space_group_symop_operation_xyz
'x, y, z'
'-x, -y, -z'
loop_
_atom_site_label
_atom_site_type_symbol
_atom_site_fract_x
_atom_site_fract_y
_atom_site_fract_z
_atom_site_U_iso_or_equiv
_atom_site_adp_type
_atom_site_occupancy
_atom_site_site_symmetry_order
_atom_site_calc_flag
_atom_site_refinement_flags_posn
_atom_site_refinement_flags_adp
_atom_site_refinement_flags_occupancy
_atom_site_disorder_assembly
_atom_site_disorder_group
Cu1 Cu 0.29427(3) 0.33099(3) 0.79909(2) 0.01281(7) Uani 1 1 d . . . . .
Cl1 Cl 0.19342(5) 0.02320(6) 0.49243(5) 0.01735(11) Uani 1 1 d . . . . .
Cl2 Cl 0.43875(6) 0.28217(7) 0.99003(5) 0.02061(11) Uani 1 1 d . . . . .
Cl3 Cl 0.18603(6) 0.41448(7) 0.61635(5) 0.02019(11) Uani 1 1 d . . . . .
Cl4 Cl 0.06340(5) 0.29996(6) 0.87675(5) 0.01732(11) Uani 1 1 d . . . . .
N1 N 0.46354(19) 0.3020(2) 0.69039(16) 0.0125(3) Uani 1 1 d . . . . .
N2 N 0.92635(19) 0.5388(2) 0.73980(16) 0.0144(3) Uani 1 1 d . . . . .
H2 H 1.0028 0.4973 0.7438 0.017 Uiso 1 1 calc R U . . .
C1 C 0.4057(2) 0.1811(2) 0.55112(19) 0.0123(3) Uani 1 1 d . . . . .
C2 C 0.5085(2) 0.1737(2) 0.45967(19) 0.0133(4) Uani 1 1 d . . . . .
C3 C 0.6830(2) 0.2957(2) 0.52495(19) 0.0136(4) Uani 1 1 d . . . . .
H3 H 0.7606 0.2960 0.4700 0.016 Uiso 1 1 calc R U . . .
C4 C 0.7448(2) 0.4178(2) 0.67081(19) 0.0128(3) Uani 1 1 d . . . . .
C5 C 0.6322(2) 0.4187(2) 0.75126(19) 0.0135(4) Uani 1 1 d . . . . .
H5 H 0.6756 0.5032 0.8507 0.016 Uiso 1 1 calc R U . . .
C6 C 0.4358(2) 0.0465(3) 0.29750(19) 0.0181(4) Uani 1 1 d . . . . .
H6A H 0.4117 0.1015 0.2283 0.027 Uiso 1 1 calc R U . . .
H6B H 0.3266 -0.0512 0.2812 0.027 Uiso 1 1 calc R U . . .
H6C H 0.5221 0.0069 0.2781 0.027 Uiso 1 1 calc R U . . .
C7 C 0.9897(2) 0.7032(2) 0.79701(19) 0.0158(4) Uani 1 1 d . . . . .
C8 C 1.1827(3) 0.8074(3) 0.8728(2) 0.0276(5) Uani 1 1 d . . . . .
H8A H 1.2394 0.7323 0.8629 0.041 Uiso 1 1 calc R U . . .
H8B H 1.2100 0.8709 0.9805 0.041 Uiso 1 1 calc R U . . .
H8C H 1.2263 0.8881 0.8253 0.041 Uiso 1 1 calc R U . . .
C9 C 0.8760(3) 0.7903(3) 0.7899(2) 0.0209(4) Uani 1 1 d . . . . .
H9A H 0.7710 0.7208 0.6979 0.031 Uiso 1 1 calc R U . . .
H9B H 0.9414 0.9025 0.7880 0.031 Uiso 1 1 calc R U . . .
H9C H 0.8405 0.8049 0.8792 0.031 Uiso 1 1 calc R U . . .
loop_
_atom_site_aniso_label
_atom_site_aniso_U_11
_atom_site_aniso_U_22
_atom_site_aniso_U_33
_atom_site_aniso_U_23
_atom_site_aniso_U_13
_atom_site_aniso_U_12
Cu1 0.01220(12) 0.01847(13) 0.01298(12) 0.00756(9) 0.00713(9) 0.00971(10)
Cl1 0.0100(2) 0.0173(2) 0.0197(2) 0.00362(18) 0.00397(17) 0.00438(18)
Cl2 0.0229(2) 0.0314(3) 0.0206(2) 0.0159(2) 0.01159(19) 0.0192(2)
Cl3 0.0267(3) 0.0307(3) 0.0195(2) 0.0161(2) 0.01441(19) 0.0215(2)
Cl4 0.0120(2) 0.0276(3) 0.0149(2) 0.00949(19) 0.00709(17) 0.00936(19)
N1 0.0117(7) 0.0165(8) 0.0116(7) 0.0056(6) 0.0052(6) 0.0079(6)
N2 0.0119(7) 0.0161(8) 0.0166(7) 0.0052(6) 0.0057(6) 0.0081(7)
C1 0.0099(8) 0.0132(9) 0.0135(8) 0.0048(7) 0.0025(7) 0.0062(7)
C2 0.0162(9) 0.0155(9) 0.0130(8) 0.0070(7) 0.0056(7) 0.0107(8)
C3 0.0164(9) 0.0153(9) 0.0162(8) 0.0084(8) 0.0096(7) 0.0106(8)
C4 0.0116(8) 0.0127(9) 0.0155(8) 0.0067(7) 0.0043(7) 0.0062(7)
C5 0.0131(9) 0.0146(9) 0.0121(8) 0.0027(7) 0.0040(7) 0.0077(7)
C6 0.0190(10) 0.0202(10) 0.0127(8) 0.0031(8) 0.0052(7) 0.0090(8)
C7 0.0183(9) 0.0181(10) 0.0120(8) 0.0060(7) 0.0078(7) 0.0080(8)
C8 0.0181(10) 0.0226(11) 0.0323(11) 0.0038(9) 0.0085(9) 0.0045(9)
C9 0.0257(11) 0.0191(10) 0.0224(9) 0.0090(8) 0.0092(8) 0.0136(9)
loop_
_atom_type_symbol
_atom_type_description
_atom_type_scat_dispersion_real
_atom_type_scat_dispersion_imag
_atom_type_scat_source
C C 0.0033 0.0016 'International Tables Vol C Tables 4.2.6.8 and 6.1.1.4'
H H 0.0000 0.0000 'International Tables Vol C Tables 4.2.6.8 and 6.1.1.4'
N N 0.0061 0.0033 'International Tables Vol C Tables 4.2.6.8 and 6.1.1.4'
Cl Cl 0.1484 0.1585 'International Tables Vol C Tables 4.2.6.8 and 6.1.1.4'
Cu Cu 0.3201 1.2651 'International Tables Vol C Tables 4.2.6.8 and 6.1.1.4'
loop_
_geom_angle_atom_site_label_1
_geom_angle_atom_site_label_2
_geom_angle_atom_site_label_3
_geom_angle
_geom_angle_site_symmetry_1
_geom_angle_site_symmetry_3
N1 Cu1 Cl4 166.32(5) . .
N1 Cu1 Cl2 89.22(5) . .
Cl4 Cu1 Cl2 94.02(3) . .
N1 Cu1 Cl3 87.08(5) . .
Cl4 Cu1 Cl3 91.29(3) . .
Cl2 Cu1 Cl3 171.74(2) . .
C5 N1 C1 118.83(14) . .
C5 N1 Cu1 118.98(11) . .
C1 N1 Cu1 121.68(12) . .
C7 N2 C4 126.46(16) . .
C7 N2 H2 116.8 . .
C4 N2 H2 116.8 . .
N1 C1 C2 124.40(16) . .
N1 C1 Cl1 114.94(13) . .
C2 C1 Cl1 120.58(14) . .
C3 C2 C1 115.76(16) . .
C3 C2 C6 120.78(15) . .
C1 C2 C6 123.42(16) . .
C2 C3 C4 119.97(16) . .
C2 C3 H3 120.0 . .
C4 C3 H3 120.0 . .
C5 C4 C3 120.31(17) . .
C5 C4 N2 119.95(15) . .
C3 C4 N2 119.71(15) . .
N1 C5 C4 120.63(16) . .
N1 C5 H5 119.7 . .
C4 C5 H5 119.7 . .
C2 C6 H6A 109.5 . .
C2 C6 H6B 109.5 . .
H6A C6 H6B 109.5 . .
C2 C6 H6C 109.5 . .
H6A C6 H6C 109.5 . .
H6B C6 H6C 109.5 . .
N2 C7 C8 118.39(17) . .
N2 C7 C9 122.35(17) . .
C8 C7 C9 119.25(18) . .
C7 C8 H8A 109.5 . .
C7 C8 H8B 109.5 . .
H8A C8 H8B 109.5 . .
C7 C8 H8C 109.5 . .
H8A C8 H8C 109.5 . .
H8B C8 H8C 109.5 . .
C7 C9 H9A 109.5 . .
C7 C9 H9B 109.5 . .
H9A C9 H9B 109.5 . .
C7 C9 H9C 109.5 . .
H9A C9 H9C 109.5 . .
H9B C9 H9C 109.5 . .
loop_
_geom_bond_atom_site_label_1
_geom_bond_atom_site_label_2
_geom_bond_distance
_geom_bond_site_symmetry_2
Cu1 N1 2.0477(15) .
Cu1 Cl4 2.2522(8) .
Cu1 Cl2 2.2701(7) .
Cu1 Cl3 2.2882(7) .
Cl1 C1 1.7217(19) .
N1 C5 1.334(2) .
N1 C1 1.343(2) .
N2 C7 1.291(2) .
N2 C4 1.425(2) .
N2 H2 0.8800 .
C1 C2 1.402(2) .
C2 C3 1.383(3) .
C2 C6 1.513(2) .
C3 C4 1.389(2) .
C3 H3 0.9500 .
C4 C5 1.386(2) .
C5 H5 0.9500 .
C6 H6A 0.9800 .
C6 H6B 0.9800 .
C6 H6C 0.9800 .
C7 C8 1.481(3) .
C7 C9 1.486(3) .
C8 H8A 0.9800 .
C8 H8B 0.9800 .
C8 H8C 0.9800 .
C9 H9A 0.9800 .
C9 H9B 0.9800 .
C9 H9C 0.9800 .
