#------------------------------------------------------------------------------
#$Date: 2022-01-01 07:13:54 +0200 (Sat, 01 Jan 2022) $
#$Revision: 271676 $
#$URL: file:///home/coder/svn-repositories/cod/cif/1/56/58/1565880.cif $
#------------------------------------------------------------------------------
#
# This file is available in the Crystallography Open Database (COD),
# http://www.crystallography.net/. The original data for this entry
# were provided by IUCr Journals, http://journals.iucr.org/.
#
# The file may be used within the scientific community so long as
# proper attribution is given to the journal article from which the
# data were obtained.
#
data_1565880
loop_
_publ_author_name
'Olejniczak, Anna'
'Katrusiak, Anna'
'Podsiad\/lo, Marcin'
'Katrusiak, Andrzej'
_publ_section_title
;
 Stochastic hydration of a high-nitrogen-content molecular compound
 recrystallized under pressure
;
_journal_issue                   1
_journal_name_full               IUCrJ
_journal_page_first              49
_journal_page_last               54
_journal_paper_doi               10.1107/S2052252521010381
_journal_volume                  9
_journal_year                    2022
_chemical_formula_moiety         'C4 H2 Cl N5'
_chemical_formula_sum            'C4 H2 Cl N5'
_chemical_formula_weight         155.56
_chemical_name_systematic        6-chloro-1,2,3,4-tetrazolo[1,5-b]pyridazine
_space_group_crystal_system      orthorhombic
_space_group_IT_number           19
_space_group_name_Hall           'P 2ac 2ab'
_space_group_name_H-M_alt        'P 21 21 21'
_atom_sites_solution_hydrogens   geom
_atom_sites_solution_primary     direct
_audit_creation_date             2020-07-14
_audit_creation_method
;
Olex2 1.3
(compiled 2020.06.28 svn.raecde09e for OlexSys, GUI svn.r6132)
;
_cell_angle_alpha                90
_cell_angle_beta                 90
_cell_angle_gamma                90
_cell_formula_units_Z            4
_cell_length_a                   6.9987(3)
_cell_length_b                   8.7740(15)
_cell_length_c                   10.0863(9)
_cell_measurement_reflns_used    1145
_cell_measurement_temperature    296(2)
_cell_measurement_theta_max      22.1890
_cell_measurement_theta_min      4.2130
_cell_volume                     619.37(12)
_computing_cell_refinement       'CrysAlisPro 1.171.40.67a (Rigaku OD, 2019)'
_computing_data_collection       'CrysAlisPro 1.171.40.67a (Rigaku OD, 2019)'
_computing_data_reduction        'CrysAlisPro 1.171.40.67a (Rigaku OD, 2019)'
_computing_molecular_graphics    'Olex2 1.3 (Dolomanov et al., 2009)'
_computing_publication_material  'Olex2 1.3 (Dolomanov et al., 2009)'
_computing_structure_refinement  'SHELXL 2018/3 (Sheldrick, 2015)'
_computing_structure_solution    'SHELXT 2018/2 (Sheldrick, 2018)'
_diffrn_ambient_environment      'diamond-anvil cell'
_diffrn_ambient_pressure         170000
_diffrn_ambient_temperature      296
_diffrn_detector                 'CCD plate'
_diffrn_detector_area_resol_mean 16.2413
_diffrn_detector_type            Eos
_diffrn_measured_fraction_theta_full 0.519
_diffrn_measured_fraction_theta_max 0.480
_diffrn_measurement_details
;
List of Runs (angles in degrees, time in seconds):

  # Type    Start    End  Width  t~exp~   \w     \q     \k     \f   Frames
--------------------------------------------------------------------------
  1  \f    -35.00  19.75   0.75   17.00   0.00 -30.00   0.00    --    73
  2  \f    140.00 200.00   0.75   17.00   0.00 -30.00   0.00    --    80
  3  \f    160.00 217.00   0.75   17.00   0.00  30.00   0.00    --    76
  4  \f    -20.00  34.75   0.75   17.00   0.00  30.00   0.00    --    73
  5  \w    -24.00  24.00   0.75   17.00    --   30.00  39.46 -12.90   64
  6  \w    -24.00  24.00   0.75   17.00    --   30.00  39.46 167.10   64
  7  \w    -50.00  10.00   0.75   17.00    --  -30.00  39.46 167.10   80
  8  \w    -50.00  10.00   0.75   17.00    --  -30.00  39.46 -12.90   80
  9  \w    -64.00  -8.50   0.75   17.00    --  -30.00  81.40 -28.90   74
 10  \w    -64.00  -8.50   0.75   17.00    --  -30.00  81.40 151.10   74
 11  \w    -19.00   8.00   0.75   17.00    --   30.00  81.40 151.10   36
 12  \w    -19.00   8.00   0.75   17.00    --   30.00  81.40 -28.90   36
 13  \w    -43.00 -21.25   0.75   17.00    --   30.00 134.60 -56.90   29
 14  \w    -43.00 -21.25   0.75   17.00    --   30.00 134.60 123.10   29
 15  \w    -90.00 -36.00   0.75   17.00    --  -30.00 134.60 123.10   72
 16  \w    -90.00 -36.00   0.75   17.00    --  -30.00 134.60 -56.90   72
;
_diffrn_measurement_device       'four-circle diffractometer'
_diffrn_measurement_device_type  'KM-4 CCD'
_diffrn_measurement_method
;
HP omega scans - for more details see:
A. Budzianowski, A. Katrusiak in High-Pressure Crystallography
(Eds.: A. Katrusiak, P. F. McMillan),
Dordrecht: Kluwer Acad. Publ., 2004 pp.157-168
;
_diffrn_orient_matrix_type
'CrysAlisPro convention (1999,Acta A55,543-557)'
_diffrn_orient_matrix_UB_11      -0.0042756000
_diffrn_orient_matrix_UB_12      0.0687383000
_diffrn_orient_matrix_UB_13      0.0367936000
_diffrn_orient_matrix_UB_21      0.1008206000
_diffrn_orient_matrix_UB_22      -0.0012033000
_diffrn_orient_matrix_UB_23      0.0073874000
_diffrn_orient_matrix_UB_31      0.0098483000
_diffrn_orient_matrix_UB_32      0.0424759000
_diffrn_orient_matrix_UB_33      -0.0594680000
_diffrn_radiation_monochromator  graphite
_diffrn_radiation_probe          x-ray
_diffrn_radiation_type           'Mo K\a'
_diffrn_radiation_wavelength     0.71073
_diffrn_reflns_av_R_equivalents  0.0316
_diffrn_reflns_av_unetI/netI     0.0258
_diffrn_reflns_Laue_measured_fraction_full 0.519
_diffrn_reflns_Laue_measured_fraction_max 0.480
_diffrn_reflns_limit_h_max       8
_diffrn_reflns_limit_h_min       -8
_diffrn_reflns_limit_k_max       7
_diffrn_reflns_limit_k_min       -7
_diffrn_reflns_limit_l_max       11
_diffrn_reflns_limit_l_min       -11
_diffrn_reflns_number            3715
_diffrn_reflns_point_group_measured_fraction_full 0.539
_diffrn_reflns_point_group_measured_fraction_max 0.490
_diffrn_reflns_theta_full        25.242
_diffrn_reflns_theta_max         27.070
_diffrn_reflns_theta_min         4.238
_diffrn_source                   'fine-focus sealed X-ray tube'
_diffrn_source_type              'Enhance (Mo) X-ray Source'
_exptl_absorpt_coefficient_mu    0.532
_exptl_absorpt_correction_T_max  1.00000
_exptl_absorpt_correction_T_min  0.38651
_exptl_absorpt_correction_type   multi-scan
_exptl_absorpt_process_details
;
CrysAlisPro 1.171.39.46 (Rigaku Oxford Diffraction, 2018)
Empirical absorption correction using spherical harmonics,
 implemented in SCALE3 ABSPACK scaling algorithm.
;
_exptl_crystal_colour            colorless
_exptl_crystal_density_diffrn    1.668
_exptl_crystal_description       plate
_exptl_crystal_F_000             312
_exptl_crystal_size_max          0.37
_exptl_crystal_size_mid          0.27
_exptl_crystal_size_min          0.16
_refine_diff_density_max         0.172
_refine_diff_density_min         -0.130
_refine_diff_density_rms         0.036
_refine_ls_abs_structure_details
;
 Flack x determined using 181 quotients [(I+)-(I-)]/[(I+)+(I-)]
 (Parsons, Flack and Wagner, Acta Cryst. B69 (2013) 249-259).
;
_refine_ls_abs_structure_Flack   0.39(5)
_refine_ls_extinction_method     none
_refine_ls_goodness_of_fit_ref   1.087
_refine_ls_hydrogen_treatment    constr
_refine_ls_matrix_type           full
_refine_ls_number_parameters     91
_refine_ls_number_reflns         666
_refine_ls_number_restraints     0
_refine_ls_restrained_S_all      1.087
_refine_ls_R_factor_all          0.0585
_refine_ls_R_factor_gt           0.0371
_refine_ls_shift/su_max          0.000
_refine_ls_shift/su_mean         0.000
_refine_ls_structure_factor_coef Fsqd
_refine_ls_weighting_details
'w=1/[\s^2^(Fo^2^)+(0.0432P)^2^+0.1036P] where P=(Fo^2^+2Fc^2^)/3'
_refine_ls_weighting_scheme      calc
_refine_ls_wR_factor_gt          0.0812
_refine_ls_wR_factor_ref         0.0904
_reflns_Friedel_coverage         0.708
_reflns_Friedel_fraction_full    0.569
_reflns_Friedel_fraction_max     0.505
_reflns_number_gt                519
_reflns_number_total             666
_reflns_threshold_expression     'I > 2\s(I)'
_cod_data_source_file            lt5042.cif
_cod_data_source_block           C4H2N5Cl1@0_17GPa_phase_alpha_xH2O
_cod_database_code               1565880
_shelx_shelxl_version_number     2018/3
_chemical_oxdiff_formula         C4H2N5Cl1
_shelx_space_group_comment
;
The symmetry employed for this shelxl refinement is uniquely defined
by the following loop, which should always be used as a source of
symmetry information in preference to the above space-group names.
They are only intended as comments.
;
_reflns_odcompleteness_completeness 47.41
_reflns_odcompleteness_iscentric 1
_reflns_odcompleteness_theta     27.01
_olex2_refinement_description
;
1. Fixed Uiso
 At 1.2 times of:
  All C(H) groups
2.a Aromatic/amide H refined with riding coordinates:
 C7(H7), C8(H8)
;
_shelx_res_file
;
TITL 1a_a.res in P2(1)2(1)2(1)
    1a.res
    created by SHELXL-2018/3 at 12:00:55 on 28-Apr-2021
REM Old TITL 1a in P2(1)2(1)2(1)
REM SHELXT solution in P2(1)2(1)2(1)
REM R1 0.140, Rweak 0.048, Alpha 0.011, Orientation as input
REM Flack x = 0.405 ( 0.043 ) from Parsons' quotients
REM Formula found by SHELXT: C8 N Cl
CELL 0.71073 6.9987 8.774 10.0863 90 90 90
ZERR 4 0.0003 0.0015 0.0009 0 0 0
LATT -1
SYMM 0.5-X,-Y,0.5+Z
SYMM -X,0.5+Y,0.5-Z
SYMM 0.5+X,0.5-Y,-Z
SFAC C H Cl N
UNIT 16 8 4 20

L.S. 44
PLAN  5
CONF
BOND $H
list 4
MORE -1
fmap 2 53
acta
REM <olex2.extras>
REM <HklSrc "%.\\1a.hkl">
REM </olex2.extras>

WGHT    0.043200    0.103600
FVAR       0.97870
CL1   3    0.291965    0.333597    0.323394    11.00000    0.07608    0.05481 =
         0.09549   -0.00347    0.02488   -0.00209
N4    4    0.353718    0.749437    0.412715    11.00000    0.04778    0.05899 =
         0.03318   -0.00232    0.00145   -0.00237
N5    4    0.366276    0.597262    0.419969    11.00000    0.05495    0.04321 =
         0.04609    0.00359    0.00148    0.00385
N3    4    0.424937    0.840526    0.507088    11.00000    0.07817    0.05606 =
         0.05547   -0.01228   -0.00762   -0.00819
N2    4    0.384809    0.979294    0.464817    11.00000    0.08835    0.05177 =
         0.08288   -0.02558    0.01025   -0.01901
N1    4    0.294973    0.984013    0.347671    11.00000    0.06454    0.06661 =
         0.06047   -0.01697    0.00700   -0.00287
C9    1    0.274962    0.835822    0.315831    11.00000    0.04696    0.05775 =
         0.03243    0.00431    0.00311   -0.00270
C7    1    0.201032    0.604559    0.208704    11.00000    0.05650    0.06049 =
         0.04118   -0.00638   -0.00498   -0.00831
AFIX  43
H7    2    0.148452    0.548371    0.139555    11.00000   -1.20000
AFIX   0
C6    1    0.287273    0.530268    0.317968    11.00000    0.05093    0.01923 =
         0.05730    0.00075    0.01347   -0.00252
C8    1    0.196456    0.756723    0.206602    11.00000    0.05737    0.07241 =
         0.03642    0.01001   -0.00084   -0.00063
AFIX  43
H8    2    0.143226    0.809035    0.135421    11.00000   -1.20000
AFIX   0
HKLF 4




REM  1a_a.res in P2(1)2(1)2(1)
REM wR2 = 0.0904, GooF = S = 1.087, Restrained GooF = 1.087 for all data
REM R1 = 0.0371 for 519 Fo > 4sig(Fo) and 0.0585 for all 666 data
REM 91 parameters refined using 0 restraints

END

WGHT      0.0432      0.1037

REM Highest difference peak  0.172,  deepest hole -0.130,  1-sigma level  0.036
Q1    1   0.3932  0.4217  0.4785  11.00000  0.05    0.17
Q2    1   0.0964  0.5228  0.0151  11.00000  0.05    0.16
Q3    1   0.4586  0.5377  0.5039  11.00000  0.05    0.14
Q4    1   0.1943  1.0006  0.2079  11.00000  0.05    0.14
Q5    1   0.3942  0.3210  0.4154  11.00000  0.05    0.13
;
_shelx_res_checksum              50163
_shelx_hkl_file
;
   0   1  -3 3317.47   21.75
   0   1  -3 3274.83   22.56
   0  -1   3 3163.10   20.59
   0   1  -3 3229.02   22.47
   0  -1   3 3284.07   22.57
   0   1  -4    5.00    1.29
   0   1  -4    5.19    1.38
   0   1  -4    6.07    1.43
   0  -1   4    3.92    1.25
   0  -1   4    4.73    1.04
   0  -1   4    2.61    1.26
   0   1  -4    4.11    1.10
   0   1  -5  856.27   13.96
   0   1  -5  826.71   15.27
   0   1  -5  847.33   15.27
   0   1  -5  841.53   15.02
   0  -1   5  826.23   15.24
   0   1  -6    2.10    1.63
   0   1  -6   -0.09    1.35
   0   1  -6    1.15    1.63
   0   2  -2  230.18    6.24
   0   2  -2  248.65    6.91
   0  -2   2  239.60    6.00
   0   2  -2  233.50    6.70
   0  -2   2  248.78    6.36
   0   2  -2  243.10    6.45
   0   2  -3  225.76    6.75
   0  -2   3  233.94    6.65
   0   2  -3  239.83    6.49
   0   2  -3  221.63    6.62
   0  -2   3  228.68    5.19
   0   2  -3  222.65    6.00
   0  -2   3  218.78    6.09
   0   2  -4    1.57    0.92
   0   2  -4    2.50    1.08
   0  -2   4    2.15    0.86
   0  -2   4   -0.12    1.36
   0   2  -4    3.75    1.40
   0   2  -4    0.26    1.19
   0   2  -4    1.72    0.85
   0  -2   4    0.79    1.13
   0   2  -5  701.66   12.48
   0   2  -5  674.57   13.70
   0   2  -5  695.20   13.73
   0   2  -5  671.78   11.57
   0   2  -5  653.29   12.91
   0  -2   5  643.64   13.42
   0  -2   5  673.52   10.05
   0  -2   5  669.59   13.02
   0  -2   6   14.20    2.93
   0   2  -6   15.39    2.35
   0  -2   6   19.34    3.03
   0   2  -6   14.30    2.50
   0   2  -6   14.95    2.66
   0   2  -6   12.98    2.50
   0   2  -7  230.91    9.94
   0   2  -7  218.55    9.70
   0   2  -7  224.19    8.57
   0   2  -7  229.47    9.68
   0  -2   7  208.61    9.66
   0   2  -8   13.09    3.42
   0   2  -8   17.25    3.18
   0   2  -8   16.21    3.77
   0  -2   8   23.37    4.57
   0   3  -3    3.33    1.81
   0  -3   3    2.90    1.44
   0   3  -3    3.08    1.24
   0   3  -3    3.76    1.59
   0   3  -3    1.49    1.21
   0  -3   3    2.32    1.38
   0   3  -3    2.04    1.38
   0  -3   4    3.75    0.90
   0   3  -4    5.55    1.73
   0  -3   4    3.56    1.95
   0   3  -4    3.77    1.81
   0   3  -4    3.32    1.23
   0  -3   4    3.27    1.60
   0   3  -4    5.27    1.73
   0   3  -4    4.85    1.61
   0  -3   5   62.07    4.42
   0  -3   5   64.20    4.79
   0   3  -5   63.79    4.90
   0   3  -5   60.94    4.23
   0   3  -5   61.54    4.57
   0  -3   5   55.48    4.26
   0   3  -5   64.56    4.84
   0  -3   6    1.94    2.29
   0   3  -6    3.36    1.88
   0  -3   6    2.74    1.94
   0   3  -6   -1.21    2.15
   0  -3   6    0.42    2.22
   0   3  -6   -0.45    1.76
   0  -3   6   -0.06    1.93
   0   3  -6    2.68    1.79
   0   3  -7    7.37    2.58
   0   3  -7    5.16    2.52
   0  -3   7    6.46    2.97
   0   3  -7    8.70    2.52
   0  -3   7    5.73    2.80
   0  -3   7    3.07    3.03
   0   3  -7    8.20    2.74
   0  -3   8  115.65    8.34
   0   3  -8  115.08    8.12
   0  -3   8  114.35    7.46
   0   3  -8  125.91    8.37
   0   3  -8  125.78    8.00
   0   3  -9    3.60    2.99
   0  -3   9    5.67    3.67
   0   3  -9    4.71    3.08
   0  -3   9    1.26    3.50
   0   3  -9    7.01    3.42
   0   3 -10    3.12    3.55
   0   3 -10    0.47    3.13
   0  -3  10    4.56    3.94
   0   4  -4   52.23    5.35
   0  -4   4   51.03    4.29
   0   4  -4   50.19    5.18
   0   4  -4   44.91    3.75
   0  -4   4   57.10    4.66
   0   4  -4   50.46    4.90
   0   4  -5  170.72    9.03
   0  -4   5  195.61    8.25
   0   4  -5  168.06    8.34
   0   4  -5  178.70    8.43
   0  -4   5  176.92    8.13
   0   4  -5  184.65    9.18
   0  -4   6   29.68    3.92
   0  -4   6   36.16    4.50
   0   4  -6   34.45    4.01
   0  -4   6   37.93    4.42
   0   4  -6   29.01    4.16
   0   4  -6   32.91    4.47
   0   4  -6   34.59    4.28
   0   4  -7  102.51    7.45
   0  -4   7  108.13    7.06
   0  -4   7  101.95    6.82
   0   4  -7   98.79    7.40
   0   4  -7  106.04    7.27
   0   4  -7  105.32    6.81
   0  -4   7   94.22    7.23
   0  -4   7  113.11    7.96
   0   4  -8   -0.22    3.40
   0  -4   8   -1.41    3.37
   0   4  -8   -2.08    3.08
   0  -4   8    4.21    3.02
   0   4  -8    3.13    3.12
   0  -4   8    4.09    3.44
   0  -4   9  128.77    9.64
   0  -4   9  134.46    9.03
   0   4  -9  132.09    9.66
   0   4  -9  133.90    9.48
   0  -4   9  121.87    9.13
   0   4  -9  125.67    9.67
   0   4 -10    2.81    3.54
   0   4 -10    3.58    3.99
   0  -4  10    0.37    3.88
   0   4 -10    6.77    3.45
   0  -4  10    7.28    4.52
   0  -4  10   -6.58    4.89
   0  -4  11  -13.47    6.98
   0   4 -11    1.19    4.59
   0   4 -11   -4.03    4.10
   0   5  -5    6.20    3.79
   0   5  -5   12.91    4.79
   0   5  -5    6.19    4.04
   0  -5   6   21.87    3.82
   0   5  -6   16.04    4.19
   0   5  -6   23.32    4.73
   0  -5   6   13.84    3.59
   0   5  -6   25.99    5.09
   0   5  -7    3.18    3.35
   0   5  -7    2.35    3.26
   0  -5   7    2.23    3.37
   0  -5   7    1.10    2.70
   0   5  -7    1.48    3.42
   0  -5   8    3.69    4.10
   0   5  -8    2.90    3.04
   0   5  -8    1.00    3.29
   0  -5   8    6.66    3.84
   0  -5   8    4.58    3.52
   0   5  -8    1.75    3.33
   0   5  -9   43.98    6.40
   0   5  -9   30.18    5.62
   0  -5   9   41.28    6.17
   0   5  -9   26.80    5.43
   0  -5   9   38.28    5.68
   0  -5   9   42.25    6.50
   0  -5  10   -0.18    4.53
   0   5 -10    0.66    4.34
   0   5 -10    6.30    5.10
   0  -5  10   -5.57    3.78
   0   5 -11   -2.60    4.83
   0   5 -11   14.58    5.20
   0   6  -7    0.84    5.20
   0   6  -7   -1.36    4.32
   0   6  -7   -5.47    4.76
   0   6  -8   11.67    5.65
   0  -6   8    2.58    3.69
   0   6  -8   10.74    5.33
   0   6  -8    2.32    4.33
   0  -6   8    6.79    3.56
   0  -6   9    1.01    4.20
   0  -6   9    0.55    3.44
   0   6  -9   -4.41    4.79
   0  -6   9   -8.70    4.69
   0   6  -9   -0.39    4.57
   0   6 -10    9.84    5.01
   0   6 -10   11.26    5.56
   0  -7   9   13.72    5.45
   0   7  -9   19.02   10.32
  -1   0  -3 1279.59   15.14
   1   1  -6   14.88    2.56
   1   1  -6   16.98    2.91
   1   1  -6   14.47    2.18
   1  -1   6   20.41    3.12
   1   1  -6   16.28    2.76
   1   1  -5  325.92    9.80
   1  -1   5  298.59    8.65
   1   1  -5  335.05    9.57
   1  -1   5  331.24    6.90
   1   1  -5  311.70    8.03
   1  -1   5  322.99    9.58
   1   1  -5  317.49    9.76
   1   1  -4  114.78    4.95
   1  -1   4  109.22    4.82
   1   1  -4  113.36    5.02
   1  -1   4  114.33    3.64
   1   1  -4  104.05    4.55
   1  -1   4  110.87    4.64
   1   1  -4  111.96    4.34
   1   1  -4  107.93    4.95
   1  -1   3  553.21    9.09
   1   1  -3  568.07    9.74
   1   1  -3  563.62    9.61
   1   1  -3  566.93    8.61
   1   1  -3  560.64    9.63
   1  -1   3  576.61    9.23
   1   1  -2 1281.46   12.27
   1   1  -2 1278.38   12.22
   1   1  -2 1291.20   12.80
   1  -1   2 1262.10   12.17
   1  -1   1  644.33    8.24
   1  -1   1  653.54    8.16
  -1  -1   1  634.85    7.80
  -1   1  -2 1260.00   12.45
  -1  -1   2 1287.24   13.23
  -1  -1   2 1267.66   12.04
  -1   1  -2 1232.31   12.86
  -1   1  -3  574.12    9.87
  -1  -1   3  559.48   10.06
  -1   1  -3  570.43    9.38
  -1   1  -3  578.59    9.38
  -1  -1   3  569.63    9.71
  -1  -1   3  584.58    9.85
  -1   1  -3  570.10    9.03
  -1   1  -3  563.39    7.25
  -1   1  -4  115.16    3.74
  -1  -1   4  100.72    5.06
  -1   1  -4  109.99    4.87
  -1   1  -4  109.86    4.97
  -1   1  -4  103.58    4.67
  -1  -1   4  104.91    4.89
  -1   1  -4  111.17    3.58
  -1   1  -4  113.25    4.75
  -1   1  -5  319.78    9.53
  -1   1  -5  324.84    9.67
  -1  -1   5  322.85    9.87
  -1   1  -5  326.46    7.61
  -1   1  -5  314.69    6.70
  -1  -1   5  318.80   10.02
  -1   1  -5  321.06    9.12
  -1   1  -5  331.86    9.18
  -1   1  -6   16.26    2.67
  -1   1  -6   17.77    2.78
  -1   1  -6   14.85    2.62
  -1   1  -6   18.68    2.39
  -1   1  -7  123.08    7.10
   1   2  -8   35.64    4.62
   1   2  -8   29.26    4.50
   1   2  -8   39.87    5.03
   1   2  -7   52.46    4.83
   1   2  -7   48.75    4.87
   1   2  -7   48.66    4.93
   1  -2   7   45.94    4.81
   1  -2   7   47.95    4.16
   1  -2   6  282.41    8.46
   1   2  -6  270.21    9.84
   1   2  -6  274.96    9.87
   1  -2   6  272.41    9.73
   1   2  -6  287.63    9.62
   1   2  -6  283.67    9.40
   1   2  -5 1147.85   17.60
   1   2  -5 1309.00   14.95
   1  -2   5 1273.56   16.75
   1   2  -5 1232.43   18.94
   1   2  -5 1267.80   19.10
   1  -2   5 1241.55   16.33
   1  -2   5 1262.97   18.68
   1   2  -5 1183.99   17.14
   1  -2   4  170.92    5.15
   1   2  -4  167.24    5.08
   1  -2   4  167.65    5.72
   1   2  -4  162.81    6.33
   1   2  -4  168.71    5.61
   1   2  -4  170.03    6.40
   1  -2   4  157.15    6.25
   1   2  -4  165.67    6.29
   1   2  -3 1553.57   17.70
   1   2  -3 1583.06   17.94
   1  -2   3 1566.18   17.32
   1  -2   3 1529.54   17.12
   1  -2   3 1572.20   16.30
   1   2  -3 1509.27   17.56
   1   2  -3 1590.79   15.04
   1   2  -3 1552.56   15.14
   1   2  -2   36.23    2.71
   1   2  -2   36.04    2.65
   1   2  -2   35.63    2.63
   1  -2   2   33.77    2.55
   1  -2   2   33.54    2.41
   1  -2   2   34.46    2.50
   1   2  -2   35.01    2.43
   1   2  -1  652.22   12.31
  -1   2  -2   33.22    2.57
  -1   2  -2   34.00    2.73
  -1   2  -2   35.41    2.78
  -1   2  -2   33.15    2.60
  -1  -2   2   33.41    2.21
  -1  -2   2   33.08    2.41
  -1  -2   2   35.53    2.19
  -1   2  -3 1601.09   17.70
  -1   2  -3 1545.54   18.31
  -1   2  -3 1578.64   16.86
  -1   2  -3 1537.80   17.47
  -1  -2   3 1564.59   15.08
  -1   2  -3 1560.51   14.78
  -1  -2   3 1527.92   15.05
  -1  -2   3 1561.80   17.38
  -1   2  -4  178.13    5.97
  -1   2  -4  172.26    6.48
  -1   2  -4  174.71    5.11
  -1   2  -4  155.87    4.34
  -1  -2   4  165.89    5.54
  -1  -2   4  172.62    6.51
  -1  -2   4  170.50    6.61
  -1   2  -4  171.92    6.56
  -1  -2   4  166.64    5.57
  -1   2  -4  161.65    6.08
  -1   2  -5 1220.25   17.27
  -1   2  -5 1259.83   18.27
  -1   2  -5 1258.98   18.93
  -1  -2   5 1271.25   17.59
  -1   2  -5 1290.71   19.14
  -1  -2   5 1294.79   19.26
  -1   2  -5 1348.93   15.21
  -1  -2   5 1299.97   19.38
  -1   2  -6  276.26    9.26
  -1   2  -6  288.69    7.98
  -1   2  -6  278.14    9.52
  -1   2  -6  276.53    9.77
  -1  -2   6  278.48   10.09
  -1   2  -6  278.18    9.86
  -1  -2   6  272.52   10.06
  -1   2  -7   42.48    4.44
  -1  -2   7   52.09    5.39
  -1   2  -7   49.12    4.80
  -1  -2   7   49.43    5.32
  -1   2  -7   31.61    3.97
  -1   2  -8   34.20    4.69
  -1   2  -8   37.84    4.82
  -1   2  -8   35.39    4.65
  -1   2  -9   16.69    4.71
   1   3 -10   19.15    4.84
   1  -3  10   16.54    5.78
   1   3  -9   20.01    4.58
   1  -3   9   26.37    5.12
   1  -3   9   28.42    5.55
   1   3  -9   18.11    3.95
   1   3  -9   25.08    4.53
   1   3  -8   19.50    4.09
   1   3  -8   24.83    4.09
   1  -3   8   19.77    4.28
   1   3  -8   14.70    3.66
   1  -3   8   18.28    4.07
   1   3  -8   20.90    3.66
   1  -3   7   30.32    4.10
   1  -3   7   29.45    4.31
   1   3  -7   35.76    4.55
   1  -3   7   31.40    4.33
   1   3  -7   31.88    4.07
   1   3  -7   32.08    4.11
   1   3  -7   33.37    4.39
   1   3  -6   49.94    4.59
   1  -3   6   48.69    4.58
   1   3  -6   57.45    4.59
   1   3  -6   52.74    4.33
   1   3  -6   60.81    5.22
   1  -3   6   53.36    4.03
   1  -3   6   52.89    4.96
   1  -3   6   56.41    4.98
   1   3  -5   23.78    3.15
   1   3  -5   23.75    2.82
   1  -3   5   21.53    3.09
   1   3  -5   20.32    2.82
   1  -3   5   24.27    2.76
   1  -3   5   21.82    3.01
   1   3  -5   23.78    2.40
   1  -3   5   21.49    2.65
   1   3  -5   24.09    3.34
   1   3  -4  137.53    6.38
   1   3  -4  147.17    6.92
   1  -3   4  138.47    5.81
   1  -3   4  143.63    6.42
   1   3  -4  138.22    6.65
   1  -3   4  143.96    6.37
   1   3  -4  139.29    5.63
   1   3  -4  137.92    5.76
   1  -3   3  131.16    5.49
   1  -3   3  145.87    6.17
   1   3  -3  132.00    5.58
   1   3  -3  136.76    6.38
   1   3  -3  135.55    6.54
   1   3  -3  136.63    6.50
   1  -3   3  149.19    6.25
   1   3  -2  144.37    8.12
   1   3  -2  135.74    6.85
  -1  -3   3  141.15    5.08
  -1  -3   3  144.11    6.16
  -1   3  -3  130.32    6.44
  -1   3  -3  130.85    6.40
  -1   3  -3  133.12    7.02
  -1   3  -3  141.37    6.14
  -1   3  -4  140.14    6.82
  -1  -3   4  144.82    5.28
  -1   3  -4  146.70    6.92
  -1   3  -4  129.09    5.84
  -1   3  -4  148.80    6.15
  -1   3  -4  143.09    6.70
  -1  -3   4  145.13    6.57
  -1  -3   4  142.30    5.80
  -1  -3   5   18.34    2.71
  -1   3  -5   22.11    2.66
  -1  -3   5   23.71    3.30
  -1   3  -5   19.25    2.86
  -1  -3   5   24.68    3.30
  -1   3  -5   24.54    3.26
  -1   3  -5   23.57    3.34
  -1   3  -5   22.61    2.67
  -1   3  -6   53.65    4.23
  -1  -3   6   53.74    5.14
  -1  -3   6   41.83    4.46
  -1   3  -6   46.01    4.40
  -1   3  -6   56.36    4.89
  -1  -3   6   54.60    4.37
  -1   3  -6   56.62    5.04
  -1  -3   6   57.43    4.98
  -1  -3   7   26.23    4.35
  -1   3  -7   26.89    3.96
  -1  -3   7   35.10    4.91
  -1   3  -7   33.31    4.24
  -1  -3   7   30.22    3.89
  -1   3  -7   28.33    3.97
  -1  -3   8   20.03    4.30
  -1   3  -8   21.70    4.34
  -1  -3   8   20.65    3.61
  -1   3  -8   15.12    3.76
  -1   3  -8   18.79    3.98
  -1  -3   8   14.60    4.13
  -1  -3   9   18.96    5.13
  -1   3  -9   28.23    5.10
  -1   3  -9   23.93    4.46
  -1   3  -9   23.35    4.70
  -1   3 -10   17.48    3.94
  -1   3 -10   18.78    4.78
  -1   3 -10   13.23    4.07
   1   4 -11   40.94    7.16
   1  -4  11   43.92    7.84
   1  -4  11   54.25    8.72
   1   4 -11   51.84    7.97
   1  -4  10    5.72    5.11
   1   4 -10    3.11    3.59
   1  -4  10    2.23    3.80
   1  -4  10    9.58    4.98
   1   4 -10    7.37    4.68
   1  -4   9   60.60    7.04
   1   4  -9   50.24    5.94
   1  -4   9   59.23    6.40
   1   4  -9   51.75    6.50
   1   4  -9   44.64    6.02
   1  -4   9   44.41    6.06
   1   4  -8   -1.11    3.07
   1  -4   8  -22.24    5.16
   1  -4   8   -1.63    3.20
   1  -4   8  -13.08    4.29
   1   4  -8    4.66    3.32
   1   4  -8    7.02    3.29
   1   4  -7    3.33    2.98
   1   4  -7    4.17    3.06
   1   4  -7    2.94    2.52
   1   4  -7    0.73    2.29
   1  -4   7    4.45    3.12
   1  -4   7   -0.87    2.87
   1   4  -6   26.99    3.68
   1  -4   6   25.38    4.05
   1  -4   6   24.37    3.96
   1   4  -6   28.02    3.85
   1   4  -6   23.42    4.14
   1   4  -6   26.87    4.44
   1  -4   5  204.67    8.82
   1   4  -5  200.57    8.53
   1   4  -5  191.98    9.48
   1  -4   5  210.44    8.94
   1   4  -5  201.39    9.65
   1   4  -5  212.80    9.30
   1   4  -4  113.99    6.98
   1   4  -4   98.86    6.92
   1   4  -4   97.59    7.07
   1  -4   4  113.53    6.62
   1  -4   4  106.18    6.20
   1   4  -4   93.50    6.22
   1   4  -3  687.28   21.56
  -1   4  -4   99.78    7.15
  -1   4  -4   87.29    6.52
  -1   4  -4   96.12    6.07
  -1   4  -4  106.77    8.18
  -1  -4   4  103.20    4.77
  -1   4  -5  197.21    8.33
  -1   4  -5  197.35    9.54
  -1  -4   5  217.52    9.24
  -1  -4   5  206.40    8.37
  -1   4  -5  194.31    9.67
  -1   4  -5  200.63    9.88
  -1  -4   6   20.37    3.96
  -1  -4   6   29.30    3.60
  -1   4  -6   24.40    3.93
  -1   4  -6   27.11    4.25
  -1  -4   6   29.58    4.21
  -1   4  -6   25.49    4.21
  -1  -4   7   -2.06    2.86
  -1   4  -7    6.77    2.95
  -1  -4   7    1.88    2.96
  -1   4  -7    3.54    2.74
  -1  -4   7    7.75    3.09
  -1   4  -7   -0.91    2.81
  -1  -4   7    0.72    3.04
  -1  -4   8    7.74    3.71
  -1  -4   8    3.50    3.52
  -1   4  -8    1.69    2.77
  -1   4  -8    0.11    2.86
  -1  -4   8    0.16    3.45
  -1  -4   9   54.77    6.65
  -1   4  -9   56.78    6.92
  -1  -4   9   56.65    7.01
  -1   4  -9   53.40    6.73
  -1  -4   9   64.26    7.46
  -1   4  -9   47.63    6.26
  -1   4 -10   -7.76    4.48
  -1   4 -10    3.17    3.50
  -1  -4  10    0.48    4.23
  -1   4 -10   -3.85    4.17
  -1   4 -11   48.18    7.35
  -1   4 -11   52.12    7.65
  -1   4 -11   47.05    7.57
  -1  -4  11   65.74    9.03
   1   5 -11    8.35    4.67
   1   5 -11    4.75    5.67
   1  -5  10    2.85    4.23
   1  -5  10    0.25    4.53
   1  -5  10    0.22    3.79
   1   5 -10    0.94    4.09
   1   5 -10    6.19    4.72
   1   5  -9    9.85    4.53
   1  -5   9   16.94    4.93
   1  -5   9    9.95    4.63
   1  -5   9    9.03    3.90
   1   5  -9   11.82    4.48
   1   5  -8    0.22    3.41
   1   5  -8    1.02    3.20
   1  -5   8   -7.35    4.11
   1   5  -8   -1.80    3.07
   1  -5   8    2.03    3.30
   1  -5   8    0.53    3.60
   1   5  -7   42.44    6.04
   1   5  -7   43.72    5.54
   1   5  -7   50.21    6.39
   1  -5   7   62.41    6.35
   1  -5   7   54.50    5.76
   1   5  -6   51.75    6.52
   1  -5   6   45.60    5.15
   1   5  -6   47.24    6.31
   1  -5   6   63.26    6.04
   1   5  -6   47.75    5.62
   1   5  -6   49.60    5.93
   1   5  -5   38.99    5.18
   1   5  -5   36.85    5.41
   1   5  -5   32.34    5.73
   1   5  -5   29.27    5.93
  -1   5  -5   27.55    5.52
  -1  -5   5   46.94    5.17
  -1   5  -5   36.57    6.14
  -1   5  -6   38.02    5.60
  -1  -5   6   58.23    6.17
  -1   5  -6   38.95    5.63
  -1   5  -6   50.39    6.85
  -1  -5   7   59.76    6.38
  -1   5  -7   47.85    6.50
  -1   5  -7   60.31    6.85
  -1  -5   7   60.27    6.34
  -1   5  -7   47.20    6.21
  -1   5  -8    1.08    3.19
  -1  -5   8   -0.65    3.58
  -1  -5   8    3.52    3.69
  -1  -5   8    1.68    3.51
  -1   5  -8   -4.90    3.26
  -1   5  -8    0.14    3.56
  -1  -5   9    7.29    4.39
  -1   5  -9    4.61    3.79
  -1  -5   9   13.51    4.70
  -1   5  -9   11.67    4.86
  -1   5  -9   10.00    4.21
  -1   5 -10   -0.21    3.77
  -1  -5  10    8.77    4.81
  -1   5 -10   -1.00    3.75
  -1  -5  10   -5.49    5.08
  -1   5 -10   -1.38    4.77
  -1   5 -11   -2.35    4.18
  -1   5 -11    1.16    4.72
  -1   5 -11    8.70    4.95
   1  -6  10    6.66    4.24
   1  -6  10    9.65    5.93
   1   6 -10    1.24    5.33
   1   6  -9    3.00    4.77
   1  -6   9   -2.75    3.98
   1  -6   9    4.50    4.26
   1  -6   9   -0.81    3.95
   1   6  -9   10.32    5.96
   1  -6   8   31.26    5.36
   1  -6   8   40.86    6.15
   1   6  -8   39.40    7.85
   1  -6   8   42.57    6.03
   1   6  -8   35.63    7.19
   1   6  -7   39.02    7.16
   1   6  -7   36.28    7.60
   1   6  -6  103.99   12.75
  -1   6  -7   43.78    8.60
  -1  -6   7   46.02    6.29
  -1   6  -7   32.92    6.63
  -1   6  -8   30.59    6.80
  -1  -6   8   39.51    5.88
  -1  -6   8   42.88    6.43
  -1  -6   8   41.56    6.16
  -1   6  -8   26.80    6.45
  -1   6  -8   36.47    7.77
  -1  -6   9    3.06    3.62
  -1   6  -9    4.72    3.97
  -1  -6   9    4.16    4.33
  -1   6  -9   13.69    6.30
  -1   6  -9   -3.65    5.42
  -1   6 -10    1.78    5.27
  -1   6 -10    2.44    4.78
  -1   6 -10    0.92    5.46
   1   7  -9   25.19    8.99
   1  -7   9   35.52    7.33
  -1   7  -9   21.93    9.58
  -1   7 -10   17.28   10.98
   2   0   1 9999.00   39.03
  -2   0  -2 5767.19   31.68
   2   0   2 5746.38   33.08
   2   0  -2 5702.06   31.61
   2   0   2 5709.19   31.93
  -2   0  -2 5732.43   31.28
  -2   0   2 5533.04   35.06
  -2   0   2 5733.45   35.08
  -2   0  -2 5753.73   29.54
   2   0   2 5723.14   32.86
  -2   0   2 5725.65   32.66
   2   0  -2 5800.38   33.41
  -2   0   2 5777.49   33.66
   2   0  -2 5660.96   32.52
  -2   0  -2 5772.35   31.51
   2   0  -3  605.05   12.05
  -2   0   3  627.13   13.10
   2   0   3  616.20   11.52
  -2   0  -3  627.23   11.48
  -2   0  -3  634.87   11.36
  -2   0   3  598.03   12.56
   2   0  -3  623.36   12.10
  -2   0  -3  638.08   11.89
  -2   0  -3  603.10   11.61
   2   0   3  649.60   12.66
  -2   0  -4  291.67    8.75
   2   0   4  314.67    8.68
  -2   0  -4  328.46    7.96
  -2   0  -4  326.37    8.82
  -2   0  -4  325.41    9.40
   2  -1   7    5.35    2.85
   2   1  -6  170.63    7.45
   2   1  -6  169.24    8.16
   2  -1   6  184.05    8.33
   2   1  -6  182.28    8.36
   2   1  -5  497.66   12.58
   2  -1   5  551.72   10.74
   2   1  -5  550.56   12.36
   2  -1   5  558.50   12.91
   2   1  -5  561.62   13.23
   2  -1   5  531.23   12.43
   2   1  -5  546.79   13.39
   2  -1   4    4.07    1.37
   2   1  -4    6.89    1.32
   2   1  -4    3.99    1.53
   2   1  -4    5.23    1.38
   2   1  -4    4.06    1.40
   2  -1   4    4.93    1.32
   2  -1   4    3.68    1.41
   2  -1   4    8.30    1.94
   2   1  -4    1.26    1.27
   2   1  -3  278.61    6.13
   2  -1   3  267.66    6.63
   2   1  -3  266.61    7.30
   2  -1   3  271.85    6.22
   2   1  -3  261.49    6.88
   2   1  -3  266.20    7.52
   2   1  -3  248.19    6.68
   2  -1   3  272.50    7.54
   2  -1   3  279.57    7.28
   2   1  -3  272.85    7.04
   2   1  -2 1885.07   15.96
   2   1  -2 1906.71   18.35
   2  -1   2 1882.91   17.17
   2  -1   2 1838.11   18.09
   2   1  -2 1866.79   15.53
   2   1  -2 1892.64   18.09
   2   1  -2 1866.58   16.36
   2  -1   2 1859.98   17.21
   2  -1   2 1844.15   14.31
   2   1  -2 1888.96   15.47
   2  -1   2 1884.90   17.46
  -2  -1  -1  293.74    7.47
  -2  -1  -1  302.92    7.06
   2   1  -1  311.12    6.84
   2  -1   1  271.98    6.18
   2   1  -1  310.94    6.75
   2  -1   1  293.90    6.96
   2  -1   1  293.38    6.88
   2   1  -1  300.43    6.55
   2   1  -1  299.05    7.02
   2  -1   1  292.01    6.88
  -2  -1  -1  295.59    7.68
   2  -1   0  151.11    5.34
   2   1   0  157.61    5.18
   2   1   0  160.51    5.23
  -2   1   0  169.62    5.60
   2  -1   0  159.00    5.17
   2  -1   0  167.88    5.10
  -2   1   0  161.23    5.74
  -2  -1   0  155.18    5.07
  -2   1   0  160.71    5.35
   2   1   0  160.68    5.09
   2  -1   0  162.73    5.62
   2   1   0  157.36    5.25
  -2  -1   0  158.64    4.99
  -2  -1   0  158.37    5.06
  -2   1   0  162.51    5.85
  -2   1  -1  288.86    7.30
  -2   1  -1  310.91    6.68
   2   1   1  304.65    7.92
  -2  -1   1  319.26    6.73
  -2   1  -1  313.89    6.47
   2   1   1  281.89    7.66
  -2  -1   1  289.26    6.56
  -2   1  -1  287.30    7.28
  -2  -1   1  301.86    7.03
  -2   1  -1  304.05    7.41
   2   1   1  306.38    8.09
  -2   1  -2 1826.02   17.76
  -2  -1   2 1822.46   18.34
  -2   1  -2 1884.18   17.89
  -2  -1   2 1850.80   17.18
  -2  -1   2 1879.72   18.60
  -2  -1   2 1878.43   15.41
  -2   1  -2 1870.75   17.84
  -2  -1   2 1863.06   16.27
  -2   1  -2 1925.34   19.10
  -2  -1   3  272.83    6.38
  -2  -1   3  266.24    6.91
  -2  -1   3  261.83    7.85
  -2  -1   3  265.31    7.13
  -2   1  -3  276.54    6.59
  -2   1  -3  268.54    7.03
  -2   1  -3  275.67    7.57
  -2   1  -3  265.93    6.75
  -2  -1   3  257.30    7.77
  -2   1  -3  276.03    7.57
  -2   1  -3  275.04    6.14
  -2   1  -4    6.84    1.60
  -2  -1   4    4.21    1.81
  -2   1  -4    4.18    1.49
  -2   1  -4    6.83    1.69
  -2  -1   4    4.44    1.45
  -2  -1   4    7.82    1.90
  -2  -1   4    5.43    1.31
  -2   1  -4    6.27    1.62
  -2   1  -4    5.58    1.42
  -2  -1   5  559.49   13.51
  -2   1  -5  542.14   13.03
  -2   1  -5  514.56   11.19
  -2   1  -5  548.26   12.73
  -2   1  -5  558.29   10.64
  -2   1  -5  552.35   13.25
  -2  -1   5  547.78   13.79
  -2   1  -6  182.69    7.59
  -2   1  -6  171.81    7.94
  -2  -1   6  164.64    8.53
  -2   1  -6  169.70    8.11
  -2   1  -7    6.41    2.41
  -2   1  -7    4.08    1.90
   2   2  -8   84.41    7.19
   2  -2   8   93.93    7.11
   2   2  -8   90.68    7.21
   2   2  -7  130.90    7.98
   2   2  -7  132.67    7.93
   2  -2   7  130.65    7.96
   2   2  -7  138.29    8.22
   2  -2   7  134.69    7.45
   2   2  -6   18.00    2.79
   2  -2   6   15.01    2.80
   2   2  -6   13.58    2.93
   2   2  -6   18.73    3.06
   2   2  -6   16.03    2.92
   2  -2   6   14.30    2.80
   2   2  -5  189.30    7.78
   2   2  -5  198.65    7.04
   2   2  -5  181.30    7.44
   2  -2   5  188.10    7.27
   2   2  -5  205.79    8.27
   2  -2   5  198.87    7.56
   2   2  -5  182.99    6.69
   2  -2   4  285.88    8.90
   2  -2   4  315.84    7.48
   2   2  -4  310.74    8.44
   2   2  -4  296.80    8.77
   2  -2   4  295.31    8.42
   2   2  -4  296.53    8.74
   2   2  -4  314.07    9.37
   2  -2   4  307.90    8.40
   2  -2   4  324.30    7.88
   2   2  -4  314.14    7.41
   2  -2   4  315.75    8.98
   2  -2   3   83.60    3.95
   2  -2   3   77.91    3.76
   2   2  -3   72.78    3.99
   2  -2   3   71.86    4.32
   2  -2   3   75.29    3.95
   2   2  -3   77.18    3.40
   2   2  -3   77.94    4.47
   2  -2   3   76.39    4.41
   2   2  -3   72.75    4.09
   2   2  -3   74.27    4.18
   2  -2   2   72.68    3.86
   2   2  -2   66.36    4.02
   2   2  -2   70.08    3.46
   2   2  -2   65.57    3.88
   2  -2   2   65.80    3.90
   2   2  -2   73.24    3.67
   2  -2   2   73.01    4.01
   2   2  -2   69.26    3.29
   2  -2   2   73.29    3.72
   2   2  -2   72.15    4.00
   2   2  -1  686.46   12.50
   2   2  -1  658.70   11.33
   2   2  -1  682.67   11.20
   2  -2   1  656.95   11.89
   2   2  -1  665.67   12.80
   2   2  -1  657.53   11.82
  -2   2  -1  677.25   13.78
  -2  -2   1  657.40   11.54
  -2  -2   1  679.04   10.79
  -2  -2   1  674.17   11.41
  -2   2  -2   74.65    4.41
  -2   2  -2   75.28    4.31
  -2   2  -2   68.39    3.99
  -2  -2   2   76.38    3.78
  -2   2  -2   73.65    3.74
  -2  -2   2   72.54    3.42
  -2  -2   2   69.87    3.35
  -2  -2   2   71.79    3.91
  -2   2  -2   69.02    3.83
  -2   2  -3   75.03    4.49
  -2   2  -3   81.33    4.05
  -2  -2   3   81.51    4.32
  -2  -2   3   82.91    3.59
  -2  -2   3   79.85    3.30
  -2  -2   3   72.16    2.96
  -2   2  -3   76.28    4.19
  -2   2  -3   69.61    3.94
  -2   2  -3   82.78    4.75
  -2   2  -3   82.63    4.17
  -2  -2   3   77.43    4.38
  -2   2  -4  303.89    9.04
  -2   2  -4  305.74    7.91
  -2   2  -4  314.10    8.67
  -2   2  -4  299.61    8.34
  -2  -2   4  319.55    6.99
  -2  -2   4  316.77    9.65
  -2  -2   4  328.06    9.18
  -2   2  -4  308.43    7.83
  -2  -2   4  315.28    8.98
  -2  -2   4  318.94    6.31
  -2   2  -4  319.29    9.61
  -2   2  -5  183.54    7.51
  -2  -2   5  194.34    7.75
  -2  -2   5  195.55    8.07
  -2   2  -5  184.42    7.08
  -2   2  -5  191.56    7.56
  -2   2  -5  178.42    7.79
  -2  -2   5  191.32    8.26
  -2   2  -6   13.87    2.48
  -2   2  -6   13.99    2.62
  -2  -2   6   17.69    3.18
  -2   2  -6   15.20    2.86
  -2   2  -6   10.23    2.58
  -2  -2   6   16.89    3.61
  -2  -2   6   16.14    2.98
  -2  -2   7  122.66    7.93
  -2   2  -7  140.22    8.01
  -2  -2   7  132.46    8.65
  -2   2  -7  126.20    7.64
  -2   2  -7  134.55    7.41
  -2   2  -7  136.62    8.11
  -2   2  -8   86.81    7.13
  -2   2  -8   83.98    6.59
  -2   2  -8   87.59    7.18
  -2   2  -9   15.13    3.70
   2   3 -10    1.45    3.85
   2  -3  10    9.08    4.92
   2  -3  10   -2.48    5.27
   2   3 -10    1.25    3.96
   2   3  -9   22.25    4.47
   2   3  -9   11.80    4.02
   2  -3   9   50.50    7.00
   2  -3   9   69.30    8.21
   2   3  -9   22.51    4.93
   2  -3   8   13.83    3.87
   2  -3   8   13.62    3.95
   2   3  -8   12.40    3.62
   2   3  -8   12.98    3.84
   2  -3   8   17.51    4.28
   2   3  -8   10.97    3.62
   2  -3   7   47.23    5.13
   2   3  -7   47.82    5.28
   2  -3   7   47.18    4.59
   2  -3   7   40.56    5.20
   2   3  -7   39.69    4.85
   2  -3   7   46.30    5.07
   2   3  -7   45.30    5.27
   2  -3   6   31.44    3.93
   2   3  -6   31.69    3.84
   2   3  -6   36.52    4.25
   2  -3   6   32.38    4.20
   2   3  -6   29.44    4.00
   2  -3   6   34.38    3.81
   2  -3   6   31.43    4.11
   2   3  -5    6.79    2.27
   2  -3   5    5.32    2.02
   2   3  -5    8.72    2.15
   2  -3   5   10.72    2.95
   2   3  -5    5.00    2.12
   2   3  -5    9.78    2.37
   2  -3   5    6.18    1.94
   2  -3   4  131.77    5.01
   2  -3   4  118.54    6.25
   2   3  -4  121.07    5.77
   2   3  -4  124.53    6.65
   2   3  -4  131.21    5.03
   2   3  -4  126.73    6.46
   2  -3   4  120.21    5.99
   2  -3   4  122.09    6.05
   2   3  -4  118.34    6.43
   2   3  -3  254.72    6.40
   2   3  -3  244.79    9.18
   2   3  -3  238.80    8.36
   2  -3   3  249.91    7.09
   2  -3   3  252.71    8.46
   2   3  -3  241.40    8.95
   2  -3   3  242.04    8.24
   2   3  -3  249.83    6.62
   2   3  -3  241.70    8.11
   2   3  -2  284.81    9.49
   2   3  -2  261.13    9.23
   2   3  -2  262.99    9.49
   2   3  -2  272.84    7.73
  -2  -3   2  283.04    7.30
  -2   3  -2  269.22   10.63
  -2  -3   2  281.14    8.40
  -2   3  -2  294.45   10.93
  -2   3  -3  234.78    9.01
  -2   3  -3  236.32    8.41
  -2  -3   3  250.67    7.88
  -2  -3   3  254.01    8.40
  -2  -3   3  268.22    6.32
  -2   3  -3  228.65    8.98
  -2   3  -3  245.24    7.79
  -2   3  -4  124.78    6.57
  -2  -3   4  131.53    6.48
  -2   3  -4  131.75    5.36
  -2  -3   4  122.40    5.10
  -2   3  -4  123.32    6.31
  -2   3  -4  124.79    6.80
  -2   3  -4  124.12    6.80
  -2  -3   4  128.83    6.02
  -2  -3   5    6.46    2.07
  -2   3  -5   10.51    2.72
  -2  -3   5    5.02    2.54
  -2   3  -5    6.65    2.11
  -2  -3   5    7.55    2.38
  -2   3  -5    7.99    2.41
  -2  -3   5    8.85    2.64
  -2   3  -5    6.12    2.18
  -2   3  -6   32.59    3.78
  -2  -3   6   31.76    4.35
  -2   3  -6   36.24    4.00
  -2   3  -6   31.05    3.89
  -2  -3   6   35.05    4.54
  -2  -3   6   37.03    4.48
  -2   3  -6   34.26    4.23
  -2  -3   7   45.94    5.14
  -2   3  -7   47.78    4.89
  -2   3  -7   43.34    4.92
  -2  -3   7   40.99    5.09
  -2   3  -7   51.83    5.47
  -2   3  -7   46.13    4.78
  -2   3  -8   20.30    4.02
  -2  -3   8   19.13    4.39
  -2   3  -8   18.65    4.17
  -2  -3   8   16.17    4.72
  -2   3  -8   15.58    3.83
  -2  -3   9   32.57    6.16
  -2   3  -9   29.37    5.48
  -2  -3   9   23.27    5.71
  -2   3 -10    9.86    4.06
  -2   3 -10    6.66    4.02
   2   4 -11   -3.04    4.72
   2  -4  11    0.55    5.70
   2   4 -10   24.38    5.64
   2  -4  10   26.49    5.93
   2   4 -10   29.11    6.30
   2  -4  10   15.81    5.46
   2   4 -10   11.88    3.79
   2  -4  10   32.67    6.41
   2  -4   9   34.46    5.87
   2   4  -9   37.10    5.87
   2   4  -9   34.73    6.06
   2  -4   9   40.39    6.37
   2   4  -9   26.39    4.87
   2  -4   9   36.30    5.96
   2  -4   8   18.28    4.20
   2  -4   8    8.57    3.51
   2  -4   8   15.96    4.30
   2   4  -8   19.12    4.33
   2   4  -8   12.50    4.20
   2   4  -8   14.92    4.29
   2  -4   7  162.72    9.15
   2  -4   7  163.90    9.22
   2   4  -7  150.10    9.11
   2  -4   7  161.13    9.10
   2   4  -7  174.91   10.11
   2   4  -6    2.60    2.86
   2  -4   6   -1.35    2.69
   2  -4   6   -2.73    2.96
   2   4  -6    0.99    2.61
   2   4  -6    4.48    2.89
   2  -4   6    4.74    2.47
   2   4  -5   61.30    5.55
   2   4  -5   63.70    5.01
   2   4  -5   61.80    5.85
   2  -4   5   64.96    5.41
   2  -4   5   61.68    5.32
   2   4  -5   64.23    5.63
   2  -4   5   64.52    5.07
   2  -4   4  126.10    6.85
   2   4  -4  132.89    8.29
   2   4  -4  132.72    7.86
   2   4  -4  106.12    6.94
   2   4  -3   79.64    6.24
   2   4  -3   75.91    6.38
   2   4  -3   84.35    6.66
  -2  -4   3   85.06    5.03
  -2   4  -4  123.32    7.55
  -2  -4   4  135.49    7.22
  -2  -4   4  130.53    6.23
  -2   4  -4  115.74    7.75
  -2   4  -5   49.86    5.04
  -2  -4   5   56.11    4.67
  -2  -4   5   62.47    5.46
  -2   4  -5   60.98    5.48
  -2   4  -5   57.59    5.80
  -2   4  -5   55.69    5.98
  -2   4  -6    2.16    2.92
  -2   4  -6   -1.28    2.47
  -2   4  -6    5.56    3.29
  -2  -4   6    1.47    2.94
  -2  -4   6   -3.49    3.05
  -2  -4   6    2.81    3.21
  -2   4  -6   -3.30    2.76
  -2   4  -7  161.65    9.45
  -2  -4   7  172.68    9.74
  -2  -4   7  170.35    9.62
  -2  -4   7  161.60    9.79
  -2   4  -7  161.20    9.41
  -2   4  -7  144.77    9.31
  -2   4  -8   17.19    4.24
  -2  -4   8   13.32    4.47
  -2   4  -8   15.04    4.22
  -2  -4   8   13.93    4.77
  -2  -4   8   16.79    4.04
  -2   4  -8   10.71    3.64
  -2  -4   9   44.18    6.76
  -2   4  -9   27.70    4.92
  -2  -4   9   33.18    5.97
  -2  -4   9   34.13    5.96
  -2   4  -9   32.69    5.38
  -2   4  -9   30.65    5.50
  -2   4 -10   30.11    5.91
  -2  -4  10   22.26    5.35
  -2  -4  10   25.92    6.17
  -2  -4  10   23.32    5.68
  -2   4 -10   21.28    5.24
  -2   4 -10   19.21    5.23
  -2   4 -11    6.71    4.54
  -2   4 -11    2.09    3.66
   2   5 -10   -1.42    4.30
   2  -5  10    1.64    4.88
   2  -5  10    8.29    5.14
   2   5 -10    4.94    4.57
   2  -5  10   -0.21    4.34
   2   5 -10   10.73    4.71
   2  -5   9    3.46    4.00
   2   5  -9    3.50    3.89
   2  -5   9    5.24    4.04
   2  -5   9    6.16    3.75
   2   5  -9    4.39    4.32
   2   5  -9    2.93    3.85
   2   5  -8   12.65    4.48
   2  -5   8    8.24    3.59
   2  -5   8   16.29    5.11
   2  -5   8   19.45    4.86
   2   5  -8   17.20    4.87
   2   5  -8   11.43    4.44
   2   5  -7   17.42    5.03
   2   5  -7   11.48    4.03
   2  -5   7   17.62    4.57
   2  -5   7   14.80    4.26
   2   5  -7   19.76    4.56
   2   5  -6   31.99    5.60
   2  -5   6   34.33    4.65
   2   5  -6   32.74    5.08
   2   5  -6   25.13    4.88
   2   5  -5   69.86    8.16
   2   5  -5   52.85    6.38
   2  -5   5   66.81    6.08
   2   5  -5   58.02    6.45
  -2   5  -5   49.75    6.03
  -2   5  -5   61.28    7.51
  -2   5  -5   65.53    7.18
  -2   5  -6   37.94    7.23
  -2   5  -6   34.40    5.34
  -2  -5   6   33.28    4.77
  -2   5  -6   34.74    6.04
  -2   5  -7   13.26    3.97
  -2   5  -7   12.16    4.74
  -2  -5   7   17.16    4.34
  -2  -5   7   15.91    4.32
  -2  -5   7   17.79    4.63
  -2   5  -7   15.16    4.32
  -2  -5   8   15.91    4.41
  -2   5  -8    7.82    4.05
  -2  -5   8   20.12    5.19
  -2   5  -8   15.79    4.77
  -2  -5   8    9.77    4.10
  -2   5  -8   12.14    4.23
  -2   5  -9    0.11    3.75
  -2  -5   9   10.90    4.56
  -2  -5   9   -0.68    3.67
  -2  -5   9    3.66    3.99
  -2   5  -9   10.16    4.43
  -2   5  -9    2.29    3.94
  -2   5 -10   -4.45    5.06
  -2  -5  10    2.64    4.84
  -2  -5  10    5.96    4.51
  -2   5 -10    6.15    4.55
  -2  -5  10   -0.31    4.63
  -2   5 -10   -0.47    4.27
  -2   5 -11    8.31    5.15
  -2   5 -11    6.03    4.87
   2   6 -10    6.17    5.62
   2  -6  10    5.28    4.99
   2   6 -10    2.69    5.31
   2   6  -9   13.57    5.10
   2   6  -9    8.91    5.74
   2  -6   9   22.86    5.76
   2  -6   9   30.99    6.00
   2   6  -9   23.57    7.21
   2  -6   9   20.64    4.79
   2  -6   8   33.20    5.67
   2   6  -8   25.91    6.50
   2  -6   8   41.31    5.91
   2   6  -8   39.71    6.76
   2   6  -8   29.79    7.28
   2   6  -7  117.24   12.24
   2   6  -7   95.92    9.51
   2   6  -7  102.52   10.55
   2   6  -6  116.78   11.40
  -2   6  -7   80.92    9.44
  -2   6  -7   96.68   11.00
  -2  -6   8   30.68    6.02
  -2  -6   8   42.88    6.14
  -2  -6   8   45.02    6.62
  -2   6  -8   40.73    7.25
  -2   6  -8   32.01    7.15
  -2  -6   9   19.72    5.95
  -2  -6   9   22.32    6.24
  -2   6  -9   10.21    4.86
  -2  -6   9   22.09    5.89
  -2   6  -9   23.38    6.72
  -2   6  -9   18.31    6.77
  -2   6 -10   -0.53    5.15
  -2   6 -10    7.84    5.82
  -2   6 -10    1.67    5.00
   2   7  -9    1.94    7.44
  -2  -7   9   -3.91    5.54
  -3   0   0   -0.07    0.94
   3   0   0    2.61    1.41
   3   0   0    0.72    1.42
  -3   0   0   -0.19    0.77
   3   0   0   -0.08    0.75
   3   0   0   -0.57    0.85
   3   0   0    0.14    0.72
  -3   0   0   -0.93    1.22
  -3   0   0    0.84    1.14
  -3   0   0   -0.44    1.41
   3   0   0   -0.09    1.03
   3   0  -1 1228.02   16.86
  -3   0   1 1219.30   14.80
  -3   0  -1 1177.47   15.59
   3   0  -1 1221.80   16.61
  -3   0   1 1247.22   18.01
   3   0  -1 1171.98   16.31
   3   0   1 1197.79   16.67
   3   0   1 1147.01   16.74
   3   0   1 1222.01   12.73
  -3   0  -1 1218.81   17.26
   3   0   1 1185.06   15.38
   3   0  -1 1220.50   14.30
  -3   0  -1 1223.36   15.15
  -3   0   1 1221.34   17.81
  -3   0   1 1229.08   17.36
  -3   0  -1 1163.11   16.68
  -3   0   1 1193.10   14.90
  -3   0  -1 1214.40   10.71
   3   0  -1 1205.43   14.86
   3   0   1 1227.88   15.87
  -3   0  -1 1206.25   12.63
  -3   0   2  326.41    7.67
   3   0   2  316.42    9.02
   3   0   2  305.99    9.02
   3   0  -2  340.19    9.33
   3   0  -2  318.80    9.19
   3   0   2  319.75    8.32
  -3   0  -2  313.03    8.60
  -3   0  -2  309.67    8.80
  -3   0  -2  326.94    9.08
  -3   0   2  324.93    9.77
  -3   0   2  345.63   10.22
  -3   0  -2  328.38    7.58
  -3   0   2  311.78    8.81
   3   0  -2  315.49    8.32
   3   0   2  326.36    9.11
   3   0  -2  316.92    6.54
  -3   0  -2  329.43    7.81
   3   0  -2  335.17    9.08
  -3   0   2  329.69    9.55
  -3   0   3  958.94   14.19
  -3   0  -3  943.22   16.12
   3   0  -3  969.53   16.95
   3   0   3  994.36   16.65
   3   0   3  927.71   16.92
  -3   0  -3 1006.34   16.43
  -3   0   3  969.58   18.28
  -3   0  -3  962.05   16.16
  -3   0   3 1020.13   17.56
   3   0  -3  978.39   16.45
  -3   0  -3 1021.31   13.30
   3   0   3  979.02   17.03
  -3   0  -3  910.98   14.84
   3   0  -3 1010.88   16.58
  -3   0   3  974.18   17.06
   3   0  -3  952.22   13.89
   3   0  -4 1371.88   21.56
  -3   0  -4 1397.07   21.31
   3   0  -4 1344.85   21.37
   3   0   4 1323.00   22.54
  -3   0  -4 1374.65   15.36
   3   0   4 1356.88   20.58
  -3   0  -4 1367.71   21.07
   3   0   4 1387.22   22.31
  -3   0  -4 1353.86   19.89
  -3   0  -5  136.87    7.24
  -3   0  -5  125.90    5.41
   3   0   5  118.96    6.38
  -3   0  -5  132.92    6.59
   3   0   5  133.21    7.41
   3  -1   7   29.73    4.67
   3   1  -6   96.55    6.41
   3   1  -6   98.96    6.45
   3   1  -6   93.64    6.68
   3  -1   6   94.67    6.94
   3   1  -5   13.55    2.62
   3  -1   5   11.86    2.34
   3   1  -5   17.02    3.03
   3  -1   5   14.70    2.75
   3   1  -5   13.06    2.63
   3  -1   5   18.57    3.36
   3   1  -4  322.72    8.57
   3  -1   4  331.58    9.37
   3   1  -4  335.63   10.16
   3   1  -4  336.82    9.24
   3  -1   4  326.50   10.17
   3   1  -4  327.53   10.18
   3  -1   4  325.85   10.10
   3   1  -4  327.78    9.87
   3   1  -3  223.26    7.58
   3  -1   3  223.75    7.53
   3  -1   3  231.31    7.91
   3   1  -3  228.16    7.89
   3   1  -3  239.46    6.78
   3  -1   3  243.57    6.05
   3   1  -3  233.12    7.15
   3  -1   3  223.61    5.96
   3   1  -3  223.83    7.69
   3  -1   3  224.80    7.97
   3  -1   3  232.60    6.41
   3   1  -3  221.92    6.94
   3   1  -2  160.18    6.17
   3  -1   2  162.73    6.38
   3   1  -2  163.50    6.03
  -3  -1  -2  140.95    6.13
   3  -1   2  172.28    6.61
   3   1  -2  161.31    4.97
  -3  -1  -2  154.69    6.69
   3  -1   2  163.07    5.30
   3   1  -2  155.73    4.80
   3  -1   2  162.42    5.79
  -3  -1  -2  158.74    7.04
   3   1  -2  162.88    6.25
   3   1  -2  160.96    4.92
   3  -1   2  156.90    6.44
   3   1  -2  156.35    6.34
   3  -1   2  148.39    4.63
   3  -1   1   58.52    3.91
   3  -1   1   51.28    3.72
  -3  -1  -1   56.75    3.59
   3   1  -1   53.64    3.63
   3   1  -1   59.06    3.86
   3  -1   1   54.31    3.22
   3   1  -1   52.86    3.69
   3  -1   1   60.30    3.46
  -3   1   1   52.32    4.29
  -3   1   1   55.56    4.17
   3   1  -1   57.74    3.48
  -3  -1  -1   54.97    3.75
  -3   1   1   56.15    4.07
   3  -1   1   58.24    3.79
   3   1  -1   60.01    3.04
  -3  -1  -1   57.63    3.69
  -3  -1  -1   60.99    4.14
  -3   1   1   50.11    4.11
  -3   1   0  359.33    9.57
   3  -1   0  369.88    9.80
  -3  -1   0  386.24    8.23
   3   1   0  374.56    9.65
   3   1   0  390.98    9.84
   3  -1   0  365.92    8.96
   3   1   0  369.45    8.84
  -3   1   0  336.19    9.15
   3   1   0  376.29    9.54
  -3   1   0  365.48   10.27
  -3  -1   0  367.83    9.05
  -3  -1   0  390.05    9.72
   3  -1   0  364.85    6.87
   3  -1   0  370.67    9.21
   3   1   0  388.71    8.42
  -3   1   0  372.50    7.85
  -3  -1   0  373.53    9.30
   3  -1   0  366.72    9.88
  -3   1   0  360.38   10.35
   3  -1  -1   53.73    4.01
  -3   1  -1   61.98    4.13
  -3  -1   1   56.72    2.87
  -3   1  -1   58.27    4.20
   3   1   1   51.72    3.93
   3  -1  -1   56.30    3.91
  -3  -1   1   56.70    3.75
   3   1   1   54.58    3.84
  -3   1  -1   59.81    3.39
  -3  -1   1   56.50    2.32
  -3   1  -1   55.50    4.12
  -3   1  -1   59.12    3.64
  -3  -1   1   57.59    3.96
  -3  -1   1   52.15    3.65
   3   1   1   57.14    3.85
   3   1   1   59.11    4.14
   3  -1  -1   62.76    4.47
  -3   1  -2  157.66    6.62
   3   1   2  156.93    7.13
  -3  -1   2  156.31    6.13
   3   1   2  154.75    7.12
  -3  -1   2  154.73    4.85
  -3  -1   2  173.58    7.03
  -3  -1   2  150.12    6.64
  -3   1  -2  161.12    5.36
  -3   1  -2  169.57    6.80
  -3  -1   2  139.11    5.98
   3   1   2  149.92    6.73
  -3   1  -2  159.02    5.92
  -3   1  -2  165.45    6.80
  -3   1  -3  225.88    8.03
  -3  -1   3  223.90    7.36
  -3   1  -3  238.72    6.29
  -3   1  -3  242.23    5.95
  -3  -1   3  231.38    7.02
  -3  -1   3  231.81    8.04
  -3  -1   3  231.86    8.53
  -3   1  -3  232.62    5.84
  -3   1  -3  229.90    7.82
  -3  -1   3  233.44    8.19
  -3   1  -3  222.20    7.65
  -3   1  -3  226.07    7.56
  -3  -1   4  332.55    9.12
  -3   1  -4  317.20   10.04
  -3   1  -4  327.58    9.06
  -3   1  -4  323.26    7.71
  -3  -1   4  352.49   11.54
  -3   1  -4  314.04    9.54
  -3  -1   4  310.49   10.46
  -3   1  -4  293.78    8.90
  -3   1  -4  301.46    9.63
  -3   1  -5   14.98    2.67
  -3   1  -5   15.75    2.34
  -3  -1   5   16.85    3.49
  -3  -1   5   17.22    3.34
  -3   1  -5   15.45    2.74
  -3   1  -5   18.53    2.58
  -3   1  -5   14.52    2.78
  -3   1  -6   91.26    6.56
  -3  -1   6   90.53    7.07
  -3   1  -6   97.25    5.53
  -3   1  -6  100.04    6.78
  -3   1  -7   23.55    3.73
   3  -2   9   30.65    5.83
   3   2  -8   16.67    3.79
   3   2  -8   17.22    4.24
   3  -2   8   20.03    4.38
   3   2  -7   98.58    6.63
   3   2  -7   98.25    7.43
   3   2  -7  109.31    7.47
   3   2  -7  103.24    7.62
   3  -2   7   93.58    6.94
   3   2  -6  221.56    9.15
   3   2  -6  207.77    9.07
   3  -2   6  212.88    8.93
   3  -2   6  207.61    9.62
   3   2  -6  213.98    9.91
   3  -2   6  204.92    9.34
   3   2  -6  209.10    9.58
   3   2  -5   24.48    3.26
   3   2  -5   25.88    3.26
   3  -2   5   27.10    3.32
   3  -2   5   28.53    3.84
   3  -2   5   21.44    2.91
   3  -2   5   25.60    3.18
   3   2  -5   21.94    3.22
   3   2  -5   21.18    3.12
   3  -2   5   21.39    3.34
   3  -2   4   17.75    2.99
   3   2  -4   17.43    2.35
   3   2  -4   15.81    2.48
   3  -2   4   15.03    2.53
   3   2  -4   15.30    2.55
   3  -2   4   13.28    2.23
   3  -2   4   19.29    2.43
   3  -2   4   15.96    2.27
   3   2  -4   14.36    2.29
   3   2  -4   20.11    2.97
   3  -2   4   15.40    2.83
   3  -2   3 1033.51   16.24
   3   2  -3  952.76   14.93
   3  -2   3  894.54   15.35
   3   2  -3  964.50   16.87
   3   2  -3  980.39   14.88
   3   2  -3 1006.05   15.80
   3  -2   3  959.80   14.60
   3  -2   3  987.51   16.56
   3   2  -3  974.66   14.77
   3   2  -3  982.08   17.32
   3  -2   3 1014.41   17.24
   3  -2   2  434.76   10.56
   3  -2   2  414.28   10.58
   3   2  -2  409.82   10.88
   3   2  -2  397.24    9.71
   3  -2   2  380.19    7.79
   3  -2   2  427.85   10.90
   3   2  -2  411.75    8.70
   3   2  -2  398.92   10.05
   3   2  -2  419.77   11.02
   3  -2   2  427.55   10.47
   3   2  -2  416.77   10.06
   3  -2   1   44.66    3.79
   3   2  -1   36.07    3.27
   3  -2   1   35.28    2.85
   3   2  -1   33.70    3.26
   3   2  -1   34.14    2.38
   3  -2   1   36.72    3.32
   3   2  -1   37.72    3.69
   3   2  -1   34.83    2.48
   3   2  -1   33.25    3.22
   3  -2   1   36.81    3.42
   3   2   0  333.20    9.83
   3   2   0  339.65   10.34
  -3  -2   0  346.16    9.49
  -3  -2   0  341.91    9.43
  -3  -2   0  357.07    9.73
   3   2   0  355.53   10.35
   3  -2   0  386.82   11.82
  -3   2  -1   38.77    3.82
  -3  -2   1   35.47    3.39
  -3   2  -1   37.00    3.76
  -3  -2   1   37.44    3.25
  -3  -2   1   37.82    3.30
  -3   2  -1   40.10    3.39
  -3   2  -1   38.45    3.78
  -3   2  -2  411.30   11.60
  -3   2  -2  392.99   10.89
  -3  -2   2  413.04    9.90
  -3   2  -2  426.59    8.37
  -3  -2   2  425.11    9.27
  -3   2  -2  408.16   11.07
  -3  -2   2  396.89    9.39
  -3  -2   2  417.97   10.93
  -3   2  -2  406.94   10.56
  -3   2  -3  961.26   17.88
  -3   2  -3 1000.43   14.02
  -3   2  -3  921.11   16.36
  -3  -2   3  984.93   14.39
  -3  -2   3  981.43   14.69
  -3  -2   3 1045.49   15.78
  -3   2  -3 1014.81   17.29
  -3  -2   3  996.05   15.59
  -3  -2   3 1036.30   17.63
  -3  -2   3 1026.98   17.74
  -3   2  -3  956.59   17.74
  -3   2  -3 1009.39   17.47
  -3   2  -4   13.70    2.79
  -3  -2   4   15.80    2.14
  -3   2  -4   13.66    2.52
  -3   2  -4   14.34    2.35
  -3  -2   4   13.88    2.33
  -3   2  -4   17.12    2.70
  -3  -2   4   16.61    2.89
  -3  -2   4   16.50    3.13
  -3   2  -4   16.29    2.22
  -3   2  -4   14.09    2.52
  -3   2  -5   24.74    3.38
  -3   2  -5   22.40    2.97
  -3   2  -5   25.23    3.15
  -3  -2   5   21.08    3.15
  -3  -2   5   26.95    3.90
  -3  -2   5   20.17    3.59
  -3   2  -5   25.12    3.14
  -3   2  -5   25.43    3.58
  -3   2  -6  200.07    9.44
  -3   2  -6  211.30    9.21
  -3  -2   6  212.85    9.72
  -3  -2   6  208.91   10.10
  -3  -2   6  196.22    9.89
  -3   2  -6  216.06    8.59
  -3   2  -6  204.51    9.55
  -3   2  -7   92.30    7.24
  -3   2  -7  104.64    7.35
  -3  -2   7   98.96    8.25
  -3   2  -7   99.83    7.51
  -3   2  -8   15.67    3.71
  -3   2  -8   16.54    3.64
  -3   2  -9   26.60    5.06
   3  -3  10    0.81    5.42
   3   3  -9    6.73    3.85
   3  -3   9   10.04    4.54
   3   3  -9    6.84    4.42
   3   3  -8   15.97    3.87
   3   3  -8   11.65    4.05
   3  -3   8   12.88    3.82
   3   3  -8    8.24    3.62
   3  -3   8   16.49    4.03
   3  -3   8   22.51    5.27
   3   3  -7   10.58    3.21
   3   3  -7   12.26    3.47
   3  -3   7   10.83    3.62
   3  -3   7   19.96    3.89
   3   3  -7   12.01    3.53
   3  -3   7   13.88    3.55
   3   3  -6   75.68    6.09
   3   3  -6   84.61    6.47
   3   3  -6   87.23    6.11
   3  -3   6   84.44    5.87
   3  -3   6   82.80    6.07
   3  -3   6   81.40    6.42
   3   3  -6   94.29    7.05
   3  -3   6   82.81    6.25
   3   3  -5   34.72    3.94
   3   3  -5   43.05    4.26
   3   3  -5   45.09    4.61
   3  -3   5   44.38    4.01
   3  -3   5   41.74    4.17
   3  -3   5   43.36    4.87
   3   3  -5   42.34    4.68
   3  -3   5   39.72    4.29
   3   3  -4    6.41    2.17
   3   3  -4    7.90    2.61
   3   3  -4    4.87    2.09
   3  -3   4    5.46    1.87
   3  -3   4    4.23    2.07
   3  -3   4    5.56    2.58
   3   3  -4    4.16    2.22
   3  -3   4    9.42    2.82
   3   3  -3   98.77    5.09
   3   3  -3  101.12    5.56
   3   3  -3  104.48    6.16
   3  -3   3  101.79    5.41
   3   3  -3  108.47    6.48
   3  -3   3  109.65    6.23
   3   3  -3   95.76    6.40
   3  -3   3  110.83    6.12
   3  -3   2   26.45    3.04
   3   3  -2   29.04    3.55
   3   3  -2   28.61    3.10
   3   3  -2   20.93    3.28
   3   3  -2   26.22    2.94
   3  -3   2   28.61    3.33
   3   3  -1  309.77   11.15
   3   3  -1  304.90   10.11
  -3  -3   1  300.89    9.83
  -3  -3   1  294.42    8.95
  -3   3  -2   25.03    3.84
  -3  -3   2   31.81    3.02
  -3  -3   2   27.52    3.35
  -3   3  -2   25.78    3.57
  -3   3  -2   29.64    3.55
  -3   3  -2   26.11    3.76
  -3   3  -3   99.58    6.46
  -3   3  -3   97.78    5.93
  -3   3  -3  105.62    5.51
  -3  -3   3  110.06    5.79
  -3  -3   3   94.99    5.81
  -3  -3   3  103.52    5.08
  -3   3  -3  105.75    6.48
  -3   3  -4    4.17    2.35
  -3  -3   4    1.25    2.02
  -3   3  -4    2.66    2.63
  -3   3  -4    4.59    2.01
  -3  -3   4    5.94    2.94
  -3  -3   4    4.49    2.38
  -3   3  -4    5.39    1.91
  -3   3  -4    7.09    2.33
  -3   3  -4    5.59    2.69
  -3   3  -5   42.05    4.69
  -3   3  -5   41.28    4.00
  -3   3  -5   38.55    4.37
  -3  -3   5   43.08    4.44
  -3  -3   5   43.11    4.54
  -3   3  -5   43.53    4.83
  -3  -3   5   42.40    4.87
  -3  -3   5   45.71    4.68
  -3   3  -6   74.58    6.32
  -3   3  -6   85.28    6.06
  -3  -3   6   79.89    6.15
  -3   3  -6   89.02    6.45
  -3  -3   6   84.61    6.52
  -3  -3   6   86.09    6.76
  -3  -3   6   85.18    6.99
  -3   3  -6   77.06    6.49
  -3   3  -7    9.93    3.31
  -3  -3   7    9.72    3.33
  -3   3  -7    5.51    2.29
  -3  -3   7    7.56    3.88
  -3  -3   7    5.50    3.34
  -3   3  -7    8.94    3.07
  -3   3  -8   16.67    3.98
  -3   3  -8   11.38    3.69
  -3  -3   8   16.53    4.32
  -3  -3   8   22.60    5.23
  -3   3  -8   14.29    3.82
  -3  -3   9   -0.71    4.74
  -3   3  -9    2.79    3.61
  -3   3 -10   -4.88    3.85
   3   4 -10    6.47    5.04
   3   4 -10   -5.89    4.47
   3  -4  10    3.68    4.43
   3   4 -10   -2.50    4.03
   3   4  -9   21.98    4.81
   3   4  -9   32.93    6.12
   3   4  -9   25.65    5.64
   3  -4   9   29.02    6.19
   3   4  -8   29.29    5.10
   3  -4   8   38.94    5.97
   3   4  -8   40.40    6.24
   3   4  -8   41.74    6.15
   3  -4   8   33.09    5.59
   3   4  -7    4.27    3.00
   3  -4   7    2.15    3.21
   3  -4   7    1.23    3.41
   3   4  -7    8.51    3.69
   3   4  -7    7.23    3.51
   3  -4   7    6.48    2.79
   3   4  -6   50.61    5.59
   3   4  -6   51.86    5.94
   3  -4   6   46.50    4.72
   3  -4   6   49.99    5.40
   3  -4   6   51.80    5.59
   3  -4   6   51.18    5.20
   3   4  -6   52.51    5.85
   3   4  -5  107.81    7.22
   3   4  -5  118.17    8.24
   3   4  -5  104.22    6.67
   3  -4   5  111.42    7.34
   3   4  -5  105.28    7.65
   3  -4   5   92.70    6.37
   3  -4   4   55.17    5.18
   3   4  -4   63.09    6.48
   3   4  -4   49.07    4.85
   3   4  -4   61.72    5.40
   3  -4   4   63.36    5.22
   3   4  -4   67.65    6.20
   3   4  -3  320.56   12.19
   3   4  -3  320.64   11.58
   3   4  -3  326.20   13.03
   3  -4   3  326.77    9.96
  -3   4  -3  292.23   13.52
  -3   4  -3  302.15   13.84
  -3   4  -4   54.63    5.80
  -3   4  -4   63.51    5.47
  -3  -4   4   62.40    5.43
  -3  -4   4   61.47    5.24
  -3   4  -4   51.03    5.70
  -3   4  -5   98.28    7.33
  -3   4  -5  103.06    7.13
  -3  -4   5  121.46    7.44
  -3  -4   5  106.36    6.83
  -3  -4   5  113.15    7.76
  -3   4  -5  106.95    8.04
  -3   4  -6   48.59    5.75
  -3   4  -6   57.07    5.71
  -3   4  -6   40.04    5.75
  -3  -4   6   51.08    5.53
  -3  -4   6   51.44    5.65
  -3  -4   6   49.18    5.73
  -3   4  -6   45.11    5.72
  -3   4  -7    8.10    3.44
  -3  -4   7    4.55    2.91
  -3   4  -7    5.89    3.07
  -3  -4   7   10.57    3.52
  -3  -4   7    6.45    3.34
  -3   4  -7    4.30    3.36
  -3  -4   8   35.25    5.41
  -3  -4   8   37.60    5.82
  -3  -4   8   41.79    6.38
  -3   4  -8   38.23    5.47
  -3   4  -8   44.70    6.24
  -3  -4   9   33.17    6.38
  -3  -4   9   25.15    6.17
  -3  -4   9   24.81    6.06
  -3   4  -9   29.41    5.84
  -3  -4  10   -9.95    5.28
  -3  -4  10   -6.67    5.73
  -3   4 -10   -4.96    4.15
   3   5 -10    4.54    4.39
   3   5 -10    1.46    4.78
   3   5 -10    2.04    4.46
   3   5  -9   10.09    4.81
   3  -5   9   12.72    4.96
   3   5  -9    8.70    5.19
   3   5  -9    0.45    4.31
   3   5  -8    5.39    3.97
   3  -5   8    9.23    4.22
   3   5  -8    4.40    3.89
   3   5  -8   -1.37    3.81
   3  -5   8    4.25    4.06
   3   5  -7   34.60    5.91
   3   5  -7   31.63    5.75
   3  -5   7   38.39    5.52
   3   5  -7   39.79    6.39
   3  -5   7   25.90    4.24
   3   5  -6    5.56    3.39
   3   5  -6    7.63    4.48
   3   5  -6    2.40    2.95
   3  -5   6    2.73    2.87
   3   5  -5   41.63    7.75
   3   5  -5   38.31    5.55
   3   5  -5   43.55    5.91
   3   5  -4   37.29    5.67
   3   5  -4   38.60    5.69
  -3  -5   4   44.03    4.68
  -3   5  -5   41.04    6.24
  -3   5  -5   38.75    5.51
  -3  -5   5   47.16    5.25
  -3   5  -5   42.62    6.66
  -3   5  -6    3.25    3.56
  -3   5  -6    8.48    3.77
  -3  -5   6    1.28    3.67
  -3  -5   6    7.70    3.99
  -3   5  -6    6.41    4.23
  -3  -5   7   39.88    5.87
  -3   5  -7   36.38    5.80
  -3  -5   7   39.52    5.73
  -3  -5   7   42.08    6.16
  -3   5  -7   28.60    5.95
  -3   5  -8   10.93    4.49
  -3  -5   8    3.62    3.55
  -3  -5   8    2.13    3.42
  -3  -5   8    4.16    4.05
  -3   5  -8    7.25    4.45
  -3  -5   9   13.28    5.01
  -3  -5   9    9.45    4.37
  -3  -5   9    3.97    4.52
  -3   5  -9    3.28    4.20
  -3  -5  10    1.01    4.44
  -3  -5  10    9.22    5.71
  -3   5 -10   -0.52    4.82
   3   6 -10   10.56    6.14
   3   6  -9   -1.60    4.57
   3   6  -9   -4.31    5.13
   3   6  -9    2.55    4.77
   3  -6   8   17.37    5.47
   3   6  -8    0.16    4.65
   3   6  -8    9.03    5.76
   3   6  -8    7.16    5.32
   3   6  -7  102.26    9.95
   3   6  -7   94.35   10.12
   3   6  -6   41.44    7.46
  -3   6  -7   95.65   10.10
  -3  -6   7  119.78    9.15
  -3  -6   7  115.88    9.49
  -3   6  -7   94.19   10.96
  -3  -6   8   14.33    5.11
  -3  -6   8    7.86    4.91
  -3   6  -8    1.70    4.16
  -3  -6   8    4.46    4.47
  -3   6  -8    7.47    5.70
  -3  -6   9    7.28    4.99
  -3  -6   9   -5.10    5.09
  -3  -6   9    2.99    5.02
  -3   6  -9   -1.00    4.73
  -4   0   0    2.13    1.48
   4   0   0    3.09    1.60
   4   0   0    6.59    2.15
  -4   0   0    2.21    1.24
  -4   0   0    0.88    1.63
   4   0   0    2.04    1.13
   4   0   0    2.12    2.04
  -4   0   0   -0.20    2.13
  -4   0   0    2.18    1.86
   4   0   0    3.08    1.70
  -4   0   1  350.37    9.48
   4   0  -1  349.45   10.66
   4   0  -1  366.08   10.70
  -4   0  -1  354.59   10.08
   4   0   1  373.66   10.99
  -4   0   1  366.45   11.36
   4   0   1  379.29   11.28
   4   0  -1  354.24   10.47
   4   0   1  351.78   10.02
  -4   0  -1  365.32   11.03
  -4   0   1  347.15   11.30
  -4   0   1  331.67   10.56
  -4   0  -1  358.58   11.17
  -4   0  -1  353.57    9.77
   4   0   1  357.02    8.06
  -4   0   1  353.39    9.26
   4   0  -1  378.17    9.29
   4   0  -1  347.07    9.55
   4   0   1  355.89   10.13
  -4   0  -1  336.14    7.69
   4   0  -2 1378.19   21.01
  -4   0   2 1317.91   18.01
   4   0  -2 1391.05   21.52
  -4   0  -2 1307.52   20.01
  -4   0   2 1302.12   22.12
   4   0   2 1320.42   21.33
   4   0   2 1380.27   21.99
   4   0  -2 1399.16   21.58
   4   0   2 1362.70   20.13
  -4   0   2 1328.87   22.45
  -4   0   2 1449.45   23.51
  -4   0  -2 1340.97   21.53
  -4   0   2 1360.94   20.31
  -4   0  -2 1322.48   20.98
  -4   0  -2 1372.64   18.73
   4   0  -2 1368.33   19.04
   4   0   2 1374.90   20.97
  -4   0  -2 1386.75   17.89
  -4   0   3 2340.54   30.71
  -4   0  -3 2413.99   28.90
   4   0   3 2363.62   29.59
   4   0   3 2327.67   30.27
   4   0  -3 2300.75   29.73
   4   0   3 2339.30   29.05
  -4   0   3 2444.84   33.43
  -4   0   3 2509.44   32.94
  -4   0  -3 2244.12   27.81
  -4   0  -3 2247.13   23.44
  -4   0  -3 2527.90   29.84
   4   0  -3 2377.90   27.89
   4   0   3 2426.62   29.87
  -4   0  -3 2406.35   26.22
  -4   0   3 2358.31   29.69
   4   0  -3 2422.65   28.83
  -4   0  -4    7.45    2.48
   4   0  -4    9.55    2.45
   4   0  -4    7.22    2.54
   4   0   4    8.02    2.82
  -4   0   4   13.41    3.44
  -4   0   4    5.12    2.54
   4   0  -4    8.16    2.40
  -4   0  -4    7.22    2.45
   4   0   4    5.71    2.28
  -4   0  -4    7.99    2.50
   4   0   4    6.56    2.68
  -4   0  -4    5.87    2.12
  -4   0  -5  144.72    8.14
   4   0   5  141.75    7.91
  -4   0  -5  142.04    7.80
   4   0   5  151.16    8.86
   4  -1   7   59.27    6.86
   4   1  -6  164.81    9.38
   4   1  -6  157.58    8.39
   4   1  -6  161.39    9.30
   4  -1   6  162.82    9.50
   4   1  -5    2.97    2.19
   4   1  -5    4.40    2.19
   4  -1   5    4.05    2.56
   4   1  -5    6.06    2.64
   4  -1   5    5.29    2.57
   4  -1   5    7.17    3.25
   4   1  -4   72.70    4.97
   4  -1   4   67.50    5.25
   4  -1   4   69.52    5.54
   4   1  -4   69.66    5.44
   4  -1   4   69.11    5.24
   4   1  -4   71.58    5.50
   4  -1   4   69.13    5.65
  -4  -1  -3    3.22    2.03
   4   1  -3    4.64    2.23
  -4  -1  -3    3.14    1.86
   4   1  -3    1.19    1.80
   4  -1   3    3.16    2.33
   4   1  -3    4.58    1.97
   4  -1   3    4.21    1.91
   4  -1   3    1.95    1.75
  -4  -1  -3    5.04    2.08
   4   1  -3    6.72    2.26
  -4  -1  -3    2.56    2.04
   4  -1   3    2.80    2.11
  -4   1   2  119.43    6.95
   4   1  -2  127.71    6.51
   4  -1   2  122.37    6.53
  -4  -1  -2  132.71    6.52
   4   1  -2  132.02    6.44
   4  -1   2  136.29    6.91
  -4  -1  -2  128.98    7.11
   4   1  -2  123.63    6.50
   4  -1   2  130.37    5.79
   4  -1   2  129.21    5.88
  -4  -1  -2  133.84    6.33
  -4  -1  -2  129.81    6.78
   4   1  -2  133.17    6.30
   4  -1   2  136.84    6.84
  -4   1   2  117.44    7.43
  -4   1   1  234.38    8.72
   4  -1   1  234.64    8.77
   4  -1   1  244.75    9.06
  -4  -1  -1  206.93    7.70
   4   1  -1  240.43    8.77
   4   1  -1  231.50    8.62
   4  -1   1  234.10    7.77
   4   1  -1  239.46    8.92
  -4   1   1  243.67   10.06
  -4  -1  -1  232.54    8.72
  -4   1   1  224.21    9.25
   4  -1   1  233.99    7.57
  -4  -1  -1  244.79    8.56
   4   1  -1  246.27    8.15
   4  -1   1  246.09    8.71
   4   1  -1  249.73    7.55
  -4  -1  -1  233.03    8.92
  -4   1   1  237.08   10.00
   4  -1   0  504.37   13.11
  -4   1   0  558.94   13.35
   4  -1   0  509.94   12.83
  -4  -1   0  583.83   11.81
  -4   1   0  563.83   14.75
   4   1   0  573.11   13.82
   4   1   0  559.15   13.76
   4  -1   0  529.98   12.35
   4   1   0  584.96   13.79
  -4  -1   0  564.26   13.32
  -4   1   0  543.24   14.33
  -4   1   0  594.58   13.92
  -4  -1   0  578.32   13.30
  -4  -1   0  584.08   14.07
   4  -1   0  584.31    9.80
   4   1   0  605.59   12.88
   4  -1   0  578.79   13.00
   4   1   0  584.49   12.13
  -4   1   0  581.23   10.57
   4  -1  -1  244.64    9.51
  -4   1  -1  224.09    8.68
  -4  -1   1  232.86    6.96
   4   1   1  241.14    9.46
  -4   1  -1  232.83    9.39
   4   1   1  232.42    9.27
   4  -1  -1  234.94    8.84
  -4  -1   1  240.15    8.79
   4   1   1  231.18    8.83
  -4   1  -1  235.76    9.43
  -4   1  -1  241.90    8.58
  -4  -1   1  246.98    9.34
  -4  -1   1  239.33    8.95
  -4  -1   1  236.37    7.71
   4  -1  -1  223.93    7.14
   4   1   1  229.67    8.34
  -4   1  -1  221.45    7.09
   4  -1  -1  219.12    8.96
  -4   1  -2  119.81    6.60
   4   1   2  120.27    7.11
   4  -1  -2  107.35    6.23
   4   1   2  122.07    7.09
  -4  -1   2  118.80    6.22
  -4   1  -2  110.36    6.46
   4   1   2  128.94    7.20
  -4  -1   2  135.82    7.20
  -4   1  -2  127.77    7.05
  -4   1  -2  130.16    5.90
  -4  -1   2  126.11    6.97
  -4  -1   2  124.20    5.96
   4  -1  -2  117.37    5.72
   4   1   2  128.67    6.87
  -4   1  -2  120.61    5.66
   4  -1  -2  125.89    7.14
   4   1   3    5.89    2.81
  -4   1  -3    6.16    2.21
   4   1   3    2.51    2.58
  -4   1  -3    4.77    2.05
  -4  -1   3    3.75    2.19
  -4  -1   3    7.57    2.36
  -4  -1   3    1.65    2.11
  -4   1  -3    5.43    2.44
  -4  -1   3    4.63    1.94
   4   1   3   -1.23    2.18
  -4   1  -3    2.46    1.62
  -4   1  -4   63.74    5.20
  -4  -1   4   66.41    5.00
  -4  -1   4   66.81    5.69
  -4   1  -4   62.82    5.13
  -4   1  -4   58.48    5.01
  -4  -1   4   57.78    5.38
  -4  -1   4   55.05    5.41
  -4   1  -4   67.11    5.12
  -4   1  -5    4.81    2.53
  -4   1  -5    4.20    2.16
  -4  -1   5    6.10    3.52
  -4  -1   5    2.82    2.84
  -4   1  -5    2.08    2.31
  -4   1  -5    3.99    2.10
  -4   1  -6  151.97    8.82
  -4   1  -6  165.30    8.53
  -4   1  -6  157.49    8.85
  -4   1  -7   53.20    5.81
  -4   1  -7   62.43    6.21
   4   2  -8   31.85    5.25
   4  -2   8   43.23    6.70
   4   2  -8   44.60    6.23
   4  -2   8   44.13    6.51
   4   2  -7   39.18    4.94
   4   2  -7   47.17    5.50
   4  -2   7   47.24    5.68
   4   2  -7   45.18    5.97
   4  -2   7   44.26    5.90
   4   2  -6   12.63    3.28
   4  -2   6   14.84    4.14
   4   2  -6   20.79    3.79
   4   2  -6   11.08    3.59
   4  -2   6   10.36    3.66
   4  -2   5    7.91    2.91
   4   2  -5    5.05    2.22
   4   2  -5    2.54    2.23
   4  -2   5    2.74    2.57
   4  -2   5    3.98    2.59
   4   2  -5    6.13    2.82
   4  -2   5    6.75    3.17
   4   2  -4  137.89    7.20
   4  -2   4  139.48    7.09
   4  -2   4  148.47    7.72
   4   2  -4  129.76    7.42
   4  -2   4  136.46    7.45
   4   2  -4  134.78    7.64
   4  -2   4  136.48    7.71
   4   2  -3   23.98    3.36
   4  -2   3   29.22    3.79
   4   2  -3   20.75    3.27
   4  -2   3   27.72    3.57
   4   2  -3   26.42    3.30
   4  -2   3   24.40    3.48
   4   2  -3   20.36    3.12
   4  -2   3   30.33    3.89
   4  -2   2  114.26    6.46
   4  -2   2  114.61    6.46
   4   2  -2  119.20    6.40
   4   2  -2  124.41    6.51
   4  -2   2  121.81    5.35
   4   2  -2  112.62    6.64
   4  -2   2  111.36    5.90
   4   2  -2  115.71    6.55
   4  -2   2  121.15    6.64
   4  -2   1  206.28    8.67
   4   2  -1  184.78    8.12
   4   2  -1  190.42    8.35
   4  -2   1  197.47    7.35
   4   2  -1  193.13    8.50
  -4  -2  -1  184.52    8.38
  -4  -2  -1  196.52    8.49
   4  -2   1  187.87    8.03
   4   2  -1  199.16    8.59
  -4  -2  -1  188.55    7.85
   4  -2   1  201.00    8.56
  -4   2   0    5.21    2.37
   4  -2   0    8.78    2.37
   4  -2   0    6.00    1.99
   4   2   0    3.87    2.34
   4   2   0    8.38    2.31
  -4   2   0    6.60    3.11
  -4  -2   0    7.17    2.36
  -4   2   0    8.46    3.12
   4   2   0    3.37    1.80
  -4  -2   0    5.57    2.11
  -4   2   0    5.52    2.07
  -4  -2   0    7.97    2.30
   4   2   0    7.80    2.13
  -4   2  -1  190.04    8.88
  -4   2  -1  176.23    8.78
   4   2   1  197.70    9.19
   4   2   1  207.01    9.46
   4   2   1  181.51    9.15
  -4   2  -1  203.32    9.45
  -4  -2   1  190.12    7.78
  -4  -2   1  192.74    8.40
  -4  -2   1  195.07    8.18
   4   2   1  187.53    8.20
  -4   2  -1  185.63    7.52
  -4   2  -2  109.48    6.88
  -4  -2   2  122.45    6.19
  -4   2  -2  116.34    7.00
  -4  -2   2  121.53    6.64
  -4  -2   2  114.27    6.76
  -4  -2   2  123.70    6.46
  -4   2  -2  109.92    6.13
  -4   2  -3   22.20    3.69
  -4  -2   3   24.02    2.96
  -4  -2   3   24.94    3.50
  -4  -2   3   21.81    3.58
  -4   2  -3   27.80    3.87
  -4  -2   3   28.00    3.69
  -4   2  -3   25.49    3.30
  -4   2  -3   19.26    3.41
  -4   2  -4  134.85    7.95
  -4  -2   4  132.73    6.39
  -4   2  -4  120.46    7.18
  -4   2  -4  136.16    7.53
  -4  -2   4  129.81    7.94
  -4  -2   4  137.37    7.86
  -4   2  -4  135.40    7.48
  -4   2  -5    5.57    2.55
  -4   2  -5    1.11    2.25
  -4  -2   5    3.44    2.08
  -4  -2   5    2.83    3.00
  -4  -2   5    3.21    3.20
  -4   2  -5    2.46    2.18
  -4   2  -5    3.75    2.57
  -4   2  -6   13.79    3.51
  -4  -2   6   15.07    4.66
  -4  -2   6   13.79    3.93
  -4   2  -6   11.90    3.36
  -4   2  -7   39.16    5.27
  -4  -2   7   48.30    6.86
  -4   2  -7   41.30    5.52
  -4   2  -8   32.67    5.03
  -4   2  -8   25.01    4.71
   4   3  -9   -2.97    4.33
   4  -3   9    1.92    4.61
   4   3  -9    3.18    4.03
   4  -3   9    6.68    4.46
   4   3  -8    2.40    2.81
   4   3  -8   -2.78    3.66
   4  -3   8   -0.32    4.18
   4   3  -8    9.91    4.42
   4  -3   8    1.82    3.87
   4   3  -7    2.51    3.11
   4   3  -7    8.86    3.50
   4  -3   7    3.03    3.51
   4   3  -7    9.74    4.19
   4  -3   7   -3.73    3.51
   4   3  -6   13.26    3.39
   4   3  -6    6.93    3.06
   4  -3   6   11.77    3.94
   4   3  -6   12.53    3.74
   4  -3   6   14.86    3.60
   4   3  -5   94.82    6.81
   4   3  -5   85.34    6.71
   4  -3   5   94.39    6.98
   4   3  -5   86.82    6.89
   4  -3   5   81.12    6.57
   4  -3   4   54.51    4.83
   4  -3   4   58.59    4.95
   4   3  -4   50.81    5.24
   4  -3   4   54.93    5.23
   4   3  -4   52.35    5.31
   4  -3   4   49.38    5.25
   4  -3   3   18.95    2.85
   4   3  -3   19.93    3.28
   4  -3   3   15.08    2.77
   4   3  -3   15.53    3.31
   4   3  -3   18.70    3.17
   4  -3   3   24.83    3.78
   4   3  -3   17.83    3.37
   4  -3   2   23.25    3.30
   4   3  -2   26.27    3.67
   4   3  -2   29.30    4.11
   4   3  -2   15.79    3.35
   4  -3   2   21.48    3.39
   4   3  -2   24.01    3.54
   4   3  -1  115.86    6.83
   4   3  -1  120.80    7.49
  -4  -3   1  111.24    6.70
  -4  -3   1  113.89    6.56
  -4   3  -2   22.92    4.08
  -4  -3   2   19.68    2.88
  -4  -3   2   23.43    3.93
  -4   3  -2   22.74    4.09
  -4   3  -2   19.05    3.34
  -4  -3   2   23.50    3.35
  -4   3  -3   18.88    3.91
  -4  -3   3   21.31    2.98
  -4   3  -3   21.81    3.73
  -4  -3   3   25.01    4.01
  -4   3  -3   22.66    3.94
  -4  -3   3   21.86    3.33
  -4   3  -3   21.13    3.54
  -4   3  -4   47.07    5.39
  -4   3  -4   55.41    5.55
  -4   3  -4   53.60    5.39
  -4  -3   4   47.11    5.31
  -4  -3   4   51.60    5.39
  -4   3  -4   49.44    5.13
  -4   3  -5   93.41    7.28
  -4  -3   5   88.39    5.98
  -4  -3   5   86.05    7.08
  -4  -3   5   93.75    7.32
  -4   3  -5   79.98    6.72
  -4   3  -6    9.67    3.37
  -4  -3   6   16.77    3.60
  -4  -3   6   12.20    4.14
  -4  -3   6   17.01    4.68
  -4   3  -6   12.07    3.68
  -4   3  -7    6.14    3.47
  -4  -3   7    2.15    3.20
  -4  -3   7    2.97    3.67
  -4  -3   7    5.30    3.99
  -4  -3   7   10.58    4.39
  -4   3  -7   -1.96    3.49
  -4   3  -8    0.99    3.42
  -4  -3   8    7.21    4.70
  -4  -3   8    6.72    4.75
  -4   3  -8    5.60    3.36
  -4   3  -9    3.02    4.09
  -4  -3   9    8.03    5.08
  -4  -3   9    1.14    5.03
  -4   3  -9    0.67    3.31
  -4   3 -10    2.24    4.48
   4   4 -10   -1.89    4.91
   4   4 -10   12.74    5.33
   4   4  -9    2.33    3.55
   4   4  -9    7.50    4.87
   4   4  -9    8.25    4.64
   4   4  -8   10.75    4.75
   4  -4   8    6.52    4.47
   4   4  -8    9.71    4.46
   4  -4   8    3.28    3.37
   4   4  -7   67.86    7.30
   4  -4   7   64.18    7.15
   4   4  -7   60.53    6.98
   4  -4   7   53.10    5.81
   4   4  -6   36.68    5.28
   4   4  -6   45.48    5.48
   4  -4   6   45.66    5.86
   4   4  -6   44.70    6.19
   4  -4   6   43.38    5.45
   4   4  -5   14.64    4.35
   4   4  -5    1.08    2.75
   4  -4   5    5.98    3.36
   4   4  -5    5.81    3.42
   4  -4   5    9.42    3.75
   4  -4   4  151.50    7.63
   4   4  -4  137.12    8.63
   4  -4   4  143.41    8.37
   4  -4   4  151.51    8.55
   4   4  -4  149.98    9.54
   4   4  -3   66.40    6.19
   4   4  -3   67.05    6.78
   4  -4   3   62.93    5.17
   4   4  -2  224.83   10.65
  -4  -4   2  218.58   10.09
  -4  -4   2  233.70    9.46
  -4   4  -3   72.69    7.02
  -4   4  -3   65.93    7.51
  -4  -4   3   67.57    5.96
  -4   4  -3   75.07    7.54
  -4   4  -4  134.63    9.68
  -4  -4   4  150.63    8.58
  -4   4  -4  147.37    9.79
  -4   4  -5    3.54    3.34
  -4  -4   5    3.03    2.56
  -4  -4   5    1.41    3.01
  -4  -4   5    4.95    3.23
  -4   4  -5    6.36    3.23
  -4   4  -6   27.98    5.27
  -4  -4   6   36.62    5.49
  -4  -4   6   42.57    6.06
  -4  -4   6   38.25    4.84
  -4   4  -6   39.92    5.54
  -4   4  -7   51.05    6.62
  -4  -4   7   67.55    6.79
  -4  -4   7   56.40    6.23
  -4  -4   7   53.68    6.86
  -4   4  -7   54.92    7.24
  -4   4  -8    4.98    3.98
  -4  -4   8   15.55    4.94
  -4  -4   8    5.12    3.86
  -4  -4   8    2.04    4.58
  -4   4  -8    9.35    4.49
  -4  -4   9    6.06    4.79
  -4  -4   9   11.66    5.21
  -4  -4   9    3.53    4.57
  -4   4  -9    3.41    4.12
  -4  -4  10   -7.77    6.52
  -4   4 -10    4.28    4.40
   4   5 -10  -10.15    6.61
   4   5  -9    1.23    4.83
   4   5  -9    6.58    5.04
   4   5  -8    7.28    4.95
   4  -5   8    1.74    4.62
   4   5  -8   -6.36    4.93
   4  -5   8    2.40    3.34
   4   5  -7   23.85    5.94
   4  -5   7   15.57    4.19
   4   5  -7   18.36    5.49
   4  -5   7   15.25    4.15
   4   5  -6   72.41    9.58
   4  -5   6   59.71    6.61
   4   5  -5   49.68    7.07
   4   5  -4   15.80    4.53
  -4  -5   4   25.49    4.52
  -4   5  -5   37.64    6.97
  -4  -5   5   37.37    5.35
  -4   5  -5   36.11    6.70
  -4   5  -6   39.00    6.65
  -4  -5   6   64.61    6.56
  -4  -5   6   60.93    6.99
  -4   5  -6   56.88    7.64
  -4   5  -7    3.60    4.04
  -4  -5   7   10.98    3.54
  -4  -5   7    2.36    4.29
  -4   5  -7    7.36    4.24
  -4  -5   8    1.11    3.84
  -4  -5   8    8.30    4.84
  -4  -5   8    8.47    4.86
  -4   5  -8    5.54    4.36
  -4  -5   9    7.46    4.35
  -4  -5   9    3.27    4.98
  -4   5  -9    5.53    4.74
   4   6  -9   29.00    8.79
   4   6  -8   11.04    4.69
   4   6  -8    6.94    7.85
   4   6  -7   16.99    5.91
   4   6  -6   -3.09    5.12
  -4  -6   6    5.30    4.18
  -4  -6   7   22.49    5.08
  -4  -6   7   24.55    5.83
  -4  -6   8   25.07    5.86
  -4  -6   8   36.90    7.21
  -4   6  -8   33.97    7.95
  -5   0   0    0.67    2.01
  -5   0   0    0.45    1.75
   5   0   0    4.92    2.81
   5   0   0    0.01    2.01
   5   0   0   -2.79    2.48
  -5   0   0    1.79    2.37
  -5   0   0   -3.17    2.75
   5   0   0   -0.36    1.83
   5   0  -1  190.26    9.15
  -5   0   1  185.37    7.95
  -5   0  -1  179.80    8.28
   5   0   1  189.34    9.22
   5   0  -1  202.89    9.38
   5   0   1  190.73    9.35
  -5   0   1  185.62    9.52
   5   0  -1  191.94    8.87
   5   0   1  202.58    8.87
  -5   0  -1  191.99    9.41
  -5   0   1  199.21   10.02
  -5   0   1  192.60    9.48
  -5   0  -1  193.89    9.72
  -5   0  -1  189.68    8.49
   5   0  -1  195.24    8.29
   5   0   1  168.65    8.14
  -5   0   2   36.33    5.52
  -5   0  -2   11.54    2.74
   5   0  -2    5.02    4.89
   5   0  -2    9.23    2.70
   5   0  -2    7.35    3.22
   5   0   2   13.83    3.90
   5   0   2   11.29    2.80
   5   0   2   11.52    3.04
  -5   0   2   36.58    5.87
  -5   0   2   19.40    3.71
  -5   0  -2   13.05    2.85
  -5   0   2    8.83    4.53
  -5   0  -2   12.87    3.11
   5   0  -2   10.01    2.16
  -5   0  -2   11.26    3.47
   5   0   2   12.53    3.21
  -5   0  -3    5.15    2.65
  -5   0  -3    4.37    2.69
   5   0  -3    4.50    2.26
   5   0  -3    1.72    2.15
   5   0   3    2.37    3.14
  -5   0   3    4.28    3.33
  -5   0   3   -0.72    2.97
   5   0   3    6.00    2.93
   5   0  -3    1.59    2.04
  -5   0   3    3.28    3.14
  -5   0  -3    0.94    2.91
   5   0   3    2.21    2.94
   5   0  -4  334.29   12.35
  -5   0   4  337.65   13.73
  -5   0  -4  334.94   12.91
   5   0   4  358.47   13.79
   5   0  -4  332.75   12.93
   5   0   4  334.26   13.71
  -5   0   4  342.06   14.50
  -5   0  -4  359.80   13.45
  -5   0  -4  320.83   12.48
   5   0  -4  343.62   12.27
   5   0   4  369.93   14.05
  -5   0  -5  307.78   12.89
   5   0   5  304.80   13.00
  -5   0  -5  337.86   13.30
   5   0   5  296.06   13.20
   5  -1   7    6.58    4.10
   5  -1   7    8.52    4.52
   5   1  -6   20.05    4.29
   5  -1   6   13.35    3.70
   5   1  -6   18.79    4.33
   5  -1   6   12.23    4.63
   5  -1   5  128.10    8.51
   5  -1   5  126.64    8.78
   5   1  -5  132.16    8.75
   5  -1   5  117.80    7.78
   5   1  -5  114.14    8.15
   5  -1   5  123.39    8.95
   5  -1   4    5.41    2.93
   5   1  -4    6.47    2.80
   5   1  -4    5.78    2.53
   5  -1   4    7.36    2.62
   5  -1   4    9.69    3.28
   5   1  -4    7.24    2.47
   5  -1   4    6.39    3.44
  -5  -1  -3   44.81    4.70
   5   1  -3   46.88    4.74
   5   1  -3   48.00    4.95
   5   1  -3   41.42    4.66
   5  -1   3   34.61    4.69
   5  -1   3   40.71    4.74
  -5  -1  -3   46.80    4.71
  -5  -1  -3   54.16    5.94
  -5  -1  -3   45.93    5.00
   5   1  -3   49.08    4.93
   5  -1   3   50.35    5.64
  -5  -1  -2   39.02    4.37
  -5   1   2   39.68    4.51
   5   1  -2   38.33    4.55
   5   1  -2   39.30    4.52
   5   1  -2   39.91    4.47
   5  -1   2   40.32    4.18
   5  -1   2   42.92    4.89
   5  -1   2   35.25    4.45
  -5  -1  -2   39.66    4.34
  -5  -1  -2   37.79    4.50
  -5   1   2   36.22    4.88
   5   1  -2   36.98    4.04
   5  -1   2   44.53    4.91
  -5  -1  -2   40.61    5.00
  -5   1   1   62.52    5.41
   5  -1   1   69.82    5.97
   5   1  -1   68.05    5.87
  -5  -1  -1   63.91    5.03
  -5   1   1   62.03    6.19
   5  -1   1   69.92    5.76
   5   1  -1   63.85    5.42
   5  -1   1   63.37    4.89
   5   1  -1   60.59    5.41
  -5   1   1   69.83    6.57
  -5   1   1   56.35    5.57
  -5  -1  -1   64.92    5.45
  -5  -1  -1   70.70    6.18
  -5  -1  -1   71.20    5.63
   5   1  -1   65.67    5.08
   5  -1   1   70.07    5.58
  -5   1   0    4.85    2.58
  -5  -1   0    3.39    1.59
   5  -1   0    7.46    2.92
   5  -1   0    9.58    2.94
   5  -1   0    9.36    2.67
   5   1   0    5.45    2.85
   5   1   0   11.48    3.09
   5   1   0   12.52    3.13
  -5   1   0    5.16    2.63
  -5  -1   0    8.86    2.61
  -5  -1   0    7.49    2.68
  -5   1   0    6.50    3.03
  -5   1   0    9.62    3.28
   5  -1   0    8.74    2.65
  -5  -1   0    8.50    3.48
   5   1   0    8.47    2.66
   5  -1  -1   57.45    5.56
   5  -1  -1   60.44    5.73
  -5   1  -1   58.77    5.33
   5   1   1   58.55    5.64
   5   1   1   63.62    5.64
  -5   1  -1   64.29    5.96
   5  -1  -1   52.04    4.81
   5   1   1   60.59    5.37
  -5  -1   1   61.44    5.39
  -5   1  -1   72.06    6.39
  -5   1  -1   70.97    5.60
  -5  -1   1   59.80    5.97
  -5  -1   1   69.30    6.02
  -5  -1   1   66.76    4.73
   5   1   1   66.10    5.25
  -5  -1   2   34.93    4.41
  -5   1  -2   33.85    4.67
  -5   1  -2   41.42    4.69
   5  -1  -2   36.28    4.52
   5   1   2   39.11    5.34
   5   1   2   36.48    4.49
  -5  -1   2   37.11    4.15
  -5   1  -2   36.90    4.09
  -5  -1   2   41.50    5.14
   5  -1  -2   36.13    3.80
   5   1   2   34.66    4.65
  -5  -1   2   40.19    5.21
  -5   1  -2   35.93    4.73
   5   1   2   38.49    4.40
   5  -1  -2   43.61    5.05
  -5   1  -3   40.78    4.79
  -5  -1   3   45.34    4.99
   5   1   3   38.62    5.33
  -5   1  -3   44.56    5.26
  -5  -1   3   49.02    5.05
  -5  -1   3   48.45    5.85
  -5  -1   3   39.46    5.06
  -5   1  -3   37.28    5.15
   5   1   3   41.71    5.27
  -5   1  -3   48.78    4.68
   5   1   3   39.97    5.30
  -5   1  -4    8.02    3.09
  -5   1  -4    7.67    3.23
  -5  -1   4    6.83    4.06
  -5  -1   4   10.55    3.51
  -5  -1   4    7.57    3.67
  -5   1  -4    5.14    2.98
  -5  -1   4    2.78    2.48
  -5   1  -4    6.60    2.89
  -5   1  -5  128.35    8.61
  -5  -1   5  124.55    9.48
  -5   1  -5  132.32    8.54
  -5   1  -5  133.06    8.60
  -5  -1   5  114.57    8.69
  -5   1  -5  131.62    8.33
  -5   1  -6   18.38    3.82
  -5   1  -6   19.25    4.18
  -5   1  -6   26.84    4.33
  -5   1  -7   13.97    4.16
   5  -2   8   39.15    6.55
   5  -2   8   33.54    6.69
   5   2  -7   19.75    4.79
   5  -2   7   16.67    4.58
   5   2  -7   14.62    5.06
   5  -2   7    5.06    4.40
   5   2  -6   16.84    4.30
   5  -2   6   19.53    4.61
   5   2  -6   19.63    4.46
   5  -2   6   25.43    5.10
   5  -2   5   23.50    3.90
   5   2  -5   22.17    4.30
   5  -2   5   25.40    4.50
   5  -2   5   19.77    4.06
   5   2  -5   23.59    4.24
   5  -2   5   23.73    4.70
   5  -2   4   45.45    5.25
   5   2  -4   35.99    4.88
   5  -2   4   45.01    5.23
   5  -2   4   45.38    5.06
   5   2  -4   43.96    5.31
   5  -2   4   41.87    5.24
   5  -2   3    6.51    2.87
   5   2  -3   11.34    3.47
   5   2  -3    8.78    3.04
   5  -2   3   10.90    2.77
   5  -2   3    8.24    2.85
   5   2  -3    8.88    2.52
   5   2  -3    9.35    3.13
   5  -2   3    8.84    3.38
   5  -2   2  175.33    9.00
   5  -2   2  171.09    9.02
   5   2  -2  188.56    9.41
   5   2  -2  165.62    8.75
   5   2  -2  182.97    9.39
   5   2  -2  176.27    9.03
   5  -2   2  188.32    9.20
   5  -2   1   72.62    6.08
   5  -2   1   68.26    5.80
   5   2  -1   74.34    6.24
   5   2  -1   66.86    5.75
   5  -2   1   66.78    4.98
   5   2  -1   69.61    5.90
  -5  -2  -1   68.92    5.64
  -5  -2  -1   63.02    5.63
  -5  -2  -1   69.85    5.73
   5  -2   1   66.63    5.61
   5   2  -1   50.84    5.19
  -5   2   0  275.92   12.26
  -5   2   0  262.55   12.82
   5   2   0  281.34   11.76
   5   2   0  282.24   11.76
   5  -2   0  262.63   10.47
   5   2   0  283.15   11.71
  -5   2   0  270.30   12.72
  -5  -2   0  292.37   11.25
  -5  -2   0  311.86   11.84
  -5  -2   0  277.02   10.88
   5  -2   0  277.27   11.79
  -5   2  -1   62.98    5.77
  -5   2  -1   61.15    6.07
   5   2   1   62.13    6.17
   5   2   1   69.16    6.29
   5   2   1   63.80    6.05
  -5   2  -1   70.27    6.68
  -5  -2   1   67.66    5.53
  -5  -2   1   68.34    6.16
  -5  -2   1   70.10    6.05
  -5  -2   1   77.23    5.32
   5   2   1   72.26    5.65
  -5   2  -2  168.77    9.35
  -5   2  -2  176.26    9.82
  -5  -2   2  168.59    8.37
  -5   2  -2  177.12    9.83
  -5  -2   2  180.20    9.35
  -5  -2   2  187.09    9.65
  -5  -2   2  183.13    8.41
  -5   2  -3    7.01    2.64
  -5   2  -3    5.49    2.91
  -5  -2   3    7.04    3.05
  -5  -2   3    7.05    3.60
  -5  -2   3    5.35    2.10
  -5   2  -3    0.47    2.90
  -5  -2   3    5.99    2.78
  -5   2  -3    8.26    2.55
  -5   2  -4   37.11    5.14
  -5  -2   4   41.29    4.49
  -5   2  -4   41.44    5.23
  -5  -2   4   39.66    5.68
  -5  -2   4   40.81    5.38
  -5   2  -4   45.65    5.38
  -5   2  -4   35.40    4.43
  -5   2  -5   20.67    4.14
  -5   2  -5   24.87    4.49
  -5  -2   5   25.71    5.51
  -5  -2   5   19.12    4.44
  -5   2  -5   19.46    3.96
  -5   2  -5   21.17    3.89
  -5   2  -6   21.46    4.57
  -5  -2   6   18.02    5.35
  -5  -2   6   22.81    4.87
  -5   2  -6   23.31    4.51
  -5   2  -7   12.53    3.83
  -5   2  -7   10.63    4.02
  -5   2  -8   23.89    5.07
  -5   2  -8   49.34    7.05
   5  -3   9    9.01    5.52
   5   3  -9   -3.90    4.49
   5  -3   9    5.55    5.31
   5  -3   8   -4.85    4.98
   5   3  -8   -2.54    4.58
   5  -3   8    2.82    4.29
   5   3  -7   20.45    4.52
   5  -3   7   17.22    5.05
   5   3  -7   10.33    4.16
   5  -3   7   16.89    4.87
   5   3  -6    9.00    3.77
   5  -3   6    4.65    3.13
   5   3  -6    8.95    4.26
   5  -3   6    9.20    3.76
   5   3  -5   20.78    4.49
   5  -3   5   21.12    3.93
   5  -3   5   21.60    4.49
   5   3  -5   18.71    4.56
   5  -3   5   15.08    4.27
   5  -3   4   15.70    3.61
   5   3  -4   12.01    3.66
   5  -3   4   17.65    3.91
   5  -3   4   11.52    3.27
   5   3  -4   14.70    4.11
   5  -3   4   13.35    3.93
   5  -3   3   73.83    6.11
   5   3  -3   87.89    6.81
   5   3  -3   78.30    6.88
   5   3  -3   86.24    7.33
   5  -3   3   87.32    6.88
   5  -3   2   28.15    4.47
   5   3  -2   22.44    4.12
   5   3  -2   23.29    4.11
   5   3  -2   28.48    4.63
   5  -3   2   26.76    4.07
   5   3  -2   28.83    4.24
   5   3  -1   23.00    4.19
   5   3  -1   24.78    4.26
   5   3  -1   26.38    4.38
   5   3   0   31.74    4.95
   5   3   0   24.44    4.53
  -5  -3   0   20.55    3.62
  -5  -3   0   25.86    4.07
  -5  -3   1   26.19    3.86
  -5  -3   1   21.45    3.99
  -5  -3   1   28.66    4.17
  -5   3  -2   21.37    4.75
  -5  -3   2   26.32    4.33
  -5   3  -2   26.11    4.52
  -5  -3   2   25.12    3.61
  -5   3  -2   25.64    4.17
  -5  -3   2   29.50    4.20
  -5   3  -3   70.60    6.96
  -5   3  -3   81.34    7.49
  -5   3  -3   78.73    7.16
  -5  -3   3   84.32    7.16
  -5  -3   3   90.25    6.25
  -5  -3   3   91.22    6.86
  -5   3  -3   75.54    6.51
  -5   3  -4   13.80    4.14
  -5   3  -4   12.68    4.05
  -5  -3   4   15.39    4.07
  -5   3  -4   18.23    4.42
  -5  -3   4   13.88    4.39
  -5   3  -4   13.55    3.58
  -5   3  -5   15.35    4.31
  -5  -3   5   19.57    4.67
  -5  -3   5   20.87    4.47
  -5   3  -5   17.03    3.82
  -5   3  -6   -5.99    4.53
  -5  -3   6    8.97    4.43
  -5  -3   6    1.48    3.87
  -5   3  -6    8.40    4.01
  -5   3  -7    7.85    4.17
  -5  -3   7   18.20    5.21
  -5  -3   7   13.32    5.05
  -5   3  -7   12.54    4.04
  -5   3  -8   -3.75    4.15
  -5  -3   8    7.64    5.31
  -5   3  -8    1.13    3.48
  -5   3  -9   -6.73    5.04
  -5   3  -9    0.45    3.61
   5   4  -9    3.86    5.13
   5  -4   9   -1.62    5.28
   5  -4   8   19.82    5.28
   5   4  -8   21.68    5.66
   5  -4   8   20.56    5.48
   5  -4   7    5.06    4.06
   5   4  -7    4.47    3.91
   5  -4   7    3.74    3.97
   5   4  -6   72.96    7.37
   5  -4   6   71.40    7.42
   5  -4   6   74.48    7.30
   5   4  -6   64.51    7.74
   5   4  -5   65.27    7.06
   5  -4   5   55.53    6.21
   5  -4   5   69.42    7.16
   5   4  -5   53.83    6.95
   5  -4   4    6.96    2.96
   5   4  -4    6.68    3.53
   5   4  -4    4.92    3.73
   5  -4   4    9.29    3.69
   5  -4   3    4.95    2.52
   5   4  -3   13.59    3.83
   5   4  -3   11.09    4.44
   5   4  -2   55.67    6.63
   5   4  -2   47.60    6.06
  -5  -4   2   53.81    6.14
  -5  -4   2   50.72    5.45
  -5   4  -3    3.71    4.63
  -5  -4   3    6.46    3.41
  -5   4  -3    7.50    4.17
  -5   4  -3   13.09    4.44
  -5   4  -4   10.61    4.76
  -5  -4   4    4.20    3.40
  -5  -4   4   10.07    4.24
  -5   4  -4    2.95    3.48
  -5   4  -5   43.68    6.64
  -5  -4   5   55.02    6.71
  -5  -4   5   61.06    6.83
  -5   4  -5   56.66    6.75
  -5   4  -6   41.32    6.73
  -5  -4   6   60.76    7.36
  -5  -4   6   69.45    7.57
  -5   4  -6   56.90    6.99
  -5   4  -7   11.31    4.74
  -5  -4   7    6.71    4.64
  -5  -4   7    8.39    4.80
  -5   4  -7    2.98    4.11
  -5   4  -8   19.05    5.88
  -5  -4   8   28.77    6.83
  -5   4  -8   11.21    4.49
  -5   4  -9   -0.48    4.94
  -5   4  -9    1.70    4.33
   5   5  -8   17.44    7.25
   5  -5   8    0.09    4.19
   5  -5   7   -2.61    4.06
   5   5  -7    6.02    4.09
   5  -5   7    4.74    4.33
   5   5  -6    6.20    3.58
   5   5  -6    4.06    4.06
   5   5  -5    1.72    3.57
   5   5  -5   -0.82    3.80
   5   5  -4   95.08   10.00
  -5  -5   4   95.78    8.19
  -5   5  -5    9.53    5.88
  -5  -5   5    3.30    4.01
  -5  -5   5   -1.44    3.50
  -5   5  -5   -2.83    4.39
  -5   5  -6   10.50    6.20
  -5  -5   6   -4.76    4.81
  -5  -5   6   -1.46    4.62
  -5   5  -6    3.95    4.49
  -5   5  -7    7.03    5.77
  -5  -5   7   -3.19    4.78
  -5   5  -7    3.58    4.56
  -5   5  -8    3.94    4.96
  -5   5  -8   19.07    6.57
   5   6  -7   42.92    8.46
  -6   0   0    2.92    2.44
  -6   0   0    8.47    3.43
   6   0   0   -4.24    3.66
   6   0   0    2.91    2.73
   6   0   0   -4.44    3.06
  -6   0   0   -1.87    3.06
  -6   0   0   -1.38    3.75
   6   0   0   -3.28    2.90
  -6   0   1   12.97    3.81
  -6   0  -1    9.27    3.08
   6   0  -1    6.82    3.08
   6   0   1   17.87    4.22
   6   0  -1   13.59    3.43
   6   0   1   11.08    3.18
   6   0  -1   14.15    3.83
  -6   0  -1    8.41    3.69
   6   0   1    7.41    3.35
  -6   0   1    8.18    3.78
  -6   0  -1   10.88    3.73
  -6   0   1    9.27    4.26
  -6   0  -1    8.57    3.97
   6   0   1   12.34    3.69
  -6   0  -2   -0.46    2.65
   6   0  -2   -1.06    3.40
   6   0   2   -0.84    3.04
   6   0  -2   -3.80    2.86
   6   0  -2   -0.81    2.98
   6   0   2    0.06    2.41
  -6   0   2   -4.16    3.84
   6   0   2    3.45    3.29
  -6   0  -2    4.12    2.87
  -6   0   2    5.41    4.20
  -6   0  -2   -2.24    3.65
  -6   0  -2    0.40    2.71
  -6   0   2    1.64    3.35
   6   0   2   -1.58    3.03
   6   0  -3  457.10   16.29
  -6   0  -3  469.41   16.37
   6   0   3  491.94   17.58
  -6   0   3  450.72   17.30
   6   0   3  466.76   17.51
   6   0  -3  458.58   16.24
  -6   0   3  463.92   18.62
  -6   0   3  411.85   16.96
  -6   0  -3  492.44   17.84
  -6   0  -3  458.85   16.44
   6   0   3  483.88   17.09
  -6   0  -4   44.15    5.81
  -6   0  -4   40.51    5.71
   6   0  -4   44.90    5.56
   6   0  -4   50.91    6.11
   6   0   4   44.54    6.17
   6   0  -4   39.42    4.93
   6   0   4   42.32    6.12
  -6   0   4   41.19    5.88
  -6   0  -4   45.24    6.16
   6   0   4   41.52    6.14
  -6   0  -5  326.34   14.61
   6   0   5  316.45   14.79
   6   0   5  328.41   16.35
  -6   0  -5  354.10   15.55
  -6   0  -5  344.38   15.21
   6   0   5  358.43   16.18
   6  -1   7   23.58    5.27
   6  -1   7   21.86    6.21
   6  -1   6   -0.15    3.82
   6   1  -6    0.50    3.64
   6   1  -6   -0.24    3.39
   6  -1   6    2.22    3.61
   6  -1   6    0.29    4.22
   6  -1   5   24.02    5.11
   6   1  -5   32.49    5.64
   6   1  -5   38.72    5.74
   6  -1   5   37.31    5.93
   6  -1   5   34.27    6.24
   6  -1   4    3.14    3.18
   6   1  -4    5.88    3.68
   6  -1   4    2.38    3.45
   6   1  -4    5.46    3.11
   6  -1   4    4.20    3.41
   6   1  -3   10.77    3.86
  -6  -1  -3    5.96    3.32
   6  -1   3   10.23    4.06
   6   1  -3   10.25    3.77
   6   1  -3   11.45    3.65
   6  -1   3    7.14    3.49
   6   1  -3    9.99    3.51
  -6  -1  -3    5.02    3.95
   6  -1   3   11.12    4.21
  -6  -1  -3    7.39    3.22
  -6  -1  -2   23.99    4.05
   6   1  -2   30.50    5.08
   6  -1   2   33.68    5.00
   6   1  -2   31.99    4.87
   6   1  -2   25.64    4.32
   6  -1   2   33.86    5.08
  -6  -1  -2   24.33    4.48
  -6  -1  -2   28.21    4.35
  -6   1   2   27.10    5.50
   6  -1   2   26.34    4.65
  -6  -1  -2   28.62    5.18
  -6   1   1    2.76    2.56
  -6  -1  -1    2.42    2.76
  -6  -1  -1    5.91    2.71
   6  -1   1    2.02    3.30
   6   1  -1   -1.75    3.51
   6  -1   1    3.60    2.48
   6   1  -1    7.87    3.66
   6  -1   1   -0.48    2.59
   6   1  -1    0.30    2.45
  -6   1   1    8.12    3.82
  -6   1   1   -1.14    3.42
  -6  -1  -1    4.13    3.17
  -6   1   1    2.36    3.27
   6  -1   1    3.87    2.71
  -6  -1  -1   -1.56    3.56
   6  -1   0  226.72   11.36
  -6   1   0  202.34   10.21
   6   1   0  226.07   11.60
   6  -1   0  231.89   11.48
   6   1   0  224.52   11.51
  -6   1   0  216.41   11.82
   6  -1   0  210.71   10.17
   6   1   0  200.90   10.62
  -6  -1   0  205.18   10.78
  -6   1   0  200.47   11.47
  -6   1   0  192.68   10.47
  -6  -1   0  217.55   11.64
  -6  -1   0  225.43   11.11
   6  -1   0  222.12   10.48
  -6   1  -1    3.42    3.42
  -6   1  -1    2.55    2.93
   6  -1  -1    4.64    3.22
   6  -1  -1    3.72    2.63
   6  -1  -1    2.98    2.52
   6   1   1    2.12    3.78
   6   1   1    1.28    2.65
  -6  -1   1    9.19    3.62
  -6   1  -1   -2.51    2.79
  -6  -1   1   -4.82    3.46
   6   1   1    3.65    2.59
  -6   1  -1    2.56    3.63
  -6  -1   1   -1.32    3.77
   6   1   1   -3.05    2.97
  -6   1  -2   31.11    4.79
  -6  -1   2   25.28    4.77
  -6   1  -2   23.58    4.67
   6   1   2   24.79    5.00
   6   1   2   24.30    4.64
  -6  -1   2   28.91    5.00
  -6  -1   2   26.77    5.07
   6   1   2   29.48    4.90
  -6   1  -2   22.97    4.95
   6   1   2   31.38    5.16
  -6   1  -3    7.96    3.87
  -6  -1   3    9.45    3.89
   6   1   3    6.27    4.32
  -6  -1   3    6.22    4.51
  -6  -1   3   10.11    3.32
  -6  -1   3    6.95    4.18
  -6   1  -3    6.99    3.51
  -6   1  -3   10.84    4.28
   6   1   3   11.22    4.06
   6   1   3    4.53    3.43
  -6  -1   4    7.59    3.80
  -6   1  -4    1.68    2.87
  -6   1  -4    2.53    2.76
  -6  -1   4    4.90    4.43
  -6  -1   4    9.93    3.94
  -6  -1   4    9.67    4.33
  -6   1  -4    1.21    3.83
  -6   1  -5   34.85    5.52
  -6   1  -5   26.26    5.03
  -6  -1   5   23.48    5.73
  -6   1  -5   28.62    5.49
  -6   1  -6    4.34    3.34
  -6   1  -6    2.66    3.94
  -6   1  -7   28.60    5.74
   6  -2   8   -6.97    4.83
   6  -2   8    5.23    4.77
   6   2  -7   -7.44    4.95
   6  -2   7    3.08    4.66
   6   2  -7    0.91    3.69
   6  -2   7   -3.04    4.89
   6   2  -6   -4.67    4.07
   6  -2   6    6.41    4.38
   6   2  -6    2.35    4.00
   6  -2   6    2.92    4.04
   6  -2   5   26.67    5.11
   6   2  -5   25.50    5.07
   6  -2   5   24.34    4.71
   6   2  -5   23.40    5.02
   6  -2   5   22.31    5.29
   6  -2   4   10.09    3.87
   6   2  -4   13.55    4.38
   6  -2   4    8.85    3.74
   6   2  -4   19.37    4.72
   6  -2   4   16.35    4.72
   6  -2   3    4.09    3.10
   6   2  -3    5.06    3.59
   6   2  -3    8.38    3.21
   6  -2   3    0.41    2.66
   6   2  -3    1.78    2.91
   6   2  -3    9.85    3.88
   6  -2   3    1.99    2.91
   6  -2   2   92.78    7.70
   6   2  -2   88.90    7.82
   6  -2   2   87.53    7.53
   6   2  -2   84.05    7.34
   6   2  -2   81.50    7.44
  -6  -2  -2   87.31    7.27
  -6  -2  -2   86.25    7.88
  -6  -2  -2   69.01    6.65
   6  -2   2   83.00    7.22
   6  -2   1   12.04    4.02
   6   2  -1    2.45    3.21
   6  -2   1    7.74    3.50
   6   2  -1    6.87    3.24
  -6  -2  -1   10.29    3.04
  -6  -2  -1    7.24    3.50
   6   2  -1    7.10    3.34
   6  -2   1    8.48    3.00
  -6  -2  -1    8.83    3.85
  -6   2   0    5.53    3.69
   6  -2   0    7.46    3.42
   6  -2   0    2.97    2.49
   6   2   0    5.88    3.80
   6   2   0    4.93    3.06
  -6   2   0    6.78    4.14
  -6  -2   0    5.61    3.54
   6   2   0    9.24    3.81
  -6   2   0    2.65    3.66
  -6  -2   0    9.40    2.92
  -6  -2   0    8.00    4.00
  -6   2  -1    8.00    3.48
  -6  -2   1    5.41    2.78
   6   2   1    9.56    3.98
   6   2   1   15.19    4.49
  -6   2  -1   10.54    4.10
  -6  -2   1   13.32    4.13
   6   2   1   11.80    4.03
  -6  -2   1   10.33    3.87
  -6   2  -1    7.12    3.58
  -6   2  -2   73.87    7.32
   6   2   2   76.90    8.18
  -6   2  -2   68.34    7.24
   6   2   2   79.81    8.09
  -6   2  -2   82.08    8.12
  -6  -2   2   75.50    6.60
  -6  -2   2   85.47    7.61
  -6  -2   2   74.19    7.48
   6   2   2   66.83    6.60
  -6   2  -3    0.47    3.12
  -6   2  -3    3.75    3.30
  -6  -2   3    3.25    3.98
  -6  -2   3    7.41    3.49
  -6   2  -3    3.48    3.28
  -6  -2   3   -3.82    3.78
  -6  -2   3   -0.13    2.49
  -6   2  -4   11.35    3.85
  -6  -2   4   14.25    5.29
  -6  -2   4   10.65    3.93
  -6   2  -4    8.99    4.01
  -6   2  -4    7.70    3.81
  -6   2  -5   28.44    5.27
  -6   2  -5   19.67    4.12
  -6  -2   5   27.79    6.30
  -6  -2   5   20.71    4.92
  -6   2  -5   22.79    5.31
  -6   2  -6    4.79    4.01
  -6  -2   6   -1.96    5.02
  -6  -2   6   13.00    5.55
  -6   2  -6    6.27    3.67
  -6   2  -7   -2.81    4.06
  -6   2  -7    4.14    4.06
  -6   2  -8    0.80    3.95
   6   3  -8    0.65    4.59
   6  -3   8    8.04    5.59
   6   3  -8    0.82    4.45
   6   3  -7   -0.27    3.81
   6  -3   7    6.45    4.90
   6   3  -7   -2.99    4.13
   6  -3   7   -1.00    4.72
   6   3  -6    3.69    3.56
   6  -3   6    4.38    4.24
   6   3  -6    6.84    4.26
   6  -3   6    2.32    4.05
   6   3  -5   30.01    5.47
   6  -3   5   20.36    3.90
   6   3  -5   19.07    5.01
   6  -3   5   20.13    4.72
   6  -3   4    6.67    3.82
   6   3  -4    5.42    3.33
   6  -3   4    3.56    3.20
   6   3  -4    8.70    4.18
   6  -3   4   11.48    4.52
   6   3  -3    4.53    3.64
   6  -3   3    3.96    3.01
   6   3  -3    4.03    3.08
   6   3  -3    4.18    3.88
   6  -3   3    0.37    3.08
   6  -3   2    6.62    3.31
   6   3  -2    7.08    3.72
   6   3  -2    8.99    4.00
   6   3  -2   11.04    4.83
   6  -3   2    5.94    3.35
   6   3  -2    7.90    3.43
   6   3  -1   20.38    4.96
   6   3  -1   14.31    4.15
   6   3  -1   20.27    4.34
   6   3   0    1.20    3.66
   6   3   0   12.21    4.67
  -6  -3   0    7.23    3.39
  -6  -3   0   -1.89    3.08
  -6  -3   1   18.63    4.18
  -6  -3   1   20.04    4.11
  -6  -3   1   22.96    4.91
  -6   3  -2    3.27    3.95
  -6  -3   2   11.73    3.51
  -6  -3   2    7.44    3.72
  -6  -3   2    8.07    2.89
  -6   3  -2    5.67    3.99
  -6  -3   2    1.70    3.35
  -6  -3   3    4.83    2.57
  -6   3  -3    5.11    4.09
  -6   3  -3    3.02    3.57
  -6  -3   3    3.71    3.10
  -6  -3   3    0.00    4.11
  -6   3  -3    0.79    3.54
  -6   3  -4    1.79    3.63
  -6   3  -4    7.55    4.36
  -6  -3   4   -0.90    3.79
  -6  -3   4    7.25    3.90
  -6   3  -4    3.44    3.89
  -6   3  -5   19.27    5.37
  -6  -3   5   28.35    6.49
  -6  -3   5   29.19    5.81
  -6   3  -5   19.97    4.95
  -6   3  -5   20.72    4.71
  -6   3  -6   10.43    4.71
  -6  -3   6   13.86    5.64
  -6  -3   6   13.38    5.34
  -6   3  -6    3.78    3.33
  -6   3  -7   -0.58    4.24
  -6  -3   7   -4.28    4.99
  -6  -3   7   -0.61    4.40
  -6   3  -7   -0.16    3.76
  -6   3  -8    8.18    5.09
  -6   3  -8   -6.86    4.56
   6   4  -7    1.26    4.08
   6  -4   7   -5.83    4.85
   6   4  -7   10.71    5.77
   6  -4   7    5.59    4.92
   6   4  -6   30.77    6.17
   6  -4   6   19.05    5.14
   6   4  -6   24.30    5.86
   6  -4   6   20.41    5.11
   6   4  -5   -3.24    4.17
   6   4  -5    6.07    4.05
   6  -4   5    0.80    4.04
   6  -4   4  100.73    7.88
   6   4  -4   96.31    8.96
   6  -4   4  108.85    8.72
   6   4  -4  110.06   10.09
   6   4  -3    9.58    4.40
   6   4  -3    8.99    4.93
   6   4  -2   43.29    6.61
   6   4  -2   40.36    6.34
  -6  -4   2   40.96    5.98
  -6  -4   3   11.57    4.07
  -6  -4   3   11.54    4.92
  -6   4  -4   87.83    9.66
  -6  -4   4   97.69    9.12
  -6  -4   4  108.07    9.31
  -6   4  -5    1.30    4.54
  -6  -4   5    4.38    4.27
  -6  -4   5   -2.95    4.15
  -6   4  -5    9.05    4.46
  -6   4  -6   25.29    6.62
  -6  -4   6   26.62    6.29
  -6  -4   6   17.93    5.42
  -6   4  -6   31.08    6.40
  -6   4  -7   -6.00    5.10
  -6  -4   7    0.73    4.77
  -6  -4   7    8.08    5.63
  -6   4  -7   -1.41    4.12
  -6   4  -8   -5.22    4.69
  -6   4  -8   -0.07    4.59
   6   5  -7    9.46    5.49
   6   5  -6   17.91    5.74
   6   5  -6   24.05    6.47
   6   5  -5    3.79    4.25
   6   5  -5    6.23    4.49
  -6  -5   4    1.36    4.53
  -6  -5   4    1.71    4.31
  -6  -5   5    4.04    4.18
  -6  -5   5    5.30    4.45
  -6   5  -6   14.15    6.49
  -6  -5   6   17.57    6.00
  -6  -5   6   23.33    6.21
  -6   5  -6    7.24    5.12
  -6   5  -7    0.54    5.34
  -6  -5   7   13.36    6.12
  -6   5  -7    4.13    5.25
   7   0   0   -0.05    4.06
   7   0   0    1.62    3.22
  -7   0   0    4.07    3.93
   7   0   0   -5.93    3.62
  -7   0   0   -2.91    3.85
  -7   0   0   -1.11    4.59
  -7   0  -1   26.15    4.47
   7   0  -1   36.34    5.83
  -7   0   1   27.51    5.25
   7   0   1   25.82    5.34
   7   0  -1   36.54    5.80
   7   0   1   38.07    5.85
   7   0  -1   36.09    6.04
   7   0   1   33.00    5.66
  -7   0   1   42.96    6.61
  -7   0  -1   34.30    5.82
  -7   0   1   38.07    6.37
  -7   0  -1   25.29    5.14
  -7   0  -1   29.47    5.79
   7   0   1   37.01    5.56
  -7   0   2   -4.16    4.13
  -7   0  -2    3.26    3.93
   7   0  -2   -3.24    3.98
  -7   0  -2    2.57    2.98
   7   0   2   -3.17    4.68
   7   0  -2    3.04    3.36
   7   0  -2   -0.63    3.73
  -7   0   2   -5.05    4.11
  -7   0   2    0.74    4.45
   7   0   2   -1.08    3.22
  -7   0  -2   -0.58    4.01
   7   0   2   -0.63    3.65
  -7   0  -3   38.95    5.83
   7   0   3   42.37    7.07
   7   0  -3   37.34    6.16
   7   0  -3   35.64    5.80
  -7   0   3   40.57    7.22
  -7   0  -3   24.17    4.93
   7   0   3   29.57    5.93
  -7   0  -3   42.63    7.01
   7   0   3   33.13    5.96
  -7   0   3   37.62    6.66
  -7   0  -4    2.10    3.30
   7   0   4    1.83    3.97
   7   0  -4   -2.98    3.63
   7   0  -4   -3.07    3.25
  -7   0  -4   -7.61    4.15
   7   0   4    1.74    3.54
  -7   0  -4   -1.31    4.52
   7   0   4    2.34    4.44
  -7   0  -5   59.56    7.34
   7   0   5   67.91    8.40
  -7   0  -5   75.11    8.65
   7   0   5   59.04    8.26
   7  -1   6    7.71    5.19
   7  -1   6    2.53    4.36
   7  -1   5   23.55    5.60
   7   1  -5   35.18    6.74
   7   1  -5   20.43    4.89
   7  -1   5   16.22    4.74
   7  -1   5   15.49    4.70
   7  -1   4    4.07    4.03
   7   1  -4   13.98    5.01
   7  -1   4    8.21    4.48
   7  -1   4    5.18    4.61
   7   1  -3   24.87    5.59
   7  -1   3   13.48    4.22
   7   1  -3   15.54    4.47
  -7  -1  -3   14.63    4.56
   7   1  -3   15.85    4.95
   7  -1   3   21.10    5.01
  -7  -1  -3   21.60    5.95
   7  -1   3   17.52    5.13
  -7  -1  -2   20.85    4.48
   7   1  -2   17.19    5.02
   7  -1   2   22.51    5.21
   7   1  -2   21.72    5.06
   7  -1   2   25.49    5.46
   7   1  -2   26.12    5.33
  -7  -1  -2   21.07    5.11
  -7  -1  -2   19.28    5.25
   7  -1   2   20.53    4.46
  -7   1   2   17.96    5.38
  -7  -1  -2   20.91    5.05
   7  -1   1    1.71    4.01
   7   1  -1    3.29    4.03
   7   1  -1    2.07    3.74
  -7  -1  -1   -1.30    3.28
   7  -1   1   -4.41    3.84
   7   1  -1   -1.98    3.41
  -7   1   1    0.51    4.32
  -7  -1  -1    5.56    4.01
  -7  -1  -1    6.86    4.50
   7  -1   1    5.24    3.20
  -7   1   1    1.88    4.21
  -7   1   0    1.02    4.01
  -7   1   0    0.13    3.25
   7  -1   0    5.05    4.36
   7   1   0   -1.51    4.22
   7  -1   0    4.99    3.42
   7   1   0   -0.30    3.18
   7  -1   0    7.39    4.38
  -7   1   0    8.45    4.36
   7   1   0    4.97    3.39
  -7  -1   0    3.77    3.88
  -7   1   0    0.35    4.15
  -7  -1   0    6.74    4.54
   7  -1   0    2.44    3.24
  -7  -1   0    2.99    3.06
  -7   1  -1   -0.14    3.71
  -7   1  -1    2.04    3.78
   7   1   1   -8.93    5.10
   7  -1  -1   -0.01    3.27
   7  -1  -1   -0.86    3.27
   7   1   1   -0.20    3.21
  -7  -1   1    0.65    3.79
  -7   1  -1    3.34    3.92
   7   1   1    1.83    3.57
  -7  -1   1   -6.39    4.71
  -7  -1   1   -4.79    4.06
  -7   1  -2   22.95    4.96
   7   1   2   18.18    5.26
   7  -1  -2   14.72    4.33
   7  -1  -2   26.05    5.00
   7   1   2   21.76    5.35
  -7   1  -2   18.30    5.05
  -7  -1   2   23.75    5.77
  -7  -1   2   17.89    4.88
  -7  -1   2   13.39    4.96
  -7   1  -2   23.23    5.95
   7   1   2   13.69    4.68
   7   1   2   22.74    5.02
  -7   1  -3   17.36    4.60
   7   1   3   22.39    6.53
  -7  -1   3   12.51    4.62
  -7  -1   3   17.77    5.38
  -7  -1   3   14.01    4.83
  -7   1  -3   19.98    5.56
   7   1   3   19.99    5.27
  -7   1  -3   11.30    4.27
   7   1   3   31.04    6.29
  -7   1  -4    9.51    4.64
  -7  -1   4   -0.05    3.76
  -7   1  -4    8.37    3.94
  -7  -1   4    8.98    5.62
  -7   1  -4    8.66    4.78
  -7   1  -5   16.72    5.05
  -7   1  -5   16.70    4.99
  -7  -1   5   21.60    6.36
  -7   1  -5   26.17    6.30
  -7   1  -6    5.55    3.79
  -7   1  -6    3.95    4.46
   7   2  -6   27.45    7.02
   7   2  -6    7.23    5.08
   7  -2   6   10.48    5.28
   7  -2   6   11.51    5.76
   7  -2   5    1.02    4.10
   7   2  -5   -3.75    4.16
   7  -2   5    0.81    4.23
   7   2  -5    4.18    4.31
   7  -2   5    8.67    4.99
   7  -2   4    9.88    4.24
   7   2  -4   -1.07    3.82
   7  -2   4   -1.08    4.06
   7  -2   4    6.97    4.65
   7  -2   3    5.92    3.87
   7   2  -3   12.95    4.45
   7   2  -3    8.46    4.46
   7  -2   3    9.26    4.27
   7  -2   3    7.71    4.37
   7  -2   2    7.95    3.88
   7   2  -2    2.83    3.55
   7   2  -2    1.08    3.24
   7  -2   2   10.03    3.74
   7   2  -2   14.68    4.64
  -7  -2  -2    4.29    3.27
   7  -2   2    9.86    4.28
  -7  -2  -2   14.70    5.39
  -7  -2  -1    2.01    2.99
   7   2  -1   -5.92    4.06
   7  -2   1    3.60    3.35
   7   2  -1    3.36    3.70
  -7  -2  -1    9.03    4.37
   7   2  -1    0.86    3.38
  -7  -2  -1    2.75    3.70
  -7   2   0  118.46   10.05
   7   2   0  127.36   10.21
   7  -2   0  127.65   10.17
  -7   2   0  105.15   10.82
   7   2   0  126.31   10.05
   7  -2   0  126.06    9.17
   7   2   0  121.98   10.15
  -7  -2   0  134.53   10.58
  -7  -2   0  141.14   10.14
  -7  -2   0  130.81    9.78
  -7   2  -1   -0.56    3.70
   7   2   1   -4.19    4.33
   7   2   1    6.96    4.78
  -7  -2   1   -1.34    3.42
  -7   2  -1    4.04    4.57
  -7  -2   1   -5.43    3.91
  -7  -2   1    2.34    4.10
   7   2   1   -0.49    3.44
  -7   2  -1    2.85    4.38
  -7   2  -2    3.89    3.61
  -7   2  -2    4.51    4.15
  -7  -2   2    6.89    3.66
   7   2   2    1.39    5.11
  -7  -2   2    9.38    4.60
  -7   2  -2    9.27    4.77
  -7  -2   2    4.18    4.21
   7   2   2    6.39    4.02
  -7  -2   3   11.37    4.17
  -7   2  -3    1.82    3.60
  -7   2  -3   14.54    5.06
  -7  -2   3    1.98    4.87
  -7   2  -3    4.51    4.10
  -7  -2   3    1.49    4.09
  -7   2  -4    2.66    4.21
  -7  -2   4    4.41    4.72
  -7   2  -4   11.54    4.77
  -7   2  -4    4.65    4.60
  -7   2  -5   -3.41    4.48
  -7   2  -5    2.62    4.02
  -7  -2   5    2.58    5.69
  -7  -2   5   -2.14    4.15
  -7   2  -5    1.16    4.17
  -7   2  -6    3.34    4.63
  -7  -2   6    7.88    5.99
  -7   2  -6   11.73    5.33
  -7   2  -7    3.79    4.87
   7   3  -7    1.48    4.88
   7   3  -6    6.06    4.92
   7   3  -6   10.00    5.02
   7   3  -5   -1.46    4.22
   7  -3   5    4.13    3.84
   7   3  -5   -0.58    4.33
   7  -3   5   -2.36    4.01
   7   3  -4    6.54    5.13
   7  -3   4   11.05    4.67
   7  -3   4   -0.61    4.09
   7   3  -3   15.06    5.00
   7  -3   3   19.57    4.96
   7  -3   3   17.97    4.74
   7   3  -2   17.45    5.71
   7  -3   2    7.97    3.87
   7   3  -2   11.81    4.67
   7   3  -2    5.01    3.98
   7   3  -1    4.57    4.46
   7   3  -1   -6.55    4.35
   7   3  -1    7.46    4.31
   7   3   0    1.46    5.01
  -7  -3   0    3.22    3.44
  -7  -3   0    1.13    3.65
  -7  -3   1    2.21    4.18
  -7  -3   1   -2.46    3.12
  -7  -3   1    1.05    3.98
  -7   3  -2    5.40    4.85
  -7  -3   2    9.17    3.72
  -7  -3   2    3.50    3.85
  -7  -3   2    6.11    4.03
  -7   3  -2    0.95    5.00
  -7   3  -3   20.59    5.76
  -7   3  -3   24.33    6.71
  -7  -3   3   20.35    4.55
  -7   3  -3    5.81    4.89
  -7  -3   3   26.83    6.51
  -7   3  -4   10.79    5.63
  -7   3  -4    3.62    4.72
  -7  -3   4    6.43    7.03
  -7   3  -4    9.87    5.61
  -7  -3   4    9.00    5.25
  -7   3  -5   -4.17    4.48
  -7  -3   5    6.05    5.24
  -7  -3   5    2.04    4.41
  -7   3  -5   -5.81    5.27
  -7   3  -6    2.40    4.50
  -7  -3   6   11.16    5.98
   7   4  -6   30.24    7.18
   7   4  -6   23.86    7.02
   7   4  -5    3.59    4.63
   7   4  -5   -3.47    5.27
   7   4  -4    4.11    4.59
   7  -4   4   -0.77    3.84
   7   4  -4    5.55    5.48
   7   4  -3    4.28    4.34
   7   4  -2   19.42    5.67
  -7  -4   2   10.33    4.07
  -7  -4   3    2.02    4.91
  -7   4  -4   -4.92    6.00
  -7  -4   4   -3.15    4.75
  -7  -4   4   -1.59    3.94
  -7   4  -5   -4.66    5.82
  -7  -4   5    2.29    4.65
   7   5  -5    1.87    4.67
   8   0   0    7.60    4.89
   8   0   0    6.07    4.42
  -8   0   0    5.78    4.33
   8   0   0    8.23    4.85
  -8   0   0   16.04    6.53
  -8   0   0    9.40    4.95
   8   0  -1    8.26    4.73
   8   0   1   12.60    5.70
   8   0  -1    3.12    3.59
   8   0  -1   11.56    4.83
  -8   0   1    7.55    5.24
  -8   0   1   12.03    5.23
   8   0   1    1.81    4.28
  -8   0   1    1.70    4.92
  -8   0  -1    5.14    4.99
  -8   0  -1    4.15    4.35
   8   0   2   18.18    6.30
  -8   0   2   15.55    5.38
   8   0  -2   22.99    5.86
  -8   0  -2   17.70    5.31
   8   0  -2   15.22    5.16
  -8   0   2    9.59    5.61
  -8   0   2   19.82    6.27
   8   0   2   16.10    5.26
  -8   0  -2    5.39    4.99
  -8   0  -3   44.42    7.16
  -8   0   3   18.14    5.11
   8   0   3   45.33    7.81
   8   0  -3   39.24    6.99
   8   0  -3   45.22    7.13
   8   0   3   51.24    8.13
  -8   0  -3   36.67    7.89
   8   0   3   42.46    6.96
  -8   0  -3   30.01    6.49
  -8   0  -4    0.98    4.27
  -8   0  -4   -5.24    4.54
   8   0   4    2.74    4.48
   8   0   4    1.27    5.42
   8  -1   5    8.51    5.48
   8  -1   4   11.48    6.52
   8   1  -4    1.87    4.39
   8  -1   4   12.55    5.53
   8  -1   3   18.45    6.30
   8   1  -3   18.21    6.09
  -8  -1  -3   13.16    4.93
   8   1  -3    6.65    4.53
   8  -1   3   18.87    5.93
  -8  -1  -3   19.86    6.94
   8  -1   3   28.08    6.16
   8   1  -2    1.98    4.65
   8  -1   2    6.99    4.98
   8   1  -2   -0.03    4.03
  -8  -1  -2   -1.32    4.05
   8  -1   2    2.24    4.15
   8   1  -2   -1.27    4.12
  -8  -1  -2    7.79    5.31
   8  -1   2    1.03    4.23
  -8   1   1    3.05    4.43
   8  -1   1    3.75    4.43
   8   1  -1    8.09    4.83
   8   1  -1    3.41    3.82
   8  -1   1   12.02    4.82
  -8  -1  -1    1.12    4.77
   8   1  -1    5.86    4.31
  -8  -1  -1    9.59    4.75
  -8  -1  -1    9.31    5.26
   8  -1   0    7.54    4.92
   8   1   0   16.47    5.83
  -8   1   0    5.40    4.64
   8  -1   0   10.41    4.61
  -8  -1   0   15.34    5.15
   8   1   0   16.95    5.08
   8  -1   0   14.19    5.20
  -8  -1   0   33.26    7.16
  -8   1   0    6.81    5.61
   8   1   0   15.95    5.57
  -8  -1   0    9.60    5.37
  -8  -1   1    6.65    4.51
   8   1   1    5.92    5.30
   8  -1  -1    1.82    4.30
   8  -1  -1    1.40    4.20
   8   1   1   11.02    5.20
  -8   1  -1   -7.07    6.06
  -8  -1   1   -2.42    4.81
  -8   1  -1    5.55    4.85
  -8  -1   1    9.34    5.45
   8   1   1    5.31    4.37
  -8   1  -2   -5.63    4.85
   8   1   2   -0.12    5.06
  -8  -1   2    3.33    5.30
  -8  -1   2    2.75    5.46
  -8   1  -2   -1.36    4.70
   8   1   2    3.95    4.77
  -8   1  -2   -7.66    5.21
  -8  -1   2   -1.97    4.43
  -8   1  -3   19.30    5.29
  -8   1  -3   12.02    4.74
   8   1   3   22.75    7.27
  -8  -1   3   23.25    6.78
  -8  -1   3   16.87    6.82
  -8   1  -3   22.42    6.89
  -8  -1   3   14.23    5.23
   8   1   3   32.55    7.70
   8   1   3    6.77    5.08
  -8   1  -4   -5.14    5.09
  -8  -1   4   -0.46    4.88
  -8   1  -4   -0.15    4.25
  -8   1  -5   -8.37    5.29
   8  -2   5    5.21    4.57
   8   2  -4    4.84    5.11
   8  -2   4    3.36    4.27
   8  -2   3    5.48    5.47
   8   2  -3   16.63    6.65
   8   2  -3    1.98    4.31
   8  -2   3    6.73    4.67
   8  -2   3    1.68    4.30
   8   2  -2    9.11    6.22
   8   2  -2    7.12    4.79
   8  -2   2    7.18    4.76
   8   2  -2   12.55    5.31
   8  -2   2   16.07    5.38
   8   2  -1   -3.86    5.11
   8   2  -1    2.42    4.15
   8  -2   1    5.81    5.11
  -8  -2  -1   -6.87    4.81
   8   2  -1   10.01    5.29
  -8  -2  -1    3.28    4.84
  -8  -2  -1    1.86    3.51
   8   2   0    0.46    4.42
   8   2   0    1.20    4.10
  -8  -2   0    5.29    3.74
  -8  -2   0   -1.02    4.82
  -8  -2   0   -4.40    5.24
   8   2   0   -3.14    3.96
  -8   2  -1    1.19    4.25
  -8   2  -1   -5.81    5.95
   8   2   1    9.10    6.50
  -8   2  -1    1.62    5.88
  -8  -2   1    3.80    4.79
  -8  -2   1    0.58    4.90
   8   2   1    5.08    4.78
  -8  -2   1    2.14    3.67
  -8   2  -2   10.41    5.07
  -8  -2   2   -5.55    5.31
  -8   2  -2    6.54    5.46
  -8  -2   2    0.64    4.05
  -8  -2   2    7.54    5.37
  -8   2  -3   -6.17    5.06
  -8  -2   3   11.06    5.25
  -8   2  -3   -6.48    5.92
  -8   2  -4    3.29    4.69
  -8   2  -4   10.21    5.74
  -8   2  -5   -0.76    4.96
   8  -3   4    3.94    4.67
   8   3  -3   -5.51    4.84
   8  -3   3    8.75    4.76
   8   3  -2    2.95    5.92
   8   3  -2    0.04    4.06
   8   3  -1    3.07    5.19
   8   3  -1    1.66    4.78
  -8  -3   1    5.80    4.22
  -8  -3   1    7.20    5.61
  -8  -3   2    4.71    4.20
  -8  -3   2   -1.26    5.21
  -8   3  -3   -5.18    5.45
  -8   3  -3    2.28    6.31
  -8   3  -4    3.03    5.88
   0   0   0    0.00    0.00


TITL 1a in P2(1)2(1)2(1)
REM P2(1)2(1)2(1) (#19 in standard setting)
CELL 0.71073   6.998650   8.773982  10.086280  90.0000  90.0000  90.0000
ZERR    4.00   0.000312   0.001464   0.000916   0.0000   0.0000   0.0000
LATT -1
SYMM -x+1/2,-y, z+1/2
SYMM -x, y+1/2,-z+1/2
SYMM  x+1/2,-y+1/2,-z
SFAC C H N Cl
UNIT 16.00 8.00 20.00 4.00
TREF
HKLF 4
END
_computing_structure_solution     'SHELXT 2014/5 (Sheldrick, 2014)'
;
_shelx_hkl_checksum              78781
_olex2_submission_special_instructions 'No special instructions were received'
_oxdiff_exptl_absorpt_empirical_details
;
Empirical correction (ABSPACK) includes:
- Absorption correction using spherical harmonics
- Frame scaling
;
_oxdiff_exptl_absorpt_empirical_full_max 2.107
_oxdiff_exptl_absorpt_empirical_full_min 0.797
loop_
_space_group_symop_operation_xyz
'x, y, z'
'-x+1/2, -y, z+1/2'
'-x, y+1/2, -z+1/2'
'x+1/2, -y+1/2, -z'
loop_
_atom_site_label
_atom_site_type_symbol
_atom_site_fract_x
_atom_site_fract_y
_atom_site_fract_z
_atom_site_U_iso_or_equiv
_atom_site_adp_type
_atom_site_occupancy
_atom_site_site_symmetry_order
_atom_site_calc_flag
_atom_site_refinement_flags_posn
_atom_site_refinement_flags_adp
_atom_site_refinement_flags_occupancy
_atom_site_disorder_assembly
_atom_site_disorder_group
Cl1 Cl 0.2920(2) 0.3336(3) 0.32339(17) 0.0755(10) Uani 1 1 d . . . . .
N4 N 0.3537(8) 0.7494(13) 0.4127(5) 0.047(3) Uani 1 1 d . . . . .
N5 N 0.3663(7) 0.5973(13) 0.4200(5) 0.048(2) Uani 1 1 d . . . . .
N3 N 0.4249(7) 0.8405(12) 0.5071(5) 0.063(3) Uani 1 1 d . . . . .
N2 N 0.3848(10) 0.9793(14) 0.4648(8) 0.074(3) Uani 1 1 d . . . . .
N1 N 0.2950(8) 0.9840(11) 0.3477(6) 0.064(3) Uani 1 1 d . . . . .
C9 C 0.2750(8) 0.8358(11) 0.3158(5) 0.046(3) Uani 1 1 d . . . . .
C7 C 0.2010(10) 0.6046(13) 0.2087(6) 0.053(3) Uani 1 1 d . . . . .
H7 H 0.148452 0.548371 0.139555 0.063 Uiso 1 1 calc R U . . .
C6 C 0.2873(7) 0.5303(11) 0.3180(5) 0.042(2) Uani 1 1 d . . . . .
C8 C 0.1965(9) 0.7567(12) 0.2066(5) 0.055(3) Uani 1 1 d . . . . .
H8 H 0.143226 0.809035 0.135421 0.066 Uiso 1 1 calc R U . . .
loop_
_atom_site_aniso_label
_atom_site_aniso_U_11
_atom_site_aniso_U_22
_atom_site_aniso_U_33
_atom_site_aniso_U_23
_atom_site_aniso_U_13
_atom_site_aniso_U_12
Cl1 0.0761(9) 0.055(3) 0.0955(14) -0.0035(10) 0.0249(8) -0.0021(14)
N4 0.048(2) 0.059(11) 0.033(4) -0.002(3) 0.001(2) -0.002(4)
N5 0.055(3) 0.043(10) 0.046(4) 0.004(3) 0.001(2) 0.004(4)
N3 0.078(3) 0.056(12) 0.055(4) -0.012(4) -0.008(2) -0.008(5)
N2 0.088(4) 0.052(14) 0.083(6) -0.026(4) 0.010(3) -0.019(4)
N1 0.065(3) 0.067(10) 0.060(4) -0.017(3) 0.007(3) -0.003(4)
C9 0.047(2) 0.058(13) 0.032(4) 0.004(4) 0.003(2) -0.003(4)
C7 0.057(3) 0.060(11) 0.041(5) -0.006(3) -0.005(3) -0.008(5)
C6 0.051(3) 0.019(9) 0.057(4) 0.001(3) 0.013(3) -0.003(4)
C8 0.057(3) 0.072(12) 0.036(5) 0.010(3) -0.001(3) -0.001(5)
loop_
_atom_type_symbol
_atom_type_description
_atom_type_scat_dispersion_real
_atom_type_scat_dispersion_imag
_atom_type_scat_source
C C 0.0033 0.0016 'International Tables Vol C Tables 4.2.6.8 and 6.1.1.4'
H H 0.0000 0.0000 'International Tables Vol C Tables 4.2.6.8 and 6.1.1.4'
Cl Cl 0.1484 0.1585 'International Tables Vol C Tables 4.2.6.8 and 6.1.1.4'
N N 0.0061 0.0033 'International Tables Vol C Tables 4.2.6.8 and 6.1.1.4'
loop_
_geom_angle_atom_site_label_1
_geom_angle_atom_site_label_2
_geom_angle_atom_site_label_3
_geom_angle
_geom_angle_site_symmetry_1
_geom_angle_site_symmetry_3
_geom_angle_publ_flag
N5 N4 C9 128.6(6) . . ?
N3 N4 N5 122.1(7) . . ?
N3 N4 C9 109.3(10) . . ?
C6 N5 N4 112.2(6) . . ?
N2 N3 N4 104.0(7) . . ?
N3 N2 N1 114.4(9) . . ?
N2 N1 C9 103.3(7) . . ?
N4 C9 C8 116.5(9) . . ?
N1 C9 N4 109.0(5) . . ?
N1 C9 C8 134.5(8) . . ?
C6 C7 H7 120.6 . . ?
C8 C7 H7 120.6 . . ?
C8 C7 C6 118.9(6) . . ?
N5 C6 Cl1 114.6(7) . . ?
N5 C6 C7 125.9(10) . . ?
C7 C6 Cl1 119.5(6) . . ?
C9 C8 H8 121.0 . . ?
C7 C8 C9 118.0(6) . . ?
C7 C8 H8 121.0 . . ?
loop_
_geom_bond_atom_site_label_1
_geom_bond_atom_site_label_2
_geom_bond_distance
_geom_bond_site_symmetry_2
_geom_bond_publ_flag
Cl1 C6 1.727(9) . ?
N4 N5 1.340(8) . ?
N4 N3 1.339(11) . ?
N4 C9 1.354(11) . ?
N5 C6 1.308(10) . ?
N3 N2 1.320(13) . ?
N2 N1 1.339(9) . ?
N1 C9 1.347(11) . ?
C9 C8 1.413(10) . ?
C7 H7 0.9300 . ?
C7 C6 1.416(11) . ?
C7 C8 1.336(8) . ?
C8 H8 0.9300 . ?
loop_
_geom_torsion_atom_site_label_1
_geom_torsion_atom_site_label_2
_geom_torsion_atom_site_label_3
_geom_torsion_atom_site_label_4
_geom_torsion
_geom_torsion_site_symmetry_1
_geom_torsion_site_symmetry_2
_geom_torsion_site_symmetry_3
_geom_torsion_site_symmetry_4
_geom_torsion_publ_flag
N4 N5 C6 Cl1 -178.1(4) . . . . ?
N4 N5 C6 C7 1.5(9) . . . . ?
N4 N3 N2 N1 -1.1(7) . . . . ?
N4 C9 C8 C7 1.8(9) . . . . ?
N5 N4 N3 N2 -179.9(5) . . . . ?
N5 N4 C9 N1 -179.4(6) . . . . ?
N5 N4 C9 C8 -0.6(10) . . . . ?
N3 N4 N5 C6 179.8(5) . . . . ?
N3 N4 C9 N1 -0.1(7) . . . . ?
N3 N4 C9 C8 178.7(5) . . . . ?
N3 N2 N1 C9 1.1(7) . . . . ?
N2 N1 C9 N4 -0.6(7) . . . . ?
N2 N1 C9 C8 -179.0(6) . . . . ?
N1 C9 C8 C7 -179.9(7) . . . . ?
C9 N4 N5 C6 -1.0(10) . . . . ?
C9 N4 N3 N2 0.7(7) . . . . ?
C6 C7 C8 C9 -1.3(10) . . . . ?
C8 C7 C6 Cl1 179.2(5) . . . . ?
C8 C7 C6 N5 -0.4(10) . . . . ?
