#------------------------------------------------------------------------------
#$Date: 2022-03-02 05:20:08 +0200 (Wed, 02 Mar 2022) $
#$Revision: 273207 $
#$URL: file:///home/coder/svn-repositories/cod/cif/1/56/64/1566430.cif $
#------------------------------------------------------------------------------
#
# This file is available in the Crystallography Open Database (COD),
# http://www.crystallography.net/. The original data for this entry
# were provided by IUCr Journals, http://journals.iucr.org/.
#
# The file may be used within the scientific community so long as
# proper attribution is given to the journal article from which the
# data were obtained.
#
data_1566430
loop_
_publ_author_name
'Ruth, Paul Niklas'
'Herbst-Irmer, Regine'
'Stalke, Dietmar'
_publ_section_title
;
 Hirshfeld atom refinement based on projector augmented wave densities
 with periodic boundary conditions
;
_journal_issue                   2
_journal_name_full               IUCrJ
_journal_page_first              286
_journal_page_last               297
_journal_paper_doi               10.1107/S2052252522001385
_journal_volume                  9
_journal_year                    2022
_chemical_absolute_configuration unk
_chemical_formula_moiety         'C3 H7 N O2'
_chemical_formula_sum            'C3 H7 N O2'
_chemical_formula_weight         89.095
_space_group_crystal_system      orthorhombic
_space_group_IT_number           19
_space_group_name_Hall           'P 2ac 2ab'
_space_group_name_H-M_alt        'P 21 21 21'
_symmetry_Int_Tables_number      19
_audit_creation_date             2021-10-19
_audit_creation_method
;
Olex2 1.5
(compiled 2021.10.07 svn.r9718050b for OlexSys, GUI svn.r6410)
;
_cell_angle_alpha                90
_cell_angle_beta                 90
_cell_angle_gamma                90
_cell_formula_units_Z            4
_cell_length_a                   5.9279(10)
_cell_length_b                   12.2597(17)
_cell_length_c                   5.7939(9)
_cell_measurement_reflns_used    1524
_cell_measurement_temperature    23.15
_cell_measurement_theta_max      22.5
_cell_measurement_theta_min      15.0
_cell_volume                     421.07(11)
_computing_molecular_graphics    'Olex2 1.5 (Dolomanov et al., 2009)'
_computing_publication_material  'Olex2 1.5 (Dolomanov et al., 2009)'
_computing_structure_refinement  'olex2.refine 1.5 (Bourhis et al., 2015)'
_diffrn_ambient_temperature      23
_diffrn_measured_fraction_theta_full 0.9937
_diffrn_measured_fraction_theta_max 0.9933
_diffrn_measurement_device_type  'P-1 four circle diffractometer'
_diffrn_measurement_method       'area detector'
_diffrn_radiation_type           'Mo K\a'
_diffrn_radiation_wavelength     0.71073
_diffrn_reflns_av_unetI/netI     0.0242
_diffrn_reflns_Laue_measured_fraction_full 0.9937
_diffrn_reflns_Laue_measured_fraction_max 0.9933
_diffrn_reflns_limit_h_max       12
_diffrn_reflns_limit_h_min       0
_diffrn_reflns_limit_k_max       26
_diffrn_reflns_limit_k_min       0
_diffrn_reflns_limit_l_max       12
_diffrn_reflns_limit_l_min       0
_diffrn_reflns_number            2519
_diffrn_reflns_point_group_measured_fraction_full 0.9937
_diffrn_reflns_point_group_measured_fraction_max 0.9933
_diffrn_reflns_theta_full        25.2417
_diffrn_reflns_theta_max         50.14
_diffrn_reflns_theta_min         3.32
_exptl_absorpt_coefficient_mu    0.117
_exptl_absorpt_correction_type   none
_exptl_crystal_colour            colorless
_exptl_crystal_density_diffrn    1.405
_exptl_crystal_density_method    'not measured'
_exptl_crystal_description       sphere
_exptl_crystal_F_000             192.122
_exptl_crystal_size_rad          0.18
_refine_diff_density_max         0.1781
_refine_diff_density_min         -0.2023
_refine_diff_density_rms         0.0434
_refine_ls_d_res_high            0.4630
_refine_ls_d_res_low             6.1299
_refine_ls_goodness_of_fit_ref   1.1280
_refine_ls_hydrogen_treatment    refall
_refine_ls_matrix_type           full
_refine_ls_number_constraints    0
_refine_ls_number_parameters     118
_refine_ls_number_reflns         2519
_refine_ls_number_restraints     0
_refine_ls_restrained_S_all      1.1280
_refine_ls_R_factor_all          0.0207
_refine_ls_R_factor_gt           0.0189
_refine_ls_shift/su_max          0.0002
_refine_ls_shift/su_mean         0.0001
_refine_ls_structure_factor_coef Fsqd
_refine_ls_weighting_details
'w=1/[\s^2^(Fo^2^)+(0.0000P)^2^] where P=(Fo^2^+2Fc^2^)/3'
_refine_ls_weighting_scheme      calc
_refine_ls_wR_factor_gt          0.0315
_refine_ls_wR_factor_ref         0.0317
_reflns_Friedel_coverage         0.0
_reflns_limit_h_max              12
_reflns_limit_h_min              0
_reflns_limit_k_max              26
_reflns_limit_k_min              0
_reflns_limit_l_max              12
_reflns_limit_l_min              0
_reflns_number_gt                2393
_reflns_number_total             2519
_reflns_threshold_expression     I>=2u(I)
_iucr_refine_instructions_details
;
TITL L-Ala_23K_P 21 21 21 R = 0.03
CELL 0.71073 5.9279 12.2597 5.7939 90 90 90
ZERR 4 0.001 0.0017 0.0009 0 0 0
LATT -1
SYMM 0.5-X,-Y,0.5+Z
SYMM 0.5+X,0.5-Y,-Z
SYMM -X,0.5+Y,0.5-Z
SFAC C H N O
UNIT 12 28 4 8

L.S. 100
PLAN  -20
TEMP -250
CONF
LIST 6
FMAP 2
BOND $H
ACTA 
MORE -1
WGHT 0
FVAR 1.349381
REM <olex2.extras>
REM <HklSrc "%.\\b3lyp.hkl">
REM </olex2.extras>

O1    4     0.72675  0.08378  0.62428  11.00000  0.00670  0.00709  0.00583 =
 0.00052 -0.00064  0.00246 
O2    4     0.44090  0.18404  0.76113  11.00000  0.00753  0.00761  0.00391 =
 -0.00054  0.00056  0.00213 
N1    3     0.64729  0.13751  0.18294  11.00000  0.00555  0.00608  0.00424 =
 -0.00015  0.00068  0.00012 
H1    2     0.70467  0.06052  0.19915  11.00000  0.02594  0.02651  0.01834 =
 0.00100  0.01161  0.00377 
H2    2     0.77835  0.18956  0.21152  11.00000  0.01499  0.02684  0.02154 =
 -0.00076  0.00628  0.00238 
H3    2     0.58390  0.14933  0.01688  11.00000  0.03242  0.02210  0.02639 =
 -0.01156  0.02551 -0.00665 
C1    1     0.46632  0.16110  0.35439  11.00000  0.00519  0.00471  0.00351 =
 0.00010 -0.00048  0.00042 
H4    2     0.42332  0.24752  0.34328  11.00000  0.02407  0.01282  0.01984 =
 -0.00089  0.00236  0.00793 
C2    1     0.25988  0.09068  0.30333  11.00000  0.00580  0.00884  0.00612 =
 -0.00047 -0.00059 -0.00133 
H5    2     0.19153  0.11032  0.13192  11.00000  0.02031  0.05041  0.01606 =
 0.01013 -0.00981 -0.01019 
H6    2     0.12697  0.10541  0.43091  11.00000  0.01267  0.03270  0.03301 =
 0.00380  0.00802 -0.00337 
H7    2     0.30399  0.00471  0.30817  11.00000  0.03258  0.01704  0.04757 =
 -0.00390  0.00149 -0.00397 
C3    1     0.55404  0.14080  0.59986  11.00000  0.00484  0.00430  0.00350 =
 -0.00004 -0.00018  0.00030 
HKLF 4

END
Q1 1 0.388889 0.152778 0.71875 11 0.05 0.18
Q2 1 0.194444 0.041667 0.09375 11 0.05 0.17
Q3 1 0.638889 0.125 0.625 11 0.05 0.16
Q4 1 0.75 0.138889 0.21875 11 0.05 0.16
Q5 1 0.5 0.138889 0.53125 11 0.05 0.16

  REM The information below was added by Olex2.
  REM
  REM R1 = 0.0189 for 2393 Fo > 4sig(Fo) and 0.0207 for all 2519 data
  REM 118 parameters refined using 0 restraints
  REM Highest difference peak 0.1781, deepest hole -0.2023
  REM Mean Shift 0.0001, Max Shift 0.0002.

  REM +++ Tabular Listing of Refinement Information +++
  REM R1_all = 0.0207
  REM R1_gt = 0.0189
  REM wR_ref = 0.0317
  REM GOOF = 1.1280
  REM Shift_max = 0.0002
  REM Shift_mean = 0.0001
  REM Reflections_all = 2519
  REM Reflections_gt = 2393
  REM Parameters = 118
  REM Hole = -0.2023
  REM Peak = 0.1781
  REM Flack = n/a

  
;
_cod_data_source_file            fc5060.cif
_cod_data_source_block           A23_NoSpherA2_B3LYP_ORCA
_cod_original_sg_symbol_Hall     ' P 2ac 2ab'
_cod_database_code               1566430
_olex2_refinement_description
;
;
_iucr_refine_fcf_details
;
data_A23_NoSpherA2_B3LYP_ORCA
_computing_structure_refinement   'olex2.refine 1.5 (Bourhis et al., 2015)'
_shelx_refln_list_code            4
loop_
  _space_group_symop_id
  _space_group_symop_operation_xyz
  1  x,y,z
  2  x+1/2,-y+1/2,-z
  3  -x,y+1/2,-z+1/2
  4  -x+1/2,-y,z+1/2

_space_group_crystal_system       orthorhombic
_space_group_IT_number            19
_space_group_name_H-M_alt         'P 21 21 21'
_space_group_name_Hall            ' P 2ac 2ab'
_symmetry_space_group_name_H-M    'P 21 21 21'
_symmetry_space_group_name_Hall   ' P 2ac 2ab'
_symmetry_Int_Tables_number       19
_cell_length_a                    5.9279(10)
_cell_length_b                    12.2597(17)
_cell_length_c                    5.7939(9)
_cell_angle_alpha                 90
_cell_angle_beta                  90
_cell_angle_gamma                 90
_cell_volume                      421.07(11)
loop_
  _refln_index_h
  _refln_index_k
  _refln_index_l
  _refln_F_squared_calc
  _refln_F_squared_meas
  _refln_F_squared_sigma
  _refln_F_squared_weight
  _refln_observed_status
0 0 2 2861.580 2844.500 33.331 0.044 o
0 0 4 214.116 209.822 3.905 3.241 o
0 0 6 0.515 0.785 0.626 126.079 o
0 0 8 25.357 24.494 1.510 21.666 o
0 0 10 4.928 4.811 1.230 32.655 o
0 0 12 0.019 2.482 9.205 0.583 o
0 1 1 735.007 724.944 7.332 0.919 o
0 1 2 521.124 533.554 6.557 1.149 o
0 1 3 86.285 84.050 1.746 16.203 o
0 1 4 37.152 39.850 1.203 34.163 o
0 1 5 249.314 236.271 4.520 2.419 o
0 1 6 94.464 93.814 2.449 8.237 o
0 1 7 63.407 58.819 2.054 11.714 o
0 1 8 3.146 3.586 0.950 54.747 o
0 1 9 6.598 8.529 1.164 36.457 o
0 1 10 0.003 0.005 1.005 48.927 o
0 1 11 0.603 0.483 1.219 33.246 o
0 1 12 28.888 27.032 2.252 9.747 o
0 2 0 181.614 183.911 1.757 16.001 o
0 2 1 120.008 119.627 1.219 33.246 o
0 2 2 175.196 181.703 2.076 11.467 o
0 2 3 157.505 157.879 2.927 5.768 o
0 2 4 89.636 93.122 2.054 11.714 o
0 2 5 135.105 137.371 2.955 5.661 o
0 2 6 15.666 16.212 1.027 46.856 o
0 2 7 548.043 541.594 9.732 0.522 o
0 2 8 9.561 8.716 1.148 37.511 o
0 2 9 48.269 46.413 2.197 10.241 o
0 2 10 21.304 20.716 1.735 16.409 o
0 2 11 2.093 2.702 1.236 32.366 o
0 2 12 19.342 20.222 1.966 12.784 o
0 3 1 690.649 709.095 6.404 1.205 o
0 3 2 58.388 56.233 0.796 77.932 o
0 3 3 202.335 205.577 2.455 8.200 o
0 3 4 7.131 8.007 0.450 243.682 o
0 3 5 49.588 49.247 1.538 20.899 o
0 3 6 0.852 1.488 0.648 117.676 o
0 3 7 0.000 0.467 0.769 83.598 o
0 3 8 17.065 15.729 1.346 27.297 o
0 3 9 62.231 63.394 2.532 7.710 o
0 3 10 49.772 49.000 2.416 8.463 o
0 3 11 7.721 6.799 1.483 22.476 o
0 3 12 118.536 116.310 3.960 3.152 o
0 4 0 5359.060 5189.340 44.480 0.025 o
0 4 1 95.111 98.345 1.065 43.536 o
0 4 2 172.787 171.334 1.790 15.418 o
0 4 3 716.049 739.553 7.777 0.817 o
0 4 4 225.564 229.632 2.839 6.130 o
0 4 5 385.771 389.356 4.586 2.350 o
0 4 6 16.322 15.998 1.087 41.795 o
0 4 7 11.681 11.791 1.098 40.963 o
0 4 8 2.114 1.730 0.950 54.747 o
0 4 9 21.105 22.237 1.626 18.701 o
0 4 10 27.288 28.361 1.944 13.075 o
0 4 11 1.193 0.917 1.291 29.670 o
0 4 12 0.283 0.423 1.417 24.616 o
0 5 1 0.264 0.231 0.165 1820.570 o
0 5 2 552.383 567.242 5.327 1.741 o
0 5 3 77.733 81.375 1.197 34.478 o
0 5 4 0.301 0.676 0.373 354.351 o
0 5 5 184.573 177.848 2.433 8.349 o
0 5 6 85.087 86.318 1.571 20.032 o
0 5 7 25.019 24.099 1.433 24.053 o
0 5 9 1.264 1.653 0.961 53.503 o
0 5 10 32.706 32.727 2.059 11.652 o
0 5 11 1.475 0.895 1.291 29.670 o
0 5 12 9.498 9.787 1.719 16.725 o
0 6 0 89.966 89.756 1.043 45.388 o
0 6 1 471.759 475.316 4.580 2.356 o
0 6 2 92.689 96.786 1.170 36.115 o
0 6 3 268.918 272.546 2.845 6.106 o
0 6 4 71.103 70.984 1.230 32.655 o
0 6 5 0.750 0.774 0.412 291.292 o
0 6 6 12.769 11.182 0.654 115.706 o
0 6 7 43.346 43.200 1.219 33.246 o
0 6 8 10.065 10.281 0.818 73.804 o
0 6 9 1.271 1.582 0.983 51.138 o
0 6 10 41.860 41.646 2.329 9.114 o
0 6 11 8.984 7.727 1.538 20.899 o
0 6 12 55.806 55.826 2.757 6.502 o
0 7 1 36.627 36.956 0.610 132.986 o
0 7 2 5.227 5.421 0.341 426.253 o
0 7 3 22.283 22.418 0.571 151.490 o
0 7 4 30.545 29.234 0.780 81.260 o
0 7 5 7.406 6.629 0.527 177.790 o
0 7 6 143.757 142.150 2.246 9.795 o
0 7 7 47.624 46.682 1.280 30.181 o
0 7 8 58.762 59.676 1.565 20.173 o
0 7 9 47.817 46.561 1.527 21.201 o
0 7 10 54.422 54.393 2.603 7.293 o
0 7 11 2.602 3.097 1.351 27.076 o
0 7 12 67.795 64.877 3.043 5.339 o
0 8 0 44.931 45.386 0.719 95.479 o
0 8 1 44.589 44.392 0.730 92.629 o
0 8 2 109.957 111.806 1.400 25.198 o
0 8 3 60.670 61.692 0.994 50.014 o
0 8 4 66.334 64.531 1.076 42.652 o
0 8 5 147.911 145.329 2.180 10.396 o
0 8 6 30.623 30.025 0.989 50.572 o
0 8 7 1.540 1.950 0.434 262.541 o
0 8 8 89.388 87.564 1.928 13.300 o
0 8 9 79.079 79.716 1.944 13.075 o
0 8 10 58.247 60.247 1.801 15.230 o
0 8 11 7.832 8.403 1.538 20.899 o
0 9 1 32.142 32.106 0.665 111.913 o
0 9 2 22.013 23.703 0.599 137.911 o
0 9 3 147.066 142.831 1.785 15.513 o
0 9 4 7.260 7.200 0.461 232.216 o
0 9 5 74.229 69.408 1.428 24.238 o
0 9 6 12.127 14.362 0.774 82.416 o
0 9 7 4.406 4.943 0.516 185.436 o
0 9 8 11.391 12.275 0.868 65.635 o
0 9 9 17.095 16.487 1.071 43.090 o
0 9 10 6.665 6.739 0.659 113.786 o
0 9 11 7.782 8.007 0.769 83.598 o
0 10 0 0.692 0.802 0.341 426.253 o
0 10 1 135.865 137.410 1.697 17.161 o
0 10 2 46.150 46.287 0.862 66.474 o
0 10 3 39.135 39.647 0.835 70.919 o
0 10 4 88.727 90.404 1.384 25.802 o
0 10 5 8.859 7.958 0.549 163.852 o
0 10 6 15.255 15.619 0.824 72.823 o
0 10 7 10.196 9.227 0.807 75.826 o
0 10 8 5.464 6.546 0.697 101.588 o
0 10 9 13.878 13.862 1.022 47.361 o
0 10 10 1.151 1.862 0.522 181.553 o
0 10 11 0.753 1.571 0.538 170.608 o
0 11 1 67.676 66.766 1.109 40.156 o
0 11 2 84.839 83.841 1.263 30.974 o
0 11 3 69.281 70.424 1.181 35.447 o
0 11 4 98.120 98.049 1.516 21.510 o
0 11 5 21.926 20.760 0.780 81.260 o
0 11 6 119.305 117.287 1.900 13.687 o
0 11 7 30.039 31.420 1.186 35.119 o
0 11 8 41.008 40.125 1.406 25.002 o
0 11 9 1.741 2.246 0.527 177.790 o
0 11 10 17.680 16.394 1.148 37.511 o
0 11 11 9.138 8.353 0.840 69.995 o
0 12 0 236.647 232.938 2.664 6.966 o
0 12 1 77.308 76.405 1.230 32.655 o
0 12 2 28.500 28.273 0.752 87.299 o
0 12 3 118.495 119.001 1.697 17.161 o
0 12 4 39.109 39.032 0.961 53.503 o
0 12 5 1.260 1.488 0.330 455.144 o
0 12 6 6.416 6.316 0.555 160.623 o
0 12 7 5.029 5.843 0.643 119.696 o
0 12 8 40.291 40.256 1.444 23.689 o
0 12 9 35.742 34.913 1.395 25.397 o
0 12 10 12.048 13.433 0.928 57.369 o
0 12 11 31.955 30.184 1.406 25.002 o
0 13 1 19.621 18.849 0.692 103.207 o
0 13 2 21.835 21.507 0.697 101.588 o
0 13 3 145.051 145.615 1.999 12.367 o
0 13 4 10.620 11.495 0.648 117.676 o
0 13 5 77.487 79.239 1.505 21.825 o
0 13 6 4.281 4.784 0.483 211.585 o
0 13 7 13.307 11.649 0.796 77.932 o
0 13 8 32.857 32.172 1.346 27.297 o
0 13 9 28.925 29.168 1.340 27.521 o
0 13 10 11.664 12.549 1.049 44.914 o
0 14 0 56.652 58.611 1.126 38.989 o
0 14 1 39.746 37.933 0.945 55.385 o
0 14 2 22.242 21.309 0.752 87.299 o
0 14 3 28.832 27.839 0.857 67.329 o
0 14 4 143.703 142.523 2.087 11.347 o
0 14 5 2.692 3.520 0.406 299.218 o
0 14 6 10.773 11.698 0.736 91.252 o
0 14 7 1.048 1.477 0.384 334.391 o
0 14 8 11.345 12.549 0.983 51.138 o
0 14 9 0.696 0.286 0.489 206.857 o
0 14 10 46.094 43.606 1.626 18.701 o
0 15 1 90.692 91.035 1.560 20.315 o
0 15 2 183.124 181.456 2.389 8.659 o
0 15 3 90.105 90.525 1.587 19.618 o
0 15 4 46.093 45.298 1.181 35.447 o
0 15 5 13.206 14.109 0.791 79.018 o
0 15 6 0.023 0.093 0.341 426.253 o
0 15 8 0.059 0.555 0.384 334.391 o
0 15 9 46.495 47.341 1.642 18.328 o
0 15 10 5.062 5.860 0.648 117.676 o
0 16 0 24.616 25.263 0.857 67.329 o
0 16 1 0.350 2.384 9.205 0.583 o
0 16 2 3.924 4.449 0.406 299.218 o
0 16 3 155.074 154.902 2.263 9.653 o
0 16 4 94.104 94.743 1.741 16.305 o
0 16 5 13.684 13.291 0.796 77.932 o
0 16 6 43.618 41.563 1.280 30.181 o
0 16 7 83.382 81.754 1.818 14.955 o
0 16 8 0.627 1.000 0.401 307.472 o
0 16 9 13.324 14.466 1.093 41.376 o
0 17 1 0.883 1.131 0.346 412.829 o
0 17 2 63.478 61.109 1.384 25.802 o
0 17 3 48.641 47.248 1.241 32.080 o
0 17 4 5.312 5.712 0.461 232.216 o
0 17 5 73.597 77.075 1.659 17.965 o
0 17 6 29.450 29.141 1.109 40.156 o
0 17 7 0.493 1.054 0.401 307.472 o
0 17 8 7.163 6.574 0.549 163.852 o
0 17 9 15.285 15.537 0.989 50.572 o
0 18 0 225.241 227.808 2.977 5.578 o
0 18 1 61.375 59.923 1.368 26.427 o
0 18 2 19.397 20.419 0.912 59.461 o
0 18 3 28.091 27.021 0.994 50.014 o
0 18 4 10.252 9.638 0.741 89.905 o
0 18 5 2.683 2.334 0.417 283.677 o
0 18 6 6.930 7.804 0.686 104.865 o
0 18 7 1.426 2.307 0.439 256.018 o
0 18 8 0.263 0.577 0.401 307.472 o
0 18 9 8.548 8.589 0.643 119.696 o
0 19 1 15.671 16.169 0.895 61.670 o
0 19 2 117.710 119.967 2.092 11.288 o
0 19 3 3.042 2.504 0.406 299.218 o
0 19 4 3.832 3.361 0.439 256.018 o
0 19 5 14.053 13.631 0.895 61.670 o
0 19 6 43.355 44.244 1.389 25.598 o
0 19 7 5.376 6.865 0.555 160.623 o
0 19 8 10.386 9.232 0.769 83.598 o
0 20 0 0.024 0.220 0.341 426.253 o
0 20 1 27.823 27.460 1.049 44.914 o
0 20 2 0.876 0.978 0.406 299.218 o
0 20 3 43.395 44.469 1.340 27.521 o
0 20 4 1.623 1.834 0.412 291.292 o
0 20 5 0.151 0.297 0.401 307.472 o
0 20 6 1.342 1.840 0.428 269.316 o
0 20 7 137.434 135.328 2.449 8.237 o
0 20 8 5.914 6.162 0.527 177.790 o
0 21 1 2.112 2.691 0.423 276.356 o
0 21 2 46.036 45.974 1.362 26.641 o
0 21 3 0.795 0.873 0.384 334.391 o
0 21 4 0.480 0.187 0.373 354.351 o
0 21 5 21.361 19.650 1.038 45.870 o
0 21 6 22.532 21.314 1.087 41.795 o
0 21 7 0.455 0.912 0.395 316.072 o
0 22 0 133.181 135.636 2.356 8.903 o
0 22 2 37.157 36.840 1.291 29.670 o
0 22 3 0.631 1.159 0.406 299.218 o
0 22 4 3.531 4.355 0.494 202.286 o
0 22 5 4.846 5.497 0.527 177.790 o
0 22 6 10.502 10.589 0.774 82.416 o
0 23 1 1.772 1.730 0.423 276.356 o
0 23 2 16.817 18.025 1.027 46.856 o
0 23 3 26.792 28.180 1.164 36.457 o
0 23 4 0.027 0.121 0.401 307.472 o
0 23 5 13.981 12.533 0.961 53.503 o
0 23 6 17.072 17.014 0.994 50.014 o
0 24 0 0.076 0.231 0.379 344.154 o
0 24 1 0.029 0.165 0.384 334.391 o
0 24 2 1.809 2.493 0.456 237.845 o
0 24 3 12.002 12.725 0.912 59.461 o
0 24 4 26.211 26.592 1.137 38.239 o
0 24 5 0.342 0.258 0.379 344.154 o
0 25 1 2.353 2.993 0.560 157.489 o
0 25 2 21.461 22.479 1.263 30.974 o
0 25 3 5.882 4.981 0.577 148.618 o
0 25 4 2.194 2.900 0.511 189.446 o
0 26 0 5.424 6.453 0.615 130.622 o
0 26 1 19.692 19.799 1.236 32.366 o
0 26 2 1.694 2.559 0.500 197.865 o
1 0 1 72.376 76.861 0.835 70.919 o
1 0 2 3231.290 3108.580 36.170 0.038 o
1 0 3 29.440 32.079 0.923 58.054 o
1 0 4 332.861 328.773 5.838 1.450 o
1 0 5 280.565 284.903 5.311 1.752 o
1 0 6 0.616 0.071 0.632 123.895 o
1 0 7 247.310 248.266 5.157 1.858 o
1 0 8 10.153 10.462 1.203 34.163 o
1 0 9 0.139 0.038 0.928 57.369 o
1 0 10 2.724 3.487 1.175 35.779 o
1 0 11 1.584 0.807 1.291 29.670 o
1 0 12 16.180 17.915 1.928 13.300 o
1 1 0 252.226 251.726 2.367 8.821 o
1 1 1 130.088 133.697 1.357 26.857 o
1 1 2 72.493 71.742 0.939 56.035 o
1 1 3 292.706 302.895 5.234 1.804 o
1 1 4 246.852 260.354 4.734 2.205 o
1 1 5 125.216 122.576 2.713 6.714 o
1 1 6 0.563 0.895 0.621 128.320 o
1 1 7 26.394 26.889 1.450 23.509 o
1 1 8 34.161 35.396 1.790 15.418 o
1 1 9 3.090 2.235 1.000 49.466 o
1 1 10 24.566 25.785 1.878 14.009 o
1 1 11 13.738 12.033 1.615 18.956 o
1 1 12 75.614 76.163 3.191 4.854 o
1 2 0 5364.670 5492.000 58.155 0.015 o
1 2 1 101.925 104.222 1.104 40.556 o
1 2 2 561.668 573.036 6.124 1.318 o
1 2 3 222.979 225.018 2.642 7.082 o
1 2 4 28.998 28.784 1.049 44.914 o
1 2 5 474.961 464.299 8.134 0.747 o
1 2 6 8.235 7.557 0.835 70.919 o
1 2 7 60.062 61.444 2.120 10.997 o
1 2 8 18.968 19.887 1.439 23.870 o
1 2 9 50.059 51.647 2.274 9.560 o
1 2 10 2.285 1.565 1.126 38.989 o
1 2 11 34.347 33.891 2.268 9.606 o
1 2 12 9.698 8.315 1.741 16.305 o
1 3 0 58.536 59.160 0.692 103.207 o
1 3 1 1075.500 1088.660 9.688 0.527 o
1 3 2 191.220 194.302 2.027 12.034 o
1 3 3 90.224 91.837 1.280 30.181 o
1 3 4 22.439 23.440 0.643 119.696 o
1 3 5 186.058 176.518 3.641 3.728 o
1 3 6 12.170 12.439 0.989 50.572 o
1 3 7 80.471 81.562 2.493 7.949 o
1 3 8 31.191 32.172 1.714 16.832 o
1 3 9 1.215 1.637 0.983 51.138 o
1 3 10 17.571 20.200 1.719 16.725 o
1 3 11 23.954 23.456 1.955 12.929 o
1 3 12 2.978 3.240 1.560 20.315 o
1 4 0 1709.380 1680.090 14.784 0.226 o
1 4 1 156.864 157.187 1.642 18.328 o
1 4 2 1061.440 1065.370 9.638 0.532 o
1 4 3 92.174 95.775 1.340 27.521 o
1 4 4 110.494 109.807 1.571 20.032 o
1 4 5 110.862 108.247 1.686 17.385 o
1 4 6 16.789 16.020 1.087 41.795 o
1 4 7 144.412 141.507 3.520 3.988 o
1 4 8 33.098 32.848 1.757 16.001 o
1 4 9 3.671 3.262 1.137 38.239 o
1 4 10 21.900 21.754 1.823 14.865 o
1 4 11 11.874 11.929 1.626 18.701 o
1 4 12 27.954 29.113 2.219 10.039 o
1 5 0 332.983 338.703 3.290 4.567 o
1 5 1 434.833 438.311 4.229 2.764 o
1 5 2 18.245 18.623 0.412 291.292 o
1 5 3 23.139 23.061 0.527 177.790 o
1 5 4 82.432 83.791 1.346 27.297 o
1 5 5 8.498 8.573 0.533 174.144 o
1 5 6 12.403 13.307 0.670 110.086 o
1 5 7 29.294 30.623 1.043 45.388 o
1 5 8 104.173 102.442 3.114 5.097 o
1 5 9 28.112 28.652 1.834 14.688 o
1 5 10 33.234 32.765 2.092 11.288 o
1 5 11 5.191 6.157 1.450 23.509 o
1 5 12 70.965 68.765 3.119 5.079 o
1 6 0 64.096 61.933 0.796 77.932 o
1 6 1 21.019 21.908 0.439 256.018 o
1 6 2 216.366 219.724 2.312 9.245 o
1 6 3 136.671 138.272 1.637 18.451 o
1 6 4 131.511 130.517 1.873 14.091 o
1 6 5 227.719 230.038 3.015 5.436 o
1 6 6 21.669 21.913 0.818 73.804 o
1 6 7 62.590 61.824 1.472 22.813 o
1 6 8 16.228 15.075 0.923 58.054 o
1 6 9 8.795 10.072 1.302 29.171 o
1 6 10 40.392 41.695 2.312 9.245 o
1 6 11 2.895 3.960 1.351 27.076 o
1 6 12 2.835 2.861 1.527 21.201 o
1 7 0 19.150 19.271 0.439 256.018 o
1 7 1 336.248 339.686 3.411 4.249 o
1 7 2 163.028 162.217 1.823 14.865 o
1 7 3 4.997 5.184 0.379 344.154 o
1 7 4 84.218 83.819 1.230 32.655 o
1 7 5 74.860 73.049 1.389 25.598 o
1 7 6 7.180 7.788 0.621 128.320 o
1 7 7 10.517 9.529 0.769 83.598 o
1 7 8 95.231 91.530 1.961 12.856 o
1 7 9 14.490 15.905 1.016 47.875 o
1 7 10 32.772 31.766 2.109 11.112 o
1 7 11 7.723 8.628 1.582 19.755 o
1 7 12 24.401 22.913 2.087 11.347 o
1 8 0 397.812 402.525 4.004 3.083 o
1 8 1 231.918 234.822 2.482 8.020 o
1 8 2 10.755 10.259 0.434 262.541 o
1 8 3 257.630 257.932 2.812 6.250 o
1 8 4 45.339 45.232 0.884 63.212 o
1 8 5 70.954 69.419 1.378 26.008 o
1 8 6 9.740 9.106 0.681 106.563 o
1 8 7 57.192 56.430 1.455 23.332 o
1 8 8 3.535 3.251 0.489 206.857 o
1 8 9 8.046 8.364 0.741 89.905 o
1 8 10 24.549 24.577 1.258 31.245 o
1 8 11 16.593 15.663 1.181 35.447 o
1 9 0 2.734 3.262 0.341 426.253 o
1 9 1 230.759 232.520 2.532 7.710 o
1 9 2 58.964 61.873 0.983 51.138 o
1 9 3 29.241 29.047 0.703 100.007 o
1 9 4 2.370 2.180 0.384 334.391 o
1 9 5 93.204 90.162 1.461 23.157 o
1 9 6 11.596 11.088 0.769 83.598 o
1 9 7 68.467 67.475 1.615 18.956 o
1 9 8 50.892 51.334 1.521 21.355 o
1 9 9 19.982 19.876 1.120 39.372 o
1 9 10 7.515 7.398 0.813 74.805 o
1 9 11 25.017 23.572 1.313 28.685 o
1 10 0 41.067 43.101 0.802 76.868 o
1 10 1 136.287 131.352 1.675 17.614 o
1 10 2 59.688 59.539 1.000 49.466 o
1 10 3 79.492 79.777 1.241 32.080 o
1 10 4 22.352 22.737 0.703 100.007 o
1 10 5 9.889 9.534 0.577 148.618 o
1 10 6 2.626 2.433 0.439 256.018 o
1 10 7 18.006 18.788 0.961 53.503 o
1 10 8 41.609 39.812 1.384 25.802 o
1 10 9 31.416 29.640 1.313 28.685 o
1 10 10 60.845 56.095 1.807 15.138 o
1 10 11 19.682 18.772 1.225 32.949 o
1 11 0 95.473 96.978 1.357 26.857 o
1 11 1 17.539 17.163 0.560 157.489 o
1 11 2 117.356 118.078 1.593 19.483 o
1 11 3 15.515 16.685 0.599 137.911 o
1 11 4 63.796 62.428 1.175 35.779 o
1 11 5 34.965 35.901 0.956 54.119 o
1 11 6 10.626 9.847 0.681 106.563 o
1 11 7 21.652 21.875 0.912 59.461 o
1 11 8 94.474 95.720 2.125 10.940 o
1 11 9 45.077 46.199 1.582 19.755 o
1 11 10 15.184 16.333 1.148 37.511 o
1 11 11 2.826 3.614 0.593 140.476 o
1 12 0 26.195 26.944 0.708 98.463 o
1 12 1 1.169 0.357 0.362 376.152 o
1 12 2 117.633 115.535 1.626 18.701 o
1 12 3 32.548 32.331 0.835 70.919 o
1 12 4 146.396 141.046 1.994 12.435 o
1 12 5 24.841 25.109 0.862 66.474 o
1 12 6 29.309 29.042 0.961 53.503 o
1 12 7 2.558 1.911 0.461 232.216 o
1 12 8 13.024 11.791 0.972 52.300 o
1 12 9 8.388 8.963 0.824 72.823 o
1 12 10 48.042 45.672 1.642 18.328 o
1 12 11 0.796 1.620 0.533 174.144 o
1 13 0 59.265 57.380 1.082 42.220 o
1 13 1 128.850 127.766 1.774 15.705 o
1 13 2 112.401 110.334 1.637 18.451 o
1 13 3 34.966 33.842 0.906 60.184 o
1 13 4 25.413 27.163 0.857 67.329 o
1 13 5 44.837 44.787 1.153 37.155 o
1 13 6 7.616 7.551 0.604 135.415 o
1 13 7 40.976 42.409 1.252 31.520 o
1 13 8 28.451 28.372 1.269 30.706 o
1 13 9 16.858 16.125 1.137 38.239 o
1 13 10 0.100 0.231 0.511 189.446 o
1 14 0 1.510 0.862 0.434 262.541 o
1 14 1 30.198 29.607 0.829 71.862 o
1 14 2 54.757 54.772 1.137 38.239 o
1 14 3 114.886 114.981 1.785 15.513 o
1 14 4 42.173 39.460 1.065 43.536 o
1 14 5 39.698 40.251 1.120 39.372 o
1 14 6 27.944 28.053 1.005 48.927 o
1 14 7 25.934 24.659 1.049 44.914 o
1 14 8 1.929 1.203 0.505 193.587 o
1 14 9 7.468 7.941 0.824 72.823 o
1 14 10 7.836 6.590 0.670 110.086 o
1 15 0 85.282 86.395 1.477 22.644 o
1 15 1 87.951 87.713 1.521 21.355 o
1 15 2 30.755 31.672 0.923 58.054 o
1 15 3 34.344 33.529 0.983 51.138 o
1 15 4 2.188 2.982 0.395 316.072 o
1 15 5 29.457 29.882 1.027 46.856 o
1 15 6 11.775 11.023 0.813 74.805 o
1 15 7 34.578 32.370 1.175 35.779 o
1 15 8 43.710 46.374 1.384 25.802 o
1 15 9 21.672 22.287 1.241 32.080 o
1 15 10 10.981 10.556 0.884 63.212 o
1 16 0 24.369 24.483 0.851 68.201 o
1 16 1 61.740 61.846 1.291 29.670 o
1 16 2 29.220 27.658 0.945 55.385 o
1 16 3 9.961 9.303 0.615 130.622 o
1 16 4 22.230 23.610 0.912 59.461 o
1 16 5 74.274 78.717 1.637 18.451 o
1 16 6 2.999 2.988 0.428 269.316 o
1 16 7 23.197 25.900 1.076 42.652 o
1 16 8 5.385 5.596 0.522 181.553 o
1 16 9 43.345 43.030 1.587 19.618 o
1 17 0 30.058 29.569 0.961 53.503 o
1 17 1 25.225 25.455 0.906 60.184 o
1 17 2 77.484 75.806 1.527 21.201 o
1 17 3 25.875 25.055 0.945 55.385 o
1 17 4 26.904 28.125 1.016 47.875 o
1 17 5 11.016 11.473 0.802 76.868 o
1 17 6 20.970 21.551 1.005 48.927 o
1 17 7 19.394 20.540 1.016 47.875 o
1 17 8 29.305 26.878 1.181 35.447 o
1 17 9 17.941 18.338 1.049 44.914 o
1 18 0 0.804 0.934 0.384 334.391 o
1 18 1 23.207 23.808 0.928 57.369 o
1 18 2 108.855 110.219 1.928 13.300 o
1 18 3 27.685 26.554 1.005 48.927 o
1 18 4 56.605 58.655 1.466 22.984 o
1 18 5 7.460 6.969 0.648 117.676 o
1 18 6 13.892 13.878 0.895 61.670 o
1 18 7 44.906 43.118 1.389 25.598 o
1 18 8 4.589 5.470 0.522 181.553 o
1 18 9 11.803 11.594 0.895 61.670 o
1 19 0 33.844 33.759 1.098 40.963 o
1 19 1 14.570 15.328 0.829 71.862 o
1 19 2 40.229 41.256 1.203 34.163 o
1 19 3 27.539 27.251 1.054 44.448 o
1 19 4 39.896 40.855 1.252 31.520 o
1 19 5 18.107 18.706 0.978 51.714 o
1 19 6 10.947 11.819 0.862 66.474 o
1 19 7 6.831 6.761 0.615 130.622 o
1 19 8 1.837 2.274 0.439 256.018 o
1 20 0 42.001 40.311 1.247 31.798 o
1 20 1 6.354 5.833 0.483 211.585 o
1 20 2 10.227 9.715 0.703 100.007 o
1 20 3 7.931 7.771 0.659 113.786 o
1 20 4 8.970 9.254 0.796 77.932 o
1 20 5 65.193 64.751 1.642 18.328 o
1 20 6 33.727 31.639 1.247 31.798 o
1 20 7 14.374 15.471 0.989 50.572 o
1 20 8 0.046 0.110 0.390 325.038 o
1 21 0 1.188 1.433 0.428 269.316 o
1 21 1 1.480 2.065 0.412 291.292 o
1 21 2 21.899 22.896 1.022 47.361 o
1 21 3 24.317 23.610 1.049 44.914 o
1 21 4 11.287 10.814 0.785 80.127 o
1 21 5 25.139 25.142 1.115 39.761 o
1 21 6 9.057 9.419 0.774 82.416 o
1 21 7 9.315 9.325 0.665 111.913 o
1 22 0 3.762 3.998 0.472 221.541 o
1 22 1 33.293 34.803 1.208 33.854 o
1 22 2 38.589 36.621 1.274 30.442 o
1 22 3 6.610 7.206 0.610 132.986 o
1 22 4 20.862 21.798 1.049 44.914 o
1 22 5 1.568 1.730 0.428 269.316 o
1 22 6 10.182 8.639 0.758 86.038 o
1 23 0 6.116 7.013 0.604 135.415 o
1 23 1 9.497 10.671 0.890 62.434 o
1 23 2 43.360 43.453 1.422 24.426 o
1 23 3 2.812 2.746 0.456 237.845 o
1 23 4 14.710 15.098 0.961 53.503 o
1 23 5 3.529 4.586 0.500 197.865 o
1 23 6 11.677 12.055 0.884 63.212 o
1 24 0 9.810 9.798 0.791 79.018 o
1 24 1 21.887 20.957 1.076 42.652 o
1 24 2 9.768 10.660 0.796 77.932 o
1 24 3 8.044 8.145 0.643 119.696 o
1 24 4 2.221 2.142 0.434 262.541 o
1 24 5 17.939 17.459 1.000 49.466 o
1 25 1 8.704 9.507 0.818 73.804 o
1 25 2 0.079 0.154 0.428 269.316 o
1 25 3 15.715 17.931 1.159 36.803 o
1 26 0 6.687 7.326 0.637 121.768 o
1 26 1 0.793 2.005 0.483 211.585 o
1 26 2 3.630 4.498 0.555 160.623 o
2 0 0 41.175 41.964 0.538 170.608 o
2 0 1 1.492 1.637 0.159 1948.300 o
2 0 2 3.986 4.201 0.225 974.727 o
2 0 3 135.336 132.225 1.532 21.049 o
2 0 4 51.754 56.842 1.532 21.049 o
2 0 5 145.687 144.681 3.108 5.115 o
2 0 6 76.059 76.575 2.208 10.139 o
2 0 7 6.900 7.431 0.989 50.572 o
2 0 8 55.315 54.168 2.202 10.190 o
2 0 9 72.933 75.828 2.773 6.425 o
2 0 10 50.627 49.779 2.449 8.237 o
2 0 11 12.192 12.615 1.675 17.614 o
2 0 12 48.063 46.748 2.653 7.024 o
2 1 0 30.908 31.151 0.439 256.018 o
2 1 1 78.385 78.069 0.884 63.212 o
2 1 2 305.424 308.881 3.054 5.300 o
2 1 3 138.839 140.535 1.582 19.755 o
2 1 4 103.302 107.023 1.543 20.751 o
2 1 5 37.138 34.012 1.307 28.927 o
2 1 6 90.774 94.100 2.510 7.845 o
2 1 7 45.114 44.002 1.818 14.955 o
2 1 8 59.114 58.918 2.301 9.333 o
2 1 9 16.055 17.514 1.505 21.825 o
2 1 10 68.209 67.299 2.828 6.178 o
2 1 11 11.083 9.935 1.598 19.349 o
2 1 12 21.807 20.606 2.098 11.229 o
2 2 0 1710.480 1680.060 14.801 0.226 o
2 2 1 276.694 277.632 2.730 6.633 o
2 2 2 1076.000 1085.370 9.825 0.512 o
2 2 3 378.652 384.061 3.811 3.402 o
2 2 4 129.893 131.319 1.829 14.776 o
2 2 5 163.636 161.547 2.246 9.795 o
2 2 6 2.301 2.312 0.714 96.954 o
2 2 7 12.717 12.582 1.126 38.989 o
2 2 8 25.168 23.616 1.587 19.618 o
2 2 9 110.414 109.560 3.438 4.181 o
2 2 10 2.129 2.867 1.181 35.447 o
2 2 11 3.832 3.317 1.368 26.427 o
2 2 12 6.532 6.228 1.626 18.701 o
2 3 0 786.227 787.207 7.178 0.959 o
2 3 1 521.945 536.876 5.053 1.936 o
2 3 2 107.889 107.182 1.252 31.520 o
2 3 3 446.916 448.708 4.438 2.510 o
2 3 4 130.499 133.538 1.851 14.428 o
2 3 5 31.609 31.672 0.846 69.089 o
2 3 6 2.318 2.263 0.577 148.618 o
2 3 7 14.301 14.504 1.197 34.478 o
2 3 8 27.691 29.080 1.681 17.499 o
2 3 9 4.983 5.366 1.104 40.556 o
2 3 10 6.703 6.579 1.335 27.748 o
2 3 11 6.100 7.271 1.455 23.332 o
2 3 12 39.621 42.678 2.532 7.710 o
2 4 0 35.345 35.874 0.533 174.144 o
2 4 1 152.057 157.928 1.670 17.730 o
2 4 2 87.407 89.152 1.093 41.376 o
2 4 3 65.923 65.921 0.939 56.035 o
2 4 4 13.518 13.016 0.571 151.490 o
2 4 5 149.312 148.542 2.125 10.940 o
2 4 6 22.827 22.666 0.824 72.823 o
2 4 7 134.204 130.550 2.675 6.909 o
2 4 8 16.669 15.960 1.384 25.802 o
2 4 9 48.529 48.862 2.301 9.333 o
2 4 10 4.686 4.690 1.258 31.245 o
2 4 11 3.003 2.279 1.411 24.808 o
2 4 12 11.271 11.204 1.779 15.608 o
2 5 0 90.727 91.206 1.082 42.220 o
2 5 1 419.758 427.119 4.152 2.867 o
2 5 2 7.914 8.403 0.346 412.829 o
2 5 3 252.432 249.666 2.669 6.937 o
2 5 4 61.819 59.907 0.989 50.572 o
2 5 5 64.266 63.828 1.247 31.798 o
2 5 6 99.725 98.724 1.757 16.001 o
2 5 7 71.342 71.116 1.571 20.032 o
2 5 8 58.046 56.628 1.527 21.201 o
2 5 9 10.693 11.484 1.389 25.598 o
2 5 10 46.419 46.748 2.411 8.502 o
2 5 11 1.388 0.703 1.307 28.927 o
2 5 12 2.148 2.263 1.527 21.201 o
2 6 0 2113.730 2082.830 18.492 0.145 o
2 6 1 22.882 22.935 0.483 211.585 o
2 6 2 288.517 292.356 3.015 5.436 o
2 6 3 89.111 91.118 1.230 32.655 o
2 6 4 111.254 108.341 1.455 23.332 o
2 6 5 12.386 12.500 0.637 121.768 o
2 6 6 0.314 0.593 0.483 211.585 o
2 6 7 29.905 29.371 1.060 43.988 o
2 6 8 49.937 47.132 1.444 23.689 o
2 6 9 51.097 49.939 1.571 20.032 o
2 6 10 16.831 17.003 1.670 17.730 o
2 6 11 13.945 13.664 1.675 17.614 o
2 6 12 30.224 29.388 2.213 10.089 o
2 7 0 291.553 293.976 3.010 5.456 o
2 7 1 96.089 98.054 1.230 32.655 o
2 7 2 139.230 140.507 1.664 17.847 o
2 7 3 107.033 108.742 1.417 24.616 o
2 7 4 101.842 102.613 1.433 24.053 o
2 7 5 14.766 14.175 0.703 100.007 o
2 7 6 78.036 77.256 1.565 20.173 o
2 7 7 85.242 83.802 1.779 15.608 o
2 7 8 44.251 41.893 1.368 26.427 o
2 7 9 10.444 10.583 0.923 58.054 o
2 7 10 27.100 26.268 1.324 28.211 o
2 7 11 0.959 0.516 1.307 28.927 o
2 8 0 0.353 0.763 0.302 541.658 o
2 8 1 4.116 4.844 0.362 376.152 o
2 8 2 140.869 144.215 1.757 16.001 o
2 8 3 121.202 119.786 1.549 20.604 o
2 8 4 115.488 116.639 1.598 19.349 o
2 8 5 61.495 62.823 1.170 36.115 o
2 8 6 0.150 0.231 0.522 181.553 o
2 8 7 81.262 82.506 1.774 15.705 o
2 8 8 0.077 0.308 0.412 291.292 o
2 8 9 1.963 3.361 0.538 170.608 o
2 8 10 31.304 30.448 1.400 25.198 o
2 8 11 6.238 5.668 0.654 115.706 o
2 9 0 238.002 235.135 2.587 7.386 o
2 9 1 275.374 273.414 2.944 5.703 o
2 9 2 130.144 128.260 1.620 18.828 o
2 9 3 290.995 289.797 3.191 4.854 o
2 9 4 47.181 48.692 0.978 51.714 o
2 9 5 25.581 26.235 0.807 75.826 o
2 9 6 3.820 4.926 0.483 211.585 o
2 9 7 4.699 4.987 0.533 174.144 o
2 9 8 11.572 11.780 0.802 76.868 o
2 9 9 38.560 38.428 1.433 24.053 o
2 9 10 11.482 12.247 0.917 58.751 o
2 9 11 0.249 0.308 0.511 189.446 o
2 10 0 251.239 254.549 2.790 6.349 o
2 10 1 9.181 8.710 0.461 232.216 o
2 10 2 2.796 2.653 0.368 365.007 o
2 10 3 255.377 257.273 2.927 5.768 o
2 10 4 139.338 138.497 1.884 13.927 o
2 10 5 139.373 138.810 1.977 12.643 o
2 10 6 10.414 12.132 0.692 103.207 o
2 10 7 8.815 9.507 0.796 77.932 o
2 10 8 1.195 1.406 0.489 206.857 o
2 10 9 12.342 14.147 1.027 46.856 o
2 10 10 33.111 33.556 1.455 23.332 o
2 10 11 5.841 6.310 0.785 80.127 o
2 11 0 2.241 2.416 0.362 376.152 o
2 11 1 5.267 4.756 0.434 262.541 o
2 11 2 64.858 64.169 1.120 39.372 o
2 11 3 12.164 12.027 0.582 145.827 o
2 11 4 49.981 49.878 1.071 43.090 o
2 11 5 60.100 60.417 1.263 30.974 o
2 11 6 103.571 104.628 1.790 15.418 o
2 11 7 95.306 97.769 2.065 11.590 o
2 11 8 9.774 8.535 0.780 81.260 o
2 11 9 14.967 15.658 1.076 42.652 o
2 11 10 42.631 44.403 1.587 19.618 o
2 11 11 3.519 4.597 0.615 130.622 o
2 12 0 45.616 43.431 0.912 59.461 o
2 12 1 42.109 40.729 0.890 62.434 o
2 12 2 57.968 57.364 1.087 41.795 o
2 12 3 85.294 84.588 1.417 24.616 o
2 12 4 13.081 12.697 0.659 113.786 o
2 12 5 14.761 14.329 0.741 89.905 o
2 12 6 8.265 7.892 0.544 167.179 o
2 12 7 1.376 2.180 0.384 334.391 o
2 12 8 0.461 0.016 0.434 262.541 o
2 12 9 17.130 17.393 1.131 38.611 o
2 12 10 48.356 48.407 1.686 17.385 o
2 13 0 166.860 168.099 2.142 10.773 o
2 13 1 81.382 79.887 1.351 27.076 o
2 13 2 73.780 73.565 1.307 28.927 o
2 13 3 43.354 43.920 1.032 46.359 o
2 13 4 0.438 0.401 0.330 455.144 o
2 13 5 1.371 2.263 0.373 354.351 o
2 13 6 60.776 62.417 1.417 24.616 o
2 13 7 48.625 48.994 1.362 26.641 o
2 13 8 34.105 31.475 1.368 26.427 o
2 13 9 33.823 35.193 1.461 23.157 o
2 13 10 6.674 7.107 0.681 106.563 o
2 14 0 11.779 10.940 0.604 135.415 o
2 14 1 43.216 44.771 1.027 46.856 o
2 14 2 32.317 33.853 0.912 59.461 o
2 14 3 50.328 48.242 1.137 38.239 o
2 14 4 12.532 11.709 0.708 98.463 o
2 14 5 93.661 92.562 1.719 16.725 o
2 14 6 10.845 11.281 0.747 88.588 o
2 14 7 38.066 40.317 1.252 31.520 o
2 14 8 8.506 9.990 0.813 74.805 o
2 14 9 69.644 72.423 1.988 12.504 o
2 14 10 17.119 17.124 1.153 37.155 o
2 15 0 71.954 70.007 1.329 27.978 o
2 15 1 22.036 23.769 0.807 75.826 o
2 15 2 32.993 31.854 0.934 56.696 o
2 15 3 16.759 16.992 0.796 77.932 o
2 15 4 12.691 12.846 0.747 88.588 o
2 15 5 11.835 12.720 0.763 84.805 o
2 15 6 57.732 56.859 1.439 23.870 o
2 15 7 32.442 32.820 1.192 34.796 o
2 15 8 6.894 7.030 0.697 101.588 o
2 15 9 0.376 1.098 0.522 181.553 o
2 15 10 2.692 2.960 0.571 151.490 o
2 16 0 39.007 37.022 1.027 46.856 o
2 16 1 3.453 3.564 0.395 316.072 o
2 16 2 77.490 73.307 1.461 23.157 o
2 16 3 2.378 2.790 0.395 316.072 o
2 16 4 25.079 25.230 0.917 58.751 o
2 16 5 1.088 1.137 0.357 387.815 o
2 16 6 15.088 15.389 0.895 61.670 o
2 16 7 4.522 4.295 0.483 211.585 o
2 16 8 2.350 3.257 0.472 221.541 o
2 16 9 16.109 15.559 1.011 48.397 o
2 17 0 36.282 35.709 1.049 44.914 o
2 17 1 11.465 10.083 0.692 103.207 o
2 17 2 0.119 0.066 0.335 440.343 o
2 17 3 11.170 12.774 0.752 87.299 o
2 17 4 40.064 38.801 1.186 35.119 o
2 17 5 5.408 5.338 0.483 211.585 o
2 17 6 47.217 46.990 1.368 26.427 o
2 17 7 49.889 50.911 1.477 22.644 o
2 17 8 24.174 23.539 1.137 38.239 o
2 17 9 3.819 4.339 0.527 177.790 o
2 18 0 43.262 43.738 1.203 34.163 o
2 18 1 10.280 9.962 0.725 94.038 o
2 18 2 9.721 10.825 0.736 91.252 o
2 18 3 2.802 2.109 0.384 334.391 o
2 18 4 26.757 25.412 1.043 45.388 o
2 18 5 44.736 44.381 1.368 26.427 o
2 18 6 49.791 49.725 1.455 23.332 o
2 18 7 9.247 9.913 0.763 84.805 o
2 18 8 1.659 1.917 0.434 262.541 o
2 19 0 36.330 37.791 1.164 36.457 o
2 19 1 28.964 29.261 1.060 43.988 o
2 19 2 1.278 1.137 0.362 376.152 o
2 19 3 38.843 38.905 1.219 33.246 o
2 19 4 8.776 8.727 0.708 98.463 o
2 19 5 9.674 11.132 0.840 69.995 o
2 19 6 1.459 2.351 0.439 256.018 o
2 19 7 6.029 7.019 0.637 121.768 o
2 19 8 5.871 6.733 0.544 167.179 o
2 20 0 1.653 0.923 0.373 354.351 o
2 20 1 70.027 71.720 1.637 18.451 o
2 20 2 31.095 31.876 1.126 38.989 o
2 20 3 9.113 9.891 0.670 110.086 o
2 20 4 24.836 26.686 1.098 40.963 o
2 20 5 1.341 1.411 0.417 283.677 o
2 20 6 3.797 3.817 0.483 211.585 o
2 20 7 0.369 0.983 0.406 299.218 o
2 21 0 8.372 7.738 0.643 119.696 o
2 21 1 27.297 28.899 1.120 39.372 o
2 21 2 29.328 30.277 1.164 36.457 o
2 21 3 43.455 43.387 1.373 26.216 o
2 21 4 19.829 20.304 1.043 45.388 o
2 21 5 0.985 0.950 0.406 299.218 o
2 21 6 14.128 13.768 0.961 53.503 o
2 21 7 11.568 10.407 0.796 77.932 o
2 22 0 15.778 15.130 0.928 57.369 o
2 22 1 23.578 23.352 1.071 43.090 o
2 22 2 3.278 3.570 0.472 221.541 o
2 22 3 8.993 7.810 0.719 95.479 o
2 22 4 18.455 16.811 1.038 45.870 o
2 22 5 19.785 20.996 1.043 45.388 o
2 22 6 46.061 45.781 1.422 24.426 o
2 23 0 10.659 11.171 0.879 64.005 o
2 23 1 2.911 2.565 0.445 249.736 o
2 23 2 1.747 2.537 0.450 243.682 o
2 23 3 4.008 5.217 0.566 154.446 o
2 23 4 21.365 23.478 1.071 43.090 o
2 23 5 16.892 16.471 1.022 47.361 o
2 24 0 32.878 32.414 1.241 32.080 o
2 24 1 37.839 41.179 1.340 27.521 o
2 24 2 9.112 8.727 0.763 84.805 o
2 24 3 0.015 0.038 0.395 316.072 o
2 24 4 4.518 3.345 0.467 226.784 o
2 25 0 3.098 4.124 0.577 148.618 o
2 25 1 22.521 23.017 1.324 28.211 o
2 25 2 40.833 39.960 1.664 17.847 o
2 25 3 12.564 13.076 1.071 43.090 o
2 26 0 0.963 1.076 0.450 243.682 o
2 26 1 29.620 30.497 1.455 23.332 o
3 0 1 172.795 175.777 1.862 14.258 o
3 0 2 0.126 0.104 0.231 928.864 o
3 0 3 181.019 183.504 2.049 11.777 o
3 0 4 10.817 11.594 0.467 226.784 o
3 0 5 52.169 49.972 0.972 52.300 o
3 0 7 5.859 5.920 1.005 48.927 o
3 0 8 1.993 2.131 1.005 48.927 o
3 0 9 70.470 69.067 2.713 6.714 o
3 0 10 1.062 0.857 1.164 36.457 o
3 0 11 1.582 1.241 1.335 27.748 o
3 0 12 7.442 5.525 1.670 17.730 o
3 1 0 30.063 31.035 0.511 189.446 o
3 1 1 354.255 369.227 3.647 3.716 o
3 1 2 184.360 179.836 1.961 12.856 o
3 1 3 251.875 251.583 2.669 6.937 o
3 1 4 112.816 113.388 1.472 22.813 o
3 1 5 44.021 44.738 0.917 58.751 o
3 1 6 3.518 3.784 0.511 189.446 o
3 1 7 0.426 0.846 0.835 70.919 o
3 1 8 114.562 113.882 3.323 4.477 o
3 1 9 11.782 11.956 1.406 25.002 o
3 1 10 53.988 57.435 2.609 7.262 o
3 1 11 10.740 10.984 1.675 17.614 o
3 1 12 6.686 7.321 1.675 17.614 o
3 2 1 58.150 59.006 0.791 79.018 o
3 2 2 266.645 271.980 2.790 6.349 o
3 2 3 16.710 17.404 0.505 193.587 o
3 2 4 30.546 30.975 0.697 101.588 o
3 2 5 36.347 35.484 0.835 70.919 o
3 2 6 41.851 41.723 1.093 41.376 o
3 2 7 153.124 151.464 3.735 3.544 o
3 2 8 57.738 59.533 2.351 8.945 o
3 2 9 20.181 19.403 1.615 18.956 o
3 2 10 27.438 27.790 1.999 12.367 o
3 2 11 14.335 15.163 1.730 16.513 o
3 2 12 3.444 3.273 1.532 21.049 o
3 3 0 68.958 69.238 0.884 63.212 o
3 3 1 428.466 434.577 4.251 2.735 o
3 3 2 266.365 266.977 2.773 6.425 o
3 3 3 169.239 167.303 1.922 13.376 o
3 3 4 79.655 80.139 1.181 35.447 o
3 3 5 71.398 73.280 1.214 33.548 o
3 3 6 4.542 4.827 0.560 157.489 o
3 3 7 30.671 29.014 1.076 42.652 o
3 3 8 45.487 45.880 2.092 11.288 o
3 3 9 13.660 13.961 1.494 22.147 o
3 3 10 79.363 82.545 3.180 4.888 o
3 3 11 34.133 34.880 2.285 9.468 o
3 3 12 1.638 0.774 1.532 21.049 o
3 4 0 407.291 413.806 4.037 3.033 o
3 4 1 82.026 81.935 1.043 45.388 o
3 4 2 54.928 55.101 0.857 67.329 o
3 4 3 13.062 12.621 0.478 216.477 o
3 4 4 24.575 25.011 0.648 117.676 o
3 4 5 70.452 71.676 1.214 33.548 o
3 4 6 9.939 9.562 0.676 108.303 o
3 4 7 10.630 9.644 0.785 80.127 o
3 4 8 39.785 39.021 1.307 28.927 o
3 4 9 100.639 102.041 3.372 4.346 o
3 4 10 12.864 11.956 1.582 19.755 o
3 4 11 16.355 16.954 1.873 14.091 o
3 4 12 0.694 1.005 1.461 23.157 o
3 5 0 206.077 208.724 2.219 10.039 o
3 5 1 24.102 24.313 0.527 177.790 o
3 5 2 316.556 315.087 3.262 4.644 o
3 5 3 208.332 214.150 2.378 8.739 o
3 5 4 272.881 270.679 2.993 5.516 o
3 5 5 73.256 72.428 1.241 32.080 o
3 5 6 21.674 21.034 0.857 67.329 o
3 5 7 32.664 32.095 1.131 38.611 o
3 5 8 39.801 38.592 1.307 28.927 o
3 5 9 0.062 0.143 0.467 226.784 o
3 5 10 6.671 7.156 1.417 24.616 o
3 5 11 15.616 15.669 1.752 16.102 o
3 6 0 37.769 39.455 0.697 101.588 o
3 6 1 66.487 69.001 0.983 51.138 o
3 6 2 637.189 638.434 6.255 1.263 o
3 6 3 3.492 3.394 0.379 344.154 o
3 6 4 84.515 80.024 1.247 31.798 o
3 6 5 43.186 44.018 0.956 54.119 o
3 6 6 19.505 18.640 0.857 67.329 o
3 6 7 12.521 12.017 0.851 68.201 o
3 6 8 26.589 26.230 1.131 38.611 o
3 6 9 8.178 8.095 0.659 113.786 o
3 6 10 22.887 23.358 1.247 31.798 o
3 6 11 12.182 12.148 1.703 17.050 o
3 7 0 245.947 243.230 2.609 7.262 o
3 7 1 160.497 159.307 1.856 14.342 o
3 7 2 6.065 7.310 0.423 276.356 o
3 7 3 256.226 254.477 2.828 6.178 o
3 7 4 58.031 59.561 1.071 43.090 o
3 7 5 122.682 122.631 1.763 15.902 o
3 7 6 40.733 39.361 1.148 37.511 o
3 7 7 35.628 36.022 1.208 33.854 o
3 7 8 29.841 30.283 1.203 34.163 o
3 7 9 8.332 9.029 0.747 88.588 o
3 7 10 9.983 11.709 0.884 63.212 o
3 7 11 22.303 22.578 1.291 29.670 o
3 8 0 79.224 80.809 1.159 36.803 o
3 8 1 43.202 42.733 0.802 76.868 o
3 8 2 89.993 89.047 1.269 30.706 o
3 8 3 42.624 43.096 0.873 64.812 o
3 8 4 53.741 53.915 1.049 44.914 o
3 8 5 192.725 187.250 2.389 8.659 o
3 8 6 19.414 18.777 0.796 77.932 o
3 8 7 12.889 11.154 0.857 67.329 o
3 8 8 34.334 33.424 1.291 29.670 o
3 8 9 45.018 43.288 1.538 20.899 o
3 8 10 7.837 7.260 0.681 106.563 o
3 8 11 5.867 6.530 0.802 76.868 o
3 9 0 109.980 107.830 1.439 23.870 o
3 9 1 394.329 382.342 4.020 3.058 o
3 9 2 63.083 62.268 1.060 43.988 o
3 9 3 25.244 26.175 0.725 94.038 o
3 9 4 65.551 67.414 1.214 33.548 o
3 9 5 1.807 1.818 0.472 221.541 o
3 9 6 31.655 32.425 0.972 52.300 o
3 9 7 105.505 108.983 2.136 10.828 o
3 9 8 22.754 22.193 1.120 39.372 o
3 9 9 6.477 6.305 0.637 121.768 o
3 9 10 34.405 33.408 1.455 23.332 o
3 9 11 11.138 10.770 0.840 69.995 o
3 10 0 30.401 30.058 0.725 94.038 o
3 10 1 37.069 36.928 0.818 73.804 o
3 10 2 256.555 254.055 2.883 5.945 o
3 10 3 11.614 11.566 0.566 154.446 o
3 10 4 21.495 21.001 0.730 92.629 o
3 10 5 134.943 133.598 1.988 12.504 o
3 10 6 23.884 24.000 0.890 62.434 o
3 10 7 50.284 50.664 1.313 28.685 o
3 10 8 5.395 4.405 0.566 154.446 o
3 10 9 28.008 27.976 1.296 29.419 o
3 10 10 7.822 7.601 0.840 69.995 o
3 10 11 8.606 8.996 0.868 65.635 o
3 11 0 255.013 251.550 2.867 6.013 o
3 11 1 55.177 53.618 1.032 46.359 o
3 11 2 37.201 34.633 0.851 68.201 o
3 11 3 77.158 75.943 1.313 28.685 o
3 11 4 30.108 29.031 0.879 64.005 o
3 11 5 5.496 7.299 0.533 174.144 o
3 11 6 68.919 67.903 1.450 23.509 o
3 11 7 6.240 6.168 0.478 216.477 o
3 11 8 100.176 100.042 2.224 9.989 o
3 11 9 3.872 4.256 0.593 140.476 o
3 11 10 5.128 4.580 0.610 132.986 o
3 11 11 10.552 9.408 2.949 5.682 o
3 12 0 9.436 8.194 0.527 177.790 o
3 12 1 56.446 54.442 1.087 41.795 o
3 12 2 107.945 106.501 1.620 18.828 o
3 12 3 41.711 40.185 0.972 52.300 o
3 12 4 29.147 29.986 0.906 60.184 o
3 12 5 125.572 123.543 1.961 12.856 o
3 12 6 2.811 3.608 0.428 269.316 o
3 12 7 2.517 2.389 0.401 307.472 o
3 12 8 16.663 17.289 1.071 43.090 o
3 12 9 4.127 4.943 0.621 128.320 o
3 12 10 0.812 1.126 0.511 189.446 o
3 13 0 3.039 2.741 0.445 249.736 o
3 13 1 89.153 89.608 1.516 21.510 o
3 13 2 26.429 26.230 0.813 74.805 o
3 13 3 11.147 12.423 0.665 111.913 o
3 13 4 103.497 104.722 1.746 16.203 o
3 13 5 9.857 10.281 0.719 95.479 o
3 13 6 57.394 56.546 1.406 25.002 o
3 13 7 37.567 38.131 1.230 32.655 o
3 13 8 7.357 6.316 0.588 143.114 o
3 13 9 1.704 1.543 0.527 177.790 o
3 13 10 20.164 19.079 1.219 33.246 o
3 14 0 2.905 3.757 0.489 206.857 o
3 14 1 27.302 27.081 0.857 67.329 o
3 14 2 6.851 6.645 0.588 143.114 o
3 14 3 9.420 9.073 0.593 140.476 o
3 14 4 9.932 10.050 0.681 106.563 o
3 14 5 68.377 63.965 1.461 23.157 o
3 14 6 24.435 25.752 1.016 47.875 o
3 14 7 49.200 49.087 1.384 25.802 o
3 14 8 4.495 4.586 0.494 202.286 o
3 14 9 28.884 31.184 1.362 26.641 o
3 14 10 17.745 16.987 1.131 38.611 o
3 15 0 23.106 24.049 0.851 68.201 o
3 15 1 1.550 1.988 0.373 354.351 o
3 15 2 12.785 12.906 0.714 96.954 o
3 15 3 12.364 12.039 0.725 94.038 o
3 15 4 37.997 37.598 1.115 39.761 o
3 15 5 43.830 44.249 1.252 31.520 o
3 15 6 6.984 7.189 0.582 145.827 o
3 15 7 37.043 37.219 1.269 30.706 o
3 15 8 18.139 18.036 0.989 50.572 o
3 15 9 6.652 6.420 0.610 132.986 o
3 16 0 44.423 42.947 1.137 38.239 o
3 16 1 37.814 39.400 1.098 40.963 o
3 16 2 35.662 36.730 1.060 43.988 o
3 16 3 1.723 2.049 0.390 325.038 o
3 16 4 16.405 17.289 0.846 69.089 o
3 16 5 9.753 10.017 0.774 82.416 o
3 16 6 41.647 41.712 1.307 28.927 o
3 16 7 2.912 2.784 0.450 243.682 o
3 16 8 17.465 15.367 0.989 50.572 o
3 16 9 9.904 9.029 0.659 113.786 o
3 17 0 41.873 42.327 1.164 36.457 o
3 17 1 31.080 30.206 1.011 48.397 o
3 17 2 28.352 28.547 1.000 49.466 o
3 17 3 8.638 8.183 0.637 121.768 o
3 17 4 31.919 32.194 1.115 39.761 o
3 17 5 2.845 3.136 0.439 256.018 o
3 17 6 24.035 23.984 1.065 43.536 o
3 17 7 3.169 2.839 0.456 237.845 o
3 17 8 10.458 11.226 0.901 60.920 o
3 17 9 22.057 21.809 1.082 42.220 o
3 18 0 1.601 2.131 0.373 354.351 o
3 18 1 52.663 51.114 1.329 27.978 o
3 18 2 8.813 9.051 0.714 96.954 o
3 18 3 0.344 0.198 0.341 426.253 o
3 18 4 23.914 25.488 1.054 44.448 o
3 18 5 5.555 6.409 0.527 177.790 o
3 18 6 10.523 10.182 0.763 84.805 o
3 18 7 7.734 7.837 0.637 121.768 o
3 18 8 8.890 8.326 0.648 117.676 o
3 19 0 2.639 2.944 0.412 291.292 o
3 19 1 18.865 19.738 0.923 58.054 o
3 19 2 6.421 5.536 0.544 167.179 o
3 19 3 9.708 10.292 0.818 73.804 o
3 19 4 17.527 16.882 0.939 56.035 o
3 19 5 12.415 10.605 0.774 82.416 o
3 19 6 21.527 21.820 1.082 42.220 o
3 19 7 21.276 20.853 1.087 41.795 o
3 19 8 22.125 23.105 1.109 40.156 o
3 20 0 26.072 27.949 1.076 42.652 o
3 20 1 3.879 3.702 0.456 237.845 o
3 20 2 11.672 11.572 0.840 69.995 o
3 20 3 7.006 6.118 0.516 185.436 o
3 20 4 20.813 20.853 1.011 48.397 o
3 20 5 1.969 2.828 0.456 237.845 o
3 20 6 61.858 63.488 1.659 17.965 o
3 20 7 10.414 9.177 0.752 87.299 o
3 21 0 30.133 30.393 1.148 37.511 o
3 21 1 63.794 67.716 1.637 18.451 o
3 21 2 0.751 0.588 0.384 334.391 o
3 21 3 1.880 1.615 0.412 291.292 o
3 21 4 24.048 25.752 1.120 39.372 o
3 21 5 3.255 3.581 0.483 211.585 o
3 21 6 5.081 5.778 0.527 177.790 o
3 21 7 5.223 5.201 0.511 189.446 o
3 22 0 3.895 4.086 0.483 211.585 o
3 22 1 64.966 62.021 1.637 18.451 o
3 22 2 2.810 2.812 0.456 237.845 o
3 22 3 6.579 6.398 0.544 167.179 o
3 22 4 6.951 6.975 0.621 128.320 o
3 22 5 15.504 15.136 0.994 50.014 o
3 22 6 5.936 5.157 0.511 189.446 o
3 23 0 0.026 0.060 0.395 316.072 o
3 23 1 15.172 15.476 0.956 54.119 o
3 23 2 10.115 9.814 0.868 65.635 o
3 23 3 40.279 39.828 1.378 26.008 o
3 23 4 10.016 10.056 0.862 66.474 o
3 23 5 2.986 3.779 0.478 216.477 o
3 24 0 9.071 8.062 0.654 115.706 o
3 24 1 27.642 29.843 1.208 33.854 o
3 24 2 26.741 27.581 1.175 35.779 o
3 24 3 7.041 8.507 0.725 94.038 o
3 24 4 0.970 1.098 0.406 299.218 o
3 25 0 28.140 29.591 1.428 24.238 o
3 25 1 6.468 7.804 0.769 83.598 o
3 25 2 4.556 4.542 0.560 157.489 o
4 0 0 388.830 392.914 3.899 3.250 o
4 0 1 1.438 1.466 0.291 583.310 o
4 0 2 10.744 10.748 0.445 249.736 o
4 0 3 4.953 4.690 0.390 325.038 o
4 0 4 76.468 77.393 1.192 34.796 o
4 0 5 28.325 27.965 0.774 82.416 o
4 0 6 0.380 0.291 0.434 262.541 o
4 0 7 140.740 138.552 2.103 11.170 o
4 0 8 41.495 44.414 2.092 11.288 o
4 0 9 18.835 19.299 1.659 17.965 o
4 0 11 28.741 27.965 2.142 10.773 o
4 1 0 386.825 387.043 3.883 3.278 o
4 1 1 146.211 148.795 1.703 17.050 o
4 1 2 264.189 264.616 2.834 6.154 o
4 1 3 229.133 224.865 2.482 8.020 o
4 1 4 123.313 124.180 1.637 18.451 o
4 1 5 21.770 23.055 0.714 96.954 o
4 1 6 89.959 88.603 1.505 21.825 o
4 1 7 10.544 9.452 0.719 95.479 o
4 1 8 19.288 19.683 1.241 32.080 o
4 1 9 12.849 13.752 1.494 22.147 o
4 1 10 80.897 83.292 3.235 4.723 o
4 1 11 1.825 1.626 1.335 27.748 o
4 2 0 40.839 40.333 0.703 100.007 o
4 2 1 34.486 34.666 0.659 113.786 o
4 2 2 10.576 9.699 0.445 249.736 o
4 2 3 38.926 38.477 0.780 81.260 o
4 2 4 34.177 34.160 0.791 79.018 o
4 2 5 5.886 6.206 0.489 206.857 o
4 2 6 14.150 15.345 0.686 104.865 o
4 2 7 13.466 12.862 0.840 69.995 o
4 2 8 13.863 13.768 0.912 59.461 o
4 2 9 12.526 13.340 1.461 23.157 o
4 2 10 14.214 14.246 1.642 18.328 o
4 2 11 3.142 3.185 1.351 27.076 o
4 3 0 2.235 1.757 0.313 504.314 o
4 3 1 150.630 150.860 1.746 16.203 o
4 3 2 75.937 75.235 1.087 41.795 o
4 3 3 470.922 464.437 4.690 2.247 o
4 3 4 96.677 96.857 1.406 25.002 o
4 3 5 166.746 164.107 2.114 11.054 o
4 3 6 27.431 25.779 0.846 69.089 o
4 3 7 11.785 12.137 0.818 73.804 o
4 3 8 12.214 11.841 0.895 61.670 o
4 3 9 23.617 24.253 1.203 34.163 o
4 3 10 4.023 3.114 1.291 29.670 o
4 3 11 9.899 9.051 1.571 20.032 o
4 4 0 36.190 37.044 0.703 100.007 o
4 4 1 13.561 12.148 0.461 232.216 o
4 4 2 197.034 200.222 2.246 9.795 o
4 4 3 98.092 95.209 1.340 27.521 o
4 4 4 35.304 35.154 0.813 74.805 o
4 4 5 28.988 28.635 0.796 77.932 o
4 4 6 12.285 11.885 0.665 111.913 o
4 4 7 65.637 65.360 1.587 19.618 o
4 4 8 28.113 29.261 1.186 35.119 o
4 4 9 56.324 59.495 1.714 16.832 o
4 4 10 30.872 30.354 1.368 26.427 o
4 4 11 34.522 33.122 2.263 9.653 o
4 5 0 16.086 15.444 0.505 193.587 o
4 5 1 61.020 60.105 0.950 54.747 o
4 5 2 139.643 135.960 1.708 16.941 o
4 5 3 111.020 108.577 1.488 22.311 o
4 5 4 85.647 87.433 1.357 26.857 o
4 5 5 83.947 84.796 1.411 24.808 o
4 5 6 140.084 138.261 2.021 12.099 o
4 5 7 15.467 16.438 0.906 60.184 o
4 5 8 4.398 4.421 0.538 170.608 o
4 5 9 14.404 13.933 1.011 48.397 o
4 5 10 60.270 57.946 1.829 14.776 o
4 5 11 13.186 13.175 1.351 27.076 o
4 6 0 131.513 131.858 1.631 18.575 o
4 6 1 44.090 43.546 0.824 72.823 o
4 6 2 32.307 32.381 0.730 92.629 o
4 6 3 5.138 5.432 0.428 269.316 o
4 6 4 55.813 56.150 1.076 42.652 o
4 6 5 13.324 13.801 0.626 126.079 o
4 6 6 41.529 41.360 1.076 42.652 o
4 6 7 19.881 20.189 0.862 66.474 o
4 6 8 9.857 9.062 0.763 84.805 o
4 6 9 38.406 36.308 1.455 23.332 o
4 6 10 28.616 28.223 1.368 26.427 o
4 6 11 0.322 0.500 0.522 181.553 o
4 7 0 88.790 88.218 1.269 30.706 o
4 7 1 250.726 245.773 2.735 6.607 o
4 7 2 184.550 177.293 2.142 10.773 o
4 7 3 60.304 60.538 1.082 42.220 o
4 7 4 43.508 43.024 0.956 54.119 o
4 7 5 35.536 35.264 0.945 55.385 o
4 7 6 42.454 40.482 1.087 41.795 o
4 7 7 26.935 26.213 0.967 52.896 o
4 7 8 34.344 32.672 1.302 29.171 o
4 7 9 5.115 5.618 0.626 126.079 o
4 7 10 16.960 15.636 1.115 39.761 o
4 7 11 5.555 6.777 0.676 108.303 o
4 8 0 138.656 132.632 1.703 17.050 o
4 8 1 43.573 43.024 0.868 65.635 o
4 8 2 162.070 161.657 2.010 12.232 o
4 8 3 89.683 87.230 1.384 25.802 o
4 8 4 8.193 8.935 0.538 170.608 o
4 8 5 47.425 48.297 1.098 40.963 o
4 8 6 56.329 54.310 1.280 30.181 o
4 8 7 53.277 51.751 1.318 28.447 o
4 8 8 3.928 3.746 0.544 167.179 o
4 8 9 82.966 85.499 2.125 10.940 o
4 8 10 14.241 15.548 1.120 39.372 o
4 8 11 22.137 20.655 1.274 30.442 o
4 9 0 133.364 130.402 1.724 16.619 o
4 9 1 4.025 4.256 0.406 299.218 o
4 9 2 5.312 5.646 0.450 243.682 o
4 9 3 31.209 32.018 0.835 70.919 o
4 9 4 2.224 1.444 0.456 237.845 o
4 9 5 46.375 44.990 1.115 39.761 o
4 9 6 140.170 135.971 2.120 10.997 o
4 9 7 6.448 6.250 0.593 140.476 o
4 9 8 92.686 89.377 2.120 10.997 o
4 9 9 16.217 17.080 1.109 40.156 o
4 9 10 1.347 0.774 0.516 185.436 o
4 9 11 8.835 9.875 0.862 66.474 o
4 10 0 69.046 69.210 1.197 34.478 o
4 10 1 34.864 34.281 0.829 71.862 o
4 10 2 40.265 41.272 0.928 57.369 o
4 10 3 17.479 16.943 0.676 108.303 o
4 10 4 34.884 36.143 0.956 54.119 o
4 10 5 24.480 27.202 0.890 62.434 o
4 10 6 27.945 26.466 0.978 51.714 o
4 10 7 42.650 44.018 1.241 32.080 o
4 10 8 19.231 19.216 0.989 50.572 o
4 10 9 17.933 19.974 1.153 37.155 o
4 10 10 14.410 15.130 1.115 39.761 o
4 11 0 12.648 12.681 0.615 130.622 o
4 11 1 269.464 266.752 3.103 5.133 o
4 11 2 18.366 18.722 0.692 103.207 o
4 11 3 30.469 29.734 0.868 65.635 o
4 11 4 23.054 24.593 0.846 69.089 o
4 11 5 8.867 9.902 0.665 111.913 o
4 11 6 35.212 36.604 1.098 40.963 o
4 11 7 51.538 52.229 1.389 25.598 o
4 11 8 9.984 8.870 0.736 91.252 o
4 11 9 0.108 0.351 0.522 181.553 o
4 11 10 6.610 7.090 0.681 106.563 o
4 12 0 246.373 240.742 2.971 5.598 o
4 12 1 68.041 67.854 1.274 30.442 o
4 12 2 47.124 46.374 1.060 43.988 o
4 12 3 41.850 42.113 1.060 43.988 o
4 12 4 69.042 69.084 1.400 25.198 o
4 12 5 19.525 19.354 0.873 64.812 o
4 12 6 61.828 63.306 1.472 22.813 o
4 12 7 36.956 40.119 1.241 32.080 o
4 12 8 0.336 0.851 0.395 316.072 o
4 12 9 23.726 23.896 1.296 29.419 o
4 12 10 1.473 1.620 0.538 170.608 o
4 13 0 67.242 69.304 1.313 28.685 o
4 13 1 45.223 43.013 1.054 44.448 o
4 13 2 0.033 0.132 0.308 522.486 o
4 13 3 12.345 12.329 0.703 100.007 o
4 13 4 25.825 26.131 0.928 57.369 o
4 13 5 6.196 6.739 0.593 140.476 o
4 13 6 49.512 49.406 1.329 27.978 o
4 13 7 10.580 10.545 0.736 91.252 o
4 13 8 54.208 52.696 1.510 21.666 o
4 13 9 9.141 9.325 0.763 84.805 o
4 13 10 10.185 8.710 0.714 96.954 o
4 14 0 3.401 2.823 0.368 365.007 o
4 14 1 45.928 46.226 1.131 38.611 o
4 14 2 13.970 14.438 0.736 91.252 o
4 14 3 23.657 22.539 0.890 62.434 o
4 14 4 8.422 9.210 0.637 121.768 o
4 14 5 8.976 8.518 0.643 119.696 o
4 14 6 12.740 12.516 0.824 72.823 o
4 14 7 31.314 30.684 1.175 35.779 o
4 14 8 34.205 34.210 1.269 30.706 o
4 14 9 10.170 11.808 0.901 60.920 o
4 15 0 12.340 12.659 0.719 95.479 o
4 15 1 45.635 45.073 1.164 36.457 o
4 15 2 15.214 15.070 0.780 81.260 o
4 15 3 74.191 73.752 1.527 21.201 o
4 15 4 42.817 40.097 1.197 34.478 o
4 15 5 2.157 1.961 0.395 316.072 o
4 15 6 54.362 54.750 1.466 22.984 o
4 15 7 1.443 2.131 0.428 269.316 o
4 15 8 1.914 2.246 0.445 249.736 o
4 15 9 27.494 26.620 1.159 36.803 o
4 16 0 90.017 90.662 1.692 17.272 o
4 16 1 53.677 52.531 1.285 29.924 o
4 16 2 18.182 16.569 0.840 69.995 o
4 16 3 27.241 27.378 1.016 47.875 o
4 16 4 54.418 54.003 1.400 25.198 o
4 16 5 20.641 21.232 0.989 50.572 o
4 16 6 16.994 18.310 0.972 52.300 o
4 16 7 2.898 3.378 0.467 226.784 o
4 16 8 11.041 9.836 0.785 80.127 o
4 16 9 1.506 2.460 0.450 243.682 o
4 17 0 0.955 1.186 0.346 412.829 o
4 17 1 17.547 17.069 0.868 65.635 o
4 17 2 20.372 19.387 0.912 59.461 o
4 17 3 1.546 0.956 0.362 376.152 o
4 17 4 61.341 59.649 1.521 21.355 o
4 17 5 9.693 10.374 0.802 76.868 o
4 17 6 41.288 42.431 1.357 26.857 o
4 17 7 9.857 9.430 0.774 82.416 o
4 17 8 0.027 0.055 0.390 325.038 o
4 18 0 2.003 2.043 0.390 325.038 o
4 18 1 31.773 31.052 1.076 42.652 o
4 18 2 6.012 6.124 0.544 167.179 o
4 18 3 20.774 21.644 0.994 50.014 o
4 18 4 1.858 1.587 0.406 299.218 o
4 18 5 1.828 2.312 0.439 256.018 o
4 18 6 26.033 26.647 1.137 38.239 o
4 18 7 6.348 5.717 0.533 174.144 o
4 18 8 16.274 16.306 0.989 50.572 o
4 19 0 8.862 7.260 0.659 113.786 o
4 19 1 40.417 42.673 1.280 30.181 o
4 19 2 10.699 11.215 0.829 71.862 o
4 19 3 32.601 35.088 1.203 34.163 o
4 19 4 9.093 8.513 0.637 121.768 o
4 19 5 5.460 5.459 0.522 181.553 o
4 19 6 36.692 37.137 1.302 29.171 o
4 19 7 14.467 12.956 0.912 59.461 o
4 20 0 0.457 0.280 0.373 354.351 o
4 20 1 31.724 32.721 1.181 35.447 o
4 20 2 7.664 8.452 0.615 130.622 o
4 20 3 13.119 13.219 0.879 64.005 o
4 20 4 23.014 22.561 1.093 41.376 o
4 20 5 29.011 29.097 1.197 34.478 o
4 20 6 1.118 1.862 0.434 262.541 o
4 20 7 1.406 1.955 0.434 262.541 o
4 21 0 7.305 8.002 0.626 126.079 o
4 21 1 8.034 7.738 0.697 101.588 o
4 21 2 8.044 9.529 0.824 72.823 o
4 21 3 33.933 33.814 1.258 31.245 o
4 21 4 18.942 20.150 1.049 44.914 o
4 21 5 1.498 2.230 0.439 256.018 o
4 21 6 23.250 22.534 1.109 40.156 o
4 22 0 0.009 0.044 0.412 291.292 o
4 22 1 17.444 14.307 0.967 52.896 o
4 22 2 8.574 9.726 0.665 111.913 o
4 22 3 27.011 25.477 1.170 36.115 o
4 22 4 1.926 2.092 0.472 221.541 o
4 22 5 1.086 1.087 0.406 299.218 o
4 23 0 4.106 4.795 0.511 189.446 o
4 23 1 2.402 2.191 0.456 237.845 o
4 23 2 18.454 17.750 1.032 46.359 o
4 23 3 1.022 0.994 0.406 299.218 o
4 23 4 64.056 64.064 1.653 18.085 o
4 24 0 21.701 21.875 1.087 41.795 o
4 24 1 19.587 19.634 1.049 44.914 o
4 24 2 1.715 1.620 0.423 276.356 o
4 24 3 15.313 13.966 0.967 52.896 o
4 25 1 4.961 5.234 0.582 145.827 o
5 0 1 5.414 5.981 0.412 291.292 o
5 0 2 333.670 332.041 3.520 3.988 o
5 0 3 30.732 31.244 0.769 83.598 o
5 0 4 0.161 0.286 0.373 354.351 o
5 0 5 7.571 7.096 0.560 157.489 o
5 0 6 48.217 47.561 1.159 36.803 o
5 0 7 1.222 1.494 0.373 354.351 o
5 0 8 38.102 36.780 1.175 35.779 o
5 0 9 0.103 0.686 0.796 77.932 o
5 0 10 76.125 75.317 3.136 5.025 o
5 0 11 5.350 3.751 1.521 21.355 o
5 1 0 40.957 40.278 0.774 82.416 o
5 1 1 135.884 134.093 1.664 17.847 o
5 1 2 173.973 170.021 2.059 11.652 o
5 1 3 201.735 199.541 2.373 8.780 o
5 1 4 71.482 70.226 1.214 33.548 o
5 1 5 190.247 186.970 2.395 8.619 o
5 1 6 47.248 45.639 1.120 39.372 o
5 1 7 29.824 30.030 1.000 49.466 o
5 1 8 47.963 47.962 1.318 28.447 o
5 1 9 30.992 30.195 1.142 37.873 o
5 1 10 5.523 5.228 0.901 60.920 o
5 1 11 24.598 23.912 2.010 12.232 o
5 2 0 42.822 43.766 0.835 70.919 o
5 2 1 91.822 91.217 1.291 29.670 o
5 2 2 0.444 0.571 0.335 440.343 o
5 2 3 24.358 24.582 0.692 103.207 o
5 2 4 43.721 43.859 0.950 54.747 o
5 2 5 32.660 31.969 0.890 62.434 o
5 2 6 12.605 11.132 0.697 101.588 o
5 2 7 16.865 16.794 0.851 68.201 o
5 2 8 3.030 3.262 0.428 269.316 o
5 2 9 34.990 35.632 1.422 24.426 o
5 2 10 2.499 2.850 0.571 151.490 o
5 2 11 11.305 12.335 1.620 18.828 o
5 3 0 236.555 231.702 2.581 7.417 o
5 3 1 390.323 382.760 3.921 3.214 o
5 3 2 256.020 253.280 2.850 6.083 o
5 3 3 9.835 9.606 0.516 185.436 o
5 3 4 29.789 28.443 0.807 75.826 o
5 3 5 15.670 16.163 0.681 106.563 o
5 3 6 55.655 54.179 1.236 32.366 o
5 3 7 3.994 4.037 0.434 262.541 o
5 3 8 0.480 0.692 0.357 387.815 o
5 3 9 6.780 5.519 0.615 130.622 o
5 3 10 50.874 51.339 1.724 16.619 o
5 3 11 17.395 16.432 1.175 35.779 o
5 4 0 64.094 61.192 1.027 46.856 o
5 4 1 5.056 5.316 0.406 299.218 o
5 4 2 88.210 86.115 1.302 29.171 o
5 4 3 1.177 1.362 0.384 334.391 o
5 4 4 16.170 17.355 0.665 111.913 o
5 4 5 73.175 73.252 1.368 26.427 o
5 4 6 52.612 49.972 1.208 33.854 o
5 4 7 111.408 108.028 1.895 13.766 o
5 4 8 20.759 19.584 0.967 52.896 o
5 4 9 5.091 6.244 0.637 121.768 o
5 4 10 24.670 24.687 1.291 29.670 o
5 4 11 12.030 11.033 0.912 59.461 o
5 5 0 73.071 73.285 1.148 37.511 o
5 5 1 37.681 35.791 0.780 81.260 o
5 5 2 43.459 42.772 0.884 63.212 o
5 5 3 69.164 68.963 1.192 34.796 o
5 5 4 7.249 6.277 0.511 189.446 o
5 5 5 60.156 59.797 1.252 31.520 o
5 5 6 81.637 80.595 1.554 20.459 o
5 5 7 10.168 10.396 0.676 108.303 o
5 5 8 142.480 140.815 2.345 8.987 o
5 5 9 15.391 14.246 1.065 43.536 o
5 5 10 31.623 30.135 1.455 23.332 o
5 5 11 0.038 0.060 0.516 185.436 o
5 6 0 0.026 0.104 0.324 470.703 o
5 6 1 73.423 71.341 1.170 36.115 o
5 6 2 7.007 6.618 0.461 232.216 o
5 6 3 34.568 34.951 0.857 67.329 o
5 6 4 27.457 28.520 0.840 69.995 o
5 6 5 19.319 18.700 0.785 80.127 o
5 6 6 12.854 13.483 0.736 91.252 o
5 6 7 19.353 21.100 0.912 59.461 o
5 6 8 0.529 1.186 0.796 77.932 o
5 6 9 27.557 27.378 1.291 29.670 o
5 6 10 5.682 6.634 0.681 106.563 o
5 6 11 39.148 39.899 1.538 20.899 o
5 7 0 12.080 11.824 0.544 167.179 o
5 7 1 156.491 154.853 1.966 12.784 o
5 7 2 14.541 12.983 0.582 145.827 o
5 7 3 65.570 64.377 1.197 34.478 o
5 7 4 30.137 30.244 0.873 64.812 o
5 7 5 34.722 34.649 0.978 51.714 o
5 7 6 105.970 105.155 1.834 14.688 o
5 7 7 9.199 9.759 0.747 88.588 o
5 7 8 5.158 5.283 0.494 202.286 o
5 7 9 9.590 9.573 0.840 69.995 o
5 7 10 18.015 17.915 1.181 35.447 o
5 7 11 1.968 2.433 0.566 154.446 o
5 8 0 16.064 16.394 0.621 128.320 o
5 8 1 2.688 3.207 0.417 283.677 o
5 8 2 29.947 29.272 0.802 76.868 o
5 8 3 18.335 18.684 0.692 103.207 o
5 8 4 90.644 89.860 1.538 20.899 o
5 8 5 52.001 50.444 1.208 33.854 o
5 8 6 22.481 22.061 0.912 59.461 o
5 8 7 101.341 100.608 1.900 13.687 o
5 8 8 2.694 2.960 0.445 249.736 o
5 8 9 0.609 1.109 0.511 189.446 o
5 8 10 6.114 7.008 0.681 106.563 o
5 9 0 25.774 25.648 0.752 87.299 o
5 9 1 58.845 58.572 1.131 38.611 o
5 9 2 38.151 37.598 0.923 58.054 o
5 9 3 8.782 9.111 0.593 140.476 o
5 9 4 1.924 2.686 0.379 344.154 o
5 9 5 11.877 10.967 0.703 100.007 o
5 9 6 21.187 21.150 0.884 63.212 o
5 9 7 10.224 11.456 0.763 84.805 o
5 9 8 24.532 24.253 1.060 43.988 o
5 9 9 0.663 1.329 0.412 291.292 o
5 9 10 34.022 32.848 1.422 24.426 o
5 10 0 38.011 38.680 0.934 56.696 o
5 10 1 12.260 12.769 0.615 130.622 o
5 10 2 0.613 1.406 0.439 256.018 o
5 10 3 45.236 43.458 1.065 43.536 o
5 10 4 115.806 112.482 1.840 14.600 o
5 10 5 19.745 19.024 0.840 69.995 o
5 10 6 67.486 69.282 1.527 21.201 o
5 10 7 1.983 2.021 0.412 291.292 o
5 10 8 2.032 2.070 0.428 269.316 o
5 10 9 21.220 21.424 1.076 42.652 o
5 10 10 0.553 0.868 0.527 177.790 o
5 11 0 36.034 37.016 0.956 54.119 o
5 11 1 66.521 68.666 1.291 29.670 o
5 11 2 16.472 16.333 0.725 94.038 o
5 11 3 27.468 26.027 0.890 62.434 o
5 11 4 34.903 34.781 1.038 45.870 o
5 11 5 19.971 20.491 0.895 61.670 o
5 11 6 78.322 80.419 1.681 17.499 o
5 11 7 4.412 4.289 0.467 226.784 o
5 11 8 11.175 12.769 0.884 63.212 o
5 11 9 15.431 15.586 0.989 50.572 o
5 11 10 1.198 2.032 0.538 170.608 o
5 12 0 1.448 1.620 0.478 216.477 o
5 12 1 22.128 21.831 0.818 73.804 o
5 12 2 126.943 124.921 1.939 13.149 o
5 12 3 28.400 27.586 0.934 56.696 o
5 12 4 84.810 86.093 1.631 18.575 o
5 12 5 0.404 0.972 0.346 412.829 o
5 12 6 0.440 0.516 0.357 387.815 o
5 12 7 14.086 13.318 0.796 77.932 o
5 12 8 8.411 8.117 0.637 121.768 o
5 12 9 0.968 1.719 0.428 269.316 o
5 12 10 5.342 5.898 0.533 174.144 o
5 13 0 12.359 12.264 0.703 100.007 o
5 13 1 21.461 19.068 0.835 70.919 o
5 13 2 0.427 0.483 0.335 440.343 o
5 13 3 19.003 19.227 0.851 68.201 o
5 13 4 3.564 4.416 0.423 276.356 o
5 13 5 17.981 17.843 0.906 60.184 o
5 13 6 66.934 67.552 1.604 19.217 o
5 13 7 13.607 16.289 0.928 57.369 o
5 13 8 32.476 32.600 1.269 30.706 o
5 13 9 8.410 8.815 0.659 113.786 o
5 14 0 52.237 52.789 1.258 31.245 o
5 14 1 16.289 16.251 0.785 80.127 o
5 14 2 7.152 7.584 0.665 111.913 o
5 14 3 47.483 47.286 1.230 32.655 o
5 14 4 82.286 86.504 1.730 16.513 o
5 14 5 41.448 42.459 1.247 31.798 o
5 14 6 54.504 54.151 1.466 22.984 o
5 14 7 5.570 6.431 0.538 170.608 o
5 14 8 8.523 8.189 0.654 115.706 o
5 14 9 6.752 6.821 0.549 163.852 o
5 15 0 16.223 15.449 0.824 72.823 o
5 15 1 217.282 218.741 2.933 5.746 o
5 15 2 3.369 3.092 0.395 316.072 o
5 15 3 3.310 3.740 0.423 276.356 o
5 15 4 19.668 20.782 0.972 52.300 o
5 15 5 1.345 1.324 0.395 316.072 o
5 15 6 13.558 15.345 0.912 59.461 o
5 15 7 18.014 18.382 1.005 48.927 o
5 15 8 8.299 8.853 0.654 115.706 o
5 15 9 2.105 2.636 0.456 237.845 o
5 16 0 4.566 4.597 0.434 262.541 o
5 16 1 60.098 61.631 1.444 23.689 o
5 16 2 59.573 60.857 1.461 23.157 o
5 16 3 51.261 51.114 1.384 25.802 o
5 16 4 20.619 22.297 1.000 49.466 o
5 16 5 18.339 18.805 0.950 54.747 o
5 16 6 4.981 5.355 0.516 185.436 o
5 16 7 8.712 7.892 0.741 89.905 o
5 16 8 10.834 11.995 0.901 60.920 o
5 17 0 11.499 10.539 0.697 101.588 o
5 17 1 4.216 4.278 0.450 243.682 o
5 17 2 14.835 14.784 0.862 66.474 o
5 17 3 23.395 23.857 1.022 47.361 o
5 17 4 9.114 8.293 0.692 103.207 o
5 17 5 3.104 3.696 0.472 221.541 o
5 17 6 53.692 53.025 1.532 21.049 o
5 17 7 4.221 4.932 0.516 185.436 o
5 17 8 59.044 59.160 1.598 19.349 o
5 18 0 6.301 6.305 0.643 119.696 o
5 18 1 8.221 7.738 0.686 104.865 o
5 18 2 10.955 11.610 0.818 73.804 o
5 18 3 24.107 24.072 1.065 43.536 o
5 18 4 24.303 25.642 1.098 40.963 o
5 18 5 29.148 29.662 1.181 35.447 o
5 18 6 7.753 7.277 0.643 119.696 o
5 18 7 2.583 2.949 0.467 226.784 o
5 19 0 0.002 0.143 0.368 365.007 o
5 19 1 52.912 53.844 1.494 22.147 o
5 19 2 30.619 30.492 1.142 37.873 o
5 19 3 3.817 4.449 0.494 202.286 o
5 19 4 74.505 76.081 1.801 15.230 o
5 19 5 2.785 3.163 0.478 216.477 o
5 19 6 5.124 5.250 0.522 181.553 o
5 20 0 0.106 0.439 0.379 344.154 o
5 20 1 51.300 51.921 1.461 23.157 o
5 20 2 2.012 2.169 0.439 256.018 o
5 20 3 55.355 56.831 1.571 20.032 o
5 20 4 0.440 0.055 0.384 334.391 o
5 20 5 12.810 11.978 0.939 56.035 o
5 20 6 0.004 0.005 0.390 325.038 o
5 21 0 1.105 0.923 0.401 307.472 o
5 21 1 3.899 3.531 0.478 216.477 o
5 21 2 41.516 39.257 1.335 27.748 o
5 21 3 8.204 8.298 0.659 113.786 o
5 21 4 43.233 44.375 1.417 24.616 o
5 21 5 10.086 8.853 0.665 111.913 o
5 22 0 8.595 7.963 0.637 121.768 o
5 22 1 0.725 0.906 0.406 299.218 o
5 22 2 1.027 1.779 0.434 262.541 o
5 22 3 4.480 4.827 0.511 189.446 o
5 22 4 13.473 11.791 0.945 55.385 o
5 23 1 1.710 1.889 0.434 262.541 o
5 23 2 5.993 5.382 0.577 148.618 o
5 23 3 9.278 8.705 0.643 119.696 o
5 24 0 3.312 2.065 0.439 256.018 o
5 24 1 13.464 14.708 0.945 55.385 o
5 24 2 6.656 7.392 0.906 60.184 o
6 0 0 137.973 134.587 1.763 15.902 o
6 0 1 40.619 39.570 0.873 64.812 o
6 0 2 18.816 19.206 0.654 115.706 o
6 0 3 11.856 12.275 0.599 137.911 o
6 0 4 0.690 1.049 0.434 262.541 o
6 0 5 15.659 14.224 0.747 88.588 o
6 0 6 52.957 50.642 1.247 31.798 o
6 0 7 17.198 17.635 0.862 66.474 o
6 0 8 27.833 28.322 1.087 41.795 o
6 0 9 36.651 39.059 1.313 28.685 o
6 0 10 3.583 4.937 0.522 181.553 o
6 0 11 5.941 7.447 0.632 123.895 o
6 1 0 65.897 66.376 1.126 38.989 o
6 1 1 120.948 118.616 1.637 18.451 o
6 1 2 114.264 113.998 1.626 18.701 o
6 1 3 98.497 99.230 1.532 21.049 o
6 1 4 95.979 93.567 1.554 20.459 o
6 1 5 65.218 64.696 1.329 27.978 o
6 1 6 100.022 100.608 1.774 15.705 o
6 1 7 1.814 2.241 0.390 325.038 o
6 1 8 0.977 1.241 0.390 325.038 o
6 1 9 0.972 1.109 0.406 299.218 o
6 1 10 41.092 43.524 1.395 25.397 o
6 1 11 28.099 29.651 1.389 25.598 o
6 2 0 4.700 4.844 0.439 256.018 o
6 2 1 85.584 85.725 1.340 27.521 o
6 2 2 179.442 174.184 2.202 10.190 o
6 2 3 17.869 16.547 0.676 108.303 o
6 2 4 20.259 20.908 0.758 86.038 o
6 2 5 18.433 19.568 0.802 76.868 o
6 2 6 73.420 72.017 1.505 21.825 o
6 2 7 49.025 49.719 1.324 28.211 o
6 2 8 13.871 14.752 0.868 65.635 o
6 2 9 11.024 11.434 0.868 65.635 o
6 2 10 45.154 45.853 1.450 23.509 o
6 2 11 2.999 4.295 0.604 135.415 o
6 3 0 32.536 31.700 0.796 77.932 o
6 3 1 77.923 76.185 1.263 30.974 o
6 3 2 2.962 3.312 0.428 269.316 o
6 3 3 201.517 199.343 2.466 8.128 o
6 3 4 56.035 56.518 1.181 35.447 o
6 3 5 106.971 105.523 1.763 15.902 o
6 3 6 56.264 55.623 1.324 28.211 o
6 3 7 12.258 11.758 0.796 77.932 o
6 3 8 49.388 49.274 1.384 25.802 o
6 3 9 12.411 11.215 0.813 74.805 o
6 3 10 1.129 1.615 0.456 237.845 o
6 4 0 9.278 9.941 0.516 185.436 o
6 4 1 86.583 87.608 1.384 25.802 o
6 4 2 0.910 0.862 0.406 299.218 o
6 4 3 66.283 66.503 1.241 32.080 o
6 4 4 1.865 0.912 0.489 206.857 o
6 4 5 20.165 18.997 0.813 74.805 o
6 4 6 18.856 19.552 0.873 64.812 o
6 4 7 7.702 8.134 0.654 115.706 o
6 4 8 8.424 7.766 0.692 103.207 o
6 4 9 9.157 8.979 0.758 86.038 o
6 4 10 5.645 7.035 0.560 157.489 o
6 5 0 79.038 76.531 1.285 29.924 o
6 5 1 105.757 104.606 1.560 20.315 o
6 5 2 48.798 47.325 1.022 47.361 o
6 5 3 4.322 4.536 0.516 185.436 o
6 5 4 38.099 36.643 1.000 49.466 o
6 5 5 4.080 4.163 0.412 291.292 o
6 5 6 79.094 79.228 1.609 19.086 o
6 5 7 20.525 20.601 0.923 58.054 o
6 5 8 3.305 3.400 0.450 243.682 o
6 5 9 2.515 2.713 0.456 237.845 o
6 5 10 50.386 51.680 1.516 21.510 o
6 6 0 70.159 70.594 1.247 31.798 o
6 6 1 9.658 9.479 0.538 170.608 o
6 6 2 8.763 9.496 0.560 157.489 o
6 6 3 23.854 24.373 0.802 76.868 o
6 6 4 67.967 66.651 1.351 27.076 o
6 6 5 42.157 43.612 1.137 38.239 o
6 6 6 70.070 73.532 1.560 20.315 o
6 6 7 96.209 98.164 1.895 13.766 o
6 6 8 12.124 13.164 0.890 62.434 o
6 6 9 11.186 13.076 0.906 60.184 o
6 6 10 8.139 8.573 0.659 113.786 o
6 7 0 87.308 84.440 1.417 24.616 o
6 7 1 61.423 61.060 1.181 35.447 o
6 7 2 18.472 17.937 0.714 96.954 o
6 7 3 56.583 57.320 1.203 34.163 o
6 7 4 4.979 4.910 0.417 283.677 o
6 7 5 11.198 10.105 0.703 100.007 o
6 7 6 6.809 6.305 0.478 216.477 o
6 7 7 1.588 2.307 0.417 283.677 o
6 7 8 50.874 53.113 1.461 23.157 o
6 7 9 6.610 7.030 0.560 157.489 o
6 7 10 21.426 22.600 1.120 39.372 o
6 8 0 59.853 59.001 1.175 35.779 o
6 8 1 53.106 52.844 1.120 39.372 o
6 8 2 47.593 46.534 1.082 42.220 o
6 8 3 23.653 22.775 0.824 72.823 o
6 8 4 17.322 16.822 0.780 81.260 o
6 8 5 0.163 0.258 0.362 376.152 o
6 8 6 11.572 10.775 0.774 82.416 o
6 8 7 18.654 18.942 0.934 56.696 o
6 8 8 0.250 0.725 0.390 325.038 o
6 8 9 27.578 30.102 1.181 35.447 o
6 8 10 0.888 1.576 0.428 269.316 o
6 9 0 0.061 0.231 0.434 262.541 o
6 9 1 1.635 1.461 0.472 221.541 o
6 9 2 6.604 5.448 0.571 151.490 o
6 9 3 26.416 25.285 0.890 62.434 o
6 9 4 40.880 39.779 1.115 39.761 o
6 9 5 33.673 33.556 1.087 41.795 o
6 9 6 74.720 75.619 1.659 17.965 o
6 9 7 5.252 5.069 0.544 167.179 o
6 9 8 2.613 3.141 0.467 226.784 o
6 9 9 5.060 5.827 0.538 170.608 o
6 9 10 3.926 4.542 0.505 193.587 o
6 10 0 90.261 88.004 1.565 20.173 o
6 10 1 1.040 1.455 0.335 440.343 o
6 10 2 108.690 106.309 1.763 15.902 o
6 10 3 0.825 1.291 0.357 387.815 o
6 10 4 48.899 48.077 1.247 31.798 o
6 10 5 2.021 2.279 0.384 334.391 o
6 10 6 13.220 12.654 0.857 67.329 o
6 10 7 57.266 57.743 1.516 21.510 o
6 10 8 6.651 7.821 0.659 113.786 o
6 10 9 41.655 42.162 1.395 25.397 o
6 11 0 0.105 0.258 0.319 487.074 o
6 11 1 27.346 26.669 0.901 60.920 o
6 11 2 3.256 3.702 0.406 299.218 o
6 11 3 6.524 6.810 0.516 185.436 o
6 11 4 2.267 2.477 0.379 344.154 o
6 11 5 20.645 19.238 0.917 58.751 o
6 11 6 33.926 33.029 1.170 36.115 o
6 11 7 4.974 5.102 0.505 193.587 o
6 11 8 18.413 17.618 1.032 46.359 o
6 11 9 5.766 6.574 0.610 132.986 o
6 12 0 63.898 64.114 1.362 26.641 o
6 12 1 12.687 12.780 0.752 87.299 o
6 12 2 30.188 30.481 1.022 47.361 o
6 12 3 22.057 20.644 0.895 61.670 o
6 12 4 28.176 27.207 1.016 47.875 o
6 12 5 23.318 23.055 0.994 50.014 o
6 12 6 38.791 40.317 1.269 30.706 o
6 12 7 17.092 17.432 1.005 48.927 o
6 12 8 1.344 2.405 0.456 237.845 o
6 12 9 34.835 36.456 1.307 28.927 o
6 13 0 20.725 21.474 0.895 61.670 o
6 13 1 120.712 119.616 1.988 12.504 o
6 13 2 10.076 10.759 0.670 110.086 o
6 13 3 4.212 4.372 0.434 262.541 o
6 13 4 3.806 4.652 0.456 237.845 o
6 13 5 8.566 9.485 0.626 126.079 o
6 13 6 34.772 34.589 1.241 32.080 o
6 13 7 16.789 15.471 0.978 51.714 o
6 13 8 10.195 10.451 0.741 89.905 o
6 13 9 14.457 13.966 0.945 55.385 o
6 14 0 8.870 9.249 0.643 119.696 o
6 14 1 39.348 41.152 1.181 35.447 o
6 14 2 93.188 91.140 1.785 15.513 o
6 14 3 46.889 47.852 1.324 28.211 o
6 14 4 40.656 39.493 1.247 31.798 o
6 14 5 21.345 22.523 1.038 45.870 o
6 14 6 13.762 13.109 0.928 57.369 o
6 14 7 12.298 13.768 0.945 55.385 o
6 14 8 15.211 15.268 0.972 52.300 o
6 15 0 26.689 28.476 1.022 47.361 o
6 15 1 18.314 18.558 0.895 61.670 o
6 15 2 1.210 1.016 0.362 376.152 o
6 15 3 31.814 32.156 1.131 38.611 o
6 15 4 4.237 3.795 0.461 232.216 o
6 15 5 2.105 1.900 0.423 276.356 o
6 15 6 41.550 43.337 1.368 26.427 o
6 15 7 2.969 3.504 0.483 211.585 o
6 15 8 40.354 41.272 1.368 26.427 o
6 16 0 6.789 7.293 0.637 121.768 o
6 16 1 10.988 11.742 0.785 80.127 o
6 16 2 8.246 6.969 0.582 145.827 o
6 16 3 29.960 28.245 1.115 39.761 o
6 16 4 30.432 31.777 1.175 35.779 o
6 16 5 16.672 16.745 0.994 50.014 o
6 16 6 25.792 28.690 1.170 36.115 o
6 16 7 0.073 0.093 0.395 316.072 o
6 16 8 22.148 21.144 1.082 42.220 o
6 17 0 8.162 8.941 0.692 103.207 o
6 17 1 71.293 71.918 1.653 18.085 o
6 17 2 14.246 14.246 0.890 62.434 o
6 17 3 12.401 12.741 0.873 64.812 o
6 17 4 80.274 79.931 1.812 15.046 o
6 17 5 1.523 1.878 0.434 262.541 o
6 17 6 23.220 22.693 1.098 40.963 o
6 17 7 10.796 11.857 0.868 65.635 o
6 18 0 22.056 21.232 1.032 46.359 o
6 18 1 64.331 66.360 1.626 18.701 o
6 18 2 6.870 7.458 0.610 132.986 o
6 18 3 69.135 69.293 1.703 17.050 o
6 18 4 9.987 9.836 0.791 79.018 o
6 18 5 18.128 17.657 1.000 49.466 o
6 18 6 8.085 8.595 0.593 140.476 o
6 18 7 6.907 7.057 0.549 163.852 o
6 19 0 6.105 6.975 0.686 104.865 o
6 19 1 17.606 18.524 0.989 50.572 o
6 19 2 6.294 6.925 0.604 135.415 o
6 19 3 46.633 46.797 1.461 23.157 o
6 19 4 31.633 31.255 1.247 31.798 o
6 19 5 6.330 5.981 0.538 170.608 o
6 19 6 14.481 14.246 0.939 56.035 o
6 20 1 12.306 13.175 0.917 58.751 o
6 20 2 1.435 1.829 0.434 262.541 o
6 20 3 3.598 3.004 0.472 221.541 o
6 20 4 11.977 12.302 0.917 58.751 o
6 20 5 0.274 0.088 0.379 344.154 o
6 21 0 2.465 2.268 0.445 249.736 o
6 21 1 8.844 8.040 0.648 117.676 o
6 21 2 9.657 8.732 0.763 84.805 o
6 21 3 21.209 20.842 1.098 40.963 o
6 21 4 55.454 54.233 1.549 20.604 o
6 22 0 24.386 23.566 1.098 40.963 o
6 22 1 23.066 21.820 1.093 41.376 o
6 22 2 5.837 6.217 0.544 167.179 o
6 22 3 29.090 28.795 1.203 34.163 o
6 23 0 0.132 0.676 0.401 307.472 o
6 23 1 10.433 9.336 0.868 65.635 o
6 23 2 11.735 13.428 1.543 20.751 o
7 0 1 220.824 219.114 2.702 6.769 o
7 0 2 12.228 11.489 0.632 123.895 o
7 0 3 3.795 3.757 0.533 174.144 o
7 0 4 2.007 2.614 0.379 344.154 o
7 0 5 2.615 2.999 0.401 307.472 o
7 0 6 14.284 14.351 0.813 74.805 o
7 0 7 31.200 30.492 1.137 38.239 o
7 0 8 0.859 1.186 0.406 299.218 o
7 0 9 3.888 4.641 0.511 189.446 o
7 0 10 0.243 0.220 0.423 276.356 o
7 1 1 56.996 56.458 1.142 37.873 o
7 1 2 2.069 2.043 0.483 211.585 o
7 1 3 118.672 117.979 1.840 14.600 o
7 1 4 64.412 66.195 1.373 26.216 o
7 1 5 22.229 22.001 0.895 61.670 o
7 1 6 60.763 61.175 1.455 23.332 o
7 1 7 1.125 1.219 0.384 334.391 o
7 1 8 31.781 32.128 1.219 33.246 o
7 1 9 3.920 4.443 0.500 197.865 o
7 1 10 31.300 31.123 1.236 32.366 o
7 2 0 72.124 71.533 1.302 29.171 o
7 2 1 16.840 15.916 0.681 106.563 o
7 2 2 37.838 38.757 0.983 51.138 o
7 2 3 30.552 30.129 0.923 58.054 o
7 2 4 12.484 11.923 0.714 96.954 o
7 2 5 21.418 21.649 0.873 64.812 o
7 2 6 74.293 76.910 1.631 18.575 o
7 2 7 69.134 72.121 1.659 17.965 o
7 2 8 70.486 70.940 1.686 17.385 o
7 2 9 10.077 10.391 0.791 79.018 o
7 2 10 2.862 3.927 0.483 211.585 o
7 3 0 13.463 13.681 0.626 126.079 o
7 3 1 39.888 41.509 0.989 50.572 o
7 3 2 28.767 29.075 0.868 65.635 o
7 3 3 17.548 17.920 0.774 82.416 o
7 3 4 24.608 23.352 0.884 63.212 o
7 3 5 8.056 7.227 0.615 130.622 o
7 3 6 56.469 57.485 1.433 24.053 o
7 3 7 8.293 8.161 0.697 101.588 o
7 3 8 16.704 18.162 0.978 51.714 o
7 3 9 6.930 7.173 0.593 140.476 o
7 3 10 64.556 66.030 1.686 17.385 o
7 4 0 3.799 3.817 0.505 193.587 o
7 4 1 68.757 70.007 1.307 28.927 o
7 4 2 13.486 12.626 0.665 111.913 o
7 4 3 26.589 24.516 0.862 66.474 o
7 4 4 56.884 56.936 1.291 29.670 o
7 4 5 31.944 31.343 1.049 44.914 o
7 4 6 53.030 54.651 1.384 25.802 o
7 4 7 3.296 3.114 0.439 256.018 o
7 4 8 6.137 6.316 0.599 137.911 o
7 4 9 19.193 19.222 1.043 45.388 o
7 4 10 6.715 7.447 0.566 154.446 o
7 5 0 54.691 52.630 1.159 36.803 o
7 5 1 72.056 72.956 1.362 26.641 o
7 5 2 48.456 50.526 1.142 37.873 o
7 5 3 102.818 102.607 1.724 16.619 o
7 5 4 51.149 51.801 1.263 30.974 o
7 5 5 31.508 32.557 1.060 43.988 o
7 5 6 6.283 6.470 0.538 170.608 o
7 5 7 4.586 4.800 0.483 211.585 o
7 5 8 9.348 10.457 0.840 69.995 o
7 5 9 11.737 10.677 0.697 101.588 o
7 5 10 0.327 0.719 0.417 283.677 o
7 6 0 21.866 21.128 0.796 77.932 o
7 6 1 38.891 39.877 1.027 46.856 o
7 6 2 210.765 208.559 2.691 6.824 o
7 6 3 43.105 44.260 1.120 39.372 o
7 6 4 48.323 48.483 1.225 32.949 o
7 6 5 27.189 27.224 1.005 48.927 o
7 6 6 12.860 12.082 0.829 71.862 o
7 6 7 2.956 3.251 0.450 243.682 o
7 6 8 3.593 4.476 0.494 202.286 o
7 6 9 9.270 10.297 0.736 91.252 o
7 6 10 10.309 9.704 0.879 64.005 o
7 7 0 2.241 2.422 0.351 400.029 o
7 7 1 23.153 22.847 0.829 71.862 o
7 7 2 7.741 7.074 0.505 193.587 o
7 7 3 11.288 12.000 0.703 100.007 o
7 7 4 4.995 4.509 0.439 256.018 o
7 7 5 45.714 44.826 1.258 31.245 o
7 7 6 32.359 33.551 1.175 35.779 o
7 7 7 20.436 22.193 1.032 46.359 o
7 7 8 9.236 8.633 0.730 92.629 o
7 7 9 3.137 3.806 0.489 206.857 o
7 8 0 34.022 34.704 0.989 50.572 o
7 8 1 0.829 1.142 0.341 426.253 o
7 8 2 17.681 17.465 0.807 75.826 o
7 8 3 38.451 37.406 1.082 42.220 o
7 8 4 9.451 9.128 0.643 119.696 o
7 8 5 63.186 62.477 1.488 22.311 o
7 8 6 28.218 28.300 1.104 40.556 o
7 8 7 34.102 35.391 1.230 32.655 o
7 8 8 3.739 3.899 0.527 177.790 o
7 8 9 58.188 57.441 1.598 19.349 o
7 9 0 44.442 42.986 1.120 39.372 o
7 9 1 101.233 100.235 1.752 16.102 o
7 9 2 25.200 23.539 0.934 56.696 o
7 9 3 6.141 5.673 0.511 189.446 o
7 9 4 17.734 16.482 0.857 67.329 o
7 9 5 5.180 4.811 0.467 226.784 o
7 9 6 9.842 8.881 0.714 96.954 o
7 9 7 18.259 17.102 1.000 49.466 o
7 9 8 23.973 23.401 1.109 40.156 o
7 9 9 0.467 0.692 0.873 64.812 o
7 10 0 100.940 98.115 1.752 16.102 o
7 10 1 19.668 19.052 0.846 69.089 o
7 10 2 144.948 142.193 2.213 10.089 o
7 10 3 5.967 5.981 0.511 189.446 o
7 10 4 10.994 11.786 0.780 81.260 o
7 10 5 43.523 44.106 1.302 29.171 o
7 10 6 7.489 7.464 0.686 104.865 o
7 10 7 36.164 36.868 1.296 29.419 o
7 10 8 1.968 2.098 0.450 243.682 o
7 10 9 31.040 31.645 1.225 32.949 o
7 11 0 32.577 32.760 1.049 44.914 o
7 11 1 18.784 18.189 0.862 66.474 o
7 11 2 10.583 10.649 0.659 113.786 o
7 11 3 6.451 5.942 0.593 140.476 o
7 11 4 14.132 13.972 0.857 67.329 o
7 11 5 13.200 11.995 0.846 69.089 o
7 11 6 24.007 25.148 1.076 42.652 o
7 11 7 13.424 12.851 0.824 72.823 o
7 11 8 28.627 27.509 1.181 35.447 o
7 11 9 6.174 6.585 0.544 167.179 o
7 12 0 24.070 24.313 0.945 55.385 o
7 12 1 0.294 0.511 0.330 455.144 o
7 12 2 58.113 58.270 1.417 24.616 o
7 12 3 14.396 14.861 0.840 69.995 o
7 12 4 28.181 27.185 1.076 42.652 o
7 12 5 30.718 28.086 1.142 37.873 o
7 12 6 7.013 6.662 0.604 135.415 o
7 12 7 22.259 20.469 1.093 41.376 o
7 12 8 16.215 17.124 1.000 49.466 o
7 13 0 0.077 0.082 0.351 400.029 o
7 13 1 36.020 36.972 1.159 36.803 o
7 13 2 5.698 5.267 0.516 185.436 o
7 13 3 20.824 21.325 0.983 51.138 o
7 13 4 40.484 39.295 1.302 29.171 o
7 13 5 5.149 4.575 0.489 206.857 o
7 13 6 12.453 13.373 0.912 59.461 o
7 13 7 7.585 7.606 0.637 121.768 o
7 13 8 20.878 20.980 1.054 44.448 o
7 14 0 17.797 17.432 0.890 62.434 o
7 14 1 20.479 18.074 0.956 54.119 o
7 14 2 6.279 5.756 0.500 197.865 o
7 14 3 42.822 42.503 1.318 28.447 o
7 14 4 12.043 11.780 0.868 65.635 o
7 14 5 52.618 53.075 1.494 22.147 o
7 14 6 9.280 10.775 0.774 82.416 o
7 14 7 29.255 28.948 1.241 32.080 o
7 14 8 2.528 2.427 0.445 249.736 o
7 15 0 16.399 15.147 0.884 63.212 o
7 15 1 11.596 10.731 0.791 79.018 o
7 15 2 17.344 19.980 0.956 54.119 o
7 15 3 14.823 16.311 0.934 56.696 o
7 15 4 37.557 38.142 1.307 28.927 o
7 15 5 2.623 3.141 0.467 226.784 o
7 15 6 18.273 17.410 1.022 47.361 o
7 15 7 6.709 6.849 0.555 160.623 o
7 16 0 2.883 2.488 0.434 262.541 o
7 16 1 17.947 17.333 0.967 52.896 o
7 16 2 15.634 15.152 0.928 57.369 o
7 16 3 25.630 24.533 1.131 38.611 o
7 16 4 33.429 35.391 1.258 31.245 o
7 16 5 12.752 12.143 0.824 72.823 o
7 16 6 20.232 18.849 1.043 45.388 o
7 16 7 0.007 0.187 0.813 74.805 o
7 17 0 12.675 11.506 0.857 67.329 o
7 17 1 36.387 35.945 1.263 30.974 o
7 17 2 6.693 6.146 0.588 143.114 o
7 17 3 33.277 32.408 1.241 32.080 o
7 17 4 22.207 23.127 1.076 42.652 o
7 17 5 4.058 4.020 0.494 202.286 o
7 17 6 16.744 14.762 0.983 51.138 o
7 18 0 1.638 1.230 0.412 291.292 o
7 18 1 41.491 42.816 1.373 26.216 o
7 18 2 10.643 11.215 0.873 64.812 o
7 18 3 8.534 7.897 0.643 119.696 o
7 18 4 14.636 16.070 0.983 51.138 o
7 18 5 6.743 5.657 0.527 177.790 o
7 18 6 7.983 7.013 0.621 128.320 o
7 19 0 3.210 3.103 0.467 226.784 o
7 19 1 27.556 26.318 1.159 36.803 o
7 19 2 1.346 1.659 0.434 262.541 o
7 19 3 22.700 21.106 1.087 41.795 o
7 19 4 26.506 25.582 1.181 35.447 o
7 19 5 4.713 5.470 0.522 181.553 o
7 20 0 23.003 24.868 1.109 40.156 o
7 20 1 11.145 11.182 0.901 60.920 o
7 20 2 1.125 1.884 0.445 249.736 o
7 20 3 12.548 12.632 0.917 58.751 o
7 20 4 2.816 1.933 0.439 256.018 o
7 21 0 17.912 17.855 1.027 46.856 o
7 21 1 26.123 25.197 1.153 37.155 o
7 21 2 0.887 0.978 0.406 299.218 o
7 21 3 9.242 8.848 0.747 88.588 o
7 22 0 1.178 1.433 0.439 256.018 o
7 22 1 34.021 33.584 1.274 30.442 o
8 0 0 2.668 2.351 0.362 376.152 o
8 0 1 33.810 31.497 0.983 51.138 o
8 0 2 0.230 0.555 0.335 440.343 o
8 0 3 82.457 82.869 1.604 19.217 o
8 0 4 5.340 5.514 0.494 202.286 o
8 0 5 0.460 0.665 0.351 400.029 o
8 0 6 83.447 85.763 1.807 15.138 o
8 0 7 55.700 54.925 1.532 21.049 o
8 0 8 45.868 47.627 1.455 23.332 o
8 0 9 6.569 6.272 0.544 167.179 o
8 1 0 1.248 1.714 0.351 400.029 o
8 1 1 30.356 31.090 0.961 53.503 o
8 1 2 2.380 3.125 0.390 325.038 o
8 1 3 2.043 1.906 0.379 344.154 o
8 1 4 12.989 14.092 0.763 84.805 o
8 1 5 21.360 23.440 0.950 54.747 o
8 1 6 1.961 1.889 0.406 299.218 o
8 1 7 4.825 5.020 0.500 197.865 o
8 1 8 43.169 44.980 1.422 24.426 o
8 1 9 5.458 5.833 0.538 170.608 o
8 2 0 49.543 49.390 1.159 36.803 o
8 2 1 99.836 96.291 1.675 17.614 o
8 2 2 32.776 32.288 1.000 49.466 o
8 2 3 14.361 14.719 0.791 79.018 o
8 2 4 16.026 16.361 0.824 72.823 o
8 2 5 17.792 18.239 0.884 63.212 o
8 2 6 8.796 8.425 0.692 103.207 o
8 2 7 1.083 1.313 0.412 291.292 o
8 2 8 10.358 10.023 0.763 84.805 o
8 2 9 18.837 20.018 1.087 41.795 o
8 3 0 0.093 0.143 0.330 455.144 o
8 3 1 0.739 1.236 0.346 412.829 o
8 3 2 11.425 11.407 0.719 95.479 o
8 3 3 35.858 34.962 1.054 44.448 o
8 3 4 45.090 45.935 1.236 32.366 o
8 3 5 14.280 14.889 0.846 69.089 o
8 3 6 11.905 12.329 0.851 68.201 o
8 3 7 11.714 11.357 0.763 84.805 o
8 3 8 36.406 35.401 1.307 28.927 o
8 3 9 15.776 17.195 1.016 47.875 o
8 4 0 1.976 2.373 0.373 354.351 o
8 4 1 33.414 32.623 1.000 49.466 o
8 4 2 130.492 129.430 2.059 11.652 o
8 4 3 42.846 42.069 1.170 36.115 o
8 4 4 22.857 23.802 0.956 54.119 o
8 4 5 16.142 17.119 0.884 63.212 o
8 4 6 36.239 37.022 1.225 32.949 o
8 4 7 57.163 60.143 1.571 20.032 o
8 4 8 11.721 11.775 0.818 73.804 o
8 4 9 19.473 17.970 1.049 44.914 o
8 5 0 10.010 10.600 0.681 106.563 o
8 5 1 68.631 66.750 1.411 24.808 o
8 5 2 2.934 3.076 0.406 299.218 o
8 5 3 22.860 23.000 0.934 56.696 o
8 5 4 10.774 12.093 0.747 88.588 o
8 5 5 34.449 33.990 1.164 36.457 o
8 5 6 21.453 22.446 1.022 47.361 o
8 5 7 1.271 1.016 0.406 299.218 o
8 5 8 15.098 14.186 0.978 51.714 o
8 5 9 0.588 0.906 0.434 262.541 o
8 6 0 134.466 131.237 2.076 11.467 o
8 6 1 2.290 2.548 0.395 316.072 o
8 6 2 51.120 49.939 1.258 31.245 o
8 6 3 34.205 35.852 1.098 40.963 o
8 6 4 6.257 6.909 0.516 185.436 o
8 6 5 46.166 46.655 1.329 27.978 o
8 6 6 14.559 16.454 0.934 56.696 o
8 6 7 2.828 3.119 0.461 232.216 o
8 6 8 9.031 8.930 0.632 123.895 o
8 6 9 42.187 44.337 1.373 26.216 o
8 7 0 18.282 17.970 0.851 68.201 o
8 7 1 21.697 21.836 0.890 62.434 o
8 7 2 13.819 12.489 0.807 75.826 o
8 7 3 35.087 34.979 1.109 40.156 o
8 7 4 39.160 41.179 1.241 32.080 o
8 7 5 8.268 8.326 0.692 103.207 o
8 7 6 30.775 28.394 1.181 35.447 o
8 7 7 36.528 35.962 1.285 29.924 o
8 7 8 13.086 13.412 0.945 55.385 o
8 7 9 20.769 23.264 1.109 40.156 o
8 8 0 5.451 5.717 0.511 189.446 o
8 8 1 4.562 5.102 0.494 202.286 o
8 8 2 176.876 182.461 2.631 7.141 o
8 8 3 20.981 21.270 0.917 58.751 o
8 8 4 65.013 65.327 1.560 20.315 o
8 8 5 36.580 37.049 1.247 31.798 o
8 8 6 13.042 13.033 0.928 57.369 o
8 8 7 29.110 30.514 1.219 33.246 o
8 8 8 3.220 3.114 0.472 221.541 o
8 8 9 6.343 7.535 0.648 117.676 o
8 9 0 63.729 64.092 1.472 22.813 o
8 9 1 62.634 61.038 1.461 23.157 o
8 9 2 1.948 1.966 0.379 344.154 o
8 9 3 59.187 59.748 1.466 22.984 o
8 9 4 24.336 24.582 1.016 47.875 o
8 9 5 13.475 13.499 0.890 62.434 o
8 9 6 4.723 5.289 0.516 185.436 o
8 9 7 9.491 10.380 0.785 80.127 o
8 9 8 3.204 3.927 0.494 202.286 o
8 10 0 18.049 17.805 0.884 63.212 o
8 10 1 3.895 4.339 0.439 256.018 o
8 10 2 24.913 23.143 0.983 51.138 o
8 10 3 69.782 70.990 1.626 18.701 o
8 10 4 29.186 30.821 1.148 37.511 o
8 10 5 50.512 49.664 1.444 23.689 o
8 10 6 0.050 0.137 0.401 307.472 o
8 10 7 0.134 0.126 0.428 269.316 o
8 10 8 4.127 4.470 0.500 197.865 o
8 11 0 21.556 22.775 0.961 53.503 o
8 11 1 4.200 3.971 0.445 249.736 o
8 11 2 5.004 4.201 0.456 237.845 o
8 11 3 10.751 10.984 0.813 74.805 o
8 11 4 55.822 54.420 1.477 22.644 o
8 11 5 0.580 1.104 0.401 307.472 o
8 11 6 28.445 29.624 1.219 33.246 o
8 11 7 30.420 28.427 1.225 32.949 o
8 11 8 21.289 22.512 1.093 41.376 o
8 12 0 9.109 10.188 0.659 113.786 o
8 12 1 20.555 21.210 0.989 50.572 o
8 12 2 26.740 27.735 1.082 42.220 o
8 12 3 62.965 63.147 1.582 19.755 o
8 12 4 15.058 15.691 0.917 58.751 o
8 12 5 55.408 53.937 1.543 20.751 o
8 12 6 0.083 0.027 0.384 334.391 o
8 12 7 32.782 32.853 1.241 32.080 o
8 13 0 56.460 58.413 1.499 21.985 o
8 13 1 26.024 26.241 1.065 43.536 o
8 13 2 2.839 2.746 0.439 256.018 o
8 13 3 34.203 37.527 1.258 31.245 o
8 13 4 25.101 24.709 1.093 41.376 o
8 13 5 0.902 1.230 0.423 276.356 o
8 13 6 9.044 9.831 0.736 91.252 o
8 13 7 7.447 8.699 0.659 113.786 o
8 14 0 1.476 1.274 0.401 307.472 o
8 14 1 4.340 4.542 0.489 206.857 o
8 14 2 27.169 27.202 1.115 39.761 o
8 14 3 14.939 15.949 0.928 57.369 o
8 14 4 24.802 25.027 1.131 38.611 o
8 14 5 6.749 5.492 0.533 174.144 o
8 14 6 2.637 3.306 0.478 216.477 o
8 14 7 11.834 13.219 0.934 56.696 o
8 15 0 1.544 1.790 0.423 276.356 o
8 15 1 19.006 18.558 0.983 51.138 o
8 15 2 3.665 3.702 0.472 221.541 o
8 15 3 0.812 0.538 0.390 325.038 o
8 15 4 36.625 38.933 1.335 27.748 o
8 15 5 12.900 14.076 0.939 56.035 o
8 15 6 14.335 14.828 0.983 51.138 o
8 16 0 34.511 36.214 1.263 30.974 o
8 16 1 8.537 8.721 0.758 86.038 o
8 16 2 21.855 21.243 1.054 44.448 o
8 16 3 11.394 12.280 0.895 61.670 o
8 16 4 7.524 8.419 0.593 140.476 o
8 16 5 9.558 10.248 0.879 64.005 o
8 16 6 18.371 18.788 1.038 45.870 o
8 17 0 16.447 17.009 0.978 51.714 o
8 17 1 17.295 18.382 1.032 46.359 o
8 17 2 5.168 5.388 0.533 174.144 o
8 17 3 2.374 3.240 0.478 216.477 o
8 17 4 6.816 7.167 0.626 126.079 o
8 17 5 5.337 5.421 0.522 181.553 o
8 18 0 0.173 0.527 0.401 307.472 o
8 18 1 3.380 3.927 0.494 202.286 o
8 18 2 4.092 2.922 0.467 226.784 o
8 18 3 5.179 5.975 0.533 174.144 o
8 18 4 0.411 0.555 0.395 316.072 o
8 19 0 9.710 9.276 0.670 110.086 o
8 19 1 40.171 40.580 1.362 26.641 o
8 19 2 2.125 3.021 0.467 226.784 o
8 19 3 1.450 1.856 0.434 262.541 o
8 20 0 0.678 0.785 0.406 299.218 o
8 20 1 35.374 37.450 1.302 29.171 o
8 20 2 10.247 10.424 0.763 84.805 o
9 0 1 7.352 7.475 0.544 167.179 o
9 0 2 113.370 112.960 1.999 12.367 o
9 0 3 19.279 20.298 0.906 60.184 o
9 0 4 66.643 67.118 1.598 19.349 o
9 0 5 71.130 69.842 1.686 17.385 o
9 0 6 0.382 0.890 0.395 316.072 o
9 0 7 18.853 18.486 1.032 46.359 o
9 0 8 4.044 4.427 0.505 193.587 o
9 1 0 0.478 0.571 0.330 455.144 o
9 1 1 12.226 11.962 0.758 86.038 o
9 1 2 1.422 1.823 0.373 354.351 o
9 1 3 19.817 20.738 0.934 56.696 o
9 1 4 0.804 1.593 0.401 307.472 o
9 1 5 12.423 12.335 0.862 66.474 o
9 1 6 2.695 2.883 0.456 237.845 o
9 1 7 5.455 6.107 0.604 135.415 o
9 1 8 2.300 2.367 0.450 243.682 o
9 2 0 23.526 24.165 0.950 54.747 o
9 2 1 26.242 26.680 0.989 50.572 o
9 2 2 4.851 4.608 0.445 249.736 o
9 2 3 74.651 74.169 1.620 18.828 o
9 2 4 3.061 3.476 0.439 256.018 o
9 2 5 43.661 44.002 1.340 27.521 o
9 2 6 16.241 16.169 0.961 53.503 o
9 2 7 21.520 20.886 1.087 41.795 o
9 2 8 2.995 2.977 0.467 226.784 o
9 3 1 14.210 13.076 0.802 76.868 o
9 3 2 3.021 2.823 0.406 299.218 o
9 3 3 0.218 0.066 0.341 426.253 o
9 3 4 13.570 15.405 0.868 65.635 o
9 3 5 41.830 40.564 1.302 29.171 o
9 3 6 29.993 30.563 1.181 35.447 o
9 3 7 5.230 5.552 0.527 177.790 o
9 3 8 12.963 13.758 0.950 54.747 o
9 4 0 179.790 178.402 2.625 7.171 o
9 4 1 4.692 5.898 0.516 185.436 o
9 4 2 91.995 92.892 1.818 14.955 o
9 4 3 7.774 7.837 0.577 148.618 o
9 4 4 40.981 42.805 1.285 29.924 o
9 4 5 13.769 13.357 0.890 62.434 o
9 4 6 9.801 9.254 0.747 88.588 o
9 4 7 20.710 19.804 1.076 42.652 o
9 4 8 24.133 23.797 1.142 37.873 o
9 5 0 0.063 0.582 0.686 104.865 o
9 5 1 7.634 7.013 0.615 130.622 o
9 5 2 31.801 32.875 1.104 40.556 o
9 5 3 21.453 21.798 1.000 49.466 o
9 5 4 18.627 19.392 0.967 52.896 o
9 5 5 0.559 1.153 0.401 307.472 o
9 5 6 11.128 10.929 0.862 66.474 o
9 5 7 18.993 20.282 1.076 42.652 o
9 5 8 7.610 7.013 0.621 128.320 o
9 6 0 6.157 6.711 0.544 167.179 o
9 6 1 19.410 19.766 0.917 58.751 o
9 6 2 10.864 10.083 0.791 79.018 o
9 6 3 26.907 28.070 1.093 41.376 o
9 6 4 28.692 29.382 1.098 40.963 o
9 6 5 16.963 17.975 0.994 50.014 o
9 6 6 9.169 10.188 0.829 71.862 o
9 6 7 62.994 63.751 1.670 17.730 o
9 6 8 17.252 19.090 1.011 48.397 o
9 7 0 7.776 7.255 0.643 119.696 o
9 7 1 40.349 39.619 1.241 32.080 o
9 7 2 11.823 11.253 0.824 72.823 o
9 7 3 16.698 16.630 0.917 58.751 o
9 7 4 14.193 13.340 0.884 63.212 o
9 7 5 37.402 36.989 1.269 30.706 o
9 7 6 16.145 16.136 0.983 51.138 o
9 7 7 1.065 1.362 0.423 276.356 o
9 7 8 28.724 29.613 1.214 33.548 o
9 8 0 128.158 126.849 2.208 10.139 o
9 8 1 13.595 14.389 0.840 69.995 o
9 8 2 6.462 6.343 0.511 189.446 o
9 8 3 84.219 86.807 1.851 14.428 o
9 8 4 33.526 35.358 1.236 32.366 o
9 8 5 19.906 20.798 1.027 46.856 o
9 8 6 3.313 3.218 0.483 211.585 o
9 8 7 21.606 21.282 1.049 44.914 o
9 8 8 4.415 5.113 0.511 189.446 o
9 9 0 4.918 4.410 0.467 226.784 o
9 9 1 37.690 39.054 1.219 33.246 o
9 9 2 62.066 64.344 1.571 20.032 o
9 9 3 8.827 10.061 0.829 71.862 o
9 9 4 18.835 20.699 1.005 48.927 o
9 9 5 1.610 1.620 0.428 269.316 o
9 9 6 21.879 23.984 1.115 39.761 o
9 9 7 12.015 11.605 0.928 57.369 o
9 10 0 16.662 15.833 0.912 59.461 o
9 10 1 4.583 4.350 0.478 216.477 o
9 10 2 9.026 10.133 0.780 81.260 o
9 10 3 48.572 50.114 1.439 23.870 o
9 10 4 46.100 49.461 1.472 22.813 o
9 10 5 2.653 2.933 0.467 226.784 o
9 10 6 5.455 5.267 0.577 148.618 o
9 10 7 12.402 13.527 0.928 57.369 o
9 11 0 25.856 25.197 1.076 42.652 o
9 11 1 34.739 34.847 1.225 32.949 o
9 11 2 16.034 15.993 0.934 56.696 o
9 11 3 15.218 15.795 0.950 54.747 o
9 11 4 0.410 0.582 0.395 316.072 o
9 11 5 21.130 20.952 1.065 43.536 o
9 11 6 22.410 21.282 1.076 42.652 o
9 11 7 1.257 1.417 0.423 276.356 o
9 12 0 5.562 5.563 0.516 185.436 o
9 12 1 3.446 3.295 0.461 232.216 o
9 12 2 19.740 19.568 1.027 46.856 o
9 12 3 43.034 44.787 1.389 25.598 o
9 12 4 35.658 36.011 1.274 30.442 o
9 12 5 11.091 11.769 0.884 63.212 o
9 12 6 7.913 9.281 0.747 88.588 o
9 13 0 6.311 6.810 0.549 163.852 o
9 13 1 59.969 60.039 1.593 19.483 o
9 13 2 34.331 35.621 1.291 29.670 o
9 13 3 4.463 3.965 0.494 202.286 o
9 13 4 1.203 1.324 0.428 269.316 o
9 13 5 9.331 7.854 0.654 115.706 o
9 13 6 8.186 7.908 0.577 148.618 o
9 14 0 40.573 42.442 1.378 26.008 o
9 14 1 13.788 13.725 0.945 55.385 o
9 14 2 11.405 10.687 0.796 77.932 o
9 14 3 30.897 30.865 1.247 31.798 o
9 14 4 4.394 4.509 0.505 193.587 o
9 14 5 2.294 2.828 0.467 226.784 o
9 15 0 36.723 37.675 1.313 28.685 o
9 15 1 4.023 4.234 0.500 197.865 o
9 15 2 9.913 10.973 0.851 68.201 o
9 15 3 2.483 3.608 0.483 211.585 o
9 15 4 5.311 5.371 0.527 177.790 o
9 15 5 9.516 9.534 0.763 84.805 o
9 16 0 0.082 0.110 0.406 299.218 o
9 16 1 9.667 10.314 0.851 68.201 o
9 16 2 16.935 18.464 1.032 46.359 o
9 16 3 2.051 2.175 0.445 249.736 o
9 16 4 4.730 4.773 0.511 189.446 o
9 17 1 22.931 22.067 1.087 41.795 o
9 17 2 4.357 3.702 0.478 216.477 o
9 17 3 4.846 4.932 0.511 189.446 o
9 18 0 4.665 4.685 0.505 193.587 o
9 18 1 1.281 1.400 0.423 276.356 o
9 18 2 12.910 13.164 0.895 61.670 o
10 0 0 274.121 275.638 3.614 3.784 o
10 0 1 0.664 0.752 0.373 354.351 o
10 0 2 54.359 52.311 1.444 23.689 o
10 0 3 8.725 7.678 0.703 100.007 o
10 0 4 2.802 3.246 0.461 232.216 o
10 0 5 17.101 18.283 1.005 48.927 o
10 0 6 0.106 0.176 0.412 291.292 o
10 0 7 3.064 3.460 0.483 211.585 o
10 1 0 0.000 0.077 0.747 88.588 o
10 1 1 40.263 41.393 1.280 30.181 o
10 1 2 3.869 3.713 0.461 232.216 o
10 1 3 0.674 0.730 0.384 334.391 o
10 1 4 8.513 8.897 0.725 94.038 o
10 1 5 32.189 33.100 1.241 32.080 o
10 1 6 9.797 9.457 0.643 119.696 o
10 1 7 4.785 5.909 0.533 174.144 o
10 2 0 9.924 10.380 0.796 77.932 o
10 2 1 12.380 13.362 0.807 75.826 o
10 2 2 50.378 51.262 1.450 23.509 o
10 2 3 15.716 15.317 0.901 60.920 o
10 2 4 14.245 14.971 0.901 60.920 o
10 2 5 32.933 30.783 1.241 32.080 o
10 2 6 12.182 11.890 0.928 57.369 o
10 2 7 87.902 86.988 1.955 12.929 o
10 3 0 1.278 1.763 0.406 299.218 o
10 3 1 18.923 19.321 0.950 54.747 o
10 3 2 13.490 14.570 0.884 63.212 o
10 3 3 5.152 5.162 0.505 193.587 o
10 3 4 19.155 18.178 1.016 47.875 o
10 3 5 1.071 1.296 0.423 276.356 o
10 3 6 0.168 0.450 0.395 316.072 o
10 3 7 3.521 3.746 0.483 211.585 o
10 4 0 118.842 120.451 2.180 10.396 o
10 4 1 14.085 13.247 0.890 62.434 o
10 4 2 17.126 19.030 0.950 54.747 o
10 4 3 15.785 15.795 0.923 58.054 o
10 4 4 13.620 15.800 0.939 56.035 o
10 4 5 22.826 23.544 1.098 40.963 o
10 4 6 2.011 2.016 0.445 249.736 o
10 4 7 8.999 9.413 0.774 82.416 o
10 5 0 11.688 10.600 0.818 73.804 o
10 5 1 5.790 5.865 0.566 154.446 o
10 5 2 6.096 5.410 0.505 193.587 o
10 5 3 8.587 8.353 0.637 121.768 o
10 5 4 34.088 33.128 1.247 31.798 o
10 5 5 57.316 58.067 1.615 18.956 o
10 5 6 3.493 4.026 0.500 197.865 o
10 5 7 4.542 4.718 0.505 193.587 o
10 6 0 23.571 24.758 1.065 43.536 o
10 6 1 40.869 41.915 1.313 28.685 o
10 6 2 2.447 2.730 0.445 249.736 o
10 6 3 57.466 58.440 1.549 20.604 o
10 6 4 4.559 3.965 0.483 211.585 o
10 6 5 18.267 20.156 1.065 43.536 o
10 6 6 3.526 3.224 0.472 221.541 o
10 6 7 37.377 37.681 1.313 28.685 o
10 7 0 1.007 1.335 0.406 299.218 o
10 7 1 11.624 11.967 0.785 80.127 o
10 7 2 37.430 37.428 1.263 30.974 o
10 7 3 2.374 2.455 0.445 249.736 o
10 7 4 39.938 39.685 1.373 26.216 o
10 7 5 2.651 2.235 0.456 237.845 o
10 7 6 13.397 13.302 0.851 68.201 o
10 7 7 11.726 11.934 0.917 58.751 o
10 8 0 3.379 3.108 0.461 232.216 o
10 8 1 2.048 2.202 0.434 262.541 o
10 8 2 7.923 7.486 0.708 98.463 o
10 8 4 21.295 22.451 1.098 40.963 o
10 8 5 12.105 12.769 0.906 60.184 o
10 8 6 6.095 6.387 0.544 167.179 o
10 9 0 20.390 18.722 1.000 49.466 o
10 9 1 8.855 10.177 0.846 69.089 o
10 9 2 2.292 2.735 0.456 237.845 o
10 9 3 10.832 10.979 0.873 64.812 o
10 9 4 13.566 15.899 0.967 52.896 o
10 9 5 42.967 42.195 1.411 24.808 o
10 9 6 6.903 6.783 0.610 132.986 o
10 10 0 4.300 3.746 0.478 216.477 o
10 10 1 10.948 11.165 0.862 66.474 o
10 10 2 32.868 33.029 1.263 30.974 o
10 10 3 24.409 23.341 1.137 38.239 o
10 10 4 23.053 23.231 1.126 38.989 o
10 10 5 12.556 13.346 0.956 54.119 o
10 10 6 15.101 15.894 0.961 53.503 o
10 11 0 1.902 2.471 0.450 243.682 o
10 11 1 49.536 49.148 1.477 22.644 o
10 11 2 45.523 45.117 1.439 23.870 o
10 11 3 1.690 1.840 0.434 262.541 o
10 11 4 20.581 21.457 1.087 41.795 o
10 11 5 2.296 2.197 0.450 243.682 o
10 12 0 1.060 1.950 0.445 249.736 o
10 12 1 10.450 9.045 0.774 82.416 o
10 12 2 1.571 2.362 0.456 237.845 o
10 12 3 21.150 22.248 1.076 42.652 o
10 12 4 1.052 1.560 0.428 269.316 o
10 12 5 11.217 9.496 0.780 81.260 o
10 13 1 9.572 9.430 0.681 106.563 o
10 13 2 0.535 0.978 0.412 291.292 o
10 13 3 28.046 27.779 1.197 34.478 o
10 13 4 0.790 0.967 0.406 299.218 o
10 14 0 7.326 7.535 0.714 96.954 o
10 14 1 9.534 8.952 0.763 84.805 o
10 14 2 35.768 35.187 1.285 29.924 o
10 14 3 2.126 2.554 0.456 237.845 o
10 14 4 20.901 20.112 1.049 44.914 o
10 15 0 1.335 1.609 0.428 269.316 o
10 15 1 16.826 17.151 1.005 48.927 o
10 15 2 33.788 33.792 1.269 30.706 o
10 15 3 4.040 2.515 0.450 243.682 o
10 16 0 0.403 0.154 0.384 334.391 o
10 16 1 2.207 2.384 0.445 249.736 o
11 0 1 0.047 0.313 0.379 344.154 o
11 0 2 8.994 7.716 0.708 98.463 o
11 0 3 16.636 16.344 0.978 51.714 o
11 0 4 7.921 7.178 0.632 123.895 o
11 0 5 7.786 9.221 0.681 106.563 o
11 0 6 19.851 18.684 1.054 44.448 o
11 1 0 0.572 0.791 0.395 316.072 o
11 1 1 31.840 31.200 1.214 33.548 o
11 1 2 9.594 10.358 0.846 69.089 o
11 1 3 19.188 19.947 1.027 46.856 o
11 1 4 13.667 14.938 0.961 53.503 o
11 1 5 14.944 14.889 0.989 50.572 o
11 1 6 5.275 4.904 0.511 189.446 o
11 2 0 190.697 187.892 2.933 5.746 o
11 2 1 1.440 1.620 0.428 269.316 o
11 2 2 17.063 14.911 0.983 51.138 o
11 2 3 9.473 8.941 0.747 88.588 o
11 2 4 28.218 28.460 1.186 35.119 o
11 2 5 35.831 35.978 1.313 28.685 o
11 2 6 0.427 0.945 0.434 262.541 o
11 3 0 10.725 10.649 0.791 79.018 o
11 3 1 9.800 8.804 0.747 88.588 o
11 3 2 22.612 21.463 1.093 41.376 o
11 3 3 0.894 0.621 0.401 307.472 o
11 3 4 35.385 36.368 1.313 28.685 o
11 3 5 22.840 23.286 1.076 42.652 o
11 3 6 28.866 28.542 1.181 35.447 o
11 4 0 0.825 0.670 0.395 316.072 o
11 4 1 7.994 8.276 0.637 121.768 o
11 4 2 11.027 13.258 0.895 61.670 o
11 4 3 29.200 28.416 1.197 34.478 o
11 4 4 7.546 7.639 0.582 145.827 o
11 4 5 2.343 2.482 0.450 243.682 o
11 4 6 6.645 7.156 0.615 130.622 o
11 5 0 0.456 0.384 0.401 307.472 o
11 5 1 27.423 26.828 1.159 36.803 o
11 5 2 1.071 1.521 0.434 262.541 o
11 5 3 17.506 19.716 1.022 47.361 o
11 5 4 3.498 3.350 0.472 221.541 o
11 5 5 3.640 3.158 0.467 226.784 o
11 6 0 16.853 20.189 1.049 44.914 o
11 6 1 1.619 1.675 0.434 262.541 o
11 6 2 1.820 1.988 0.445 249.736 o
11 6 3 17.680 18.722 1.032 46.359 o
11 6 4 15.737 16.932 0.967 52.896 o
11 6 5 47.860 49.450 1.510 21.666 o
11 7 0 59.853 59.951 1.609 19.086 o
11 7 1 27.608 29.195 1.175 35.779 o
11 7 2 20.257 20.375 1.060 43.988 o
11 7 3 13.737 12.917 0.934 56.696 o
11 7 4 5.350 5.217 0.527 177.790 o
11 7 5 11.252 12.511 0.895 61.670 o
11 8 0 0.406 0.912 0.412 291.292 o
11 8 1 14.710 15.449 0.978 51.714 o
11 8 2 8.724 9.644 0.769 83.598 o
11 8 3 16.027 15.768 1.016 47.875 o
11 8 4 1.000 1.450 0.423 276.356 o
11 8 5 0.050 0.269 0.406 299.218 o
11 9 0 1.164 1.746 0.434 262.541 o
11 9 1 2.878 2.158 0.450 243.682 o
11 9 2 2.200 2.329 0.456 237.845 o
11 9 3 2.651 3.218 0.467 226.784 o
11 9 4 12.657 11.215 0.802 76.868 o
11 10 0 11.244 10.633 0.807 75.826 o
11 10 1 7.220 8.172 0.654 115.706 o
11 10 2 3.244 3.279 0.478 216.477 o
11 10 3 3.744 3.800 0.483 211.585 o
11 10 4 3.985 3.471 0.472 221.541 o
11 11 0 55.324 56.936 1.565 20.173 o
11 11 1 5.471 5.338 0.522 181.553 o
11 11 2 21.897 22.254 1.087 41.795 o
11 11 3 18.453 16.734 1.027 46.856 o
11 12 0 5.092 4.569 0.505 193.587 o
11 12 1 0.744 0.879 0.406 299.218 o
11 12 2 6.795 6.135 0.593 140.476 o
11 13 0 11.056 9.930 0.802 76.868 o
11 13 1 14.043 13.812 0.813 74.805 o
12 0 0 9.785 9.172 0.681 106.563 o
12 0 1 11.990 12.637 0.906 60.184 o
12 0 2 0.893 1.011 0.412 291.292 o
12 0 3 0.205 1.087 0.851 68.201 o
12 0 4 12.390 14.504 0.945 55.385 o
12 1 0 12.954 14.213 0.961 53.503 o
12 1 1 4.824 5.239 0.522 181.553 o
12 1 2 5.350 5.250 0.522 181.553 o
12 1 3 16.638 18.420 0.989 50.572 o
12 1 4 45.535 45.018 1.417 24.616 o
12 2 0 5.210 5.492 0.588 143.114 o
12 2 1 4.818 3.894 0.494 202.286 o
12 2 2 50.428 48.538 1.510 21.666 o
12 2 3 0.362 0.840 0.412 291.292 o
12 2 4 7.811 9.265 0.851 68.201 o
12 3 0 26.047 25.351 1.148 37.511 o
12 3 1 24.832 22.929 1.126 38.989 o
12 3 2 1.163 1.560 0.428 269.316 o
12 3 3 20.829 21.221 1.076 42.652 o
12 3 4 17.178 17.509 1.011 48.397 o
12 4 0 2.074 2.384 0.450 243.682 o
12 4 1 7.487 9.045 0.703 100.007 o
12 4 2 9.427 8.842 0.763 84.805 o
12 4 3 1.145 1.895 0.434 262.541 o
12 5 0 17.952 17.986 1.005 48.927 o
12 5 1 37.865 35.259 1.313 28.685 o
12 5 2 8.067 7.914 0.637 121.768 o
12 5 3 6.742 7.189 0.708 98.463 o
12 6 0 21.156 20.908 1.054 44.448 o
12 6 1 0.225 0.527 0.401 307.472 o
12 6 2 15.932 15.444 1.000 49.466 o
12 6 3 1.011 0.912 0.406 299.218 o
12 7 0 7.794 8.233 0.582 145.827 o
12 7 1 21.394 23.270 1.120 39.372 o
12 7 2 5.062 5.003 0.511 189.446 o
12 8 0 0.567 0.610 0.406 299.218 o
12 8 1 9.047 10.303 0.868 65.635 o
12 8 2 5.772 5.432 0.588 143.114 o
12 9 0 36.917 36.681 1.307 28.927 o
;
_olex2_submission_special_instructions 'No special instructions were received'
loop_
_space_group_symop_id
_space_group_symop_operation_xyz
1 x,y,z
2 x+1/2,-y+1/2,-z
3 -x,y+1/2,-z+1/2
4 -x+1/2,-y,z+1/2
loop_
_atom_site_label
_atom_site_type_symbol
_atom_site_fract_x
_atom_site_fract_y
_atom_site_fract_z
_atom_site_U_iso_or_equiv
_atom_site_adp_type
_atom_site_occupancy
_atom_site_refinement_flags_posn
O1 O 0.72675(4) 0.083782(17) 0.62428(4) 0.00654(3) Uani 1.000000 .
O2 O 0.44090(4) 0.184040(17) 0.76113(4) 0.00635(3) Uani 1.000000 .
N1 N 0.64729(4) 0.13751(2) 0.18294(5) 0.00529(3) Uani 1.000000 .
H1 H 0.7047(11) 0.0605(5) 0.1991(14) 0.0236(18) Uani 1.000000 .
H2 H 0.7783(10) 0.1896(5) 0.2115(13) 0.0211(17) Uani 1.000000 .
H3 H 0.5839(11) 0.1493(5) 0.0169(13) 0.0270(19) Uani 1.000000 .
C1 C 0.46632(4) 0.16110(2) 0.35439(5) 0.00447(4) Uani 1.000000 .
H4 H 0.4233(9) 0.2475(4) 0.3433(11) 0.0189(15) Uani 1.000000 .
C2 C 0.25988(5) 0.09068(2) 0.30333(6) 0.00692(4) Uani 1.000000 .
H5 H 0.1915(10) 0.1103(5) 0.1319(12) 0.0289(19) Uani 1.000000 .
H6 H 0.1270(10) 0.1054(5) 0.4309(13) 0.0261(18) Uani 1.000000 .
H7 H 0.3040(10) 0.0047(5) 0.3082(14) 0.032(2) Uani 1.000000 .
C3 C 0.55404(5) 0.14080(2) 0.59986(5) 0.00421(3) Uani 1.000000 .
loop_
_atom_site_aniso_label
_atom_site_aniso_U_11
_atom_site_aniso_U_22
_atom_site_aniso_U_33
_atom_site_aniso_U_12
_atom_site_aniso_U_13
_atom_site_aniso_U_23
O1 0.00670(7) 0.00709(6) 0.00583(8) 0.00246(6) -0.00064(6) 0.00052(6)
O2 0.00753(7) 0.00761(6) 0.00391(7) 0.00213(6) 0.00056(6) -0.00054(6)
N1 0.00555(7) 0.00608(7) 0.00424(8) 0.00012(6) 0.00068(6) -0.00015(6)
H1 0.026(4) 0.027(4) 0.018(5) 0.004(3) 0.012(4) 0.001(3)
H2 0.015(3) 0.027(3) 0.022(5) 0.002(3) 0.006(4) -0.001(3)
H3 0.032(4) 0.022(4) 0.026(5) -0.007(4) 0.026(4) -0.012(4)
C1 0.00519(8) 0.00471(7) 0.00351(9) 0.00042(6) -0.00048(7) 0.00010(6)
H4 0.024(3) 0.013(3) 0.020(4) 0.008(3) 0.002(3) -0.001(3)
C2 0.00580(8) 0.00884(8) 0.00612(10) -0.00133(8) -0.00059(7) -0.00047(8)
H5 0.020(4) 0.050(5) 0.016(4) -0.010(3) -0.010(3) 0.010(4)
H6 0.013(3) 0.033(4) 0.033(5) -0.003(3) 0.008(4) 0.004(4)
H7 0.033(5) 0.017(3) 0.048(6) -0.004(3) 0.001(4) -0.004(3)
C3 0.00484(7) 0.00430(7) 0.00350(9) 0.00030(7) -0.00018(7) -0.00004(6)
loop_
_atom_type_symbol
_atom_type_scat_dispersion_real
_atom_type_scat_dispersion_imag
_atom_type_scat_source
_atom_type_scat_dispersion_source
C 0.00347 0.00161 'NoSpherA2: Chem.Sci. 2021, DOI:10.1039/D0SC05526C'
'Henke, Gullikson and Davis, At. Data and Nucl. Data Tables, 1993, 54, 2'
H 0.00000 0.00000 'NoSpherA2: Chem.Sci. 2021, DOI:10.1039/D0SC05526C'
'Henke, Gullikson and Davis, At. Data and Nucl. Data Tables, 1993, 54, 2'
N 0.00653 0.00323 'NoSpherA2: Chem.Sci. 2021, DOI:10.1039/D0SC05526C'
'Henke, Gullikson and Davis, At. Data and Nucl. Data Tables, 1993, 54, 2'
O 0.01158 0.00611 'NoSpherA2: Chem.Sci. 2021, DOI:10.1039/D0SC05526C'
'Henke, Gullikson and Davis, At. Data and Nucl. Data Tables, 1993, 54, 2'
loop_
_diffrn_refln_index_h
_diffrn_refln_index_k
_diffrn_refln_index_l
_diffrn_refln_intensity_net
_diffrn_refln_intensity_u
0 2 0 334.87 3.2
0 4 0 9448.91 80.99
0 6 0 163.43 1.9
0 8 0 82.64 1.31
0 10 0 1.46 0.62
0 12 0 424.14 4.85
0 14 0 106.72 2.05
0 16 0 46 1.56
0 18 0 414.8 5.42
0 20 0 0.4 0.62
0 22 0 246.97 4.29
0 24 0 0.42 0.69
0 26 0 11.75 1.12
0 1 1 1320 13.35
0 2 1 217.82 2.22
0 3 1 1291.14 11.66
0 4 1 179.07 1.94
0 5 1 0.42 0.3
0 6 1 865.47 8.34
0 7 1 67.29 1.11
0 8 1 80.83 1.33
0 9 1 58.46 1.21
0 10 1 250.2 3.09
0 11 1 121.57 2.02
0 12 1 139.12 2.24
0 13 1 34.32 1.26
0 14 1 69.07 1.72
0 15 1 165.76 2.84
0 16 1 4.34 16.76
0 17 1 2.06 0.63
0 18 1 109.11 2.49
0 19 1 29.44 1.63
0 20 1 50 1.91
0 21 1 4.9 0.77
0 23 1 3.15 0.77
0 24 1 0.3 0.7
0 25 1 5.45 1.02
0 26 1 36.05 2.25
0 0 2 5179.34 60.69
0 1 2 971.51 11.94
0 2 2 330.85 3.78
0 3 2 102.39 1.45
0 4 2 311.97 3.26
0 5 2 1032.85 9.7
0 6 2 176.23 2.13
0 7 2 9.87 0.62
0 8 2 203.58 2.55
0 9 2 43.16 1.09
0 10 2 84.28 1.57
0 11 2 152.66 2.3
0 12 2 51.48 1.37
0 13 2 39.16 1.27
0 14 2 38.8 1.37
0 15 2 330.4 4.35
0 16 2 8.1 0.74
0 17 2 111.27 2.52
0 18 2 37.18 1.66
0 19 2 218.44 3.81
0 20 2 1.78 0.74
0 21 2 83.71 2.48
0 22 2 67.08 2.35
0 23 2 32.82 1.87
0 24 2 4.54 0.83
0 25 2 40.93 2.3
0 26 2 4.66 0.91
0 1 3 153.04 3.18
0 2 3 287.47 5.33
0 3 3 374.32 4.47
0 4 3 1346.6 14.16
0 5 3 148.17 2.18
0 6 3 496.26 5.18
0 7 3 40.82 1.04
0 8 3 112.33 1.81
0 9 3 260.07 3.25
0 10 3 72.19 1.52
0 11 3 128.23 2.15
0 12 3 216.68 3.09
0 13 3 265.14 3.64
0 14 3 50.69 1.56
0 15 3 164.83 2.89
0 16 3 282.05 4.12
0 17 3 86.03 2.26
0 18 3 49.2 1.81
0 19 3 4.56 0.74
0 20 3 80.97 2.44
0 21 3 1.59 0.7
0 22 3 2.11 0.74
0 23 3 51.31 2.12
0 24 3 23.17 1.66
0 25 3 9.07 1.05
0 0 4 382.05 7.11
0 1 4 72.56 2.19
0 2 4 169.56 3.74
0 3 4 14.58 0.82
0 4 4 418.12 5.17
0 5 4 1.23 0.68
0 6 4 129.25 2.24
0 7 4 53.23 1.42
0 8 4 117.5 1.96
0 9 4 13.11 0.84
0 10 4 164.61 2.52
0 11 4 178.53 2.76
0 12 4 71.07 1.75
0 13 4 20.93 1.18
0 14 4 259.51 3.8
0 15 4 82.48 2.15
0 16 4 172.51 3.17
0 17 4 10.4 0.84
0 18 4 17.55 1.35
0 19 4 6.12 0.8
0 20 4 3.34 0.75
0 21 4 0.34 0.68
0 22 4 7.93 0.9
0 23 4 0.22 0.73
0 24 4 48.42 2.07
0 25 4 5.28 0.93
0 1 5 430.21 8.23
0 2 5 250.13 5.38
0 3 5 89.67 2.8
0 4 5 708.95 8.35
0 5 5 323.83 4.43
0 6 5 1.41 0.75
0 7 5 12.07 0.96
0 8 5 264.62 3.97
0 9 5 126.38 2.6
0 10 5 14.49 1
0 11 5 37.8 1.42
0 12 5 2.71 0.6
0 13 5 144.28 2.74
0 14 5 6.41 0.74
0 15 5 25.69 1.44
0 16 5 24.2 1.45
0 17 5 140.34 3.02
0 18 5 4.25 0.76
0 19 5 24.82 1.63
0 20 5 0.54 0.73
0 21 5 35.78 1.89
0 22 5 10.01 0.96
0 23 5 22.82 1.75
0 24 5 0.47 0.69
0 0 6 1.43 1.14
0 1 6 170.82 4.46
0 2 6 29.52 1.87
0 3 6 2.71 1.18
0 4 6 29.13 1.98
0 5 6 157.17 2.86
0 6 6 20.36 1.19
0 7 6 258.83 4.09
0 8 6 54.67 1.8
0 9 6 26.15 1.41
0 10 6 28.44 1.5
0 11 6 213.56 3.46
0 12 6 11.5 1.01
0 13 6 8.71 0.88
0 14 6 21.3 1.34
0 15 6 0.17 0.62
0 16 6 75.68 2.33
0 17 6 53.06 2.02
0 18 6 14.21 1.25
0 19 6 80.56 2.53
0 20 6 3.35 0.78
0 21 6 38.81 1.98
0 22 6 19.28 1.41
0 23 6 30.98 1.81
0 1 7 107.1 3.74
0 2 7 986.15 17.72
0 3 7 0.85 1.4
0 4 7 21.47 2
0 5 7 43.88 2.61
0 6 7 78.66 2.22
0 7 7 85 2.33
0 8 7 3.55 0.79
0 9 7 9 0.94
0 10 7 16.8 1.47
0 11 7 57.21 2.16
0 12 7 10.64 1.17
0 13 7 21.21 1.45
0 14 7 2.69 0.7
0 16 7 148.86 3.31
0 17 7 1.92 0.73
0 18 7 4.2 0.8
0 19 7 12.5 1.01
0 20 7 246.41 4.46
0 21 7 1.66 0.72
0 0 8 44.6 2.75
0 1 8 6.53 1.73
0 2 8 15.87 2.09
0 3 8 28.64 2.45
0 4 8 3.15 1.73
0 6 8 18.72 1.49
0 7 8 108.66 2.85
0 8 8 159.44 3.51
0 9 8 22.35 1.58
0 10 8 11.92 1.27
0 11 8 73.06 2.56
0 12 8 73.3 2.63
0 13 8 58.58 2.45
0 14 8 22.85 1.79
0 15 8 1.01 0.7
0 16 8 1.82 0.73
0 17 8 11.97 1
0 18 8 1.05 0.73
0 19 8 16.81 1.4
0 20 8 11.22 0.96
0 1 9 15.53 2.12
0 2 9 84.51 4
0 3 9 115.43 4.61
0 4 9 40.49 2.96
0 5 9 3.01 1.75
0 6 9 2.88 1.79
0 7 9 84.78 2.78
0 8 9 145.15 3.54
0 9 9 30.02 1.95
0 10 9 25.24 1.86
0 11 9 4.09 0.96
0 12 9 63.57 2.54
0 13 9 53.11 2.44
0 14 9 0.52 0.89
0 15 9 86.2 2.99
0 16 9 26.34 1.99
0 17 9 28.29 1.8
0 18 9 15.64 1.17
0 0 10 8.76 2.24
0 1 10 0.01 1.83
0 2 10 37.72 3.16
0 3 10 89.22 4.4
0 4 10 51.64 3.54
0 5 10 59.59 3.75
0 6 10 75.83 4.24
0 7 10 99.04 4.74
0 8 10 109.7 3.28
0 9 10 12.27 1.2
0 10 10 3.39 0.95
0 11 10 29.85 2.09
0 12 10 24.46 1.69
0 13 10 22.85 1.91
0 14 10 79.4 2.96
0 15 10 10.67 1.18
0 1 11 0.88 2.22
0 2 11 4.92 2.25
0 3 11 12.38 2.7
0 4 11 1.67 2.35
0 5 11 1.63 2.35
0 6 11 14.07 2.8
0 7 11 5.64 2.46
0 8 11 15.3 2.8
0 9 11 14.58 1.4
0 10 11 2.86 0.98
0 11 11 15.21 1.53
0 12 11 54.96 2.56
0 0 12 4.52 16.76
0 1 12 49.22 4.1
0 2 12 36.82 3.58
0 3 12 211.78 7.21
0 4 12 0.77 2.58
0 5 12 17.82 3.13
0 6 12 101.65 5.02
0 7 12 118.13 5.54
1 1 0 458.35 4.31
1 2 0 9999.99 105.89
1 3 0 107.72 1.26
1 4 0 3059.16 26.92
1 5 0 616.72 5.99
1 6 0 112.77 1.45
1 7 0 35.09 0.8
1 8 0 732.93 7.29
1 9 0 5.94 0.62
1 10 0 78.48 1.46
1 11 0 176.58 2.47
1 12 0 49.06 1.29
1 13 0 104.48 1.97
1 14 0 1.57 0.79
1 15 0 157.31 2.69
1 16 0 44.58 1.55
1 17 0 53.84 1.75
1 18 0 1.7 0.7
1 19 0 61.47 2
1 20 0 73.4 2.27
1 21 0 2.61 0.78
1 22 0 7.28 0.86
1 23 0 12.77 1.1
1 24 0 17.84 1.44
1 26 0 13.34 1.16
1 0 1 139.95 1.52
1 1 1 243.44 2.47
1 2 1 189.77 2.01
1 3 1 1982.27 17.64
1 4 1 286.21 2.99
1 5 1 798.09 7.7
1 6 1 39.89 0.8
1 7 1 618.51 6.21
1 8 1 427.57 4.52
1 9 1 423.38 4.61
1 10 1 239.17 3.05
1 11 1 31.25 1.02
1 12 1 0.65 0.66
1 13 1 232.64 3.23
1 14 1 53.91 1.51
1 15 1 159.71 2.77
1 16 1 112.61 2.35
1 17 1 46.35 1.65
1 18 1 43.35 1.69
1 19 1 27.91 1.51
1 20 1 10.62 0.88
1 21 1 3.76 0.75
1 22 1 63.37 2.2
1 23 1 19.43 1.62
1 24 1 38.16 1.96
1 25 1 17.31 1.49
1 26 1 3.65 0.88
1 0 2 5660.2 65.86
1 1 2 130.63 1.71
1 2 2 1043.4 11.15
1 3 2 353.79 3.69
1 4 2 1939.85 17.55
1 5 2 33.91 0.75
1 6 2 400.08 4.21
1 7 2 295.37 3.32
1 8 2 18.68 0.79
1 9 2 112.66 1.79
1 10 2 108.41 1.82
1 11 2 215 2.9
1 12 2 210.37 2.96
1 13 2 200.9 2.98
1 14 2 99.73 2.07
1 15 2 57.67 1.68
1 16 2 50.36 1.72
1 17 2 138.03 2.78
1 18 2 200.69 3.51
1 19 2 75.12 2.19
1 20 2 17.69 1.28
1 21 2 41.69 1.86
1 22 2 66.68 2.32
1 23 2 79.12 2.59
1 24 2 19.41 1.45
1 25 2 0.28 0.78
1 26 2 8.19 1.01
1 0 3 58.41 1.68
1 1 3 551.52 9.53
1 2 3 409.72 4.81
1 3 3 167.22 2.33
1 4 3 174.39 2.44
1 5 3 41.99 0.96
1 6 3 251.77 2.98
1 7 3 9.44 0.69
1 8 3 469.65 5.12
1 9 3 52.89 1.28
1 10 3 145.26 2.26
1 11 3 30.38 1.09
1 12 3 58.87 1.52
1 13 3 61.62 1.65
1 14 3 209.36 3.25
1 15 3 61.05 1.79
1 16 3 16.94 1.12
1 17 3 45.62 1.72
1 18 3 48.35 1.83
1 19 3 49.62 1.92
1 20 3 14.15 1.2
1 21 3 42.99 1.91
1 22 3 13.12 1.11
1 23 3 5 0.83
1 24 3 14.83 1.17
1 25 3 32.65 2.11
1 0 4 598.64 10.63
1 1 4 474.06 8.62
1 2 4 52.41 1.91
1 3 4 42.68 1.17
1 4 4 199.94 2.86
1 5 4 152.57 2.45
1 6 4 237.65 3.41
1 7 4 152.62 2.24
1 8 4 82.36 1.61
1 9 4 3.97 0.7
1 10 4 41.4 1.28
1 11 4 113.67 2.14
1 12 4 256.82 3.63
1 13 4 49.46 1.56
1 14 4 71.85 1.94
1 15 4 5.43 0.72
1 16 4 42.99 1.66
1 17 4 51.21 1.85
1 18 4 106.8 2.67
1 19 4 74.39 2.28
1 20 4 16.85 1.45
1 21 4 19.69 1.43
1 22 4 39.69 1.91
1 23 4 27.49 1.75
1 24 4 3.9 0.79
1 0 5 518.76 9.67
1 1 5 223.19 4.94
1 2 5 845.41 14.81
1 3 5 321.41 6.63
1 4 5 197.1 3.07
1 5 5 15.61 0.97
1 6 5 418.86 5.49
1 7 5 133.01 2.53
1 8 5 126.4 2.51
1 9 5 164.17 2.66
1 10 5 17.36 1.05
1 11 5 65.37 1.74
1 12 5 45.72 1.57
1 13 5 81.55 2.1
1 14 5 73.29 2.04
1 15 5 54.41 1.87
1 16 5 143.33 2.98
1 17 5 20.89 1.46
1 18 5 12.69 1.18
1 19 5 34.06 1.78
1 20 5 117.9 2.99
1 21 5 45.78 2.03
1 22 5 3.15 0.78
1 23 5 8.35 0.91
1 24 5 31.79 1.82
1 0 6 0.13 1.15
1 1 6 1.63 1.13
1 2 6 13.76 1.52
1 3 6 22.65 1.8
1 4 6 29.17 1.98
1 5 6 24.23 1.22
1 6 6 39.9 1.49
1 7 6 14.18 1.13
1 8 6 16.58 1.24
1 9 6 20.19 1.4
1 10 6 4.43 0.8
1 11 6 17.93 1.24
1 12 6 52.88 1.75
1 13 6 13.75 1.1
1 14 6 51.08 1.83
1 15 6 20.07 1.48
1 16 6 5.44 0.78
1 17 6 39.24 1.83
1 18 6 25.27 1.63
1 19 6 21.52 1.57
1 20 6 57.61 2.27
1 21 6 17.15 1.41
1 22 6 15.73 1.38
1 23 6 21.95 1.61
1 0 7 452.05 9.39
1 1 7 48.96 2.64
1 2 7 111.88 3.86
1 3 7 148.51 4.54
1 4 7 257.66 6.41
1 5 7 55.76 1.9
1 6 7 112.57 2.68
1 7 7 17.35 1.4
1 8 7 102.75 2.65
1 9 7 122.86 2.94
1 10 7 34.21 1.75
1 11 7 39.83 1.66
1 12 7 3.48 0.84
1 13 7 77.22 2.28
1 14 7 44.9 1.91
1 15 7 58.94 2.14
1 16 7 47.16 1.96
1 17 7 37.4 1.85
1 18 7 78.51 2.53
1 19 7 12.31 1.12
1 20 7 28.17 1.8
1 21 7 16.98 1.21
1 0 8 19.05 2.19
1 1 8 64.45 3.26
1 2 8 36.21 2.62
1 3 8 58.58 3.12
1 4 8 59.81 3.2
1 5 8 186.53 5.67
1 6 8 27.45 1.68
1 7 8 166.66 3.57
1 8 8 5.92 0.89
1 9 8 93.47 2.77
1 10 8 72.49 2.52
1 11 8 174.29 3.87
1 12 8 21.47 1.77
1 13 8 51.66 2.31
1 14 8 2.19 0.92
1 15 8 84.44 2.52
1 16 8 10.19 0.95
1 17 8 48.94 2.15
1 18 8 9.96 0.95
1 19 8 4.14 0.8
1 20 8 0.2 0.71
1 0 9 0.07 1.69
1 1 9 4.07 1.82
1 2 9 94.04 4.14
1 3 9 2.98 1.79
1 4 9 5.94 2.07
1 5 9 52.17 3.34
1 6 9 18.34 2.37
1 7 9 28.96 1.85
1 8 9 15.23 1.35
1 9 9 36.19 2.04
1 10 9 53.97 2.39
1 11 9 84.12 2.88
1 12 9 16.32 1.5
1 13 9 29.36 2.07
1 14 9 14.46 1.5
1 15 9 40.58 2.26
1 16 9 78.35 2.89
1 17 9 33.39 1.91
1 18 9 21.11 1.63
1 0 10 6.35 2.14
1 1 10 46.95 3.42
1 2 10 2.85 2.05
1 3 10 36.78 3.13
1 4 10 39.61 3.32
1 5 10 59.66 3.81
1 6 10 75.92 4.21
1 7 10 57.84 3.84
1 8 10 44.75 2.29
1 9 10 13.47 1.48
1 10 10 102.14 3.29
1 11 10 29.74 2.09
1 12 10 83.16 2.99
1 13 10 0.42 0.93
1 14 10 12 1.22
1 15 10 19.22 1.61
1 0 11 1.47 2.35
1 1 11 21.91 2.94
1 2 11 61.71 4.13
1 3 11 42.71 3.56
1 4 11 21.72 2.96
1 5 11 11.21 2.64
1 6 11 7.21 2.46
1 7 11 15.71 2.88
1 8 11 28.52 2.15
1 9 11 42.92 2.39
1 10 11 34.18 2.23
1 11 11 6.58 1.08
1 12 11 2.95 0.97
1 0 12 32.62 3.51
1 1 12 138.68 5.81
1 2 12 15.14 3.17
1 3 12 5.9 2.84
1 4 12 53.01 4.04
1 5 12 125.21 5.68
1 6 12 5.21 2.78
1 7 12 41.72 3.8
2 0 0 76.41 0.98
2 1 0 56.72 0.8
2 2 0 3059.1 26.95
2 3 0 1433.37 13.07
2 4 0 65.32 0.97
2 5 0 166.07 1.97
2 6 0 3792.47 33.67
2 7 0 535.28 5.48
2 8 0 1.39 0.55
2 9 0 428.14 4.71
2 10 0 463.49 5.08
2 11 0 4.4 0.66
2 12 0 79.08 1.66
2 13 0 306.08 3.9
2 14 0 19.92 1.1
2 15 0 127.47 2.42
2 16 0 67.41 1.87
2 17 0 65.02 1.91
2 18 0 79.64 2.19
2 19 0 68.81 2.12
2 20 0 1.68 0.68
2 21 0 14.09 1.17
2 22 0 27.55 1.69
2 23 0 20.34 1.6
2 24 0 59.02 2.26
2 25 0 7.51 1.05
2 26 0 1.96 0.82
2 0 1 2.98 0.29
2 1 1 142.15 1.61
2 2 1 505.52 4.97
2 3 1 977.56 9.2
2 4 1 287.56 3.04
2 5 1 777.71 7.56
2 6 1 41.76 0.88
2 7 1 178.54 2.24
2 8 1 8.82 0.66
2 9 1 497.84 5.36
2 10 1 15.86 0.84
2 11 1 8.66 0.79
2 12 1 74.16 1.62
2 13 1 145.46 2.46
2 14 1 81.52 1.87
2 15 1 43.28 1.47
2 16 1 6.49 0.72
2 17 1 18.36 1.26
2 18 1 18.14 1.32
2 19 1 53.28 1.93
2 20 1 130.59 2.98
2 21 1 52.62 2.04
2 22 1 42.52 1.95
2 23 1 4.67 0.81
2 24 1 74.98 2.44
2 25 1 41.91 2.41
2 26 1 55.53 2.65
2 0 2 7.65 0.41
2 1 2 562.42 5.56
2 2 2 1976.28 17.89
2 3 2 195.16 2.28
2 4 2 162.33 1.99
2 5 2 15.3 0.63
2 6 2 532.33 5.49
2 7 2 255.84 3.03
2 8 2 262.59 3.2
2 9 2 233.54 2.95
2 10 2 4.83 0.67
2 11 2 116.84 2.04
2 12 2 104.45 1.98
2 13 2 133.95 2.38
2 14 2 61.64 1.66
2 15 2 58 1.7
2 16 2 133.48 2.66
2 17 2 0.12 0.61
2 18 2 19.71 1.34
2 19 2 2.07 0.66
2 20 2 58.04 2.05
2 21 2 55.13 2.12
2 22 2 6.5 0.86
2 23 2 4.62 0.82
2 24 2 15.89 1.39
2 25 2 72.76 3.03
2 0 3 240.76 2.79
2 1 3 255.89 2.88
2 2 3 699.31 6.94
2 3 3 817.02 8.08
2 4 3 120.03 1.71
2 5 3 454.6 4.86
2 6 3 165.91 2.24
2 7 3 198 2.58
2 8 3 218.11 2.82
2 9 3 527.67 5.81
2 10 3 468.45 5.33
2 11 3 21.9 1.06
2 12 3 154.02 2.58
2 13 3 79.97 1.88
2 14 3 87.84 2.07
2 15 3 30.94 1.45
2 16 3 5.08 0.72
2 17 3 23.26 1.37
2 18 3 3.84 0.7
2 19 3 70.84 2.22
2 20 3 18.01 1.22
2 21 3 79 2.5
2 22 3 14.22 1.31
2 23 3 9.5 1.03
2 24 3 0.07 0.72
2 25 3 23.81 1.95
2 0 4 103.5 2.79
2 1 4 194.87 2.81
2 2 4 239.11 3.33
2 3 4 243.15 3.37
2 4 4 23.7 1.04
2 5 4 109.08 1.8
2 6 4 197.27 2.65
2 7 4 186.84 2.61
2 8 4 212.38 2.91
2 9 4 88.66 1.78
2 10 4 252.18 3.43
2 11 4 90.82 1.95
2 12 4 23.12 1.2
2 13 4 0.73 0.6
2 14 4 21.32 1.29
2 15 4 23.39 1.36
2 16 4 45.94 1.67
2 17 4 70.65 2.16
2 18 4 46.27 1.9
2 19 4 15.89 1.29
2 20 4 48.59 2
2 21 4 36.97 1.9
2 22 4 30.61 1.89
2 23 4 42.75 1.95
2 24 4 6.09 0.85
2 0 5 263.44 5.66
2 1 5 61.93 2.38
2 2 5 294.15 4.09
2 3 5 57.67 1.54
2 4 5 270.47 3.87
2 5 5 116.22 2.27
2 6 5 22.76 1.16
2 7 5 25.81 1.28
2 8 5 114.39 2.13
2 9 5 47.77 1.47
2 10 5 252.75 3.6
2 11 5 110.01 2.3
2 12 5 26.09 1.35
2 13 5 4.12 0.68
2 14 5 168.54 3.13
2 15 5 23.16 1.39
2 16 5 2.07 0.65
2 17 5 9.72 0.88
2 18 5 80.81 2.49
2 19 5 20.27 1.53
2 20 5 2.57 0.76
2 21 5 1.73 0.74
2 22 5 38.23 1.9
2 23 5 29.99 1.86
2 0 6 139.43 4.02
2 1 6 171.34 4.57
2 2 6 4.21 1.3
2 3 6 4.12 1.05
2 4 6 41.27 1.5
2 5 6 179.76 3.2
2 6 6 1.08 0.88
2 7 6 140.67 2.85
2 8 6 0.42 0.95
2 9 6 8.97 0.88
2 10 6 22.09 1.26
2 11 6 190.51 3.26
2 12 6 14.37 0.99
2 13 6 113.65 2.58
2 14 6 20.54 1.36
2 15 6 103.53 2.62
2 16 6 28.02 1.63
2 17 6 85.56 2.49
2 18 6 90.54 2.65
2 19 6 4.28 0.8
2 20 6 6.95 0.88
2 21 6 25.07 1.75
2 22 6 83.36 2.59
2 0 7 13.53 1.8
2 1 7 80.12 3.31
2 2 7 22.91 2.05
2 3 7 26.41 2.18
2 4 7 237.71 4.87
2 5 7 129.49 2.86
2 6 7 53.48 1.93
2 7 7 152.59 3.24
2 8 7 150.23 3.23
2 9 7 9.08 0.97
2 10 7 17.31 1.45
2 11 7 178.02 3.76
2 12 7 3.97 0.7
2 13 7 89.21 2.48
2 14 7 73.41 2.28
2 15 7 59.76 2.17
2 16 7 7.82 0.88
2 17 7 92.7 2.69
2 18 7 18.05 1.39
2 19 7 12.78 1.16
2 20 7 1.79 0.74
2 21 7 18.95 1.45
2 0 8 98.63 4.01
2 1 8 107.28 4.19
2 2 8 43 2.89
2 3 8 52.95 3.06
2 4 8 29.06 2.52
2 5 8 103.11 2.78
2 6 8 85.82 2.63
2 7 8 76.28 2.49
2 8 8 0.56 0.75
2 9 8 21.45 1.46
2 10 8 2.56 0.89
2 11 8 15.54 1.42
2 12 8 0.03 0.79
2 13 8 57.31 2.49
2 14 8 18.19 1.48
2 15 8 12.8 1.27
2 16 8 5.93 0.86
2 17 8 42.86 2.07
2 18 8 3.49 0.79
2 19 8 12.26 0.99
2 0 9 138.07 5.05
2 1 9 31.89 2.74
2 2 9 199.49 6.26
2 3 9 9.77 2.01
2 4 9 88.97 4.19
2 5 9 20.91 2.53
2 6 9 90.93 2.86
2 7 9 19.27 1.68
2 8 9 6.12 0.98
2 9 9 69.97 2.61
2 10 9 25.76 1.87
2 11 9 28.51 1.96
2 12 9 31.67 2.06
2 13 9 64.08 2.66
2 14 9 131.87 3.62
2 15 9 2 0.95
2 16 9 28.33 1.84
2 17 9 7.9 0.96
2 0 10 90.64 4.46
2 1 10 122.54 5.15
2 2 10 5.22 2.15
2 3 10 11.98 2.43
2 4 10 8.54 2.29
2 5 10 85.12 4.39
2 6 10 30.96 3.04
2 7 10 47.83 2.41
2 8 10 55.44 2.55
2 9 10 22.3 1.67
2 10 10 61.1 2.65
2 11 10 80.85 2.89
2 12 10 88.14 3.07
2 13 10 12.94 1.24
2 14 10 31.18 2.1
2 15 10 5.39 1.04
2 0 11 22.97 3.05
2 1 11 18.09 2.91
2 2 11 6.04 2.49
2 3 11 13.24 2.65
2 4 11 4.15 2.57
2 5 11 1.28 2.38
2 6 11 24.88 3.05
2 7 11 0.94 2.38
2 8 11 10.32 1.19
2 9 11 0.56 0.93
2 10 11 11.49 1.43
2 11 11 8.37 1.12
2 0 12 85.12 4.83
2 1 12 37.52 3.82
2 2 12 11.34 2.96
2 3 12 77.71 4.61
2 4 12 20.4 3.24
2 5 12 4.12 2.78
2 6 12 53.51 4.03
3 1 0 56.51 0.93
3 3 0 126.07 1.61
3 4 0 753.47 7.35
3 5 0 380.05 4.04
3 6 0 71.84 1.27
3 7 0 442.88 4.75
3 8 0 147.14 2.11
3 9 0 196.34 2.62
3 10 0 54.73 1.32
3 11 0 458.03 5.22
3 12 0 14.92 0.96
3 13 0 4.99 0.81
3 14 0 6.84 0.89
3 15 0 43.79 1.55
3 16 0 78.2 2.07
3 17 0 77.07 2.12
3 18 0 3.88 0.68
3 19 0 5.36 0.75
3 20 0 50.89 1.96
3 21 0 55.34 2.09
3 22 0 7.44 0.88
3 23 0 0.11 0.72
3 24 0 14.68 1.19
3 25 0 53.88 2.6
3 0 1 320.06 3.39
3 1 1 672.3 6.64
3 2 1 107.44 1.44
3 3 1 791.29 7.74
3 4 1 149.19 1.9
3 5 1 44.27 0.96
3 6 1 125.64 1.79
3 7 1 290.07 3.38
3 8 1 77.81 1.46
3 9 1 696.18 7.32
3 10 1 67.24 1.49
3 11 1 97.63 1.88
3 12 1 99.13 1.98
3 13 1 163.16 2.76
3 14 1 49.31 1.56
3 15 1 3.62 0.68
3 16 1 71.74 2
3 17 1 55 1.84
3 18 1 93.07 2.42
3 19 1 35.94 1.68
3 20 1 6.74 0.83
3 21 1 123.3 2.98
3 22 1 112.93 2.98
3 23 1 28.18 1.74
3 24 1 54.34 2.2
3 25 1 14.21 1.4
3 0 2 0.19 0.42
3 1 2 327.45 3.57
3 2 2 495.23 5.08
3 3 2 486.12 5.05
3 4 2 100.33 1.56
3 5 2 573.72 5.94
3 6 2 1162.48 11.39
3 7 2 13.31 0.77
3 8 2 162.14 2.31
3 9 2 113.38 1.93
3 10 2 462.59 5.25
3 11 2 63.06 1.55
3 12 2 193.92 2.95
3 13 2 47.76 1.48
3 14 2 12.1 1.07
3 15 2 23.5 1.3
3 16 2 66.88 1.93
3 17 2 51.98 1.82
3 18 2 16.48 1.3
3 19 2 10.08 0.99
3 20 2 21.07 1.53
3 21 2 1.07 0.7
3 22 2 5.12 0.83
3 23 2 17.87 1.58
3 24 2 50.22 2.14
3 25 2 8.27 1.02
3 0 3 334.13 3.73
3 1 3 458.09 4.86
3 2 3 31.69 0.92
3 3 3 304.63 3.5
3 4 3 22.98 0.87
3 5 3 389.93 4.33
3 6 3 6.18 0.69
3 7 3 463.36 5.15
3 8 3 78.47 1.59
3 9 3 47.66 1.32
3 10 3 21.06 1.03
3 11 3 138.28 2.39
3 12 3 73.17 1.77
3 13 3 22.62 1.21
3 14 3 16.52 1.08
3 15 3 21.92 1.32
3 16 3 3.73 0.71
3 17 3 14.9 1.16
3 18 3 0.36 0.62
3 19 3 18.74 1.49
3 20 3 11.14 0.94
3 21 3 2.94 0.75
3 22 3 11.65 0.99
3 23 3 72.52 2.51
3 24 3 15.49 1.32
3 0 4 21.11 0.85
3 1 4 206.46 2.68
3 2 4 56.4 1.27
3 3 4 145.92 2.15
3 4 4 45.54 1.18
3 5 4 492.86 5.45
3 6 4 145.71 2.27
3 7 4 108.45 1.95
3 8 4 98.17 1.91
3 9 4 122.75 2.21
3 10 4 38.24 1.33
3 11 4 52.86 1.6
3 12 4 54.6 1.65
3 13 4 190.68 3.18
3 14 4 18.3 1.24
3 15 4 68.46 2.03
3 16 4 31.48 1.54
3 17 4 58.62 2.03
3 18 4 46.41 1.92
3 19 4 30.74 1.71
3 20 4 37.97 1.84
3 21 4 46.89 2.04
3 22 4 12.7 1.13
3 23 4 18.31 1.57
3 24 4 2 0.74
3 0 5 90.99 1.77
3 1 5 81.46 1.67
3 2 5 64.61 1.52
3 3 5 133.43 2.21
3 4 5 130.51 2.21
3 5 5 131.88 2.26
3 6 5 80.15 1.74
3 7 5 223.29 3.21
3 8 5 340.95 4.35
3 9 5 3.31 0.86
3 10 5 243.26 3.62
3 11 5 13.29 0.97
3 12 5 224.95 3.57
3 13 5 18.72 1.31
3 14 5 116.47 2.66
3 15 5 80.57 2.28
3 16 5 18.24 1.41
3 17 5 5.71 0.8
3 18 5 11.67 0.96
3 19 5 19.31 1.41
3 20 5 5.15 0.83
3 21 5 6.52 0.88
3 22 5 27.56 1.81
3 23 5 6.88 0.87
3 1 6 6.89 0.93
3 2 6 75.97 1.99
3 3 6 8.79 1.02
3 4 6 17.41 1.23
3 5 6 38.3 1.56
3 6 6 33.94 1.56
3 7 6 71.67 2.09
3 8 6 34.19 1.45
3 9 6 59.04 1.77
3 10 6 43.7 1.62
3 11 6 123.64 2.64
3 12 6 6.57 0.78
3 13 6 102.96 2.56
3 14 6 46.89 1.85
3 15 6 13.09 1.06
3 16 6 75.95 2.38
3 17 6 43.67 1.94
3 18 6 18.54 1.39
3 19 6 39.73 1.97
3 20 6 115.6 3.02
3 21 6 10.52 0.96
3 22 6 9.39 0.93
3 0 7 10.78 1.83
3 1 7 1.54 1.52
3 2 7 275.79 6.8
3 3 7 52.83 1.96
3 4 7 17.56 1.43
3 5 7 58.44 2.06
3 6 7 21.88 1.55
3 7 7 65.59 2.2
3 8 7 20.31 1.56
3 9 7 198.44 3.89
3 10 7 92.25 2.39
3 11 7 11.23 0.87
3 12 7 4.35 0.73
3 13 7 69.43 2.24
3 14 7 89.38 2.52
3 15 7 67.77 2.31
3 16 7 5.07 0.82
3 17 7 5.17 0.83
3 18 7 14.27 1.16
3 19 7 37.97 1.98
3 20 7 16.71 1.37
3 21 7 9.47 0.93
3 0 8 3.88 1.83
3 1 8 207.36 6.05
3 2 8 108.4 4.28
3 3 8 83.54 3.81
3 4 8 71.05 2.38
3 5 8 70.27 2.38
3 6 8 47.76 2.06
3 7 8 55.14 2.19
3 8 8 60.86 2.35
3 9 8 40.41 2.04
3 10 8 8.02 1.03
3 11 8 182.16 4.05
3 12 8 31.48 1.95
3 13 8 11.5 1.07
3 14 8 8.35 0.9
3 15 8 32.84 1.8
3 16 8 27.98 1.8
3 17 8 20.44 1.64
3 18 8 15.16 1.18
3 19 8 42.07 2.02
3 0 9 125.76 4.94
3 1 9 21.77 2.56
3 2 9 35.33 2.94
3 3 9 25.42 2.72
3 4 9 185.8 6.14
3 5 9 0.26 0.85
3 6 9 14.74 1.2
3 7 9 16.44 1.36
3 8 9 78.82 2.8
3 9 9 11.48 1.16
3 10 9 50.94 2.36
3 11 9 7.75 1.08
3 12 9 9 1.13
3 13 9 2.81 0.96
3 14 9 56.78 2.48
3 15 9 11.69 1.11
3 16 9 16.44 1.2
3 17 9 39.71 1.97
3 0 10 1.56 2.12
3 1 10 104.58 4.75
3 2 10 50.6 3.64
3 3 10 150.3 5.79
3 4 10 21.77 2.88
3 5 10 13.03 2.58
3 6 10 42.53 2.27
3 7 10 21.32 1.61
3 8 10 13.22 1.24
3 9 10 60.83 2.65
3 10 10 13.84 1.53
3 11 10 8.34 1.11
3 12 10 2.05 0.93
3 13 10 34.74 2.22
3 14 10 30.93 2.06
3 0 11 2.26 2.43
3 1 11 20 3.05
3 2 11 27.61 3.15
3 3 11 63.51 4.16
3 4 11 30.87 3.41
3 5 11 28.53 3.19
3 6 11 22.12 3.1
3 7 11 41.11 2.35
3 8 11 11.89 1.46
3 9 11 19.61 1.53
3 10 11 16.38 1.58
3 11 11 17.13 5.37
3 0 12 10.06 3.04
3 1 12 13.33 3.05
3 2 12 5.96 2.79
3 3 12 1.41 2.79
3 4 12 1.83 2.66
4 0 0 715.43 7.1
4 1 0 704.74 7.07
4 2 0 73.44 1.28
4 3 0 3.2 0.57
4 4 0 67.45 1.28
4 5 0 28.12 0.92
4 6 0 240.09 2.97
4 7 0 160.63 2.31
4 8 0 241.5 3.1
4 9 0 237.44 3.14
4 10 0 126.02 2.18
4 11 0 23.09 1.12
4 12 0 438.35 5.41
4 13 0 126.19 2.39
4 14 0 5.14 0.67
4 15 0 23.05 1.31
4 16 0 165.08 3.08
4 17 0 2.16 0.63
4 18 0 3.72 0.71
4 19 0 13.22 1.2
4 20 0 0.51 0.68
4 21 0 14.57 1.14
4 22 0 0.08 0.75
4 23 0 8.73 0.93
4 24 0 39.83 1.98
4 0 1 2.67 0.53
4 1 1 270.93 3.1
4 2 1 63.12 1.2
4 3 1 274.69 3.18
4 4 1 22.12 0.84
4 5 1 109.44 1.73
4 6 1 79.29 1.5
4 7 1 447.51 4.98
4 8 1 78.34 1.58
4 9 1 7.75 0.74
4 10 1 62.42 1.51
4 11 1 485.71 5.65
4 12 1 123.55 2.32
4 13 1 78.32 1.92
4 14 1 84.17 2.06
4 15 1 82.07 2.12
4 16 1 95.65 2.34
4 17 1 31.08 1.58
4 18 1 56.54 1.96
4 19 1 77.7 2.33
4 20 1 59.58 2.15
4 21 1 14.09 1.27
4 22 1 26.05 1.76
4 23 1 3.99 0.83
4 24 1 35.75 1.91
4 25 1 9.53 1.06
4 0 2 19.57 0.81
4 1 2 481.82 5.16
4 2 2 17.66 0.81
4 3 2 136.99 1.98
4 4 2 364.57 4.09
4 5 2 247.56 3.11
4 6 2 58.96 1.33
4 7 2 322.82 3.9
4 8 2 294.35 3.66
4 9 2 10.28 0.82
4 10 2 75.15 1.69
4 11 2 34.09 1.26
4 12 2 84.44 1.93
4 13 2 0.24 0.56
4 14 2 26.29 1.34
4 15 2 27.44 1.42
4 16 2 30.17 1.53
4 17 2 35.3 1.66
4 18 2 11.15 0.99
4 19 2 20.42 1.51
4 20 2 15.39 1.12
4 21 2 17.35 1.5
4 22 2 17.71 1.21
4 23 2 32.32 1.88
4 24 2 2.95 0.77
4 0 3 8.54 0.71
4 1 3 409.44 4.52
4 2 3 70.06 1.42
4 3 3 845.66 8.54
4 4 3 173.36 2.44
4 5 3 197.7 2.71
4 6 3 9.89 0.78
4 7 3 110.23 1.97
4 8 3 158.83 2.52
4 9 3 58.3 1.52
4 10 3 30.85 1.23
4 11 3 54.14 1.58
4 12 3 76.68 1.93
4 13 3 22.45 1.28
4 14 3 41.04 1.62
4 15 3 134.29 2.78
4 16 3 49.85 1.85
4 17 3 1.74 0.66
4 18 3 39.41 1.81
4 19 3 63.89 2.19
4 20 3 24.07 1.6
4 21 3 61.57 2.29
4 22 3 46.39 2.13
4 23 3 1.81 0.74
4 24 3 25.43 1.76
4 0 4 140.92 2.17
4 1 4 226.11 2.98
4 2 4 62.2 1.44
4 3 4 176.36 2.56
4 4 4 64.01 1.48
4 5 4 159.2 2.47
4 6 4 102.24 1.96
4 7 4 78.34 1.74
4 8 4 16.27 0.98
4 9 4 2.63 0.83
4 10 4 65.81 1.74
4 11 4 44.78 1.54
4 12 4 125.79 2.55
4 13 4 47.58 1.69
4 14 4 16.77 1.16
4 15 4 73.01 2.18
4 16 4 98.33 2.55
4 17 4 108.61 2.77
4 18 4 2.89 0.74
4 19 4 15.5 1.16
4 20 4 41.08 1.99
4 21 4 36.69 1.91
4 22 4 3.81 0.86
4 23 4 116.65 3.01
4 0 5 50.92 1.41
4 1 5 41.98 1.3
4 2 5 11.3 0.89
4 3 5 298.81 3.85
4 4 5 52.14 1.45
4 5 5 154.4 2.57
4 6 5 25.13 1.14
4 7 5 64.21 1.72
4 8 5 87.94 2
4 9 5 81.92 2.03
4 10 5 49.53 1.62
4 11 5 18.03 1.21
4 12 5 35.24 1.59
4 13 5 12.27 1.08
4 14 5 15.51 1.17
4 15 5 3.57 0.72
4 16 5 38.66 1.8
4 17 5 18.89 1.46
4 18 5 4.21 0.8
4 19 5 9.94 0.95
4 20 5 52.98 2.18
4 21 5 4.06 0.8
4 22 5 1.98 0.74
4 0 6 0.53 0.79
4 1 6 161.33 2.74
4 2 6 27.94 1.25
4 3 6 46.94 1.54
4 4 6 21.64 1.21
4 5 6 251.75 3.68
4 6 6 75.31 1.96
4 7 6 73.71 1.98
4 8 6 98.89 2.33
4 9 6 247.58 3.86
4 10 6 48.19 1.78
4 11 6 66.65 2
4 12 6 115.27 2.68
4 13 6 89.96 2.42
4 14 6 22.79 1.5
4 15 6 99.69 2.67
4 16 6 33.34 1.77
4 17 6 77.26 2.47
4 18 6 48.52 2.07
4 19 6 67.62 2.37
4 20 6 3.39 0.79
4 21 6 41.03 2.02
4 0 7 252.28 3.83
4 1 7 17.21 1.31
4 2 7 23.42 1.53
4 3 7 22.1 1.49
4 4 7 119.01 2.89
4 5 7 29.93 1.65
4 6 7 36.76 1.57
4 7 7 47.73 1.76
4 8 7 94.23 2.4
4 9 7 11.38 1.08
4 10 7 80.15 2.26
4 11 7 95.1 2.53
4 12 7 73.05 2.26
4 13 7 19.2 1.34
4 14 7 55.87 2.14
4 15 7 3.88 0.78
4 16 7 6.15 0.85
4 17 7 17.17 1.41
4 18 7 10.41 0.97
4 19 7 23.59 1.66
4 20 7 3.56 0.79
4 0 8 80.87 3.81
4 1 8 35.84 2.26
4 2 8 25.07 1.66
4 3 8 21.56 1.63
4 4 8 53.28 2.16
4 5 8 8.05 0.98
4 6 8 16.5 1.39
4 7 8 59.49 2.37
4 8 8 6.82 0.99
4 9 8 162.74 3.86
4 10 8 34.99 1.8
4 11 8 16.15 1.34
4 12 8 1.55 0.72
4 13 8 95.95 2.75
4 14 8 62.29 2.31
4 15 8 4.09 0.81
4 16 8 17.91 1.43
4 17 8 0.1 0.71
4 18 8 29.69 1.8
4 0 9 35.14 3.02
4 1 9 25.04 2.72
4 2 9 24.29 2.66
4 3 9 44.16 2.19
4 4 9 108.33 3.12
4 5 9 25.37 1.84
4 6 9 66.11 2.65
4 7 9 10.23 1.14
4 8 9 155.68 3.87
4 9 9 31.1 2.02
4 10 9 36.37 2.1
4 11 9 0.64 0.95
4 12 9 43.51 2.36
4 13 9 16.98 1.39
4 14 9 21.5 1.64
4 15 9 48.47 2.11
4 16 9 4.48 0.82
4 1 10 151.66 5.89
4 2 10 25.94 2.99
4 3 10 5.67 2.35
4 4 10 55.27 2.49
4 5 10 105.51 3.33
4 6 10 51.39 2.49
4 7 10 28.47 2.03
4 8 10 28.31 2.04
4 9 10 1.41 0.94
4 10 10 27.55 2.03
4 11 10 12.91 1.24
4 12 10 2.95 0.98
4 13 10 15.86 1.3
4 0 11 50.92 3.9
4 1 11 2.96 2.43
4 2 11 5.8 2.46
4 3 11 16.48 2.86
4 4 11 60.31 4.12
4 5 11 23.99 2.46
4 6 11 0.91 0.95
4 7 11 12.34 1.23
4 8 11 37.61 2.32
4 9 11 17.98 1.57
5 1 0 73.34 1.41
5 2 0 79.69 1.52
5 3 0 421.89 4.7
5 4 0 111.42 1.87
5 5 0 133.44 2.09
5 6 0 0.19 0.59
5 7 0 21.53 0.99
5 8 0 29.85 1.13
5 9 0 46.7 1.37
5 10 0 70.43 1.7
5 11 0 67.4 1.74
5 12 0 2.95 0.87
5 13 0 22.33 1.28
5 14 0 96.12 2.29
5 15 0 28.13 1.5
5 16 0 8.37 0.79
5 17 0 19.19 1.27
5 18 0 11.48 1.17
5 19 0 0.26 0.67
5 20 0 0.8 0.69
5 21 0 1.68 0.73
5 22 0 14.5 1.16
5 24 0 3.76 0.8
5 0 1 10.89 0.75
5 1 1 244.16 3.03
5 2 1 166.09 2.35
5 3 1 696.94 7.14
5 4 1 9.68 0.74
5 5 1 65.17 1.42
5 6 1 129.9 2.13
5 7 1 281.96 3.58
5 8 1 5.84 0.76
5 9 1 106.65 2.06
5 10 1 23.25 1.12
5 11 1 125.03 2.35
5 12 1 39.75 1.49
5 13 1 34.72 1.52
5 14 1 29.59 1.43
5 15 1 398.29 5.34
5 16 1 112.22 2.63
5 17 1 7.79 0.82
5 18 1 14.09 1.25
5 19 1 98.04 2.72
5 20 1 94.54 2.66
5 21 1 6.43 0.87
5 22 1 1.65 0.74
5 23 1 3.44 0.79
5 24 1 26.78 1.72
5 0 2 604.59 6.41
5 1 2 309.58 3.75
5 2 2 1.04 0.61
5 3 2 461.18 5.19
5 4 2 156.8 2.37
5 5 2 77.88 1.61
5 6 2 12.05 0.84
5 7 2 23.64 1.06
5 8 2 53.3 1.46
5 9 2 68.46 1.68
5 10 2 2.56 0.8
5 11 2 29.74 1.32
5 12 2 227.46 3.53
5 13 2 0.88 0.61
5 14 2 13.81 1.21
5 15 2 5.63 0.72
5 16 2 110.81 2.66
5 17 2 26.92 1.57
5 18 2 21.14 1.49
5 19 2 55.52 2.08
5 20 2 3.95 0.8
5 21 2 71.48 2.43
5 22 2 3.24 0.79
5 23 2 9.8 1.05
5 24 2 13.46 1.65
5 0 3 56.89 1.4
5 1 3 363.33 4.32
5 2 3 44.76 1.26
5 3 3 17.49 0.94
5 4 3 2.48 0.7
5 5 3 125.57 2.17
5 6 3 63.64 1.56
5 7 3 117.22 2.18
5 8 3 34.02 1.26
5 9 3 16.59 1.08
5 10 3 79.13 1.94
5 11 3 47.39 1.62
5 12 3 50.23 1.7
5 13 3 35.01 1.55
5 14 3 86.1 2.24
5 15 3 6.81 0.77
5 16 3 93.07 2.52
5 17 3 43.44 1.86
5 18 3 43.83 1.94
5 19 3 8.1 0.9
5 20 3 103.48 2.86
5 21 3 15.11 1.2
5 22 3 8.79 0.93
5 23 3 15.85 1.17
5 0 4 0.52 0.68
5 1 4 127.87 2.21
5 2 4 79.86 1.73
5 3 4 51.79 1.47
5 4 4 31.6 1.21
5 5 4 11.43 0.93
5 6 4 51.93 1.53
5 7 4 55.07 1.59
5 8 4 163.62 2.8
5 9 4 4.89 0.69
5 10 4 204.81 3.35
5 11 4 63.33 1.89
5 12 4 156.76 2.97
5 13 4 8.04 0.77
5 14 4 157.51 3.15
5 15 4 37.84 1.77
5 16 4 40.6 1.82
5 17 4 15.1 1.26
5 18 4 46.69 2
5 19 4 138.53 3.28
5 20 4 0.1 0.7
5 21 4 80.8 2.58
5 22 4 21.47 1.72
5 0 5 12.92 1.02
5 1 5 340.44 4.36
5 2 5 58.21 1.62
5 3 5 29.43 1.24
5 4 5 133.38 2.49
5 5 5 108.88 2.28
5 6 5 34.05 1.43
5 7 5 63.09 1.78
5 8 5 91.85 2.2
5 9 5 19.97 1.28
5 10 5 34.64 1.53
5 11 5 37.31 1.63
5 12 5 1.77 0.63
5 13 5 32.49 1.65
5 14 5 77.31 2.27
5 15 5 2.41 0.72
5 16 5 34.24 1.73
5 17 5 6.73 0.86
5 18 5 54.01 2.15
5 19 5 5.76 0.87
5 20 5 21.81 1.71
5 21 5 16.12 1.21
5 0 6 86.6 2.11
5 1 6 83.1 2.04
5 2 6 20.27 1.27
5 3 6 98.65 2.25
5 4 6 90.99 2.2
5 5 6 146.75 2.83
5 6 6 24.55 1.34
5 7 6 191.47 3.34
5 8 6 40.17 1.66
5 9 6 38.51 1.61
5 10 6 126.15 2.78
5 11 6 146.43 3.06
5 12 6 0.94 0.65
5 13 6 123 2.92
5 14 6 98.6 2.67
5 15 6 27.94 1.66
5 16 6 9.75 0.94
5 17 6 96.55 2.79
5 18 6 13.25 1.17
5 19 6 9.56 0.95
5 20 6 0.01 0.71
5 0 7 2.72 0.68
5 1 7 54.68 1.82
5 2 7 30.58 1.55
5 3 7 7.35 0.79
5 4 7 196.7 3.45
5 5 7 18.93 1.23
5 6 7 38.42 1.66
5 7 7 17.77 1.36
5 8 7 183.19 3.46
5 9 7 20.86 1.39
5 10 7 3.68 0.75
5 11 7 7.81 0.85
5 12 7 24.25 1.45
5 13 7 29.66 1.69
5 14 7 11.71 0.98
5 15 7 33.47 1.83
5 16 7 14.37 1.35
5 17 7 8.98 0.94
5 18 7 5.37 0.85
5 0 8 66.97 2.14
5 1 8 87.33 2.4
5 2 8 5.94 0.78
5 3 8 1.26 0.65
5 4 8 35.66 1.76
5 5 8 256.4 4.27
5 6 8 2.16 1.45
5 7 8 9.62 0.9
5 8 8 5.39 0.81
5 9 8 44.16 1.93
5 10 8 3.77 0.78
5 11 8 23.25 1.61
5 12 8 14.78 1.16
5 13 8 59.36 2.31
5 14 8 14.91 1.19
5 15 8 16.12 1.19
5 16 8 21.84 1.64
5 17 8 107.72 2.91
5 0 9 1.25 1.45
5 1 9 54.98 2.08
5 2 9 64.88 2.59
5 3 9 10.05 1.12
5 4 9 11.37 1.16
5 5 9 25.94 1.94
5 6 9 49.85 2.35
5 7 9 17.43 1.53
5 8 9 2.02 0.93
5 9 9 2.42 0.75
5 10 9 39.01 1.96
5 11 9 28.38 1.8
5 12 9 3.13 0.78
5 13 9 16.05 1.2
5 14 9 12.42 1
5 15 9 4.8 0.83
5 0 10 137.14 5.71
5 1 10 9.52 1.64
5 2 10 5.19 1.04
5 3 10 93.48 3.14
5 4 10 44.95 2.35
5 5 10 54.87 2.65
5 6 10 12.08 1.24
5 7 10 32.62 2.15
5 8 10 12.76 1.24
5 9 10 59.81 2.59
5 10 10 1.58 0.96
5 11 10 3.7 0.98
5 12 10 10.74 0.97
5 0 11 6.83 2.77
5 1 11 43.54 3.66
5 2 11 22.46 2.95
5 3 11 29.92 2.14
5 4 11 20.09 1.66
5 5 11 0.11 0.94
5 6 11 72.65 2.8
5 7 11 4.43 1.03
6 0 0 245.06 3.21
6 1 0 120.86 2.05
6 2 0 8.82 0.8
6 3 0 57.72 1.45
6 4 0 18.1 0.94
6 5 0 139.35 2.34
6 6 0 128.54 2.27
6 7 0 153.75 2.58
6 8 0 107.43 2.14
6 9 0 0.42 0.79
6 10 0 160.24 2.85
6 11 0 0.47 0.58
6 12 0 116.74 2.48
6 13 0 39.1 1.63
6 14 0 16.84 1.17
6 15 0 51.85 1.86
6 16 0 13.28 1.16
6 17 0 16.28 1.26
6 18 0 38.66 1.88
6 19 0 12.7 1.25
6 21 0 4.13 0.81
6 22 0 42.91 2
6 23 0 1.23 0.73
6 0 1 72.05 1.59
6 1 1 215.98 2.98
6 2 1 156.09 2.44
6 3 1 138.72 2.3
6 4 1 159.52 2.52
6 5 1 190.47 2.84
6 6 1 17.26 0.98
6 7 1 111.18 2.15
6 8 1 96.22 2.04
6 9 1 2.66 0.86
6 10 1 2.65 0.61
6 11 1 48.56 1.64
6 12 1 23.27 1.37
6 13 1 217.8 3.62
6 14 1 74.93 2.15
6 15 1 33.79 1.63
6 16 1 21.38 1.43
6 17 1 130.95 3.01
6 18 1 120.83 2.96
6 19 1 33.73 1.8
6 20 1 23.99 1.67
6 21 1 14.64 1.18
6 22 1 39.73 1.99
6 23 1 17 1.58
6 0 2 34.97 1.19
6 1 2 207.57 2.96
6 2 2 317.16 4.01
6 3 2 6.03 0.78
6 4 2 1.57 0.74
6 5 2 86.17 1.86
6 6 2 17.29 1.02
6 7 2 32.66 1.3
6 8 2 84.73 1.97
6 9 2 9.92 1.04
6 10 2 193.57 3.21
6 11 2 6.74 0.74
6 12 2 55.5 1.86
6 13 2 19.59 1.22
6 14 2 165.95 3.25
6 15 2 1.85 0.66
6 16 2 12.69 1.06
6 17 2 25.94 1.62
6 18 2 13.58 1.11
6 19 2 12.61 1.1
6 20 2 3.33 0.79
6 21 2 15.9 1.39
6 22 2 11.32 0.99
6 23 2 24.45 2.81
6 0 3 22.35 1.09
6 1 3 180.68 2.79
6 2 3 30.13 1.23
6 3 3 362.97 4.49
6 4 3 121.09 2.26
6 5 3 8.26 0.94
6 6 3 44.38 1.46
6 7 3 104.37 2.19
6 8 3 41.47 1.5
6 9 3 46.04 1.62
6 10 3 2.35 0.65
6 11 3 12.4 0.94
6 12 3 37.59 1.63
6 13 3 7.96 0.79
6 14 3 87.13 2.41
6 15 3 58.55 2.06
6 16 3 51.43 2.03
6 17 3 23.2 1.59
6 18 3 126.17 3.1
6 19 3 85.21 2.66
6 20 3 5.47 0.86
6 21 3 37.95 2
6 22 3 52.43 2.19
6 0 4 1.91 0.79
6 1 4 170.37 2.83
6 2 4 38.07 1.38
6 3 4 102.91 2.15
6 4 4 1.66 0.89
6 5 4 66.72 1.82
6 6 4 121.36 2.46
6 7 4 8.94 0.76
6 8 4 30.63 1.42
6 9 4 72.43 2.03
6 10 4 87.54 2.27
6 11 4 4.51 0.69
6 12 4 49.54 1.85
6 13 4 8.47 0.83
6 14 4 71.91 2.27
6 15 4 6.91 0.84
6 16 4 57.86 2.14
6 17 4 145.54 3.3
6 18 4 17.91 1.44
6 19 4 56.91 2.27
6 20 4 22.4 1.67
6 21 4 98.75 2.82
6 0 5 25.9 1.36
6 1 5 117.8 2.42
6 2 5 35.63 1.46
6 3 5 192.14 3.21
6 4 5 34.59 1.48
6 5 5 7.58 0.75
6 6 5 79.41 2.07
6 7 5 18.4 1.28
6 8 5 0.47 0.66
6 9 5 61.1 1.98
6 10 5 4.15 0.7
6 11 5 35.03 1.67
6 12 5 41.98 1.81
6 13 5 17.27 1.14
6 14 5 41.01 1.89
6 15 5 3.46 0.77
6 16 5 30.49 1.81
6 17 5 3.42 0.79
6 18 5 32.15 1.82
6 19 5 10.89 0.98
6 20 5 0.16 0.69
6 0 6 92.21 2.27
6 1 6 183.19 3.23
6 2 6 131.13 2.74
6 3 6 101.28 2.41
6 4 6 35.6 1.59
6 5 6 144.26 2.93
6 6 6 133.89 2.84
6 7 6 11.48 0.87
6 8 6 19.62 1.41
6 9 6 137.69 3.02
6 10 6 23.04 1.56
6 11 6 60.14 2.13
6 12 6 73.41 2.31
6 13 6 62.98 2.26
6 14 6 23.87 1.69
6 15 6 78.91 2.49
6 16 6 52.24 2.13
6 17 6 41.32 2
6 18 6 15.65 1.08
6 19 6 25.94 1.71
6 0 7 32.11 1.57
6 1 7 4.08 0.71
6 2 7 90.53 2.41
6 3 7 21.41 1.45
6 4 7 14.81 1.19
6 5 7 37.51 1.68
6 6 7 178.74 3.45
6 7 7 4.2 0.76
6 8 7 34.49 1.7
6 9 7 9.23 0.99
6 10 7 105.14 2.76
6 11 7 9.29 0.92
6 12 7 31.74 1.83
6 13 7 28.17 1.78
6 14 7 25.07 1.72
6 15 7 6.38 0.88
6 16 7 0.17 0.72
6 17 7 21.59 1.58
6 18 7 12.85 1
6 0 8 51.57 1.98
6 1 8 2.26 0.71
6 2 8 26.86 1.58
6 3 8 89.72 2.52
6 4 8 14.14 1.26
6 5 8 6.19 0.82
6 6 8 23.97 1.62
6 7 8 96.71 2.66
6 8 8 1.32 0.71
6 9 8 5.72 0.85
6 10 8 14.24 1.2
6 11 8 32.08 1.88
6 12 8 4.38 0.83
6 13 8 19.03 1.35
6 14 8 27.8 1.77
6 15 8 75.15 2.49
6 16 8 38.5 1.97
6 0 9 71.12 2.39
6 1 9 2.02 0.74
6 2 9 20.82 1.58
6 3 9 20.42 1.48
6 4 9 16.35 1.38
6 5 9 4.94 0.83
6 6 9 23.81 1.65
6 7 9 12.8 1.02
6 8 9 54.81 2.15
6 9 9 10.61 0.98
6 10 9 76.77 2.54
6 11 9 11.97 1.11
6 12 9 66.38 2.38
6 13 9 25.43 1.72
6 0 10 8.99 0.95
6 1 10 79.25 2.54
6 2 10 83.49 2.64
6 3 10 2.94 0.83
6 4 10 12.81 1.02
6 5 10 94.1 2.76
6 6 10 15.61 1.2
6 7 10 41.15 2.04
6 8 10 2.87 0.78
6 9 10 8.27 0.92
6 0 11 13.56 1.15
6 1 11 53.99 2.53
6 2 11 7.82 1.1
7 2 0 130.25 2.37
7 3 0 24.91 1.14
7 4 0 6.95 0.92
7 5 0 95.83 2.11
7 6 0 38.47 1.45
7 7 0 4.41 0.64
7 8 0 63.19 1.8
7 9 0 78.27 2.04
7 10 0 178.65 3.19
7 11 0 59.65 1.91
7 12 0 44.27 1.72
7 13 0 0.15 0.64
7 14 0 31.74 1.62
7 15 0 27.58 1.61
7 16 0 4.53 0.79
7 17 0 20.95 1.56
7 18 0 2.24 0.75
7 19 0 5.65 0.85
7 20 0 45.28 2.02
7 21 0 32.51 1.87
7 22 0 2.61 0.8
7 0 1 398.97 4.92
7 1 1 102.8 2.08
7 2 1 28.98 1.24
7 3 1 75.58 1.8
7 4 1 127.47 2.38
7 5 1 132.84 2.48
7 6 1 72.61 1.87
7 7 1 41.6 1.51
7 8 1 2.08 0.62
7 9 1 182.51 3.19
7 10 1 34.69 1.54
7 11 1 33.12 1.57
7 12 1 0.93 0.6
7 13 1 67.32 2.11
7 14 1 32.91 1.74
7 15 1 19.54 1.44
7 16 1 31.56 1.76
7 17 1 65.45 2.3
7 18 1 77.96 2.5
7 19 1 47.92 2.11
7 20 1 20.36 1.64
7 21 1 45.88 2.1
7 22 1 61.15 2.32
7 0 2 20.92 1.15
7 1 2 3.72 0.88
7 2 2 70.57 1.79
7 3 2 52.94 1.58
7 4 2 22.99 1.21
7 5 2 92 2.08
7 6 2 379.75 4.9
7 7 2 12.88 0.92
7 8 2 31.8 1.47
7 9 2 42.86 1.7
7 10 2 258.91 4.03
7 11 2 19.39 1.2
7 12 2 106.1 2.58
7 13 2 9.59 0.94
7 14 2 10.48 0.91
7 15 2 36.38 1.74
7 16 2 27.59 1.69
7 17 2 11.19 1.07
7 18 2 20.42 1.59
7 19 2 3.02 0.79
7 20 2 3.43 0.81
7 21 2 1.78 0.74
7 0 3 6.84 0.97
7 1 3 214.82 3.35
7 2 3 54.86 1.68
7 3 3 32.63 1.41
7 4 3 44.64 1.57
7 5 3 186.83 3.14
7 6 3 80.59 2.04
7 7 3 21.85 1.28
7 8 3 68.11 1.97
7 9 3 10.33 0.93
7 10 3 10.89 0.93
7 11 3 10.82 1.08
7 12 3 27.06 1.53
7 13 3 38.83 1.79
7 14 3 77.39 2.4
7 15 3 29.7 1.7
7 16 3 44.67 2.06
7 17 3 59.01 2.26
7 18 3 14.38 1.17
7 19 3 38.43 1.98
7 20 3 23 1.67
7 21 3 16.11 1.36
7 0 4 4.76 0.69
7 1 4 120.53 2.5
7 2 4 21.71 1.3
7 3 4 42.52 1.61
7 4 4 103.67 2.35
7 5 4 94.32 2.3
7 6 4 88.28 2.23
7 7 4 8.21 0.8
7 8 4 16.62 1.17
7 9 4 30.01 1.56
7 10 4 21.46 1.42
7 11 4 25.44 1.56
7 12 4 49.5 1.96
7 13 4 71.55 2.37
7 14 4 21.45 1.58
7 15 4 69.45 2.38
7 16 4 64.44 2.29
7 17 4 42.11 1.96
7 18 4 29.26 1.79
7 19 4 46.58 2.15
7 20 4 3.52 0.8
7 0 5 5.46 0.73
7 1 5 40.06 1.63
7 2 5 39.42 1.59
7 3 5 13.16 1.12
7 4 5 57.07 1.91
7 5 5 59.28 1.93
7 6 5 49.57 1.83
7 7 5 81.62 2.29
7 8 5 113.76 2.71
7 9 5 8.76 0.85
7 10 5 80.31 2.37
7 11 5 21.84 1.54
7 12 5 51.14 2.08
7 13 5 8.33 0.89
7 14 5 96.64 2.72
7 15 5 5.72 0.85
7 16 5 22.11 1.5
7 17 5 7.32 0.9
7 18 5 10.3 0.96
7 19 5 9.96 0.95
7 0 6 26.13 1.48
7 1 6 111.39 2.65
7 2 6 140.04 2.97
7 3 6 104.67 2.61
7 4 6 99.51 2.52
7 5 6 11.78 0.98
7 6 6 22 1.51
7 7 6 61.09 2.14
7 8 6 51.53 2.01
7 9 6 16.17 1.3
7 10 6 13.59 1.25
7 11 6 45.79 1.96
7 12 6 12.13 1.1
7 13 6 24.35 1.66
7 14 6 19.62 1.41
7 15 6 31.7 1.86
7 16 6 34.32 1.9
7 17 6 26.88 1.79
7 18 6 12.77 1.13
7 0 7 55.52 2.07
7 1 7 2.22 0.7
7 2 7 131.32 3.02
7 3 7 14.86 1.27
7 4 7 5.67 0.8
7 5 7 8.74 0.88
7 6 7 5.92 0.82
7 7 7 40.41 1.88
7 8 7 64.44 2.24
7 9 7 31.14 1.82
7 10 7 67.13 2.36
7 11 7 23.4 1.5
7 12 7 37.27 1.99
7 13 7 13.85 1.16
7 14 7 52.71 2.26
7 15 7 12.47 1.01
7 16 7 0.34 1.48
7 0 8 2.16 0.74
7 1 8 58.5 2.22
7 2 8 129.17 3.07
7 3 8 33.07 1.78
7 4 8 11.5 1.09
7 5 8 19.04 1.53
7 6 8 8.15 0.9
7 7 8 15.72 1.33
7 8 8 7.1 0.96
7 9 8 42.61 2.02
7 10 8 3.82 0.82
7 11 8 50.09 2.15
7 12 8 31.18 1.82
7 13 8 38.2 1.92
7 14 8 4.42 0.81
7 0 9 8.45 0.93
7 1 9 8.09 0.91
7 2 9 18.92 1.44
7 3 9 13.06 1.08
7 4 9 35 1.9
7 5 9 19.44 1.27
7 6 9 18.75 1.34
7 7 9 6.93 0.89
7 8 9 104.59 2.91
7 9 9 1.26 1.59
7 10 9 57.62 2.23
7 11 9 11.99 0.99
7 0 10 0.4 0.77
7 1 10 56.67 2.25
7 2 10 7.15 0.88
7 3 10 120.23 3.07
7 4 10 13.56 1.03
7 5 10 1.31 0.76
7 6 10 17.67 1.6
8 0 0 4.28 0.66
8 1 0 3.12 0.64
8 2 0 89.93 2.11
8 3 0 0.26 0.6
8 4 0 4.32 0.68
8 5 0 19.3 1.24
8 6 0 238.96 3.78
8 7 0 32.72 1.55
8 8 0 10.41 0.93
8 9 0 116.7 2.68
8 10 0 32.42 1.61
8 11 0 41.47 1.75
8 12 0 18.55 1.2
8 13 0 106.36 2.73
8 14 0 2.32 0.73
8 15 0 3.26 0.77
8 16 0 65.94 2.3
8 17 0 30.97 1.78
8 18 0 0.96 0.73
8 19 0 16.89 1.22
8 20 0 1.43 0.74
8 0 1 57.35 1.79
8 1 1 56.61 1.75
8 2 1 175.33 3.05
8 3 1 2.25 0.63
8 4 1 59.4 1.82
8 5 1 121.54 2.57
8 6 1 4.64 0.72
8 7 1 39.76 1.62
8 8 1 9.29 0.9
8 9 1 111.14 2.66
8 10 1 7.9 0.8
8 11 1 7.23 0.81
8 12 1 38.62 1.8
8 13 1 47.78 1.94
8 14 1 8.27 0.89
8 15 1 33.79 1.79
8 16 1 15.88 1.38
8 17 1 33.47 1.88
8 18 1 7.15 0.9
8 19 1 73.89 2.48
8 20 1 68.19 2.37
8 0 2 1.01 0.61
8 1 2 5.69 0.71
8 2 2 58.79 1.82
8 3 2 20.77 1.31
8 4 2 235.67 3.75
8 5 2 5.6 0.74
8 6 2 90.93 2.29
8 7 2 22.74 1.47
8 8 2 332.23 4.79
8 9 2 3.58 0.69
8 10 2 42.14 1.79
8 11 2 7.65 0.83
8 12 2 50.5 1.97
8 13 2 5 0.8
8 14 2 49.53 2.03
8 15 2 6.74 0.86
8 16 2 38.68 1.92
8 17 2 9.81 0.97
8 18 2 5.32 0.85
8 19 2 5.5 0.85
8 20 2 18.98 1.39
8 0 3 150.89 2.92
8 1 3 3.47 0.69
8 2 3 26.8 1.44
8 3 3 63.66 1.92
8 4 3 76.6 2.13
8 5 3 41.88 1.7
8 6 3 65.28 2
8 7 3 63.69 2.02
8 8 3 38.73 1.67
8 9 3 108.79 2.67
8 10 3 129.26 2.96
8 11 3 20 1.48
8 12 3 114.98 2.88
8 13 3 68.33 2.29
8 14 3 29.04 1.69
8 15 3 0.98 0.71
8 16 3 22.36 1.63
8 17 3 5.9 0.87
8 18 3 10.88 0.97
8 19 3 3.38 0.79
8 0 4 10.04 0.9
8 1 4 25.66 1.39
8 2 4 29.79 1.5
8 3 4 83.64 2.25
8 4 4 43.34 1.74
8 5 4 22.02 1.36
8 6 4 12.58 0.94
8 7 4 74.98 2.26
8 8 4 118.95 2.84
8 9 4 44.76 1.85
8 10 4 56.12 2.09
8 11 4 99.09 2.69
8 12 4 28.57 1.67
8 13 4 44.99 1.99
8 14 4 45.57 2.06
8 15 4 70.89 2.43
8 16 4 15.33 1.08
8 17 4 13.05 1.14
8 18 4 1.01 0.72
8 0 5 1.21 0.64
8 1 5 42.68 1.73
8 2 5 33.21 1.61
8 3 5 27.11 1.54
8 4 5 31.17 1.61
8 5 5 61.89 2.12
8 6 5 84.95 2.42
8 7 5 15.16 1.26
8 8 5 67.46 2.27
8 9 5 24.58 1.62
8 10 5 90.43 2.63
8 11 5 2.01 0.73
8 12 5 98.21 2.81
8 13 5 2.24 0.77
8 14 5 10 0.97
8 15 5 25.63 1.71
8 16 5 18.66 1.6
8 17 5 9.87 0.95
8 0 6 156.16 3.29
8 1 6 3.44 0.74
8 2 6 15.34 1.26
8 3 6 22.45 1.55
8 4 6 67.41 2.23
8 5 6 40.87 1.86
8 6 6 29.96 1.7
8 7 6 51.7 2.15
8 8 6 23.73 1.69
8 9 6 9.63 0.94
8 10 6 0.25 0.73
8 11 6 53.94 2.22
8 12 6 0.05 0.7
8 13 6 17.9 1.34
8 14 6 6.02 0.87
8 15 6 27 1.79
8 16 6 34.21 1.89
8 0 7 100.01 2.79
8 1 7 9.14 0.91
8 2 7 2.39 0.75
8 3 7 20.68 1.39
8 4 7 109.51 2.86
8 5 7 1.85 0.74
8 6 7 5.68 0.84
8 7 7 65.48 2.34
8 8 7 55.56 2.22
8 9 7 18.9 1.43
8 10 7 0.23 0.78
8 11 7 51.76 2.23
8 12 7 59.82 2.26
8 13 7 15.84 1.2
8 14 7 24.07 1.7
8 0 8 86.72 2.65
8 1 8 81.9 2.59
8 2 8 18.25 1.39
8 3 8 64.46 2.38
8 4 8 21.44 1.49
8 5 8 25.83 1.78
8 6 8 16.26 1.15
8 7 8 24.42 1.72
8 8 8 5.67 0.86
8 9 8 7.15 0.9
8 10 8 8.14 0.91
8 11 8 40.99 1.99
8 0 9 11.42 0.99
8 1 9 10.62 0.98
8 2 9 36.45 1.98
8 3 9 31.31 1.85
8 4 9 32.72 1.91
8 5 9 1.65 0.79
8 6 9 80.73 2.5
8 7 9 42.36 2.02
8 8 9 13.72 1.18
9 1 0 1.04 0.6
9 2 0 44 1.73
9 4 0 324.84 4.78
9 5 0 1.06 1.25
9 6 0 12.22 0.99
9 7 0 13.21 1.17
9 8 0 230.97 4.02
9 9 0 8.03 0.85
9 10 0 28.83 1.66
9 11 0 45.88 1.96
9 12 0 10.13 0.94
9 13 0 12.4 1
9 14 0 77.28 2.51
9 15 0 68.6 2.39
9 16 0 0.2 0.74
9 18 0 8.53 0.92
9 0 1 13.61 0.99
9 1 1 21.78 1.38
9 2 1 48.58 1.8
9 3 1 23.81 1.46
9 4 1 10.74 0.94
9 5 1 12.77 1.12
9 6 1 35.99 1.67
9 7 1 72.14 2.26
9 8 1 26.2 1.53
9 9 1 71.11 2.22
9 10 1 7.92 0.87
9 11 1 63.45 2.23
9 12 1 6 0.84
9 13 1 109.32 2.9
9 14 1 24.99 1.72
9 15 1 7.71 0.91
9 16 1 18.78 1.55
9 17 1 40.18 1.98
9 18 1 2.55 0.77
9 0 2 205.68 3.64
9 1 2 3.32 0.68
9 2 2 8.39 0.81
9 3 2 5.14 0.74
9 4 2 169.14 3.31
9 5 2 59.86 2.01
9 6 2 18.36 1.44
9 7 2 20.49 1.5
9 8 2 11.55 0.93
9 9 2 117.16 2.86
9 10 2 18.45 1.42
9 11 2 29.12 1.7
9 12 2 35.63 1.87
9 13 2 64.86 2.35
9 14 2 19.46 1.45
9 15 2 19.98 1.55
9 16 2 33.62 1.88
9 17 2 6.74 0.87
9 18 2 23.97 1.63
9 0 3 36.96 1.65
9 1 3 37.76 1.7
9 2 3 135.05 2.95
9 3 3 0.12 0.62
9 4 3 14.27 1.05
9 5 3 39.69 1.82
9 6 3 51.11 1.99
9 7 3 30.28 1.67
9 8 3 158.06 3.37
9 9 3 18.32 1.51
9 10 3 91.25 2.62
9 11 3 28.76 1.73
9 12 3 81.55 2.53
9 13 3 7.22 0.9
9 14 3 56.2 2.27
9 15 3 6.57 0.88
9 16 3 3.96 0.81
9 17 3 8.98 0.93
9 0 4 122.21 2.91
9 1 4 2.9 0.73
9 2 4 6.33 0.8
9 3 4 28.05 1.58
9 4 4 77.94 2.34
9 5 4 35.31 1.76
9 6 4 53.5 2
9 7 4 24.29 1.61
9 8 4 64.38 2.25
9 9 4 37.69 1.83
9 10 4 90.06 2.68
9 11 4 1.06 0.72
9 12 4 65.57 2.32
9 13 4 2.41 0.78
9 14 4 8.21 0.92
9 15 4 9.78 0.96
9 16 4 8.69 0.93
9 0 5 127.17 3.07
9 1 5 22.46 1.57
9 2 5 80.12 2.44
9 3 5 73.86 2.37
9 4 5 24.32 1.62
9 5 5 2.1 0.73
9 6 5 32.73 1.81
9 7 5 67.35 2.31
9 8 5 37.87 1.87
9 9 5 2.95 0.78
9 10 5 5.34 0.85
9 11 5 38.15 1.94
9 12 5 21.43 1.61
9 13 5 14.3 1.19
9 14 5 5.15 0.85
9 15 5 17.36 1.39
9 0 6 1.62 0.72
9 1 6 5.25 0.83
9 2 6 29.44 1.75
9 3 6 55.65 2.15
9 4 6 16.85 1.36
9 5 6 19.9 1.57
9 6 6 18.55 1.51
9 7 6 29.38 1.79
9 8 6 5.86 0.88
9 9 6 43.67 2.03
9 10 6 9.59 1.05
9 11 6 38.75 1.96
9 12 6 16.9 1.36
9 13 6 14.4 1.05
9 0 7 33.66 1.88
9 1 7 11.12 1.1
9 2 7 38.03 1.98
9 3 7 10.11 0.96
9 4 7 36.06 1.96
9 5 7 36.93 1.96
9 6 7 116.08 3.04
9 7 7 2.48 0.77
9 8 7 38.75 1.91
9 9 7 21.13 1.69
9 10 7 24.63 1.69
9 11 7 2.58 0.77
9 0 8 8.06 0.92
9 1 8 4.31 0.82
9 2 8 5.42 0.85
9 3 8 25.05 1.73
9 4 8 43.33 2.08
9 5 8 12.77 1.13
9 6 8 34.76 1.84
9 7 8 53.92 2.21
9 8 8 9.31 0.93
10 0 0 501.89 6.58
10 1 0 0.14 1.36
10 2 0 18.9 1.45
10 3 0 3.21 0.74
10 4 0 219.32 3.97
10 5 0 19.3 1.49
10 6 0 45.08 1.94
10 7 0 2.43 0.74
10 8 0 5.66 0.84
10 9 0 34.09 1.82
10 10 0 6.82 0.87
10 11 0 4.5 0.82
10 12 0 3.55 0.81
10 14 0 13.72 1.3
10 15 0 2.93 0.78
10 16 0 0.28 0.7
10 0 1 1.37 0.68
10 1 1 75.37 2.33
10 2 1 24.33 1.47
10 3 1 35.18 1.73
10 4 1 24.12 1.62
10 5 1 10.68 1.03
10 6 1 76.32 2.39
10 7 1 21.79 1.43
10 8 1 4.01 0.79
10 9 1 18.53 1.54
10 10 1 20.33 1.57
10 11 1 89.49 2.69
10 12 1 16.47 1.41
10 13 1 17.17 1.24
10 14 1 16.3 1.39
10 15 1 31.23 1.83
10 16 1 4.34 0.81
10 0 2 95.25 2.63
10 1 2 6.76 0.84
10 2 2 93.34 2.64
10 3 2 26.53 1.61
10 4 2 34.65 1.73
10 5 2 9.85 0.92
10 6 2 4.97 0.81
10 7 2 68.15 2.3
10 8 2 13.63 1.29
10 9 2 4.98 0.83
10 10 2 60.14 2.3
10 11 2 82.15 2.62
10 12 2 4.3 0.83
10 13 2 1.78 0.75
10 14 2 64.07 2.34
10 15 2 61.53 2.31
10 0 3 13.98 1.28
10 1 3 1.33 0.7
10 2 3 27.89 1.64
10 3 3 9.4 0.92
10 4 3 28.76 1.68
10 5 3 15.21 1.16
10 6 3 106.41 2.82
10 7 3 4.47 0.81
10 9 3 19.99 1.59
10 10 3 42.5 2.07
10 11 3 3.35 0.79
10 12 3 40.51 1.96
10 13 3 50.58 2.18
10 14 3 4.65 0.83
10 15 3 4.58 0.82
10 0 4 5.91 0.84
10 1 4 16.2 1.32
10 2 4 27.26 1.64
10 3 4 33.1 1.85
10 4 4 28.77 1.71
10 5 4 60.32 2.27
10 6 4 7.22 0.88
10 7 4 72.26 2.5
10 8 4 40.88 2
10 9 4 28.95 1.76
10 10 4 42.3 2.05
10 11 4 39.07 1.98
10 12 4 2.84 0.78
10 13 4 1.76 0.74
10 14 4 36.62 1.91
10 0 5 33.29 1.83
10 1 5 60.27 2.26
10 2 5 56.05 2.26
10 3 5 2.36 0.77
10 4 5 42.87 2
10 5 5 105.73 2.94
10 6 5 36.7 1.94
10 7 5 4.07 0.83
10 8 5 23.25 1.65
10 9 5 76.83 2.57
10 10 5 24.3 1.74
10 11 5 4 0.82
10 12 5 17.29 1.42
10 0 6 0.32 0.75
10 1 6 17.22 1.17
10 2 6 21.65 1.69
10 3 6 0.82 0.72
10 4 6 3.67 0.81
10 5 6 7.33 0.91
10 6 6 5.87 0.86
10 7 6 24.22 1.55
10 8 6 11.63 0.99
10 9 6 12.35 1.11
10 10 6 28.94 1.75
10 0 7 6.3 0.88
10 1 7 10.76 0.97
10 2 7 158.39 3.56
10 3 7 6.82 0.88
10 4 7 17.14 1.41
10 5 7 8.59 0.92
10 6 7 68.61 2.39
10 7 7 21.73 1.67
11 1 0 1.44 0.72
11 2 0 342.12 5.34
11 3 0 19.39 1.44
11 4 0 1.22 0.72
11 5 0 0.7 0.73
11 6 0 36.76 1.91
11 7 0 109.16 2.93
11 8 0 1.66 0.75
11 9 0 3.18 0.79
11 10 0 19.36 1.47
11 11 0 103.67 2.85
11 12 0 8.32 0.92
11 13 0 18.08 1.46
11 0 1 0.57 0.69
11 1 1 56.81 2.21
11 2 1 2.95 0.78
11 3 1 16.03 1.36
11 4 1 15.07 1.16
11 5 1 48.85 2.11
11 6 1 3.05 0.79
11 7 1 53.16 2.14
11 8 1 28.13 1.78
11 9 1 3.93 0.82
11 10 1 14.88 1.19
11 11 1 9.72 0.95
11 12 1 1.6 0.74
11 13 1 25.15 1.48
11 0 2 14.05 1.29
11 1 2 18.86 1.54
11 2 2 27.15 1.79
11 3 2 39.08 1.99
11 4 2 24.14 1.63
11 5 2 2.77 0.79
11 6 2 3.62 0.81
11 7 2 37.1 1.93
11 8 2 17.56 1.4
11 9 2 4.24 0.83
11 10 2 5.97 0.87
11 11 2 40.52 1.98
11 12 2 11.17 1.08
11 0 3 29.76 1.78
11 1 3 36.32 1.87
11 2 3 16.28 1.36
11 3 3 1.13 0.73
11 4 3 51.74 2.18
11 5 3 35.9 1.86
11 6 3 34.09 1.88
11 7 3 23.52 1.7
11 8 3 28.71 1.85
11 9 3 5.86 0.85
11 10 3 6.92 0.88
11 11 3 30.47 1.87
11 0 4 13.07 1.15
11 1 4 27.2 1.75
11 2 4 51.82 2.16
11 3 4 66.22 2.39
11 4 4 13.91 1.06
11 5 4 6.1 0.86
11 6 4 30.83 1.76
11 7 4 9.5 0.96
11 8 4 2.64 0.77
11 9 4 20.42 1.46
11 10 4 6.32 0.86
11 0 5 16.79 1.24
11 1 5 27.11 1.8
11 2 5 65.51 2.39
11 3 5 42.4 1.96
11 4 5 4.52 0.82
11 5 5 5.75 0.85
11 6 5 90.04 2.75
11 7 5 22.78 1.63
11 8 5 0.49 0.74
11 0 6 34.02 1.92
11 1 6 8.93 0.93
11 2 6 1.72 0.79
11 3 6 51.97 2.15
11 4 6 13.03 1.12
12 0 0 16.7 1.24
12 1 0 25.88 1.75
12 2 0 10 1.07
12 3 0 46.16 2.09
12 4 0 4.34 0.82
12 5 0 32.75 1.83
12 6 0 38.07 1.92
12 7 0 14.99 1.06
12 8 0 1.11 0.74
12 9 0 66.79 2.38
12 0 1 23.01 1.65
12 1 1 9.54 0.95
12 2 1 7.09 0.9
12 3 1 41.75 2.05
12 4 1 16.47 1.28
12 5 1 64.2 2.39
12 6 1 0.96 0.73
12 7 1 42.37 2.04
12 8 1 18.76 1.58
12 0 2 1.84 0.75
12 1 2 9.56 0.95
12 2 2 88.38 2.75
12 3 2 2.84 0.78
12 4 2 16.1 1.39
12 5 2 14.41 1.16
12 6 2 28.12 1.82
12 7 2 9.11 0.93
12 8 2 9.89 1.07
12 0 3 1.98 1.55
12 1 3 33.54 1.8
12 2 3 1.53 0.75
12 3 3 38.64 1.96
12 4 3 3.45 0.79
12 5 3 13.09 1.29
12 6 3 1.66 0.74
12 0 4 26.41 1.72
12 1 4 81.97 2.58
12 2 4 16.87 1.55
12 3 4 31.88 1.84
loop_
_geom_angle_atom_site_label_1
_geom_angle_atom_site_label_2
_geom_angle_atom_site_label_3
_geom_angle
_geom_angle_site_symmetry_1
_geom_angle_site_symmetry_3
_geom_angle_publ_flag
H2 N1 H1 108.3(5) . . ?
H3 N1 H1 109.7(5) . . ?
H3 N1 H2 109.7(5) . . ?
C1 N1 H1 111.3(4) . . ?
C1 N1 H2 108.6(4) . . ?
C1 N1 H3 109.2(4) . . ?
H4 C1 N1 108.5(3) . . ?
C2 C1 N1 109.76(2) . . ?
C2 C1 H4 110.5(3) . . ?
C3 C1 N1 110.02(2) . . ?
C3 C1 H4 106.9(3) . . ?
C3 C1 C2 111.07(2) . . ?
H5 C2 C1 110.3(3) . . ?
H6 C2 C1 110.6(3) . . ?
H6 C2 H5 108.0(4) . . ?
H7 C2 C1 110.5(3) . . ?
H7 C2 H5 108.9(5) . . ?
H7 C2 H6 108.4(5) . . ?
O2 C3 O1 125.83(3) . . ?
C1 C3 O1 118.29(2) . . ?
C1 C3 O2 115.88(2) . . ?
loop_
_geom_bond_atom_site_label_1
_geom_bond_atom_site_label_2
_geom_bond_distance
_geom_bond_site_symmetry_2
_geom_bond_publ_flag
O1 C3 1.2477(4) . ?
O2 C3 1.2665(4) . ?
N1 H1 1.008(6) . ?
N1 H2 1.019(6) . ?
N1 H3 1.043(8) . ?
N1 C1 1.4904(4) . ?
C1 H4 1.092(5) . ?
C1 C2 1.5266(4) . ?
C1 C3 1.5346(4) . ?
C2 H5 1.099(7) . ?
C2 H6 1.095(6) . ?
C2 H7 1.086(6) . ?
loop_
_geom_torsion_atom_site_label_1
_geom_torsion_atom_site_label_2
_geom_torsion_atom_site_label_3
_geom_torsion_atom_site_label_4
_geom_torsion
_geom_torsion_site_symmetry_1
_geom_torsion_site_symmetry_2
_geom_torsion_site_symmetry_3
_geom_torsion_site_symmetry_4
_geom_torsion_publ_flag
O1 C3 C1 N1 -18.19(3) . . . . ?
O1 C3 C1 C2 103.55(3) . . . . ?
O2 C3 C1 N1 162.16(2) . . . . ?
O2 C3 C1 C2 -76.10(2) . . . . ?
