#------------------------------------------------------------------------------
#$Date: 2022-02-01 10:54:14 +0200 (Tue, 01 Feb 2022) $
#$Revision: 272379 $
#$URL: file:///home/coder/svn-repositories/cod/cif/1/56/62/1566226.cif $
#------------------------------------------------------------------------------
#
# This file is available in the Crystallography Open Database (COD),
# http://www.crystallography.net/
#
# All data on this site have been placed in the public domain by the
# contributors.
#
data_1566226
loop_
_publ_author_name
'Vladislav V. Gurzhiy'
'Alina R. Izatulina'
'Maria G. Krzhizhanovskaya'
'Mikhail N. Murashko'
'Dar-ya V. Spiridonova'
'Vladimir V. Shilovskikh'
'Sergey V. Krivovichev'
_publ_section_title
;
 Thermal behavior of uranyl selenite minerals derriksite and
 demesmaekerite
;
_journal_name_full               'Journal of GeoSciences'
_journal_page_first              249
_journal_page_last               259
_journal_paper_doi               10.3190/jgeosci.315
_journal_volume                  65
_journal_year                    2020
_chemical_formula_moiety         'Cu4 H6 O14 Se2 U'
_chemical_formula_sum            'Cu4 H6 O14 Se2 U'
_chemical_formula_weight         880.16
_space_group_crystal_system      orthorhombic
_space_group_IT_number           31
_space_group_name_Hall           'P 2ac -2'
_space_group_name_H-M_alt        'P m n 21'
_atom_sites_solution_hydrogens   difmap
_atom_sites_solution_primary     dual
_cell_angle_alpha                90
_cell_angle_beta                 90
_cell_angle_gamma                90
_cell_formula_units_Z            2
_cell_length_a                   5.9679(3)
_cell_length_b                   5.5501(3)
_cell_length_c                   19.0613(9)
_cell_measurement_reflns_used    2726
_cell_measurement_temperature    100(2)
_cell_measurement_theta_max      30.8570
_cell_measurement_theta_min      4.2470
_cell_volume                     631.36(6)
_computing_cell_refinement       'CrysAlisPro 1.171.39.44a (Rigaku OD, 2018)'
_computing_data_collection       'CrysAlisPro 1.171.39.44a (Rigaku OD, 2018)'
_computing_data_reduction        'CrysAlisPro 1.171.39.44a (Rigaku OD, 2018)'
_computing_molecular_graphics    'Olex2 1.3 (Dolomanov et al., 2009)'
_computing_publication_material  'Olex2 1.3 (Dolomanov et al., 2009)'
_computing_structure_refinement  'SHELXL 2018/3 (Sheldrick, 2015)'
_computing_structure_solution    'SHELXT 2018/3 (Sheldrick, 2015)'
_diffrn_ambient_environment      N~2~
_diffrn_ambient_temperature      100(2)
_diffrn_detector                 'CCD plate'
_diffrn_detector_area_resol_mean 10.3829
_diffrn_detector_type            Atlas
_diffrn_measured_fraction_theta_full 0.998
_diffrn_measured_fraction_theta_max 0.999
_diffrn_measurement_details
;
List of Runs (angles in degrees, time in seconds):

  # Type    Start    End  Width  t~exp~   \w     \q     \k     \f   Frames
--------------------------------------------------------------------------
  1  \w    -47.00   3.00   1.00   22.50    --  -14.99  77.00-180.00   50
  2  \w    -27.00  19.00   1.00   22.50    --  -14.99 -77.00-150.00   46
  3  \w     42.00  83.00   1.00   22.50    --   16.86 178.00 -30.00   41
  4  \w     31.00  59.00   1.00   22.50    --   16.86 -99.00 120.00   28
  5  \w     -4.00  93.00   1.00   22.50    --   16.86  38.00 120.00   97
  6  \w     -8.00  93.00   1.00   22.50    --   16.86  38.00  30.00  101
;
_diffrn_measurement_device       'four-circle diffractometer'
_diffrn_measurement_device_type  'SuperNova, Dual, Cu at home/near, Atlas'
_diffrn_measurement_method       '\w scans'
_diffrn_orient_matrix_type
'CrysAlisPro convention (1999,Acta A55,543-557)'
_diffrn_orient_matrix_UB_11      0.1107012000
_diffrn_orient_matrix_UB_12      0.0330414000
_diffrn_orient_matrix_UB_13      0.0095566000
_diffrn_orient_matrix_UB_21      -0.0239061000
_diffrn_orient_matrix_UB_22      0.1216467000
_diffrn_orient_matrix_UB_23      -0.0085407000
_diffrn_orient_matrix_UB_31      -0.0361605000
_diffrn_orient_matrix_UB_32      0.0206627000
_diffrn_orient_matrix_UB_33      0.0349146000
_diffrn_radiation_monochromator  mirror
_diffrn_radiation_probe          x-ray
_diffrn_radiation_type           'Mo K\a'
_diffrn_radiation_wavelength     0.71073
_diffrn_reflns_av_R_equivalents  0.0451
_diffrn_reflns_av_unetI/netI     0.0430
_diffrn_reflns_Laue_measured_fraction_full 0.998
_diffrn_reflns_Laue_measured_fraction_max 0.999
_diffrn_reflns_limit_h_max       6
_diffrn_reflns_limit_h_min       -7
_diffrn_reflns_limit_k_max       6
_diffrn_reflns_limit_k_min       -7
_diffrn_reflns_limit_l_max       22
_diffrn_reflns_limit_l_min       -24
_diffrn_reflns_number            5132
_diffrn_reflns_point_group_measured_fraction_full 0.971
_diffrn_reflns_point_group_measured_fraction_max 0.968
_diffrn_reflns_theta_full        25.242
_diffrn_reflns_theta_max         27.494
_diffrn_reflns_theta_min         3.577
_diffrn_source                   'micro-focus sealed X-ray tube'
_diffrn_source_type              'SuperNova (Mo) X-ray Source'
_exptl_absorpt_coefficient_mu    25.247
_exptl_absorpt_correction_T_max  0.996
_exptl_absorpt_correction_T_min  0.990
_exptl_absorpt_correction_type   analytical
_exptl_absorpt_process_details
;
CrysAlisPro 1.171.39.44a (Rigaku Oxford Diffraction, 2018)
Analytical numeric absorption correction using a multifaceted crystal
			model based on expressions derived by R.C. Clark & J.S. Reid.
(Clark, R. C. & Reid, J. S. (1995). Acta Cryst. A51, 887-897)
Empirical absorption correction using spherical harmonics,
 implemented in SCALE3 ABSPACK scaling algorithm.
;
_exptl_crystal_colour            green
_exptl_crystal_density_diffrn    4.630
_exptl_crystal_description       prism
_exptl_crystal_F_000             788
_exptl_crystal_size_max          0.108
_exptl_crystal_size_mid          0.06
_exptl_crystal_size_min          0.041
_refine_diff_density_max         1.491
_refine_diff_density_min         -1.845
_refine_diff_density_rms         0.255
_refine_ls_abs_structure_details
;
 Classical Flack method preferred over Parsons because s.u. lower.
;
_refine_ls_abs_structure_Flack   -0.01(2)
_refine_ls_extinction_coef       .
_refine_ls_extinction_method     none
_refine_ls_goodness_of_fit_ref   1.032
_refine_ls_hydrogen_treatment    refxyz
_refine_ls_matrix_type           full
_refine_ls_number_parameters     113
_refine_ls_number_reflns         1538
_refine_ls_number_restraints     7
_refine_ls_restrained_S_all      1.030
_refine_ls_R_factor_all          0.0401
_refine_ls_R_factor_gt           0.0391
_refine_ls_shift/su_max          0.000
_refine_ls_shift/su_mean         0.000
_refine_ls_structure_factor_coef Fsqd
_refine_ls_weighting_details
'w=1/[\s^2^(Fo^2^)+(0.0681P)^2^] where P=(Fo^2^+2Fc^2^)/3'
_refine_ls_weighting_scheme      calc
_refine_ls_wR_factor_gt          0.0933
_refine_ls_wR_factor_ref         0.0941
_reflns_Friedel_coverage         0.882
_reflns_Friedel_fraction_full    0.943
_reflns_Friedel_fraction_max     0.935
_reflns_number_gt                1502
_reflns_number_total             1538
_reflns_threshold_expression     'I > 2\s(I)'
_cod_data_source_file            Derriksite_SN_-173C_last.cif
_cod_data_source_block           derriksite_sn_-173C
_cod_original_cell_volume        631.35(5)
_cod_database_code               1566226
_chemical_oxdiff_formula         'Cu4 U Se2 O14'
_shelx_space_group_comment
;
The symmetry employed for this shelxl refinement is uniquely defined
by the following loop, which should always be used as a source of
symmetry information in preference to the above space-group names.
They are only intended as comments.
;
_reflns_odcompleteness_completeness 99.80
_reflns_odcompleteness_iscentric 1
_reflns_odcompleteness_theta     28.51
_olex2_refinement_description
;
1. Fixed Uiso
 At 1.5 times of:
  All O(H) groups
2. Restrained distances
 O9-H9
 1 with sigma of 0.02
 H9-O5_$5
 2.15 with sigma of 0.02
 O7-H7
 0.9 with sigma of 0.02
 O10-H10
 0.9 with sigma of 0.02
 O8-H8
 0.95 with sigma of 0.02
 H8-O1_$3
 2.1 with sigma of 0.02
3. Uiso/Uaniso restraints and constraints
Uanis(O10) = Uanis(O4)
Uanis(O8) = Uanis(O4)
4. Others
 Fixed Sof: H9(0.5)
;
_shelx_res_file
;
TITL derriksite_sn_100k_a.res in Pmn2(1)
    derriksite_sn_100k.res
    created by SHELXL-2018/3 at 01:54:48 on 05-Sep-2020
REM Old TITL Derriksite_SN_100K in Pmn21 #31
REM SHELXT solution in Pmn2(1): R1 0.058, Rweak 0.019, Alpha 0.003
REM <I/s> 1.099 for 76 systematic absences, Orientation as input
REM Flack x = -0.103 ( 0.023 ) from 624 Parsons' quotients
REM Formula found by SHELXT: O13 Se6 U
CELL 0.71073 5.967851 5.550059 19.061255 90 90 90
ZERR 2 0.000272 0.000315 0.000858 0 0 0
LATT -1
SYMM 0.5-X,-Y,0.5+Z
SYMM 0.5+X,-Y,0.5+Z
SYMM -X,+Y,+Z
SFAC Cu H O Se U
UNIT 8 12 28 4 2
EQIV $1 1+X,+Y,+Z
EQIV $2 0.5-X,-Y,-0.5+Z
EQIV $3 -X,+Y,+Z
EQIV $4 -1-X,+Y,+Z
EQIV $5 -0.5+X,1-Y,-0.5+Z
EADP O10 O4
DFIX 1 O9 H9
DFIX 2.15 H9 O5_$5
DFIX 0.9 O7 H7
DFIX 0.9 O10 H10
DFIX 0.95 O8 H8
DFIX 2.1 H8 O1_$3
EADP O8 O4

L.S. 20
PLAN  20
CONF
HTAB O7 O3_$3
HTAB O10 O5_$2
FREE Cu1 Cu1_$4
FREE Cu2 Cu3_$1
FREE Cu2 Cu3_$3
FREE Cu2 Cu3_$4
FREE Cu2 Cu3
list 4
MORE -1
BOND $H
fmap 2
acta
OMIT -4 55
OMIT 4 0 2
OMIT 2 1 17
OMIT 3 5 10
OMIT 4 2 18
REM <olex2.extras>
REM <HklSrc "%.\\Derriksite_SN_100K.hkl">
REM </olex2.extras>

WGHT    0.068100
FVAR       0.22955
U1    5    0.500000    0.186165    0.606502    10.50000    0.00938    0.01817 =
         0.00677   -0.00260    0.00000    0.00000
SE1   4    0.000000   -0.141202    0.527270    10.50000    0.01122    0.01770 =
         0.00880    0.00185    0.00000    0.00000
SE2   4    1.000000    0.510803    0.690218    10.50000    0.01051    0.01653 =
         0.00851    0.00138    0.00000    0.00000
CU1   1   -0.250209    0.602661    0.361816    11.00000    0.00316    0.00435 =
         0.00965    0.00040    0.00084    0.00060
CU2   1    0.000000    0.106870    0.353757    10.50000    0.00165    0.00440 =
         0.00970   -0.00012    0.00000    0.00000
CU3   1   -0.500000    0.097368    0.356209    10.50000    0.00167    0.00351 =
         0.00893   -0.00139    0.00000    0.00000
O1    3    0.500000    0.464064    0.557623    10.50000    0.01578    0.01624 =
         0.02126    0.00127    0.00000    0.00000
O2    3    0.500000   -0.084376    0.656224    10.50000    0.02876    0.02451 =
         0.00438    0.00151    0.00000    0.00000
O3    3    0.220619    0.061224    0.534238    11.00000    0.01228    0.02883 =
         0.01358   -0.00477    0.00317   -0.00661
O4    3    0.000000   -0.202380    0.441676    10.50000    0.00548    0.00775 =
         0.00724    0.00014    0.00000    0.00000
O5    3    0.779605    0.313173    0.682131    11.00000    0.01915    0.01694 =
         0.01531   -0.00686   -0.00027   -0.00234
O6    3    1.000000    0.561467    0.775661    10.50000    0.00668    0.00789 =
         0.00943   -0.00717    0.00000    0.00000
O7    3   -0.254365    0.274079    0.402547    11.00000    0.00622    0.00717 =
         0.01057   -0.00420    0.00145    0.00041
H7    2   -0.238371    0.259131    0.449134    11.00000   -1.50000
O8    3   -0.500000    0.719585    0.414618    10.50000    0.00548    0.00775 =
         0.00724    0.00014    0.00000    0.00000
H8    2   -0.500000    0.637209    0.458919    10.50000   -1.50000
O9    3    0.000000    0.484547    0.308463    10.50000    0.00514    0.00904 =
         0.01000   -0.00469    0.00000    0.00000
H9    2    0.101562    0.545194    0.270968    10.50000   -1.50000
O10   3   -0.247871   -0.076131    0.312683    11.00000    0.00548    0.00775 =
         0.00724    0.00014    0.00000    0.00000
H10   2   -0.258386   -0.094416    0.266206    11.00000   -1.50000
HKLF 4




REM  derriksite_sn_100k_a.res in Pmn2(1)
REM wR2 = 0.0941, GooF = S = 1.032, Restrained GooF = 1.030 for all data
REM R1 = 0.0391 for 1502 Fo > 4sig(Fo) and 0.0401 for all 1538 data
REM 113 parameters refined using 7 restraints

END

WGHT      0.0681      0.0000

REM Highest difference peak  1.491,  deepest hole -1.845,  1-sigma level  0.255
Q1    1   1.0000  0.8563  0.6912  10.50000  0.05    1.49
Q2    1   0.5000  0.4922  0.6064  10.50000  0.05    1.46
Q3    1   0.5000  0.0429  0.6111  10.50000  0.05    1.40
Q4    1   0.0000  0.1171  0.4732  10.50000  0.05    1.40
Q5    1   0.5000 -0.1327  0.6044  10.50000  0.05    1.22
Q6    1   0.0000 -0.4742  0.5267  10.50000  0.05    1.06
Q7    1   0.5000 -0.3039  0.6075  10.50000  0.05    1.00
Q8    1   0.0000  0.6104  0.3527  10.50000  0.05    0.98
Q9    1   0.2704  0.1776  0.6110  11.00000  0.05    0.98
Q10   1   1.0000  0.2704  0.7391  10.50000  0.05    0.97
Q11   1  -0.5000  0.0292  0.3519  10.50000  0.05    0.96
Q12   1   0.0000 -0.0581  0.4520  10.50000  0.05    0.91
Q13   1   0.2956  0.4416  0.6045  11.00000  0.05    0.89
Q14   1   0.0000  0.2535  0.3484  10.50000  0.05    0.85
Q15   1   1.0000  0.6734  0.6693  10.50000  0.05    0.82
Q16   1   0.5000 -0.1204  0.7380  10.50000  0.05    0.82
Q17   1   0.5000  0.2958  0.6796  10.50000  0.05    0.82
Q18   1   0.0000  0.7265  0.2859  10.50000  0.05    0.78
Q19   1  -0.2499 -0.0744  0.2876  11.00000  0.05    0.77
Q20   1  -0.2955  0.2937  0.3600  11.00000  0.05    0.77
;
_shelx_res_checksum              34458
_shelx_hkl_file
;
   0   0 -26   43.56   14.29
   0   0 -25  -13.69    9.10
   0   0 -25    8.09    5.06
   0   0 -24 1501.43   81.55
   0   0 -24 1804.15   62.98
   0   0 -23   32.49    8.30
   0   0 -23   28.21   11.04
   0   0 -22   46.14    8.86
   0   0 -22   61.64   16.19
   0   0 -21    2.88    5.60
   0   0 -21   -1.73    4.00
   0   0 -20  874.06   39.13
   0   0 -19   15.85    5.57
   0   0 -18  380.00   23.94
   0   0 -18  557.37   29.85
   0   0 -17    6.78    4.46
   0   0 -17    5.56    3.71
   0   0 -16 2443.69   65.10
   0   0 -16 1827.70   57.42
   0   0 -15   11.28    4.95
   0   0 -15    7.53    4.17
   0   0 -14  279.77   17.68
   0   0 -14  210.85   15.34
   0   0 -14  228.99   18.00
   0   0 -13    4.51    2.72
   0   0 -13    3.72    3.20
   0   0 -13    6.69    3.83
   0   0 -13    3.41    3.28
   0   0 -12 6161.72  127.05
   0   0 -12 6484.02  123.92
   0   0 -11    2.58    2.01
   0   0 -11    2.32    2.60
   0   0 -11    9.21    3.59
   0   0 -10   40.86    5.78
   0   0 -10   36.89    5.47
   0   0 -10   47.88    6.70
   0   0 -10   35.17    5.35
   0   0  -9    0.41    1.44
   0   0  -9    0.41    1.60
   0   0  -9    3.89    2.45
   0   0  -9    1.94    1.90
   0   0  -8 1109.68   30.91
   0   0  -8 1161.91   31.47
   0   0  -8 1117.11   32.87
   0   0  -8 1033.20   30.38
   0   0  -7    0.49    1.68
   0   0  -7    1.63    1.87
   0   0  -7    0.06    1.30
   0   0  -6 1751.52   40.24
   0   0  -6 1625.25   38.53
   0   0  -6 1662.68   38.24
   0   0  -5    1.83    1.59
   0   0  -5    1.60    1.56
   0   0  -4 5220.14   91.42
   0   0  -4 5117.34   91.26
   0   0  -3    1.46    0.89
   0   0   4 5707.49  101.57
   0   0   5    2.63    1.85
   0   1 -26    1.89    5.40
   0  -1 -26   17.29    9.85
   0  -1 -25   21.08   10.21
   0   1 -25   50.57   15.87
   0   1 -25   68.98   12.92
   0  -1 -24   27.18   11.03
   0  -1 -24   33.68    7.41
   0   1 -24   19.65    7.23
   0   1 -24   33.99   10.30
   0  -1 -23  222.59   29.53
   0  -1 -23  279.94   20.30
   0   1 -23  255.68   23.27
   0   1 -23  263.10   31.97
   0   1 -22  255.44   22.72
   0  -1 -22  231.78   22.91
   0  -1 -22  253.60   18.84
   0   1 -22  240.83   30.01
   0   1 -21  166.59   24.27
   0  -1 -21  182.14   15.69
   0   1 -21  163.00   17.95
   0  -1 -21  159.63   18.41
   0  -1 -20   59.45    9.00
   0   1 -20   56.75   10.63
   0   1 -20   64.80   14.40
   0  -1 -20   61.21   11.33
   0  -1 -19  749.68   39.37
   0   1 -19  752.52   48.33
   0   1 -19  707.35   36.42
   0  -1 -19  737.57   31.22
   0   1 -18   88.07    9.16
   0   1 -18   75.15   14.67
   0  -1 -18   81.32    9.57
   0   1 -18   80.73   11.78
   0  -1 -17  176.16   13.70
   0   1 -17  187.98   17.12
   0   1 -17  206.15   13.30
   0  -1 -16  521.28   23.38
   0   1 -16  468.36   20.47
   0   1 -16  587.82   29.52
   0  -1 -15  845.31   29.13
   0   1 -15  796.44   34.00
   0   1 -14  203.49   11.71
   0  -1 -14  197.90   13.01
   0  -1 -14  247.36   19.94
   0   1 -14  175.53   15.00
   0   1 -13  114.58   12.55
   0   1 -13  120.32    8.54
   0   1 -13  110.37   10.26
   0  -1 -13  103.36    9.00
   0  -1 -13  132.28   14.18
   0   1 -12   52.09    8.62
   0   1 -12   54.19    5.42
   0  -1 -12   51.00    6.00
   0  -1 -12   55.31    9.27
   0   1 -11  642.20   27.79
   0  -1 -11  519.85   19.78
   0  -1 -11  633.03   30.83
   0   1 -11  579.75   19.00
   0   1 -10  833.95   23.16
   0  -1 -10  774.25   24.20
   0   1 -10  892.63   27.50
   0  -1 -10  885.37   36.69
   0  -1  -9  854.70   35.55
   0   1  -9  901.34   26.73
   0  -1  -9  810.78   23.78
   0   1  -9  852.63   22.64
   0  -1  -8  215.97   16.61
   0   1  -8  224.29   11.53
   0  -1  -8  221.06   10.23
   0   1  -8  229.07    9.60
   0  -1  -7  784.55   21.12
   0   1  -7  825.33   23.53
   0  -1  -7  757.86   32.83
   0   1  -7  792.48   20.44
   0  -1  -6  159.76    7.69
   0   1  -6  160.62    7.54
   0   1  -5 1172.08   26.11
   0  -1  -5 1121.38   25.70
   0  -1  -4 1003.24   29.42
   0   1  -4  956.64   22.86
   0  -1  -4  945.17   22.05
   0  -1  -3 1166.27   25.45
   0   1  -3 1158.43   26.94
   0  -1  -3 1188.96   32.14
   0  -1  -2  724.27   18.34
   0  -1  -2  716.00   23.18
   0  -1  -1  777.10   24.09
   0  -1   0  116.94    5.73
   0  -1   0  113.18    7.82
   0  -1   1  854.14   22.48
   0  -1   1  818.06   23.13
   0  -1   2  648.70   18.21
   0  -1   3 1334.28   29.35
   0  -1   4  919.95   23.54
   0   1   4  913.17   21.94
   0  -1   4  969.37   22.39
   0  -1   5 1243.42   27.80
   0   1   5 1228.66   28.43
   0  -1   5 1249.57   29.93
   0  -1   6  260.98    8.51
   0   1   6  269.62   11.29
   0  -1   6  244.77   11.31
   0   1   7  872.84   24.82
   0  -1   7  847.42   20.60
   0  -1   7  864.87   25.00
   0   1   8  284.93   13.64
   0   1   8  304.73   15.90
   0  -1   8  278.75   11.39
   0  -1   8  290.32   13.87
   0  -1   9  887.32   25.94
   0   1   9  934.10   31.65
   0  -1   9  889.52   27.87
   0   1   9  840.29   27.34
   0  -1  10 1051.94   31.67
   0  -1  10 1088.52   32.31
   0   1  10 1116.76   36.49
   0   1  10  994.80   31.49
   0   1  11  618.67   27.26
   0   1  12   38.90    7.19
   0   1  13  178.97   15.31
   0   1  14  203.94   17.10
   0   1  15 1110.55   44.40
   0  -2 -26   90.33   20.27
   0   2 -26  171.78   21.11
   0  -2 -25   74.41   18.57
   0   2 -25  114.61   17.25
   0  -2 -24   -5.46    5.67
   0   2 -24  -15.52    6.89
   0  -2 -23   60.20   13.20
   0  -2 -23   32.03   11.41
   0   2 -23   38.41   12.98
   0   2 -23   50.16   11.16
   0  -2 -22  134.19   13.04
   0   2 -22  145.33   18.18
   0   2 -22  172.69   25.51
   0  -2 -22  143.64   19.32
   0   2 -21  666.56   48.74
   0   2 -21  579.77   36.11
   0  -2 -21  610.13   27.91
   0  -2 -21  592.42   39.40
   0   2 -20   67.84   15.69
   0  -2 -20   70.70   13.14
   0   2 -20   63.12   12.06
   0  -2 -20   74.45    9.17
   0  -2 -19  360.45   19.86
   0   2 -19  337.08   25.49
   0  -2 -19  366.30   29.27
   0   2 -19  376.93   33.74
   0  -2 -18  414.93   30.34
   0   2 -18  381.85   26.57
   0   2 -18  439.06   35.41
   0  -2 -18  435.06   21.32
   0   2 -17  742.73   27.67
   0  -2 -17  706.92   27.56
   0  -2 -17  691.44   38.23
   0   2 -17  703.65   43.76
   0  -2 -16  246.78   21.73
   0   2 -16  223.24   23.57
   0  -2 -16  231.27   14.51
   0   2 -16  248.82   14.83
   0   2 -15  914.14   46.89
   0  -2 -15  940.29   30.82
   0   2 -15  845.32   29.35
   0  -2 -15  969.96   43.37
   0  -2 -14  349.55   16.74
   0  -2 -14  337.75   23.95
   0   2 -14  359.21   27.29
   0   2 -13  717.38   38.31
   0   2 -13  715.44   25.29
   0  -2 -13  740.17   25.57
   0  -2 -13  741.98   35.65
   0   2 -12   71.97    7.02
   0   2 -12   71.34   11.39
   0  -2 -12   68.05    6.86
   0  -2 -12   67.07   10.25
   0   2 -11  803.44   37.95
   0  -2 -11  786.68   35.24
   0   2 -11  798.30   25.94
   0  -2 -11  793.02   25.49
   0  -2 -10  640.68   30.97
   0  -2 -10  651.98   21.97
   0  -2 -10  609.15   37.73
   0   2 -10  659.78   22.90
   0   2  -9 2562.74   57.84
   0  -2  -9 2614.24   71.07
   0  -2  -9 2666.50   56.81
   0  -2  -8  247.19   17.81
   0  -2  -8  229.68   11.71
   0   2  -8  227.67   12.62
   0  -2  -7 1673.98   39.58
   0   2  -7 1594.22   41.67
   0  -2  -7 1675.32   52.11
   0   2  -6 1807.29   51.87
   0  -2  -6 1788.18   41.60
   0  -2  -6 1811.85   53.67
   0   2  -6 1696.85   44.49
   0   2  -5 3003.50   71.02
   0   2  -5 2827.58   65.26
   0  -2  -5 2911.23   73.75
   0  -2  -5 2930.66   61.47
   0  -2  -4  149.93    9.68
   0   2  -4  151.19   11.23
   0  -2  -4  151.20   13.37
   0   2  -4  152.78   12.29
   0   2  -3 2136.20   52.58
   0  -2  -3 1993.90   57.09
   0   2  -3 2013.48   53.43
   0  -2  -2 1047.84   36.79
   0   2  -2 1012.14   34.88
   0   2  -2  995.46   30.37
   0  -2  -1 1211.30   29.17
   0   2  -1 1223.31   32.27
   0  -2  -1 1243.91   40.81
   0  -2   0    9.02    2.26
   0  -2   0    7.05    2.99
   0  -2   1 1061.20   30.95
   0  -2   1 1028.61   35.01
   0  -2   2  800.75   29.15
   0   2   2  836.86   26.32
   0  -2   3 2214.53   53.76
   0   2   3 2237.99   50.66
   0   2   4  338.17   14.53
   0  -2   4  302.65   15.24
   0   2   5 2576.81   55.43
   0  -2   5 2530.77   57.41
   0   2   6 1780.68   42.27
   0  -2   6 1796.17   43.43
   0  -2   7 2242.61   50.97
   0   2   7 2160.30   49.91
   0  -2   7 2284.99   54.41
   0  -2   8  315.27   16.58
   0  -2   8  344.08   15.51
   0   2   8  314.62   15.02
   0   2   9 2765.58   61.75
   0  -2   9 2747.72   64.12
   0  -2   9 2625.49   52.13
   0  -2   9 2793.98   60.16
   0   2  10  761.77   27.17
   0  -2  10  727.50   20.04
   0  -2  10  805.68   29.32
   0   2  11 1151.35   36.74
   0  -2  11 1199.70   38.90
   0  -2  11 1186.72   29.66
   0  -2  12   48.04    5.48
   0   2  12   41.39    6.61
   0  -2  12   36.35    6.93
   0   2  12   35.13    7.62
   0  -2  13  770.85   31.45
   0   2  13  659.19   33.06
   0  -2  14  495.03   25.59
   0   2  14  476.05   28.35
   0   2  15 1352.09   51.97
   0  -2  15 1435.54   48.14
   0   2  16  214.58   19.98
   0   2  17  684.83   37.45
   0   2  18  663.33   38.11
   0   2  19  629.75   38.63
   0   2  20   86.10   15.10
   0   3 -25  119.21   17.92
   0   3 -24  341.98   30.56
   0   3 -23   19.08   10.42
   0   3 -23   -4.96    7.73
   0  -3 -23  -13.84    7.92
   0  -3 -23   26.27   10.69
   0  -3 -22  231.73   26.90
   0   3 -22  186.10   21.82
   0   3 -21  139.35   22.66
   0   3 -21   90.30   14.49
   0  -3 -21  102.87   17.27
   0  -3 -20  125.12   11.93
   0  -3 -20  130.14   19.79
   0   3 -20  130.05   22.63
   0  -3 -19   19.51    4.83
   0  -3 -19   19.78    8.44
   0   3 -19   21.28    9.15
   0   3 -18   39.32   11.20
   0  -3 -18   33.87    9.47
   0  -3 -18   41.36    6.99
   0  -3 -17   84.00   14.53
   0   3 -17  100.93   17.09
   0  -3 -17   98.28   10.16
   0  -3 -16  137.67   11.76
   0   3 -16  114.61   17.28
   0  -3 -16  147.50   18.75
   0   3 -15   51.21    7.73
   0  -3 -15   54.56    7.36
   0  -3 -15   50.44   11.08
   0   3 -15   36.16   10.65
   0  -3 -14  480.57   21.81
   0   3 -14  433.77   31.79
   0  -3 -14  455.44   32.03
   0   3 -14  426.02   22.76
   0   3 -13  253.60   17.06
   0  -3 -13  246.77   22.97
   0   3 -13  271.11   24.03
   0  -3 -13  285.15   16.33
   0  -3 -12  933.09   44.96
   0   3 -12  918.42   34.52
   0  -3 -12  976.59   32.25
   0   3 -12  915.46   43.89
   0   3 -11   83.70    9.42
   0   3 -11   93.06   13.80
   0  -3 -11   85.04   12.72
   0  -3 -11   94.46    9.17
   0  -3 -10  542.62   22.99
   0  -3 -10  552.95   32.63
   0   3 -10  507.21   30.08
   0   3 -10  476.58   24.26
   0  -3  -9  148.04   11.50
   0  -3  -9  149.91   16.78
   0   3  -9  151.72   15.65
   0   3  -9  143.35   12.68
   0   3  -8  232.10   16.45
   0  -3  -8  233.42   14.93
   0  -3  -8  257.44   21.76
   0   3  -8  239.34   19.36
   0  -3  -7    2.89    2.27
   0   3  -7    0.22    2.19
   0  -3  -7    3.69    4.07
   0   3  -6   95.15   10.89
   0  -3  -6   98.37   13.08
   0  -3  -5   54.76    9.71
   0   3  -5   50.90    8.26
   0   3  -4  305.98   19.02
   0   3  -4  335.46   21.89
   0  -3  -4  323.30   23.11
   0  -3  -3  103.94   13.05
   0  -3  -3   89.55    6.75
   0   3  -3   93.17    9.96
   0   3  -3  116.48   13.37
   0  -3  -2 1031.26   42.62
   0   3  -2 1071.18   43.45
   0   3  -2  930.32   32.12
   0  -3  -2  968.35   27.67
   0  -3  -1  198.10   17.65
   0   3  -1  203.78   19.04
   0  -3  -1  199.08   11.74
   0  -3   0 1423.25   51.34
   0  -3   0 1582.08   42.04
   0  -3   1  200.49   17.14
   0  -3   1  194.36   14.04
   0  -3   2  951.29   38.44
   0   3   2 1002.44   35.40
   0   3   3  151.19   12.30
   0  -3   3  146.13   13.54
   0   3   4  233.95   15.26
   0  -3   4  221.32   16.25
   0   3   5   56.72    7.24
   0  -3   5   47.39    7.18
   0   3   6  132.96   10.92
   0  -3   6  121.14   11.29
   0  -3   7    1.69    2.50
   0   3   7    2.18    1.80
   0  -3   8  217.57   14.69
   0  -3   9  182.15   13.64
   0  -3   9  195.83   15.84
   0  -3  10  689.25   30.99
   0  -3  10  694.55   28.26
   0  -3  11   60.59    9.08
   0  -3  11   67.79    8.72
   0  -3  12  777.72   22.21
   0  -3  12 1158.02   40.85
   0  -3  13  194.26    9.50
   0  -3  13  379.05   23.28
   0   3  14  613.55   29.37
   0  -3  14  611.77   31.54
   0  -3  15   28.57    7.93
   0   3  15   28.73    7.83
   0  -3  16  143.85   15.83
   0   3  16  119.16   16.44
   0   3  17  116.76   16.60
   0  -3  17  135.12   15.77
   0   3  18   40.53   10.15
   0  -3  18   54.32   11.22
   0   3  19   24.49    7.89
   0   3  20  102.16   17.02
   0   3  21  142.04   20.27
   0   3  22  369.62   34.30
   0   3  23    4.97    5.67
   0  -4 -23  202.45   27.14
   0  -4 -22  126.03   21.50
   0   4 -22  134.23   23.48
   0   4 -21  271.30   33.71
   0  -4 -21  261.97   29.72
   0   4 -20  211.14   28.55
   0  -4 -20  238.99   28.06
   0   4 -19  369.44   36.89
   0  -4 -19  424.22   36.96
   0  -4 -18  134.45   13.29
   0  -4 -18  144.79   20.77
   0   4 -18  134.54   21.53
   0  -4 -17  374.99   33.54
   0   4 -17  382.58   34.22
   0  -4 -17  380.76   22.45
   0   4 -16  315.88   30.22
   0  -4 -16  313.87   20.18
   0  -4 -16  306.14   29.75
   0   4 -15  330.00   30.23
   0  -4 -15  355.99   21.38
   0  -4 -15  354.65   31.23
   0  -4 -14  371.72   21.93
   0   4 -14  417.56   32.11
   0  -4 -14  401.12   32.85
   0  -4 -13  132.67   12.95
   0  -4 -13  126.49   18.50
   0   4 -13  130.11   17.96
   0   4 -12  496.87   33.22
   0  -4 -12  426.00   23.64
   0  -4 -12  470.25   34.33
   0   4 -11  501.57   32.67
   0  -4 -11  489.84   34.91
   0  -4 -10  689.67   41.00
   0   4 -10  715.05   38.12
   0  -4  -9  490.23   34.01
   0   4  -9  470.29   30.02
   0   4  -8  873.71   40.27
   0  -4  -8  875.20   46.03
   0   4  -7 1370.26   50.80
   0  -4  -7 1359.71   58.15
   0  -4  -6  667.54   38.39
   0   4  -6  697.93   32.88
   0  -4  -5  735.05   40.31
   0  -4  -5  581.56   20.12
   0  -4  -4  994.11   46.98
   0  -4  -4  859.34   26.51
   0  -4  -3 1076.62   48.89
   0  -4  -3 1029.15   30.73
   0  -4  -2  676.30   37.66
   0  -4  -2  665.26   24.74
   0  -4  -1  266.11   23.19
   0  -4  -1  290.69   16.70
   0  -4   0  551.99   33.31
   0  -4   1  384.03   26.99
   0  -4   2  551.90   31.95
   0  -4   3  846.25   39.57
   0  -4   4  929.28   40.72
   0   4   5  967.17   37.65
   0  -4   5  865.73   38.84
   0  -4   6  659.72   32.83
   0   4   6  716.44   31.49
   0   4   7 1299.26   44.34
   0  -4   7 1158.63   44.78
   0  -4   8  790.08   34.75
   0  -4   9  591.05   29.80
   0  -4  10  701.54   35.77
   0  -4  10  751.87   33.40
   0  -4  11  380.80   23.59
   0  -4  11  342.86   25.40
   0  -4  12  501.76   27.25
   0  -4  12  421.78   28.26
   0  -4  13  277.44   22.18
   0  -4  13  281.43   19.95
   0  -4  14  358.85   26.78
   0  -4  15  311.84   24.92
   0  -4  16  379.46   28.36
   0   4  17  470.55   36.25
   0  -4  17  488.26   33.17
   0   4  18  131.78   18.85
   0  -4  18  146.35   18.70
   0  -4  19  398.57   31.39
   0   4  19  391.92   34.39
   0  -4  20  226.68   24.49
   0   4  20  211.12   25.51
   0   4  21  307.28   31.45
   0   4  22  162.10   23.23
   0  -5 -21   49.70   14.77
   0   5 -20  122.18   21.94
   0  -5 -20  143.46   23.73
   0  -5 -19   48.16   12.89
   0   5 -19   67.21   15.93
   0   5 -18  458.85   39.53
   0  -5 -18  518.30   42.64
   0  -5 -17   95.96   19.12
   0   5 -17   74.39   16.24
   0   5 -16  134.88   20.70
   0  -5 -16  145.26   22.04
   0   5 -15   48.02   12.91
   0  -5 -15   37.37   11.94
   0   5 -14  152.48   20.37
   0  -5 -14  170.35   23.24
   0   5 -13   14.37    7.95
   0  -5 -13   14.81   10.35
   0  -5 -12   96.54   17.02
   0   5 -12  105.75   16.28
   0   5 -11   74.09   13.51
   0  -5 -11   79.96   15.99
   0   5 -10   67.13   12.82
   0  -5 -10   71.90   14.42
   0  -5  -9  143.01   19.98
   0   5  -9  125.53   16.14
   0   5  -8  545.84   33.22
   0  -5  -8  590.02   40.89
   0  -5  -7  187.73   22.65
   0   5  -7  190.03   19.00
   0  -5  -6  707.33   42.86
   0   5  -6  626.60   33.79
   0   5  -5  106.65   13.71
   0  -5  -5  134.10   19.01
   0  -5  -4  289.62   27.33
   0  -5  -3  177.17   21.22
   0  -5  -2  253.57   25.43
   0  -5  -1   25.72    8.23
   0  -5   0    0.27    4.58
   0  -5   1   62.53   11.82
   0  -5   2  173.98   20.01
   0  -5   3  186.62   19.87
   0  -5   4  288.00   24.44
   0  -5   5  136.19   16.62
   0  -5   6  635.52   36.42
   0  -5   7  199.46   19.89
   0  -5   8  585.50   33.96
   0  -5   9   92.28   13.13
   0  -5  10   48.95   10.58
   0  -5  10   60.10   10.93
   0  -5  11   43.52   10.17
   0  -5  11   75.63   11.95
   0  -5  12  153.71   17.15
   0  -5  12  113.57   15.99
   0  -5  13   12.70    6.70
   0  -5  13    7.94    4.79
   0  -5  14  108.79   14.75
   0  -5  14  103.10   16.19
   0  -5  15   58.10   10.57
   0  -5  15   47.60   10.91
   0  -5  16  137.93   18.71
   0  -5  17   70.33   13.90
   0  -5  18  387.98   32.36
   0  -5  19   40.16   10.70
   0   5  19   43.27   13.55
   0  -5  20  159.71   21.64
   0   5  20  145.97   23.01
   0  -5  21   41.62   11.58
   0   6 -18  142.85   22.07
   0   6 -17   37.40   11.69
   0  -6 -16   27.35   11.57
   0   6 -16   29.22   10.33
   0   6 -15  254.25   28.51
   0  -6 -15  319.15   33.68
   0   6 -14  505.33   39.02
   0  -6 -14  613.03   46.83
   0  -6 -13  167.53   25.15
   0   6 -13  193.06   23.32
   0   6 -12   27.14    8.88
   0  -6 -12   22.52    9.70
   0   6 -11  311.69   28.45
   0  -6 -11  311.72   32.53
   0  -6 -10  619.44   46.05
   0   6 -10  572.95   38.48
   0  -6  -9  222.67   27.39
   0   6  -9  203.76   22.36
   0   6  -8  100.86   15.38
   0  -6  -8   74.33   16.45
   0  -6  -7  186.60   24.91
   0  -6  -6  345.31   32.89
   0  -6  -5  124.83   19.77
   0  -6  -4  124.52   19.69
   0  -6  -3  564.53   41.17
   0  -6  -2 1093.08   58.15
   0  -6  -1  445.81   35.87
   0  -6   0    8.74    5.93
   0  -6   1  554.18   39.31
   0  -6   2 1128.04   56.63
   0  -6   3  449.69   34.21
   0  -6   4   99.27   16.42
   0  -6   5  141.61   18.83
   0  -6   6  266.29   25.82
   0  -6   7  113.41   17.04
   0  -6   8   65.04   12.95
   0  -6   9  258.38   25.00
   0  -6  10  611.38   38.40
   0  -6  11  242.06   23.81
   0  -6  11  199.35   23.22
   0  -6  12   23.33    8.63
   0  -6  12   24.20    8.95
   0  -6  13  179.40   22.83
   0  -6  13  279.38   26.14
   0  -6  14  381.31   33.66
   0  -6  15  146.04   21.13
   0  -6  16   36.95   12.64
   0  -6  17   12.32    8.97
   0  -6  18  142.03   21.70
   0  -7  -9  126.99   21.67
   0  -7  -8  114.38   21.79
   0  -7  -7   82.07   18.32
   0  -7  -6   24.14   10.98
   0  -7  -5  140.22   22.37
   0  -7  -4   45.09   13.52
   0  -7  -3  144.79   23.09
   0  -7  -2   65.39   15.84
   0  -7  -1  135.17   21.18
   0  -7   0   34.21   11.66
   0  -7   1  121.24   20.21
   0  -7   2   78.19   15.81
   0  -7   3  150.25   22.43
   0  -7   4   20.16    9.34
   0  -7   5  134.99   20.48
   0  -7   6   23.51    8.93
   0  -7   7   77.56   16.39
   0  -7   8   67.38   14.69
   0  -7   9  117.46   18.48
   0  -7  10   26.74   10.26
   0  -7  11   13.58    7.24
   0  -7  11   -3.25    5.78
   0  -7  12    4.85    6.44
   0  -7  13  107.54   18.62
  -1   0 -27   74.05   13.52
   1   0 -26  -14.79   10.33
  -1   0 -26    1.71    4.22
  -1   0 -25   55.39   11.25
   1   0 -25   67.23   17.70
   1   0 -24    1.73   10.35
  -1   0 -24   10.67    6.56
  -1   0 -23   61.41   11.55
   1   0 -23   48.96   14.78
   1   0 -23   43.84    8.42
  -1   0 -22    0.14    3.57
   1   0 -22   -0.23    3.17
   1   0 -22    6.19    6.81
  -1   0 -21  601.69   34.29
   1   0 -21  683.76   32.57
   1   0 -21  585.78   47.38
   1   0 -20   10.89    4.83
   1   0 -20   -2.71    6.87
  -1   0 -20   -1.33    3.63
   1   0 -20    7.41    5.11
   1   0 -19 1047.11   39.44
   1   0 -19  895.60   39.83
   1   0 -19  880.54   55.89
  -1   0 -19  999.78   42.54
  -1   0 -18    3.54    4.30
  -1   0 -18    2.78    3.65
   1   0 -18    5.26    4.33
   1   0 -18    9.33    8.50
   1   0 -18   -0.82    3.26
   1   0 -17  956.96   54.62
  -1   0 -17 1037.53   42.25
   1   0 -17 1113.14   39.29
   1   0 -17  984.83   40.26
  -1   0 -16    4.11    3.94
   1   0 -16    0.56    2.77
  -1   0 -16    4.82    4.59
   1   0 -16    0.99    4.13
   1   0 -16    6.50    6.18
  -1   0 -15  595.71   28.93
   1   0 -15  431.80   23.21
  -1   0 -15  444.85   25.24
  -1   0 -15  532.62   24.86
   1   0 -15  387.48   31.67
   1   0 -15  553.30   27.10
   1   0 -15  471.00   22.86
  -1   0 -14    1.92    3.23
   1   0 -14    2.20    2.52
   1   0 -14    2.03    3.40
  -1   0 -14    1.87    1.71
   1   0 -14    1.90    3.28
  -1   0 -14   -3.01    2.31
  -1   0 -14    0.72    2.76
   1   0 -14    1.34    2.92
   1   0 -13   59.60   11.47
   1   0 -13   52.37    7.35
  -1   0 -13   55.23    7.60
   1   0 -13   51.12    6.57
  -1   0 -13   62.17    8.60
   1   0 -13   74.77    9.06
  -1   0 -13   77.09    9.48
  -1   0 -12    0.65    2.38
   1   0 -12   -1.53    2.36
  -1   0 -12    0.57    1.80
   1   0 -12    3.07    1.82
   1   0 -12    1.18    3.43
  -1   0 -12    0.48    2.35
   1   0 -12    3.73    3.08
  -1   0 -12    1.57    1.54
   1   0 -12    1.18    2.37
   1   0 -11   41.55    5.79
  -1   0 -11   45.62    5.86
  -1   0 -11   57.28    6.92
   1   0 -11   55.82    7.00
  -1   0 -11   67.94    8.29
   1   0 -11   42.85    7.27
   1   0 -11   47.99    9.32
  -1   0 -11   46.24    6.90
   1   0 -11   42.76    5.43
   1   0 -10    2.13    2.00
  -1   0 -10    0.22    1.22
  -1   0 -10   -0.90    1.53
   1   0 -10    3.39    3.39
  -1   0 -10    2.32    2.80
   1   0 -10   -0.81    2.01
   1   0 -10    0.66    1.87
  -1   0  -9 1280.71   32.10
   1   0  -9 1204.76   34.24
  -1   0  -9 1167.17   36.00
   1   0  -9 1050.72   43.61
   1   0  -9 1088.03   30.47
  -1   0  -9 1118.21   31.84
  -1   0  -8   -0.03    1.02
   1   0  -8   -0.06    1.59
   1   0  -8    0.89    2.72
   1   0  -8    2.06    2.01
  -1   0  -8    1.04    1.90
  -1   0  -7 1931.99   46.14
  -1   0  -7 1803.79   40.42
   1   0  -7 1679.99   38.58
   1   0  -7 1879.85   55.41
   1   0  -7 1932.59   43.65
   1   0  -6   -0.01    1.27
   1   0  -6    1.58    1.49
  -1   0  -6    3.92    2.33
  -1   0  -6    0.48    1.01
   1   0  -6    2.14    2.70
   1   0  -5 3532.81   61.50
  -1   0  -5 3388.75   63.56
   1   0  -5 3728.37   69.06
  -1   0  -5 3487.55   70.81
  -1   0  -4    1.23    1.63
   1   0  -3 1310.16   24.26
  -1   0  -3 1310.69   30.67
   1   0  -3 1306.82   26.05
   1   0  -2    0.65    0.54
   1   0  -2    0.54    0.53
  -1   0  -2    0.91    1.10
  -1   0   0   -0.11    0.44
  -1   0   1  206.06    8.14
  -1   0   2    0.90    0.64
  -1   0   2    0.22    0.65
  -1   0   2   -0.40    0.85
  -1   0   2    0.06    1.08
  -1   0   3 1418.71   33.06
  -1   0   3 1392.34   35.24
  -1   0   3 1318.95   29.46
  -1   0   3 1391.03   26.35
  -1   0   4    0.51    1.02
  -1   0   4    0.51    1.63
  -1   0   5 3837.83   78.57
  -1   0   5 3898.78   82.68
  -1   0   6   -0.09    1.24
  -1   0   7 2102.96   52.96
  -1   0   7 2055.62   49.74
  -1   0   8    0.49    2.03
  -1   0   8    0.82    1.96
  -1   0   9 1214.68   38.60
  -1   0   9 1288.67   41.04
  -1   0  10    0.45    1.90
  -1   1 -27   41.85   10.45
   1  -1 -27   11.78    9.47
  -1   1 -26  232.52   23.76
   1  -1 -26  179.43   30.28
  -1  -1 -25   47.77   10.36
   1   1 -25   44.84   15.37
   1  -1 -25   51.56   17.72
  -1   1 -25   53.58   15.96
  -1   1 -25   46.66   11.07
  -1  -1 -24  293.56   23.40
  -1   1 -24  305.01   26.84
   1   1 -24  315.04   25.33
   1   1 -24  301.04   36.22
   1  -1 -24  281.82   36.70
  -1  -1 -23  105.52   13.83
   1  -1 -23   80.29   18.97
  -1   1 -23  104.32   15.10
   1   1 -23  104.59   14.44
   1   1 -23   96.02   20.38
   1   1 -22  221.18   29.35
   1   1 -22  200.78   19.58
  -1  -1 -22  183.03   17.62
  -1   1 -22  194.37   20.56
   1  -1 -22  160.92   25.89
   1  -1 -21  187.74   27.18
   1  -1 -21  199.62   21.68
   1   1 -21  214.75   19.95
   1   1 -21  177.29   25.68
  -1  -1 -21  185.16   17.24
   1  -1 -21  200.09   14.31
  -1   1 -21  183.63   19.72
   1   1 -20  120.22   14.47
   1  -1 -20  103.76   10.17
  -1  -1 -20  118.62   13.21
   1   1 -20  117.94   20.41
  -1   1 -20  122.91   15.88
   1  -1 -20  101.24   19.75
   1  -1 -20  103.89   15.42
   1  -1 -19   15.31    6.64
   1   1 -19   23.88    6.51
  -1  -1 -19   25.62    6.55
   1  -1 -19   26.52   10.39
  -1   1 -19   25.18    7.57
   1   1 -19   13.93    7.60
   1  -1 -19   25.01    5.36
  -1   1 -18  217.21   20.03
   1  -1 -18  219.34   13.71
   1   1 -18  216.13   18.16
  -1  -1 -18  217.03   17.24
   1  -1 -18  220.05   21.69
   1   1 -18  200.04   24.75
   1  -1 -18  185.62   24.53
   1  -1 -17   44.11   11.96
   1   1 -17   67.92   13.70
   1   1 -17   58.93    9.20
   1  -1 -17   61.93    6.98
  -1  -1 -17   72.67    9.67
  -1   1 -17   68.49   11.04
   1   1 -17   59.01    4.74
   1  -1 -17   77.65   12.55
  -1   1 -16  250.35   16.49
   1  -1 -16  240.04   13.48
   1   1 -16  232.93    9.79
   1   1 -16  225.27   24.42
  -1   1 -16  251.26   20.46
   1  -1 -16  284.38   22.75
   1  -1 -16  241.93   25.82
  -1  -1 -16  228.27   17.02
   1  -1 -15  112.33   16.93
  -1   1 -15  128.25   14.16
   1   1 -15  114.36   16.49
  -1   1 -15  105.80   10.49
   1  -1 -15  109.44   14.16
  -1  -1 -15  110.09   11.05
   1  -1 -15  106.13    8.44
  -1  -1 -15   97.69   13.56
  -1   1 -15  104.17   10.16
   1   1 -15   71.22    5.04
  -1  -1 -14  628.16   34.08
   1  -1 -14  598.13   38.46
   1   1 -14  657.90   39.53
  -1   1 -14  709.82   31.08
  -1  -1 -14  677.83   27.55
  -1   1 -14  689.79   32.51
  -1   1 -14  701.16   26.52
   1  -1 -14  652.27   33.31
   1   1 -14  583.82   16.48
   1  -1 -14  626.18   21.42
  -1   1 -13  205.74   15.69
  -1  -1 -13  200.86   18.63
   1  -1 -13  186.61   19.99
   1   1 -13  184.37    7.61
  -1   1 -13  209.36   13.27
   1   1 -13  215.83   21.71
  -1  -1 -13  190.57   13.49
  -1   1 -13  201.17   16.95
   1  -1 -13  189.76   10.32
   1  -1 -13  192.22   16.96
  -1   1 -12  990.96   38.16
   1   1 -12  968.42   45.91
   1  -1 -12  975.79   39.18
   1  -1 -12  911.08   25.24
  -1   1 -12 1055.75   30.93
   1  -1 -12  922.53   44.27
   1  -1 -12 1105.04   40.55
  -1   1 -12 1006.67   31.14
  -1  -1 -12  938.93   31.90
   1   1 -12  893.12   21.01
   1  -1 -11  346.89   21.70
   1  -1 -11  340.57   12.76
   1  -1 -11  348.43   24.97
  -1   1 -11  370.43   16.89
   1   1 -11  390.88   22.53
   1   1 -11  333.97   10.07
  -1   1 -11  348.29   20.74
  -1   1 -11  383.88   16.51
  -1  -1 -11  336.07   17.31
   1  -1 -11  403.41   22.59
   1   1 -11  388.89   19.08
  -1   1 -10  589.09   21.28
  -1  -1 -10  533.27   21.58
   1  -1 -10  530.47   15.74
   1  -1 -10  569.50   27.25
   1   1 -10  517.22   13.25
  -1   1 -10  572.96   26.40
   1  -1 -10  545.92   30.22
   1  -1 -10  585.81   26.99
  -1   1 -10  588.22   19.97
  -1   1  -9  344.71   15.49
  -1   1  -9  372.98   14.71
   1  -1  -9  384.83   20.83
  -1  -1  -9  355.18   16.49
   1   1  -9  349.93    9.97
   1  -1  -9  348.23   11.27
   1  -1  -9  403.12   21.88
   1  -1  -9  396.74   23.84
  -1   1  -9  401.60   20.66
   1  -1  -8  441.51   23.53
  -1   1  -8  431.10   15.22
  -1   1  -8  432.23   17.13
   1  -1  -8  443.77   22.44
   1  -1  -8  449.92   21.80
  -1  -1  -8  434.95   17.53
   1  -1  -8  429.75   11.90
  -1   1  -7  114.03    7.96
   1  -1  -7  112.87   10.19
   1  -1  -7  107.83    4.66
  -1  -1  -7  105.47    7.88
   1  -1  -7  107.96   10.36
   1  -1  -7  110.61   10.55
  -1  -1  -6  433.77   16.45
   1  -1  -6  439.11   10.36
   1  -1  -6  456.80   20.56
  -1   1  -6  430.14   16.19
   1  -1  -6  439.74   20.98
   1  -1  -6  407.35   19.77
  -1  -1  -5  187.06    9.93
   1  -1  -5  192.56   11.62
   1  -1  -5  182.71   11.97
  -1   1  -5  184.77   10.04
   1  -1  -5  183.72   12.55
   1  -1  -4  635.30   23.87
   1  -1  -4  675.75   20.28
   1  -1  -4  655.24   23.22
  -1  -1  -4  646.86   19.91
  -1   1  -3  964.10   20.81
   1  -1  -3  991.80   28.40
  -1  -1  -3  949.83   24.98
   1  -1  -3  911.39   22.37
   1  -1  -3  927.32   28.38
   1  -1  -2 1464.42   35.76
   1  -1  -2 1401.30   34.94
  -1  -1  -2 1388.91   32.68
  -1   1  -2 1404.80   30.13
   1  -1  -1  417.22   15.38
  -1  -1  -1  391.07   14.18
   1  -1  -1  403.13   14.77
  -1   1  -1  400.79   13.44
  -1  -1   0 1535.24   36.22
   1  -1   0 1647.57   36.96
   1  -1   0 1578.77   35.07
   1  -1   1  466.03   13.96
  -1  -1   1  474.81   16.75
   1  -1   1  466.20   15.91
  -1  -1   1  463.81   18.60
  -1  -1   2 1342.23   36.93
  -1   1   2 1273.16   26.67
   1  -1   2 1236.88   26.93
   1  -1   2 1337.94   31.71
  -1  -1   3 1087.72   25.93
  -1  -1   3 1105.87   34.82
  -1  -1   3 1052.83   27.64
  -1   1   3 1125.96   25.52
   1  -1   3 1143.46   28.87
  -1  -1   4  589.10   19.13
   1  -1   4  584.49   19.04
  -1  -1   4  573.34   25.10
  -1   1   4  556.93   22.31
  -1  -1   4  564.80   15.25
  -1  -1   5  254.99   12.29
  -1   1   5  238.53   14.12
  -1  -1   5  261.84   17.00
  -1  -1   5  256.37    7.57
   1  -1   5  245.02    8.98
  -1  -1   6  483.93   25.25
  -1  -1   6  461.39   18.05
   1  -1   6  459.33   14.12
  -1   1   6  498.72   20.97
   1  -1   7  137.44    7.38
   1   1   7  115.41    7.80
  -1  -1   7  157.81    9.51
  -1  -1   7  145.52   10.04
   1   1   7  140.41   10.41
  -1   1   8  552.25   24.86
   1  -1   8  447.38   16.05
   1   1   8  517.52   18.64
  -1  -1   8  563.11   20.01
   1   1   8  536.34   22.46
  -1  -1   8  517.76   20.91
  -1  -1   9  389.22   17.17
  -1   1   9  389.35   21.37
  -1  -1   9  367.48   18.17
   1   1   9  384.93   19.64
   1   1   9  393.23   16.75
  -1  -1  10  732.82   27.69
   1   1  10  671.07   24.79
  -1  -1  10  738.53   26.06
  -1   1  10  744.03   31.68
   1   1  11  347.94   17.65
  -1  -1  11  355.71   19.01
  -1   1  11  360.63   22.08
  -1  -1  11  349.88   18.24
   1   1  12 1240.53   39.24
  -1  -1  12 1277.58   40.54
   1   1  12 1238.15   43.03
  -1   1  12 1283.71   46.56
  -1  -1  12 1249.92   40.50
  -1  -1  13  262.01   17.95
   1   1  13  240.13   18.12
  -1   1  13  244.78   19.76
  -1   1  14  752.10   36.56
  -1   1  15  184.99   18.50
  -1   1  16  307.75   24.46
  -1   1  17   83.12   13.50
  -1   2 -26  149.90   20.18
   1  -2 -26  131.04   27.60
  -1   2 -25  100.18   16.35
   1   2 -25  102.64   15.73
   1  -2 -25   71.76   20.56
  -1  -2 -24  158.84   16.40
   1   2 -24  210.22   31.19
  -1   2 -24  194.53   30.38
  -1  -2 -24  140.02   18.97
  -1   2 -24  154.57   20.20
   1   2 -24  144.40   18.12
   1  -2 -24  102.21   22.26
  -1   2 -23  212.28   30.62
   1   2 -23  212.52   29.86
  -1  -2 -23  191.31   17.73
   1  -2 -23  123.37   23.39
  -1   2 -23  191.07   22.07
  -1  -2 -23  168.81   20.68
   1   2 -23  177.76   19.76
  -1  -2 -22   81.41   14.22
  -1  -2 -22   96.63   12.28
   1   2 -22   87.38   13.79
  -1   2 -22  101.10   20.77
   1   2 -22   84.22   18.57
  -1   2 -22   92.94   14.95
   1  -2 -22   46.02   14.15
   1  -2 -21  233.45   26.49
  -1  -2 -21  171.80   16.21
  -1  -2 -21  165.65   19.90
   1   2 -21  163.21   17.60
  -1   2 -21  156.86   19.40
   1   2 -21  183.47   26.10
   1  -2 -21  149.44   23.80
  -1   2 -20   52.58   10.73
  -1  -2 -20   69.18   10.01
   1  -2 -20   75.33   16.98
   1  -2 -20   74.18   14.73
   1   2 -20   58.61   14.25
   1  -2 -19   39.88   12.70
  -1  -2 -19   37.37    7.43
   1  -2 -19   55.61   12.66
   1  -2 -19   41.50    5.60
  -1   2 -19   36.59    9.48
   1   2 -19   35.66   10.48
   1  -2 -18   61.32   13.31
   1  -2 -18   56.36    6.25
  -1   2 -18   59.06   11.41
  -1  -2 -18   53.25    8.06
   1   2 -18   60.19   13.62
   1  -2 -18   70.77   13.71
   1  -2 -17   65.13   14.39
   1  -2 -17   69.36   13.15
  -1  -2 -17   56.60    8.24
   1   2 -17   63.43   13.56
   1  -2 -17   56.83    6.32
  -1   2 -17   71.10   11.74
   1  -2 -16  182.28   10.75
   1  -2 -16  202.55   21.93
   1   2 -16  187.73   22.54
  -1   2 -16  177.13   17.81
   1  -2 -16  209.08   24.52
  -1  -2 -16  203.73   15.17
   1   2 -16  160.93    9.38
   1  -2 -15  199.57   10.92
   1   2 -15  178.37   10.12
  -1   2 -15  203.60   18.49
   1  -2 -15  204.94   23.11
   1   2 -15  210.69   23.09
   1  -2 -15  252.62   23.49
  -1  -2 -15  201.05   14.81
  -1   2 -15  215.15   15.35
  -1   2 -14  531.30   23.64
  -1  -2 -14  483.56   22.37
   1   2 -14  525.33   35.25
   1  -2 -14  506.57   34.44
   1  -2 -14  471.15   16.99
   1  -2 -14  532.91   33.52
  -1  -2 -13  382.31   19.34
   1  -2 -13  399.32   29.37
  -1   2 -13  402.67   19.85
   1   2 -13  419.17   30.96
   1  -2 -13  374.60   14.50
   1  -2 -13  453.92   29.82
   1  -2 -12  510.95   31.67
  -1  -2 -12  536.95   22.88
   1  -2 -12  534.93   17.74
   1   2 -12  559.48   34.89
  -1   2 -12  539.96   23.27
   1   2 -12  514.17   19.52
   1  -2 -12  601.50   33.93
  -1   2 -11  770.35   27.97
   1   2 -11  734.09   24.70
   1  -2 -11  724.34   36.22
   1  -2 -11  727.32   21.27
   1   2 -11  841.93   42.28
  -1  -2 -11  747.45   27.28
   1  -2 -11  842.49   39.65
   1  -2 -10  586.45   32.05
   1   2 -10  532.07   20.68
   1  -2 -10  528.87   28.44
  -1   2 -10  536.67   22.25
  -1  -2 -10  494.50   21.27
   1  -2 -10  528.44   16.84
   1  -2  -9  411.68   25.95
  -1  -2  -9  367.57   17.65
   1  -2  -9  367.10   21.79
   1   2  -9  376.92   17.78
  -1   2  -9  374.96   18.31
   1  -2  -9  360.54   25.43
   1  -2  -9  384.09   13.80
   1  -2  -8  198.51   14.33
   1  -2  -8  216.69   10.10
   1   2  -8  203.92   13.27
   1  -2  -8  228.70   19.34
  -1  -2  -8  220.29   12.86
  -1   2  -8  234.47   13.82
   1  -2  -8  225.14   18.71
   1  -2  -7  242.66   19.30
   1   2  -7  216.78   14.09
  -1   2  -7  239.34   13.92
   1  -2  -7  240.87   19.43
  -1  -2  -7  242.16   13.37
   1  -2  -7  229.55   13.62
   1  -2  -6  141.38    9.03
   1  -2  -6  152.81   15.11
  -1   2  -6  152.05   11.20
   1  -2  -6  148.72   14.71
  -1  -2  -6  176.56   11.09
   1   2  -6  142.48   11.69
   1   2  -5  142.20   12.09
   1  -2  -5  122.94   13.49
  -1   2  -5  151.17   10.80
   1  -2  -5  131.58   13.98
  -1  -2  -5  150.50   10.35
   1  -2  -5  133.75    6.93
   1   2  -4  313.35   18.94
  -1  -2  -4  317.89   15.27
  -1   2  -4  294.58   15.63
   1  -2  -4  281.66   20.01
   1  -2  -4  313.71   20.91
   1  -2  -3  515.54   25.61
   1  -2  -3  470.21   25.28
  -1  -2  -3  454.90   19.45
   1   2  -3  414.18   22.29
   1  -2  -2  760.07   32.14
  -1  -2  -2  739.45   26.60
  -1  -2  -2  790.97   29.74
   1  -2  -2  752.40   30.96
   1  -2  -1  621.90   26.72
  -1  -2  -1  664.01   24.69
  -1  -2  -1  632.49   25.83
   1  -2  -1  616.32   27.80
   1  -2   0  756.89   29.87
  -1  -2   0  777.84   28.84
  -1  -2   0  757.14   27.46
   1  -2   0  762.50   28.87
   1  -2   1  666.56   26.09
   1  -2   1  658.79   26.06
  -1  -2   1  633.31   25.62
  -1  -2   1  638.22   25.87
  -1  -2   2  613.79   26.48
  -1  -2   2  685.32   26.16
   1  -2   2  625.85   24.43
   1  -2   2  665.20   25.38
  -1  -2   3  536.96   22.63
   1  -2   3  586.72   21.28
  -1  -2   3  563.88   26.14
  -1   2   3  552.38   18.91
   1  -2   3  576.65   22.92
   1  -2   4  287.24   15.44
   1  -2   4  290.96   12.90
  -1   2   4  297.18   12.20
  -1  -2   4  272.71   18.82
  -1  -2   4  273.25   14.84
  -1   2   5  183.31   15.71
  -1  -2   5  170.60   10.86
  -1   2   5  169.65    8.41
   1   2   5  183.05   12.02
  -1  -2   5  176.95   15.66
   1  -2   5  181.67   12.10
   1  -2   5  168.23    8.11
  -1   2   6  150.49    7.55
  -1  -2   6  154.68   11.59
  -1  -2   6  144.03    9.07
   1   2   6  147.73   11.05
  -1  -2   6  161.66   15.58
   1  -2   6  156.93   11.50
   1  -2   6  134.22    5.38
  -1   2   6  139.74   13.85
  -1   2   7  215.06    9.26
   1   2   7  223.07   13.96
  -1   2   7  265.70   19.79
  -1  -2   7  229.83   11.00
   1  -2   7  215.50   13.95
  -1  -2   7  236.09   14.93
   1  -2   7  234.45   12.51
  -1  -2   8  262.25   11.33
   1  -2   8  260.34   15.29
  -1   2   8  259.26   10.78
  -1  -2   8  253.31   15.76
   1  -2   8  267.23   13.81
  -1  -2   9  421.56   21.26
  -1  -2   9  448.05   15.15
   1  -2   9  433.83   18.48
  -1   2   9  411.77   15.00
  -1  -2  10  649.22   27.84
  -1   2  10  641.95   20.81
  -1  -2  10  706.53   24.74
   1  -2  10  668.57   24.63
   1   2  11  844.14   33.59
  -1  -2  11  848.42   28.30
  -1   2  11  730.54   23.75
   1  -2  11  812.96   28.46
  -1  -2  11  800.66   32.29
   1  -2  12  598.51   25.19
  -1  -2  12  677.79   25.62
  -1   2  12  642.96   33.54
   1   2  12  637.36   28.45
  -1  -2  12  631.87   29.33
   1   2  12  680.69   30.83
  -1  -2  13  562.41   28.27
   1  -2  13  537.14   24.00
  -1   2  13  544.33   31.53
   1   2  13  531.51   26.46
  -1  -2  13  533.03   23.37
   1   2  14  556.97   27.98
  -1   2  14  555.27   32.80
   1  -2  14  512.21   24.69
  -1  -2  14  547.84   24.88
  -1  -2  14  568.49   29.65
  -1  -2  15  272.31   20.59
  -1   2  15  290.24   24.03
   1   2  15  284.05   20.65
  -1  -2  15  289.87   18.91
  -1   2  16  233.24   22.47
   1   2  16  225.34   19.15
  -1  -2  16  233.04   19.40
  -1   2  17   65.93   12.14
   1   2  17   74.78   11.58
  -1   2  18   59.22   11.86
   1   2  18   58.34   11.11
  -1   2  19   52.46   12.25
  -1   2  20  112.48   17.38
  -1   2  21  198.16   23.89
   1   3 -25   33.11    9.21
  -1  -3 -25   38.31   12.61
  -1  -3 -24    2.60    7.40
  -1   3 -24   28.45   11.92
   1   3 -24   16.82    5.85
  -1  -3 -23   33.24   10.40
   1   3 -23   39.51    9.86
  -1   3 -23   52.29   15.94
  -1   3 -23   31.22    9.71
   1   3 -23   66.14   16.16
   1  -3 -22   29.82   11.50
  -1   3 -22   12.17    8.73
  -1  -3 -22   19.09    5.48
   1   3 -22   21.50   10.24
  -1  -3 -22   14.26    6.40
  -1   3 -22   15.88    7.40
   1  -3 -21  241.30   29.80
  -1  -3 -21  241.08   19.32
  -1   3 -21  225.62   24.13
  -1  -3 -21  221.22   24.20
   1   3 -21  255.23   31.08
  -1   3 -21  250.05   31.90
  -1  -3 -20   68.95   13.43
   1   3 -20   73.81   16.46
   1  -3 -20   67.11   14.85
  -1  -3 -20   65.12    9.78
  -1   3 -20   62.96   12.72
  -1   3 -20   89.78   18.81
   1  -3 -20   90.25   17.95
   1  -3 -19  422.41   36.55
  -1  -3 -19  542.95   27.93
  -1   3 -19  612.89   46.47
  -1   3 -19  447.58   33.45
  -1  -3 -19  519.19   35.97
   1   3 -19  554.41   43.04
   1  -3 -19  711.12   47.70
  -1   3 -18   84.85   14.11
  -1   3 -18   99.83   18.38
  -1  -3 -18   68.22   13.20
   1   3 -18   98.80   17.79
   1  -3 -18  111.73   17.90
  -1  -3 -18   89.37   10.93
   1  -3 -18  118.30   19.10
   1  -3 -17  674.27   44.45
   1  -3 -17  510.26   21.55
   1   3 -17  602.49   42.77
  -1   3 -17  630.60   43.39
  -1  -3 -17  545.43   26.96
  -1  -3 -17  483.94   33.48
   1  -3 -17  643.23   41.56
   1  -3 -16   41.02   11.52
   1  -3 -16   49.78   11.33
  -1   3 -16   23.81    9.36
   1  -3 -16   28.37    4.99
  -1  -3 -16   33.50    6.92
   1   3 -16   29.62    8.26
  -1  -3 -16   43.07   10.41
   1  -3 -15  306.09   28.48
   1   3 -15  265.18   26.42
   1  -3 -15  249.07   23.20
   1  -3 -15  226.21   13.64
  -1  -3 -15  198.19   20.22
  -1   3 -15  267.82   25.94
  -1  -3 -15  247.04   17.14
   1  -3 -14   47.72   11.32
   1  -3 -14   37.68    8.72
   1   3 -14   31.94    5.98
  -1   3 -14   29.45    9.25
  -1  -3 -14   31.89    8.49
  -1  -3 -14   31.75    6.22
   1  -3 -14   36.87    5.43
   1   3 -14   34.33    9.55
   1  -3 -13   31.81   10.18
  -1  -3 -13   37.32    9.21
   1   3 -13   17.00    4.54
   1   3 -13   33.39    9.26
  -1  -3 -13   29.76    5.96
   1  -3 -13   35.75    8.10
   1  -3 -13   29.71    4.97
  -1  -3 -12   19.43    7.01
  -1  -3 -12   16.25    4.49
   1   3 -12    3.89    2.59
   1  -3 -12   18.05    7.11
   1  -3 -12   22.53    6.29
   1   3 -12   17.20    7.86
   1   3 -11   19.77    5.02
  -1  -3 -11   36.35    6.37
   1   3 -11   43.24    9.94
   1  -3 -11   51.84   10.86
   1  -3 -11   35.88    6.97
  -1  -3 -11   20.29    7.16
  -1  -3 -10   21.17    6.42
   1   3 -10   26.01    7.97
   1  -3 -10   28.67    8.15
  -1  -3 -10   30.97    5.98
  -1   3 -10   19.68    5.58
   1  -3 -10   30.92    5.93
   1   3 -10   18.11    5.18
  -1  -3  -9  507.67   29.84
   1  -3  -9  539.14   21.86
   1   3  -9  534.66   33.07
  -1  -3  -9  531.11   24.09
   1   3  -9  512.55   27.06
  -1   3  -9  514.89   25.36
   1  -3  -9  593.25   35.65
  -1   3  -8  161.28   13.89
   1   3  -8  141.40   14.67
   1  -3  -8  170.83   18.60
  -1  -3  -8  157.09   12.58
   1  -3  -8  145.95    9.18
  -1  -3  -8  125.99   14.48
   1   3  -8  167.95   17.87
   1   3  -7 1031.26   40.83
   1  -3  -7 1046.00   46.92
  -1   3  -7 1020.06   36.50
   1   3  -7 1096.75   44.71
  -1  -3  -7 1034.69   34.59
  -1  -3  -7  931.97   39.81
  -1   3  -6  187.69   15.09
   1  -3  -6  166.62   17.69
   1   3  -6  181.90   17.13
  -1  -3  -6  172.65   13.61
  -1  -3  -6  166.90   16.21
  -1  -3  -5 1309.68   48.32
  -1  -3  -5 1324.00   42.24
  -1   3  -5 1299.89   40.67
   1  -3  -5 1342.45   60.01
   1   3  -5 1328.89   50.56
  -1   3  -5 1335.66   45.30
   1  -3  -5 1265.44   52.01
  -1  -3  -4  123.06   11.64
   1  -3  -4  122.33   15.11
  -1  -3  -4  131.03   14.10
   1   3  -4  122.55   14.76
   1  -3  -4  122.29   16.87
  -1   3  -4  125.40   10.59
  -1   3  -4  105.82   12.19
  -1   3  -3  664.07   30.96
  -1   3  -3  627.47   23.87
  -1  -3  -3  572.75   30.31
   1   3  -3  676.18   36.86
  -1  -3  -3  666.95   28.20
   1  -3  -3  673.77   39.91
   1  -3  -3  614.90   33.42
   1  -3  -2   51.95    9.66
  -1   3  -2   63.08    6.47
  -1  -3  -2   50.20    8.81
  -1  -3  -2   55.82    7.30
   1  -3  -2   47.93   11.07
   1  -3  -1   74.53   10.87
  -1  -3  -1   63.58    9.59
  -1   3  -1   76.52    6.48
  -1  -3  -1   63.77    8.05
   1  -3  -1   48.34   10.45
  -1  -3   0    1.59    2.06
  -1   3   0    3.91    1.46
   1  -3   0   -2.42    3.73
  -1  -3   0    2.15    2.92
   1  -3   0    0.32    3.95
   1  -3   1   93.97   13.52
  -1  -3   1  119.09   11.57
   1  -3   1  111.60   12.46
  -1  -3   1  120.24   12.61
   1  -3   2   58.14    8.84
   1  -3   2   47.11    9.11
  -1  -3   2   61.48    9.23
  -1  -3   2   61.83    9.34
  -1  -3   3  573.48   28.08
  -1   3   3  579.38   24.43
   1  -3   3  557.72   31.50
  -1  -3   3  580.27   29.41
   1  -3   3  546.93   27.39
  -1  -3   4  135.93   14.96
   1  -3   4  163.38   15.35
  -1   3   4  147.51   11.37
  -1  -3   4  152.95   13.78
   1  -3   4  132.74   12.98
  -1  -3   5 1327.25   43.61
  -1   3   5 1442.83   55.48
  -1   3   5 1368.44   38.43
   1  -3   5 1287.19   44.53
  -1  -3   5 1282.81   50.54
   1  -3   5 1325.31   43.99
  -1  -3   6  242.75   21.28
   1  -3   6  224.58   15.15
   1  -3   6  221.72   16.20
  -1   3   6  230.06   21.97
   1   3   6  237.36   16.32
  -1  -3   6  224.99   15.45
  -1   3   6  210.33   12.66
   1   3   7 1187.67   39.73
   1  -3   7 1000.30   32.60
  -1  -3   7 1128.62   36.28
  -1   3   7 1104.80   32.22
   1  -3   7 1164.16   39.70
   1  -3   8  107.00    7.33
  -1  -3   8  135.14   11.05
   1   3   8  144.93   13.19
   1  -3   8  142.42   13.13
  -1   3   8  144.41    9.84
  -1  -3   8  135.58   13.36
   1  -3   9  526.85   25.02
  -1   3   9  537.91   20.37
   1  -3   9  606.73   28.25
   1   3   9  592.25   27.60
  -1  -3   9  552.35   28.54
  -1  -3   9  566.14   22.82
   1  -3  10   36.20    7.09
   1  -3  10   31.04    6.06
  -1  -3  10   33.43    7.19
  -1   3  10   30.15    4.57
  -1  -3  10   28.93    4.96
   1  -3  11   41.94    7.52
  -1  -3  11   30.37    5.15
   1  -3  11   28.48    5.93
  -1  -3  11   23.12    6.22
  -1   3  11   31.32    4.69
   1  -3  12    5.00    3.15
  -1  -3  12    5.94    4.50
  -1  -3  12    5.31    2.35
  -1   3  12   11.32    3.21
  -1  -3  13   20.02    6.40
  -1  -3  13   30.50    5.37
  -1   3  13   28.57    4.67
   1  -3  13   31.23    7.00
   1  -3  14   36.79    7.48
  -1  -3  14   34.23    8.22
  -1   3  14   29.29    5.46
  -1  -3  14   31.06    5.70
   1   3  15  261.73   21.97
  -1  -3  15  294.87   22.97
  -1   3  15  280.00   25.54
   1  -3  15  292.68   20.55
  -1  -3  15  262.69   16.47
  -1  -3  16   51.37   10.40
   1  -3  16   37.49    8.85
  -1   3  16   36.05    9.59
  -1  -3  16   51.41    8.00
   1   3  16   32.80    8.11
  -1   3  17  672.12   42.04
   1   3  17  630.71   36.33
  -1  -3  17  704.50   39.33
   1  -3  17  671.53   33.84
   1   3  18  129.04   16.68
  -1   3  18  126.74   18.36
  -1  -3  18  137.50   17.86
   1   3  19  657.03   39.29
  -1  -3  19  715.57   40.67
  -1   3  19  627.08   43.18
   1   3  20   78.55   13.92
  -1   3  20   67.99   14.75
   1   3  21  338.11   29.47
  -1   3  21  339.19   32.90
  -1   3  22   24.14   11.06
  -1   3  23   23.25    9.08
  -1   3  24   23.97   10.28
  -1  -4 -24  211.42   26.96
  -1  -4 -23    2.63    6.93
  -1   4 -22  217.97   32.82
  -1  -4 -22  156.81   23.18
  -1   4 -22  168.66   23.56
   1  -4 -22  213.87   28.93
   1   4 -21   86.22   18.48
   1  -4 -21   83.64   17.91
  -1  -4 -21   57.08   13.79
  -1   4 -21   42.80   11.52
  -1   4 -21   61.36   17.48
   1  -4 -20  112.67   20.26
   1   4 -20  114.25   20.48
  -1  -4 -20   89.39   12.01
  -1   4 -20  113.00   21.15
  -1  -4 -20   68.36   14.62
   1  -4 -19   10.85    7.75
  -1   4 -19    4.93    6.25
  -1  -4 -19   16.29    7.74
   1   4 -19   10.23    7.14
  -1  -4 -19    1.77    3.64
   1  -4 -18  206.39   26.61
   1   4 -18  176.03   24.00
  -1   4 -18  159.22   23.63
  -1  -4 -18  156.33   15.43
  -1  -4 -18  166.78   21.62
   1   4 -17   68.18   14.97
  -1  -4 -17   66.33   10.18
   1  -4 -17   68.92   15.30
  -1  -4 -17   50.35   11.84
  -1   4 -17   64.18   14.72
  -1  -4 -16  148.74   19.82
   1   4 -16  173.79   22.53
   1  -4 -16  196.39   24.97
  -1   4 -16  159.74   21.47
  -1  -4 -16  172.40   15.88
   1   4 -15   92.59   17.02
   1  -4 -15  106.28   18.12
  -1  -4 -15   94.58   15.51
   1  -4 -15   53.87    8.73
  -1  -4 -15   89.73   11.25
  -1   4 -15   76.51   14.57
   1  -4 -14  382.97   33.54
  -1   4 -14  308.56   27.64
  -1  -4 -14  293.59   26.83
   1   4 -14  337.76   30.41
  -1  -4 -14  323.95   21.59
  -1  -4 -13   36.96    9.54
  -1  -4 -13   27.69    6.45
   1  -4 -13   36.29   10.87
  -1   4 -13   30.12    8.89
   1   4 -13   18.24    7.75
   1  -4 -13   24.46    5.00
  -1   4 -12  379.79   27.99
  -1  -4 -12  420.33   31.18
  -1  -4 -12  449.20   25.08
   1  -4 -12  507.39   37.06
   1   4 -12  473.31   33.81
   1   4 -11   51.79   11.96
  -1  -4 -11   63.33   12.19
  -1   4 -11   58.36   10.96
   1  -4 -11   54.32   11.40
  -1  -4 -11   58.05    9.29
   1   4 -11   55.65   10.05
   1  -4 -11   21.10    3.53
  -1  -4 -10  345.74   21.52
  -1  -4 -10  317.77   26.24
   1   4 -10  346.64   25.24
   1   4 -10  382.15   28.60
  -1   4 -10  345.00   24.32
   1  -4 -10  414.34   32.73
   1  -4  -9  123.66   17.99
  -1  -4  -9  115.66   16.31
   1   4  -9  144.34   16.69
  -1   4  -9  111.87   13.94
   1   4  -9  120.22   16.83
  -1  -4  -9  133.81   13.70
   1   4  -8  101.19   15.13
  -1  -4  -8  124.62   13.30
   1   4  -8  125.76   15.99
   1  -4  -8  124.77   17.56
  -1  -4  -8  140.25   17.12
  -1   4  -8  117.60   13.47
   1   4  -7   35.02    8.61
  -1  -4  -7   33.42    8.63
   1   4  -7   36.49    8.92
  -1  -4  -7   24.62    6.14
  -1   4  -7   27.86    6.59
   1  -4  -7   36.46    9.99
  -1  -4  -6  317.32   25.55
   1   4  -6  317.40   27.20
   1   4  -6  306.46   23.83
   1  -4  -6  337.39   28.42
   1  -4  -5  105.08   15.95
  -1  -4  -5  107.07   14.95
   1   4  -5   75.05   11.73
  -1  -4  -4  203.54   20.16
  -1   4  -4  214.37   15.48
  -1  -4  -4  191.79   14.73
   1  -4  -4  221.85   22.12
   1  -4  -3  242.07   22.69
  -1  -4  -3  219.35   15.92
  -1   4  -3  251.75   15.65
  -1  -4  -3  227.75   21.37
  -1  -4  -2  665.07   29.20
  -1  -4  -2  661.05   36.68
   1  -4  -2  620.48   36.63
  -1   4  -2  678.53   25.70
  -1   4  -1   61.71    6.81
  -1  -4  -1   74.75   12.27
   1  -4  -1   54.01   10.57
  -1  -4  -1   58.93    8.54
  -1  -4   0 1008.38   45.38
   1  -4   0  911.30   43.61
   1  -4   0  908.43   55.58
  -1  -4   0  974.03   38.61
  -1   4   1   67.54    9.74
   1  -4   1   68.80   12.05
  -1  -4   1   64.58    9.61
   1  -4   1   68.98   14.22
  -1  -4   1   76.03   11.81
   1  -4   2  642.29   34.79
  -1  -4   2  689.40   35.90
  -1  -4   2  724.60   34.65
   1  -4   2  642.96   43.90
  -1   4   2  631.64   30.74
  -1  -4   3  223.25   19.84
   1  -4   3  231.46   20.07
   1  -4   3  217.37   24.15
  -1  -4   3  232.17   20.11
  -1   4   3  225.72   17.30
  -1  -4   4  218.58   20.57
   1  -4   4  200.10   18.48
  -1  -4   4  210.32   18.65
   1  -4   4  211.99   22.63
  -1  -4   5  124.02   13.77
   1  -4   5  101.71   14.91
   1  -4   5  109.45   13.91
   1  -4   6  255.65   22.03
  -1  -4   6  312.74   21.59
   1  -4   6  279.64   21.33
   1  -4   7   20.32    6.13
   1  -4   7   40.25    8.30
  -1  -4   7   35.81    6.94
   1  -4   8  131.83   14.56
  -1  -4   8  135.44   13.43
   1  -4   8   90.87   10.73
  -1  -4   9  143.94   13.47
  -1  -4   9  110.70   14.31
   1  -4   9  124.14   14.49
  -1  -4  10  348.24   25.69
   1  -4  10  308.07   21.27
  -1  -4  10  383.60   21.26
   1  -4  10  382.91   24.60
   1  -4  11   63.17   10.27
  -1  -4  11   31.14    8.21
   1  -4  11   44.27    8.67
  -1  -4  11   62.32    8.69
   1  -4  12  404.27   26.22
  -1  -4  12  532.66   26.00
   1  -4  12  495.13   29.64
  -1  -4  12  446.54   30.27
   1  -4  13   30.69    7.04
  -1  -4  13   30.75    6.28
   1  -4  13   36.36    8.62
  -1  -4  13   29.62    8.43
  -1  -4  14  362.05   27.59
   1  -4  14  322.61   23.59
  -1  -4  15  138.35   17.55
   1  -4  15  105.00   13.89
  -1  -4  16  175.67   19.91
   1  -4  16  168.18   17.59
   1  -4  17   60.27   11.28
  -1  -4  17   57.45   12.52
  -1   4  17   53.50   12.14
   1   4  17   55.50   11.66
   1   4  18  168.92   20.78
   1  -4  18  178.86   19.13
  -1   4  18  197.91   24.76
  -1  -4  18  210.21   23.41
   1  -4  19    6.12    6.83
   1   4  19    2.82    3.71
  -1   4  19   -3.49    4.33
  -1  -4  19  -12.49    7.26
  -1   4  20   88.94   18.02
  -1  -4  20  150.09   20.57
  -1  -4  21   52.93   13.65
  -1   4  21   81.97   16.84
  -1   4  22  226.32   29.26
  -1   4  23   17.11   12.70
   1  -5 -21  103.34   21.26
   1  -5 -20   25.97   10.20
  -1  -5 -20   17.61    8.07
  -1   5 -20   31.69   12.37
   1  -5 -19   37.22   12.37
  -1   5 -19   71.49   16.78
   1   5 -19   57.51   15.97
  -1  -5 -19   55.99   13.84
   1   5 -18   10.00    8.54
  -1  -5 -18    6.40    5.70
  -1  -5 -18    4.78    3.65
   1  -5 -18   10.14    8.01
  -1   5 -18   16.54    8.75
   1   5 -17   38.10   12.07
  -1  -5 -17   16.35    8.41
   1  -5 -17    9.75    5.39
  -1   5 -17   29.73   11.21
  -1  -5 -17   31.61    7.43
  -1   5 -16   39.34   11.52
   1   5 -16   60.83   15.03
   1  -5 -16   57.42   14.85
  -1  -5 -16   46.76   13.73
  -1  -5 -16   46.25    9.31
   1  -5 -15  226.06   28.19
  -1  -5 -15  182.58   23.77
  -1  -5 -15  179.00   18.13
  -1   5 -15  149.12   21.21
   1   5 -15  175.61   23.13
  -1  -5 -14  139.45   20.16
  -1   5 -14  150.00   20.23
  -1  -5 -14  129.79   15.43
   1  -5 -14  154.11   22.82
   1   5 -14  155.95   21.78
  -1   5 -13  304.27   28.21
   1   5 -13  342.31   31.29
  -1  -5 -13  329.65   31.44
   1  -5 -13  354.92   34.19
   1   5 -12   47.64   12.55
   1  -5 -12   51.18   13.86
  -1  -5 -12   38.82   11.00
  -1   5 -12   33.10   10.15
   1  -5 -11  456.09   37.65
  -1  -5 -11  395.65   33.33
  -1   5 -11  352.84   28.89
   1   5 -11  369.70   31.45
   1  -5 -10  178.91   23.32
  -1  -5 -10  146.36   20.24
  -1   5 -10  141.29   17.31
   1   5 -10  149.99   19.71
   1  -5  -9  245.70   27.96
  -1  -5  -9  274.06   27.09
   1   5  -9  221.60   23.24
  -1   5  -9  236.46   20.84
   1   5  -8   23.75    8.25
   1  -5  -8   47.39   13.12
  -1  -5  -8   46.15   12.00
  -1   5  -8   40.39    8.58
  -1  -5  -7   66.66    8.61
   1   5  -7   82.48   13.95
  -1  -5  -7   98.33   16.68
   1  -5  -7  107.72   17.82
  -1   5  -7  120.53   13.91
  -1  -5  -6   16.96    5.11
   1  -5  -6   22.92    9.11
  -1  -5  -6    7.14    6.87
  -1   5  -6   17.14    6.10
   1  -5  -5   23.30    8.20
  -1  -5  -5   31.97    9.96
  -1  -5  -5   19.23    5.32
   1  -5  -4   39.03   10.54
  -1  -5  -4   48.12    7.88
  -1  -5  -4   57.37   12.55
   1  -5  -3  331.99   29.19
  -1  -5  -3  343.33   29.37
  -1  -5  -3  336.60   21.18
  -1   5  -3  319.49   19.29
   1  -5  -2  164.35   20.32
  -1  -5  -2  201.81   22.39
  -1  -5  -2  162.61   15.14
   1  -5  -1  378.11   30.79
  -1  -5  -1  443.87   32.81
  -1  -5  -1  438.48   25.71
  -1  -5   0   93.06   12.40
   1  -5   0   68.21   13.36
  -1  -5   0   81.32   14.08
  -1  -5   1  476.32   33.67
  -1  -5   1  476.04   28.19
   1  -5   1  396.83   30.89
  -1  -5   2  185.91   20.54
   1  -5   2  141.05   17.84
  -1  -5   2  142.35   16.56
  -1  -5   3  362.06   27.96
   1  -5   3  337.15   27.95
   1  -5   4   42.34   10.02
  -1  -5   4   32.33    8.13
   1  -5   5   31.31    8.91
  -1  -5   5   22.68    7.47
   1  -5   6   11.17    6.00
  -1  -5   6   16.22    6.31
   1  -5   7   77.03   12.93
  -1  -5   7   90.68   13.01
   1  -5   8   37.79    9.80
  -1  -5   8   60.73   10.55
   1  -5   9  234.34   21.97
  -1  -5   9  231.79   20.14
  -1  -5  10  123.26   16.98
   1  -5  10  179.45   19.40
  -1  -5  10  180.09   17.34
  -1  -5  11  310.30   27.80
   1  -5  11  279.31   24.13
   1  -5  11  405.40   29.49
  -1  -5  11  396.20   25.80
  -1  -5  12   50.53   11.76
   1  -5  12   46.08   10.79
   1  -5  12   30.10    8.75
  -1  -5  12   49.46    8.95
   1  -5  13  261.39   24.10
   1  -5  13  393.65   29.48
  -1  -5  13  309.70   28.15
  -1  -5  13  405.42   26.34
   1  -5  14  105.23   14.71
  -1  -5  14  107.50   16.80
   1  -5  14  135.36   17.58
   1  -5  15  149.63   18.13
  -1  -5  15  180.13   21.82
   1  -5  16   31.09    8.71
  -1  -5  16   37.70   10.94
  -1  -5  17   35.06   10.76
   1  -5  17   23.77    9.40
  -1  -5  18   -0.16    6.93
   1  -5  18   13.79    6.98
   1  -5  19   25.18    7.65
  -1  -5  19   35.22   10.96
  -1   5  19   16.97    7.34
  -1  -5  20   29.40    9.13
  -1   5  20   14.68    6.06
  -1   5  21   82.17   18.42
  -1   6 -18   83.76   18.99
  -1   6 -17  111.65   19.50
   1   6 -17  115.90   20.33
  -1   6 -16   84.47   16.98
   1  -6 -16   91.40   19.88
   1   6 -16   69.15   15.64
  -1   6 -15   66.95   14.18
   1  -6 -15   91.49   19.28
  -1  -6 -15   76.26   16.82
   1   6 -15   85.84   17.40
   1   6 -14   21.82    8.87
  -1   6 -14   -6.19    5.69
  -1  -6 -14   25.71   10.02
   1  -6 -14   26.13   11.90
  -1   6 -13    1.51    3.40
   1   6 -13   -1.38    6.81
  -1  -6 -13   -1.30    6.09
   1  -6 -13   15.09    9.81
  -1   6 -12   23.53    7.98
   1   6 -12   11.30    7.18
   1  -6 -12   32.57   11.00
  -1  -6 -12   26.06   10.03
  -1   6 -11   19.47    6.94
   1   6 -11   12.12    7.06
   1  -6 -11   14.65    8.70
  -1  -6 -11   24.55    9.84
  -1   6 -10   26.43    7.79
  -1  -6 -10   41.99   12.28
   1  -6 -10   37.66   11.79
  -1   6  -9   67.64   12.27
  -1  -6  -9   95.41   17.81
   1  -6  -9   86.31   18.25
   1  -6  -8  209.34   26.79
  -1  -6  -8  190.02   25.29
  -1   6  -8  173.82   18.72
   1  -6  -7  293.76   31.73
  -1  -6  -7  313.71   31.58
  -1   6  -7  269.17   22.30
  -1  -6  -6  229.00   26.71
   1  -6  -6  209.47   26.62
  -1  -6  -5  290.04   29.99
   1  -6  -5  302.77   31.50
   1  -6  -4  200.14   24.49
  -1  -6  -4  175.98   23.86
  -1  -6  -3  153.39   21.42
   1  -6  -3  104.63   17.69
   1  -6  -2    9.92    6.16
  -1  -6  -2    4.16    5.38
   1  -6  -1   11.59    6.73
  -1  -6  -1    9.54    7.64
   1  -6   0   36.89   10.85
  -1  -6   0   29.26    9.83
  -1  -6   1   10.73    5.50
   1  -6   1    7.49    6.38
   1  -6   2   19.13    7.50
  -1  -6   2   18.17    7.47
   1  -6   3   94.96   16.30
  -1  -6   3   82.39   14.85
  -1  -6   4  211.29   23.13
   1  -6   4  201.77   23.43
   1  -6   5  253.40   26.11
  -1  -6   5  258.01   25.06
   1  -6   6  201.24   22.47
  -1  -6   6  192.67   21.66
   1  -6   7  249.75   25.51
  -1  -6   7  289.45   26.10
  -1  -6   8  172.00   19.69
   1  -6   8  192.63   21.96
   1  -6   9   87.04   15.14
  -1  -6   9   87.84   14.71
   1  -6  10   43.62   11.36
  -1  -6  10   52.34   11.34
  -1  -6  10   37.44   11.02
  -1  -6  11   18.23    6.77
  -1  -6  11   26.14    8.99
   1  -6  11    6.14    4.31
   1  -6  11   15.31    8.09
   1  -6  12   20.12    9.32
  -1  -6  12   19.35    9.57
   1  -6  12   16.41    7.39
   1  -6  13    7.45    5.85
  -1  -6  13   17.60    8.83
   1  -6  13   16.38    6.35
   1  -6  14    8.32    6.06
  -1  -6  14   12.47    7.73
   1  -6  14    9.50    8.89
  -1  -6  15   70.69   15.31
   1  -6  15   50.42   12.68
   1  -6  15   46.35   11.81
  -1  -6  16   55.15   14.60
   1  -6  16   69.21   13.47
   1  -6  17   91.73   15.23
  -1  -6  17  117.23   19.51
   1  -7  -8  121.87   21.64
  -1  -7  -8   93.37   19.11
  -1  -7  -7   31.81   11.69
   1  -7  -7   28.62   11.46
   1  -7  -6   75.91   17.69
  -1  -7  -6  116.78   21.14
   1  -7  -5   82.30   18.03
  -1  -7  -5   75.29   17.49
   1  -7  -4  104.84   20.11
  -1  -7  -4  111.90   20.34
  -1  -7  -3   47.03   13.45
   1  -7  -3   44.73   14.00
   1  -7  -2  149.21   22.85
  -1  -7  -2  126.82   21.47
   1  -7  -1   33.66   12.36
  -1  -7  -1   44.26   13.76
   1  -7   0  191.05   25.68
  -1  -7   0  195.40   25.48
   1  -7   1   26.61    9.95
  -1  -7   1   16.56    8.77
  -1  -7   2  162.07   22.28
   1  -7   2  128.14   21.06
   1  -7   3   47.64   13.46
  -1  -7   3   41.55   11.36
   1  -7   4   74.03   16.32
  -1  -7   4  106.50   18.37
  -1  -7   5   40.46   11.78
   1  -7   5   38.62   12.54
   1  -7   6   62.69   14.16
  -1  -7   6   66.34   14.68
   1  -7   7   46.13   11.59
  -1  -7   7   37.48   10.00
   1  -7   8   66.15   14.18
  -1  -7   8   73.35   14.68
   1  -7   9   17.80    9.34
  -1  -7   9    3.03    5.35
   1  -7  10   58.35   15.01
  -1  -7  10   77.10   16.20
   1  -7  11   33.07   12.12
   1  -7  11   28.43    9.35
   1  -7  12  124.42   20.55
   1  -7  12   71.61   14.82
   1  -7  13   30.62   11.88
  -2   0 -27   13.29    7.59
   2   0 -26  321.04   42.01
  -2   0 -26  272.01   25.77
  -2   0 -25    3.76    6.19
   2   0 -25    9.20    9.03
  -2   0 -24  565.93   36.96
   2   0 -24  616.08   56.05
  -2   0 -23    6.37    5.42
   2   0 -23   20.27   11.15
   2   0 -22  471.09   46.67
  -2   0 -22  476.36   32.07
  -2   0 -21    4.54    4.89
   2   0 -21   -1.42    7.91
   2   0 -20  284.83   34.09
   2   0 -20  303.35   18.70
  -2   0 -20  268.97   22.95
   2   0 -19    4.14    3.40
  -2   0 -19   -2.98    4.00
   2   0 -18   75.34    8.87
  -2   0 -18   64.54   10.77
   2   0 -18   74.55   16.22
   2   0 -17    4.92    3.39
  -2   0 -17    0.49    3.22
   2   0 -17    8.90    7.98
  -2   0 -17   -1.13    3.19
   2   0 -16  410.76   36.60
  -2   0 -16  395.16   24.91
   2   0 -16  476.76   21.70
  -2   0 -16  419.41   26.08
  -2   0 -16  444.09   22.01
   2   0 -15    1.14    0.69
   2   0 -15   -3.19    3.94
  -2   0 -15    0.02    2.94
   2   0 -15   -0.84    1.85
   2   0 -14  503.25   37.11
   2   0 -14  517.29   20.39
  -2   0 -14  498.12   26.41
  -2   0 -13   -0.65    1.44
   2   0 -13    0.08    0.61
   2   0 -13   -0.56    3.58
  -2   0 -13    1.94    3.65
  -2   0 -12 1918.20   54.77
  -2   0 -12 1943.74   44.01
   2   0 -12 1805.57   69.71
   2   0 -11    0.88    4.65
  -2   0 -11    1.47    1.77
   2   0 -11    1.23    0.76
  -2   0 -11    1.05    2.61
  -2   0 -11    0.85    1.05
   2   0 -10  549.06   33.53
  -2   0 -10  598.28   26.59
  -2   0 -10  605.27   19.07
   2   0 -10  560.62   12.59
  -2   0 -10  497.02   17.66
   2   0  -9   -0.29    4.33
   2   0  -9    0.58    0.55
  -2   0  -9    0.17    2.33
  -2   0  -9   -0.01    0.95
   2   0  -8  409.97   15.34
  -2   0  -8  431.95   20.78
   2   0  -8  444.58   27.16
  -2   0  -8  337.55   12.07
   2   0  -8  449.87   10.81
   2   0  -7    0.36    2.30
   2   0  -7    1.27    0.72
   2   0  -7   -0.53    1.09
  -2   0  -7   -0.26    1.91
  -2   0  -7    0.47    0.57
  -2   0  -6  323.06   16.45
   2   0  -6  309.55   19.87
   2   0  -6  297.35   10.66
   2   0  -5    1.50    2.32
   2   0  -5    1.16    0.75
  -2   0  -5   -0.78    1.97
   2   0  -4  366.77   11.54
  -2   0  -4  354.93   15.97
   2   0  -4  370.54   14.59
   2   0  -3   -0.22    0.98
   2   0  -3   -0.07    0.89
  -2   0  -3   -0.31    1.38
  -2   0  -2 1832.08   42.40
   2   0  -2 1896.96   38.69
   2   0  -2 2010.10   40.10
  -2   0  -2 1811.70   34.17
  -2   0  -1    0.44    0.78
  -2   0  -1    0.54    1.06
   2   0  -1   -0.06    0.97
  -2   0  -1    1.18    1.20
   2   0  -1    0.02    0.85
   2   0   0 2606.62   49.86
  -2   0   0 2610.88   52.51
   2   0   0 2527.17   53.89
  -2   0   0 2731.00   53.27
  -2   0   0 2648.68   49.19
  -2   0   1   -0.68    1.05
  -2   0   1    1.00    1.06
  -2   0   1    1.22    1.20
   2   0   1   -0.47    1.11
  -2   0   1    0.28    0.90
  -2   0   2 1999.84   41.14
  -2   0   2 2093.40   42.58
  -2   0   2 2142.56   47.05
  -2   0   2 1941.21   42.19
  -2   0   3    0.10    1.21
  -2   0   3    1.16    1.78
  -2   0   3    0.28    0.82
  -2   0   3    0.59    0.93
  -2   0   3    0.79    1.17
  -2   0   4  333.12   12.24
  -2   0   4  352.34   19.23
  -2   0   4  370.95   17.14
  -2   0   4  339.65   13.99
  -2   0   4  360.41   12.17
  -2   0   5   -0.50    1.15
  -2   0   5   -0.34    1.40
  -2   0   5    3.24    2.43
  -2   0   6  353.49   12.52
  -2   0   6  355.92   18.87
  -2   0   6  360.22   21.20
  -2   0   7    1.33    0.98
  -2   0   7   -0.01    1.96
  -2   0   7    2.33    2.59
  -2   0   8  442.24   23.10
  -2   0   8  410.23   24.52
  -2   0   9   -0.01    2.48
  -2   0  10  867.48   36.35
  -2   0  11    1.63    4.02
  -2   0  12 2120.11   64.82
  -2   0  13    1.51    2.79
  -2   0  14  649.22   36.10
  -2   0  15   -2.89    4.32
  -2   0  16  401.64   30.01
  -2   0  17   -3.23    5.47
  -2   0  18  114.14   17.70
   2  -1 -26   65.53   19.88
  -2  -1 -26  107.09   15.97
  -2   1 -26   92.70   15.89
   2   1 -25  144.91   26.91
  -2  -1 -25  128.02   17.27
  -2   1 -25  130.12   18.53
   2  -1 -25  153.85   29.45
  -2   1 -24  157.37   19.77
  -2  -1 -24  144.74   17.27
   2  -1 -24  105.55   23.76
   2   1 -24  170.94   28.62
  -2  -1 -23   99.98   14.39
   2   1 -23  101.73   22.25
  -2   1 -23  100.25   16.21
   2  -1 -23   97.06   21.46
  -2  -1 -22   51.50   10.42
   2   1 -22   96.67   21.07
  -2   1 -22   58.81   11.66
   2   1 -22   77.32   11.19
   2  -1 -22   65.12   17.04
  -2   1 -21  526.62   35.05
   2   1 -21  610.30   50.24
   2  -1 -21  540.20   49.22
  -2  -1 -21  550.39   32.48
   2   1 -21  619.50   32.37
  -2   1 -20  439.01   30.98
  -2  -1 -20  397.37   26.60
   2  -1 -20  369.35   39.52
   2   1 -20  472.54   43.06
   2   1 -20  413.54   25.89
   2  -1 -19  275.30   18.08
   2   1 -19  393.23   24.11
   2   1 -19  356.86   36.32
  -2  -1 -19  390.07   25.19
  -2   1 -19  372.97   27.59
   2  -1 -19  326.39   35.70
   2  -1 -18   25.75    3.81
   2   1 -18   31.31   11.53
  -2   1 -18   41.92    9.81
   2  -1 -18   32.81    6.56
  -2  -1 -18   32.81    8.54
   2  -1 -18   30.73   10.49
  -2  -1 -17  729.43   33.64
   2  -1 -17  648.51   29.00
   2  -1 -17  690.16   20.81
  -2   1 -17  748.83   38.78
   2  -1 -17  670.66   48.03
   2  -1 -16  760.88   30.29
  -2  -1 -16  825.84   34.15
  -2   1 -16  866.12   40.28
   2   1 -16  951.85   54.72
   2  -1 -16  779.01   48.80
   2  -1 -16  801.94   20.04
  -2   1 -16  761.66   32.31
   2  -1 -15  321.01   19.21
  -2   1 -15  316.12   19.92
  -2   1 -15  215.55    9.37
   2  -1 -15  338.00   31.01
   2  -1 -15  344.21   11.92
  -2  -1 -15  325.80   20.93
  -2   1 -15  365.39   25.29
   2   1 -15  441.60   36.11
   2  -1 -14  352.36   19.82
  -2   1 -14  484.89   19.84
   2  -1 -14  376.77   31.27
   2   1 -14  444.95   35.24
   2  -1 -14  366.44   11.64
  -2  -1 -14  393.64   22.31
  -2   1 -14  353.82   20.27
  -2   1 -14  431.79   26.69
   2  -1 -13  450.67   22.07
   2  -1 -13  463.60   33.32
   2  -1 -13  475.85   12.80
  -2  -1 -13  502.10   24.57
  -2   1 -13  429.48   21.89
  -2   1 -13  587.38   20.73
   2   1 -13  549.15   38.19
  -2   1 -13  518.57   28.83
   2  -1 -12  827.74   30.38
   2  -1 -12  862.47   44.15
  -2   1 -12  960.70   39.50
  -2  -1 -12  898.55   32.91
   2  -1 -12  852.78   18.15
   2  -1 -11  267.83    7.26
   2  -1 -11  277.32   16.06
  -2   1 -11  319.01   21.40
   2   1 -11  351.54   28.67
  -2  -1 -11  269.84   16.99
   2  -1 -11  280.31   22.78
  -2   1 -11  305.64   17.40
   2  -1 -10  513.94   21.90
   2  -1 -10  601.31   27.42
   2   1 -10  571.69   35.98
   2  -1 -10  516.70   29.81
  -2  -1 -10  533.35   23.55
  -2   1 -10  540.92   27.94
  -2   1 -10  519.29   22.94
  -2   1  -9 1834.57   55.29
   2  -1  -9 1881.61   52.82
  -2  -1  -9 1656.53   46.83
   2  -1  -9 1749.28   56.75
  -2   1  -9 1782.53   47.71
   2  -1  -9 1772.99   45.62
  -2  -1  -8 2327.39   58.24
  -2   1  -8 2502.57   65.53
  -2   1  -8 2332.82   57.65
   2  -1  -8 2462.74   66.42
   2  -1  -8 2585.84   63.58
   2  -1  -8 2450.51   56.15
   2   1  -7 2091.98   54.85
  -2   1  -7 2163.13   58.49
  -2  -1  -7 2080.90   51.79
   2  -1  -7 2087.75   57.15
   2  -1  -7 2183.07   55.79
  -2   1  -7 1973.17   50.72
   2  -1  -7 2121.55   49.66
  -2   1  -6  342.76   18.84
   2   1  -6  324.56   17.08
   2  -1  -6  351.45   18.14
   2  -1  -6  307.02   16.99
  -2  -1  -6  317.18   15.99
   2  -1  -6  323.89   14.94
   2   1  -5 1585.91   41.91
  -2   1  -5 1558.91   45.06
   2  -1  -5 1583.26   43.66
   2  -1  -5 1529.01   38.53
  -2  -1  -5 1517.42   40.16
  -2   1  -4 1860.91   40.29
   2   1  -4 2026.34   47.73
   2  -1  -4 2055.80   50.21
  -2   1  -4 2044.03   51.64
   2  -1  -4 1975.71   45.36
  -2  -1  -4 1987.81   47.23
  -2   1  -3 2052.18   50.44
   2  -1  -3 2134.50   50.21
  -2   1  -3 2057.59   43.12
   2   1  -3 2042.92   48.16
   2  -1  -3 2001.09   46.26
  -2  -1  -3 2049.61   48.08
   2   1  -3 2066.00   50.18
  -2   1  -2  718.67   24.79
   2  -1  -2  793.06   25.28
  -2   1  -2  776.49   21.84
  -2  -1  -2  739.33   24.02
   2   1  -2  770.34   24.49
   2  -1  -2  757.72   23.42
  -2  -1  -1  492.34   18.54
   2   1  -1  483.11   18.71
  -2   1  -1  490.46   17.50
  -2   1  -1  524.12   18.66
   2  -1  -1  497.93   18.35
  -2   1   0  992.80   28.50
  -2  -1   0  996.05   28.59
  -2   1   0 1003.69   26.96
   2  -1   0 1041.69   29.13
  -2   1   1  294.28   14.29
  -2  -1   1  303.75   13.98
  -2   1   1  288.72   11.65
   2  -1   1  312.17   14.34
  -2  -1   2  684.10   21.76
  -2  -1   2  648.01   28.63
  -2  -1   2  676.11   23.28
  -2   1   2  737.83   24.15
  -2   1   2  681.77   17.89
   2  -1   2  713.94   23.59
  -2   1   3 2263.97   52.27
  -2   1   3 2225.74   40.90
  -2  -1   3 2101.28   51.29
  -2  -1   3 2131.32   60.87
  -2  -1   3 2149.54   49.43
  -2   1   3 2247.25   52.45
  -2   1   4 2466.53   56.93
  -2   1   4 2345.99   55.96
  -2  -1   4 2440.74   66.59
  -2  -1   4 2406.30   53.99
  -2   1   5 1192.80   35.89
  -2   1   5 1202.88   36.32
  -2  -1   5 1228.98   34.11
  -2  -1   5 1206.42   44.08
  -2   1   6  326.20   17.10
  -2  -1   6  316.18    9.76
  -2  -1   6  335.51   22.33
  -2   1   6  332.15   17.38
  -2  -1   6  341.83   16.35
  -2   1   7 2468.74   62.06
  -2   1   7 2708.00   64.86
  -2  -1   7 2515.20   73.87
  -2   1   7 2713.78   69.17
  -2  -1   7 2547.05   60.73
  -2   1   8 2633.99   64.37
  -2  -1   8 2615.98   77.47
  -2  -1   8 2667.72   64.16
  -2   1   8 2802.19   72.23
  -2   1   9 1777.53   49.01
  -2  -1   9 1758.39   62.55
  -2   1   9 1824.17   56.69
  -2  -1   9 1758.49   49.38
  -2   1  10  700.05   34.87
  -2   1  10  750.36   34.60
   2   1  10  802.29   34.40
  -2  -1  10  755.30   29.96
  -2   1  11  513.62   30.57
  -2   1  11  560.10   30.37
  -2  -1  11  534.49   25.38
  -2   1  12  973.97   45.20
  -2   1  12 1087.42   45.09
  -2  -1  12  987.06   37.43
  -2   1  13  486.12   30.12
  -2   1  13  428.15   30.18
  -2  -1  13  457.05   25.83
  -2   1  14  362.71   29.22
  -2   1  14  453.26   29.69
  -2  -1  14  421.65   25.74
  -2   1  15  668.01   37.81
  -2   1  15  555.02   37.87
  -2  -1  15  686.37   35.05
  -2  -1  16 1067.28   46.96
  -2   1  16 1079.53   51.09
  -2  -1  17  900.04   44.86
  -2   1  17  943.46   48.83
  -2  -1  18   21.57    7.88
  -2  -1  19  527.35   37.15
  -2  -1  20  524.04   38.95
  -2  -2 -25    6.67    4.30
  -2   2 -25   31.26   10.44
   2  -2 -24   11.14    8.45
  -2  -2 -24   12.87    5.56
   2   2 -24   12.86    9.44
  -2   2 -24   13.33    7.87
   2   2 -23  181.95   19.15
  -2  -2 -23  240.25   21.36
   2   2 -23  260.68   34.00
  -2   2 -23  198.33   23.11
   2  -2 -23  200.35   29.67
   2   2 -22   79.21   18.71
  -2   2 -22   80.98   14.93
  -2  -2 -22   74.47   11.94
   2   2 -22   55.28   10.80
   2  -2 -22   52.48   14.78
   2   2 -21  151.58   24.12
  -2  -2 -21  150.21   16.32
   2  -2 -21  104.15   19.76
  -2   2 -21  122.99   17.38
   2   2 -20  180.36   25.53
   2  -2 -20  106.33   15.08
  -2   2 -20  126.58   18.19
  -2  -2 -20  136.10   15.30
   2  -2 -20  129.28   21.71
   2  -2 -19  349.98   27.95
   2  -2 -19  564.57   43.55
   2   2 -19  516.80   42.87
  -2  -2 -19  438.27   26.75
  -2   2 -19  451.31   32.61
   2   2 -18  386.47   35.96
  -2   2 -18  349.80   28.47
  -2  -2 -18  357.80   23.34
   2  -2 -18  418.63   36.38
   2   2 -17   86.94   16.51
   2  -2 -17   63.99   11.36
   2  -2 -17   93.54   16.48
  -2  -2 -17   78.66   10.86
  -2   2 -17   85.94   13.71
  -2   2 -16  246.08   22.90
   2   2 -16  300.99   30.26
  -2  -2 -16  267.30   18.98
   2  -2 -16  213.42   21.36
  -2  -2 -15  370.66   22.19
  -2   2 -15  352.63   26.98
   2   2 -15  435.87   35.87
   2  -2 -15  411.98   31.08
   2  -2 -14  365.15   27.64
   2   2 -14  346.44   31.00
  -2   2 -14  312.86   24.30
  -2  -2 -14  300.79   19.42
   2  -2 -14  267.08   23.09
   2   2 -13   16.52    7.57
   2  -2 -13   12.14    5.03
  -2  -2 -13    7.01    3.46
  -2   2 -13    8.76    5.04
   2  -2 -13   11.22    5.19
   2   2 -12  111.41   16.73
   2  -2 -12   71.77   11.47
  -2  -2 -12  101.55   10.58
   2  -2 -12  121.70   13.82
  -2   2 -12   98.06   13.11
   2  -2 -11  523.65   30.49
  -2  -2 -11  584.31   25.90
   2   2 -11  699.54   41.51
   2  -2 -11  685.50   31.29
  -2   2 -11  522.41   30.34
   2  -2 -10  262.22   20.66
  -2  -2 -10  292.35   17.57
   2  -2 -10  331.38   19.81
   2   2 -10  296.76   26.16
  -2   2 -10  272.93   20.87
   2  -2  -9  297.58   21.38
  -2  -2  -9  298.43   17.40
   2  -2  -9  343.42   18.63
  -2   2  -9  306.85   17.79
   2  -2  -8  530.86   28.05
   2  -2  -8  527.28   21.87
  -2  -2  -8  512.07   23.06
  -2   2  -8  522.24   23.44
   2  -2  -7 1043.69   40.01
  -2  -2  -7 1038.87   34.23
   2   2  -7 1120.93   42.82
   2  -2  -7 1018.19   40.23
  -2   2  -7 1062.30   35.13
   2  -2  -6  651.20   30.12
  -2   2  -6  689.80   27.08
  -2  -2  -6  646.39   25.59
   2   2  -6  701.04   31.97
   2  -2  -6  667.64   30.04
  -2  -2  -5  413.30   19.55
   2   2  -5  423.08   23.68
   2  -2  -5  422.62   22.95
   2  -2  -5  414.30   22.61
  -2   2  -4  727.02   26.08
   2   2  -4  655.69   28.89
  -2  -2  -4  600.70   24.37
   2  -2  -4  596.50   27.27
   2  -2  -4  669.92   28.55
  -2   2  -3  768.60   27.79
   2   2  -3  695.34   29.13
  -2  -2  -3  715.80   26.59
   2  -2  -3  720.04   29.41
   2  -2  -3  662.87   28.14
   2  -2  -2  520.22   23.75
  -2  -2  -2  550.83   22.98
  -2   2  -2  594.77   24.79
   2  -2  -2  565.08   25.06
   2  -2  -1   84.88    8.50
  -2   2  -1   95.94   10.02
  -2  -2  -1   89.20    8.89
   2  -2  -1   75.92    9.05
   2  -2   0   34.44    5.52
   2  -2   0   40.23    6.50
  -2  -2   0   36.20    5.93
  -2   2   0   35.70    6.40
  -2   2   1  104.08   10.75
  -2  -2   1  103.43   10.44
  -2  -2   1   98.10   11.31
   2  -2   1  105.88    8.87
   2  -2   1  106.14   10.08
  -2  -2   2  420.36   24.41
   2  -2   2  452.53   21.14
  -2   2   2  422.52   22.78
   2  -2   2  453.25   18.03
  -2   2   3  858.55   33.83
  -2  -2   3  856.22   36.31
  -2  -2   3  881.59   29.30
   2  -2   3  807.94   25.04
  -2   2   3  749.25   21.79
  -2   2   3  804.08   33.32
   2  -2   3  884.26   31.65
  -2   2   4  570.77   27.62
  -2  -2   4  578.98   22.53
  -2  -2   4  531.95   29.24
  -2   2   4  530.72   17.13
   2  -2   4  606.55   25.28
  -2  -2   5  486.23   22.67
  -2   2   5  439.13   24.92
  -2  -2   5  469.94   19.68
  -2   2   5  494.39   14.28
  -2  -2   5  478.19   28.57
   2  -2   5  497.81   23.14
  -2  -2   6  694.34   23.50
  -2  -2   6  728.95   36.89
  -2   2   6  694.94   15.36
  -2  -2   6  739.21   29.05
   2  -2   6  744.89   29.23
  -2  -2   7 1107.56   37.62
   2  -2   7 1006.66   27.39
  -2  -2   7 1102.21   29.13
  -2  -2   7 1128.19   47.94
   2   2   7 1131.28   39.23
   2  -2   7 1143.20   38.23
  -2  -2   8  578.90   16.67
   2   2   8  644.80   28.84
  -2  -2   8  577.11   26.02
   2  -2   8  503.03   17.62
  -2   2   9  239.99   21.46
  -2  -2   9  292.41    9.00
   2  -2   9  261.68   12.20
  -2  -2   9  274.90   18.05
   2  -2  10  352.00   15.12
  -2  -2  10  440.22   23.26
   2   2  11  526.40   21.60
  -2   2  11  630.77   34.53
   2  -2  11  515.46   19.45
  -2  -2  11  574.74   28.07
  -2  -2  12  145.19   14.17
   2   2  12  123.41   10.10
  -2   2  12  133.07   15.93
  -2  -2  13   43.45    8.26
   2   2  13   44.73    6.50
  -2   2  13   35.83    8.54
  -2  -2  13   45.47    7.64
   2   2  14  302.79   18.07
  -2   2  14  288.73   25.02
  -2  -2  14  324.78   21.46
  -2  -2  14  282.90   21.33
  -2  -2  15  526.26   28.45
   2   2  15  486.13   24.54
  -2   2  15  533.93   35.08
  -2  -2  15  518.89   30.09
  -2   2  16  331.17   28.36
  -2  -2  16  329.15   24.96
  -2  -2  16  358.01   24.27
  -2   2  17  146.41   19.35
  -2  -2  17  140.73   16.16
  -2  -2  18  389.22   28.01
  -2   2  18  363.65   31.44
  -2  -2  19  677.78   38.88
  -2   2  19  679.87   44.65
  -2   2  20  259.81   28.12
  -2   2  21   95.33   17.52
  -2  -3 -25  127.99   19.55
  -2  -3 -24  463.49   36.93
   2   3 -24  406.89   31.31
  -2  -3 -23  211.67   24.71
  -2   3 -23  214.51   25.51
  -2  -3 -23  242.69   21.91
   2   3 -22   81.20   17.89
  -2  -3 -22   67.33   11.38
  -2   3 -22  108.78   24.66
  -2  -3 -22   62.91   13.96
  -2   3 -22   72.37   15.17
  -2  -3 -21  189.97   22.69
  -2   3 -21  196.72   24.66
   2   3 -21  229.34   29.60
  -2  -3 -21  201.26   19.23
  -2  -3 -20  135.05   19.03
   2  -3 -20  154.81   22.74
  -2  -3 -20  146.98   16.17
   2   3 -20  168.60   25.04
  -2   3 -20  113.57   18.30
   2  -3 -19  384.48   34.12
  -2  -3 -19  319.34   29.39
   2  -3 -19  454.05   32.98
  -2   3 -19  363.69   31.25
  -2  -3 -19  410.89   26.22
   2   3 -19  375.02   36.34
   2   3 -18    4.97    5.97
   2  -3 -18   20.72    7.66
  -2  -3 -18   13.32    4.89
  -2   3 -18   20.33    8.12
   2  -3 -18   -0.64    3.13
   2  -3 -17  123.95   15.46
   2   3 -17  112.01   19.50
   2  -3 -17  119.20   18.12
  -2  -3 -17  112.48   13.09
  -2   3 -17  109.34   16.82
  -2  -3 -16  290.84   20.58
   2  -3 -16  352.30   25.10
   2   3 -16  354.00   33.23
  -2   3 -16  306.88   27.22
   2  -3 -16  327.99   30.58
   2  -3 -15  628.33   41.83
  -2  -3 -15  554.55   29.34
  -2   3 -15  582.21   37.06
   2  -3 -15  682.80   33.86
   2   3 -15  748.45   48.16
   2  -3 -14  340.66   30.08
  -2  -3 -14  374.01   22.78
   2  -3 -14  379.18   23.18
   2   3 -14  426.99   35.07
   2  -3 -13  390.70   31.94
  -2  -3 -13  375.13   22.31
   2  -3 -13  404.93   22.40
   2   3 -13  453.37   35.41
   2  -3 -12 1403.04   62.42
  -2  -3 -12 1492.30   48.73
   2  -3 -12 1581.17   45.83
   2  -3 -11  445.45   32.84
   2   3 -11  566.17   38.97
  -2  -3 -11  482.41   25.04
   2  -3 -11  492.91   21.17
   2  -3 -10  214.21   21.93
   2   3 -10  271.29   25.66
  -2  -3 -10  252.70   17.65
   2  -3  -9  533.44   34.32
  -2  -3  -9  575.07   27.16
   2   3  -9  654.45   39.53
   2  -3  -8  238.61   22.34
  -2  -3  -8  292.00   18.51
   2   3  -8  287.93   25.20
   2  -3  -7  493.17   31.37
  -2  -3  -7  520.42   25.24
   2   3  -7  466.80   32.10
   2   3  -6   73.00   11.83
   2  -3  -6   77.35   11.92
  -2  -3  -6   74.20    9.71
  -2  -3  -5  683.46   29.49
   2  -3  -5  660.74   35.36
  -2  -3  -4  637.90   32.55
  -2  -3  -4  654.38   29.08
   2  -3  -4  607.48   33.11
  -2  -3  -3 1832.75   59.26
  -2  -3  -3 1892.65   55.59
   2  -3  -3 1815.81   61.27
   2  -3  -3 1862.25   61.69
  -2  -3  -2  331.19   22.17
  -2  -3  -2  328.92   20.67
   2  -3  -2  301.35   22.19
   2  -3  -2  301.18   22.50
  -2  -3  -1 1894.98   58.91
  -2  -3  -1 1822.31   57.47
  -2  -3  -1 1994.13   58.31
   2  -3  -1 1990.91   61.36
   2  -3  -1 1941.31   61.44
  -2  -3   0 3781.77   92.48
  -2  -3   0 3778.03   94.19
   2  -3   0 3879.40   93.17
   2  -3   0 3764.66   95.20
  -2  -3   1 2196.42   63.28
  -2  -3   1 2225.61   66.30
   2  -3   1 2230.10   62.07
   2  -3   1 2046.20   63.24
  -2  -3   2  338.97   21.56
   2  -3   2  364.60   20.60
  -2  -3   2  346.82   24.11
   2  -3   2  352.23   22.32
  -2  -3   3 1801.30   54.91
  -2  -3   3 1856.32   61.06
   2  -3   3 1778.64   49.95
   2  -3   3 1721.10   55.01
  -2  -3   4  638.47   29.35
  -2  -3   4  637.45   34.82
   2  -3   4  611.47   29.80
   2  -3   4  641.33   24.97
  -2  -3   5  818.33   33.07
  -2   3   5  834.58   26.94
   2  -3   5  742.83   25.91
   2  -3   5  815.06   34.66
  -2  -3   6   62.24    8.38
   2  -3   6   69.33    6.24
  -2   3   6   81.32    7.10
   2  -3   6  101.85   11.83
  -2  -3   7  480.34   22.61
  -2  -3   7  466.32   26.70
  -2   3   7  474.94   16.72
   2  -3   7  498.32   26.92
  -2  -3   8  223.05   18.33
  -2   3   8  266.87   10.99
   2  -3   8  270.80   20.23
  -2  -3   8  276.15   15.49
  -2  -3   9  753.21   34.81
   2  -3   9  612.84   25.28
  -2   3   9  705.40   19.13
   2  -3   9  729.95   33.53
  -2  -3   9  721.99   25.27
  -2  -3  10  244.86   12.81
  -2   3  10  245.03    9.69
   2  -3  10  254.44   19.62
   2  -3  10  200.22   13.72
  -2  -3  10  244.85   19.45
  -2  -3  11  533.04   29.45
  -2   3  11  477.96   14.38
  -2  -3  11  558.62   18.93
   2  -3  11  478.84   21.89
   2  -3  12 1380.08   43.22
  -2  -3  12 1783.51   58.26
  -2  -3  13  532.01   27.41
  -2  -3  13  529.20   30.63
  -2  -3  14  444.78   25.35
   2  -3  14  340.85   19.87
  -2   3  14  432.07   33.18
   2   3  14  357.87   22.55
  -2  -3  14  434.61   28.64
  -2  -3  15  737.62   33.72
   2   3  15  576.23   30.05
  -2   3  15  644.58   41.51
   2  -3  15  615.16   27.75
  -2  -3  15  692.70   37.64
   2   3  16  402.72   25.01
  -2   3  16  399.84   33.39
  -2  -3  16  429.68   25.91
  -2  -3  16  418.63   29.59
   2   3  17  172.31   16.74
  -2   3  17  148.35   20.82
  -2  -3  17  179.02   16.90
  -2  -3  17  186.25   20.20
  -2  -3  18   13.37    6.83
  -2   3  18   10.35    6.60
  -2   3  19  431.95   36.98
  -2  -3  19  432.77   33.28
  -2   3  20  151.69   23.10
  -2   3  21  306.09   32.96
  -2   3  22   89.49   18.41
  -2   3  23  296.85   34.43
  -2   3  24  692.56   54.27
  -2  -4 -22  186.43   24.55
  -2  -4 -22  178.31   18.74
  -2  -4 -21  218.71   20.68
  -2  -4 -21  163.03   23.17
  -2   4 -21  198.43   25.38
  -2  -4 -20    1.20    6.15
  -2  -4 -20   -2.86    3.71
   2   4 -20    9.13    7.92
  -2   4 -20   15.13   11.45
  -2   4 -20    5.49    5.42
   2  -4 -19  226.76   28.84
  -2  -4 -19  166.78   17.55
  -2  -4 -19  101.40   17.60
   2   4 -19  188.13   27.37
  -2   4 -19  182.95   27.46
  -2   4 -19  144.26   21.39
   2   4 -18   30.49   10.89
   2  -4 -18   34.98   12.66
  -2  -4 -18   22.44    9.30
  -2  -4 -18   27.90    8.21
  -2   4 -18   42.93   14.12
  -2   4 -18   28.06    9.81
  -2  -4 -17  306.88   28.97
  -2   4 -17  299.94   33.06
  -2  -4 -17  307.76   22.97
   2   4 -17  349.85   34.47
  -2   4 -17  247.70   26.75
   2  -4 -16  318.70   32.94
  -2  -4 -16  246.18   25.38
   2   4 -16  273.24   30.50
  -2   4 -16  276.74   30.37
  -2  -4 -16  281.72   21.68
   2  -4 -15  278.58   30.44
   2   4 -15  335.64   32.41
  -2  -4 -15  229.65   24.40
  -2   4 -15  285.78   29.38
  -2  -4 -15  255.51   20.79
   2   4 -14   -0.63    5.66
  -2  -4 -14   10.74    5.87
   2  -4 -14    8.48    5.54
  -2  -4 -14    2.90    3.87
  -2   4 -14    4.71    5.25
   2  -4 -13  250.30   27.59
  -2  -4 -13  204.22   22.12
   2   4 -13  208.48   24.76
  -2  -4 -13  208.03   18.35
   2   4 -12   11.23    6.37
   2  -4 -12    6.54    5.65
  -2  -4 -12   15.06    5.69
  -2  -4 -12    9.99    5.36
   2   4 -11  108.12   18.13
  -2  -4 -11  107.54   15.65
   2  -4 -11  109.35   17.17
  -2  -4 -11   86.75   11.96
   2  -4 -10  219.14   24.50
  -2  -4 -10  183.50   20.62
   2   4 -10  244.07   25.40
  -2  -4 -10  232.57   18.88
   2  -4  -9  419.13   33.59
  -2  -4  -9  392.45   25.42
  -2  -4  -9  374.88   28.82
   2   4  -9  432.69   33.12
  -2  -4  -8  103.72   14.72
   2   4  -8   95.49   15.15
   2  -4  -8  100.18   15.59
  -2  -4  -8  113.84   13.40
   2  -4  -7  148.41   18.76
  -2  -4  -7  148.76   17.59
  -2   4  -7  168.61   15.17
  -2  -4  -7  188.45   16.96
   2  -4  -6   -3.39    3.25
  -2  -4  -6    1.96    3.58
  -2  -4  -6   -0.89    3.76
  -2  -4  -5  584.42   34.90
  -2  -4  -5  615.77   31.99
   2  -4  -5  618.04   38.49
  -2  -4  -4  108.54   14.51
  -2  -4  -4  112.15   14.15
  -2   4  -4  115.91   10.52
   2  -4  -4  101.52   15.92
  -2  -4  -3  325.83   25.32
  -2   4  -3  314.24   16.78
  -2  -4  -3  329.52   22.74
   2  -4  -3  351.65   27.73
  -2  -4  -2  142.66   16.69
  -2   4  -2  136.79    9.86
  -2  -4  -2  140.17   15.04
   2  -4  -2  156.39   18.34
  -2  -4  -1  433.78   28.97
  -2   4  -1  354.14   14.99
  -2  -4  -1  441.09   26.64
   2  -4  -1  409.15   29.28
  -2   4   0    0.73    1.05
  -2  -4   0    6.12    3.87
   2  -4   0    2.49    4.82
  -2  -4   1  477.30   29.81
   2  -4   1  409.53   29.08
   2  -4   1  442.70   30.73
  -2  -4   2  182.75   17.96
   2  -4   2  157.63   17.61
   2  -4   2  154.41   17.10
  -2  -4   3  392.79   26.56
   2  -4   3  366.08   25.58
   2  -4   3  349.84   25.66
  -2  -4   4  124.93   14.51
   2  -4   4   86.41   11.97
   2  -4   4  111.69   14.75
   2  -4   5  614.02   29.48
   2  -4   5  624.97   33.86
  -2  -4   5  658.85   33.65
   2  -4   6   -3.39    2.73
   2  -4   6   -0.38    4.03
  -2  -4   6    0.19    2.92
  -2   4   6    0.71    2.20
  -2  -4   7  145.53   14.41
  -2   4   7  156.38   12.10
   2  -4   7  141.38   16.08
   2  -4   7  111.10   10.12
  -2   4   8  106.69    9.48
  -2  -4   8   84.05   13.33
   2  -4   8   65.44    6.42
   2  -4   8  103.72   13.92
  -2  -4   8  105.01   11.63
  -2  -4   9  427.59   30.17
  -2   4   9  466.04   19.87
   2  -4   9  477.45   30.09
  -2  -4   9  461.35   24.33
  -2  -4  10  222.01   21.64
   2  -4  10  249.90   21.78
  -2  -4  10  271.16   17.55
   2  -4  11   78.37   10.68
  -2  -4  11  103.37   14.95
  -2  -4  11  105.45   10.66
   2  -4  11  105.98   14.38
   2  -4  12   10.18    6.30
   2  -4  12    8.33    4.02
  -2  -4  12    8.31    5.79
  -2  -4  12   11.04    3.26
  -2  -4  13  243.79   23.20
   2  -4  13  168.15   15.39
   2  -4  14    5.70    3.71
  -2  -4  14    5.09    6.58
  -2  -4  15  268.86   20.32
  -2  -4  15  316.27   27.28
   2   4  16  271.21   23.18
   2  -4  16  223.50   18.55
  -2   4  17  341.80   33.66
   2  -4  17  277.05   21.23
  -2  -4  17  328.55   29.52
  -2  -4  18   51.52   12.55
  -2   4  18   33.71   10.93
  -2   4  19  201.04   26.94
  -2  -4  19  178.33   23.19
  -2  -4  20    0.59    5.61
  -2   4  20   13.32    8.84
  -2   4  21  270.02   32.73
  -2  -4  21  326.39   32.67
  -2   4  22  200.24   28.93
   2  -5 -20    9.36    8.70
  -2  -5 -20   10.44    6.30
  -2   5 -20   12.76    9.41
   2  -5 -19   82.68   19.56
  -2  -5 -19   53.66   11.64
  -2   5 -19   70.77   18.12
   2  -5 -18  926.26   61.47
  -2  -5 -18  704.84   40.11
  -2  -5 -18  774.93   51.47
  -2   5 -18  777.62   54.83
   2   5 -18  900.15   59.47
   2   5 -17   36.84   12.31
   2  -5 -17   34.15   12.01
  -2   5 -17   30.40   10.96
  -2  -5 -17   28.82   10.01
  -2  -5 -17   13.81    6.95
   2   5 -16   56.85   14.64
   2  -5 -16   53.47   15.46
  -2  -5 -16   47.65   12.80
  -2  -5 -16   62.02   10.83
  -2   5 -16   40.89   12.00
   2   5 -15   65.35   16.21
   2  -5 -15  111.66   20.79
  -2  -5 -15   60.54   13.89
  -2  -5 -15   57.78   10.88
  -2   5 -15   76.93   15.47
   2  -5 -14  828.37   54.44
  -2  -5 -14  695.19   46.49
  -2   5 -14  628.19   42.38
   2   5 -14  728.72   50.15
  -2  -5 -14  701.42   38.76
   2   5 -13   -7.99    7.44
   2  -5 -13   15.35    6.95
  -2  -5 -13    2.37    4.75
  -2  -5 -13    6.45    3.84
  -2   5 -13    4.22    5.93
   2   5 -12  130.66   20.36
   2  -5 -12  162.22   23.04
  -2  -5 -12  111.33   18.06
  -2   5 -12  120.81   16.34
  -2  -5 -12  134.42   16.32
   2   5 -11   34.54   11.11
   2  -5 -11   24.01   11.44
  -2  -5 -11   34.25    8.40
  -2  -5 -11   31.21   10.70
  -2   5 -11   28.38    8.64
   2  -5 -10 1044.16   58.33
  -2  -5 -10  997.24   53.46
  -2  -5 -10  950.13   45.64
  -2   5 -10  888.95   43.18
   2  -5  -9  111.92   18.61
  -2  -5  -9  109.77   17.17
  -2   5  -9   86.33   12.16
  -2  -5  -9  105.18   14.42
   2  -5  -8   31.87   10.97
  -2  -5  -8   31.03    9.73
  -2   5  -8   29.37    7.62
   2  -5  -7   64.69   14.30
  -2  -5  -7   34.09   10.76
  -2   5  -7   52.18    9.24
  -2  -5  -6 1953.63   75.50
   2  -5  -6 2028.75   80.47
  -2  -5  -5  199.25   23.00
   2  -5  -5  169.97   22.18
   2  -5  -4   79.25   15.16
  -2  -5  -4  101.54   16.10
   2  -5  -3   51.78   11.94
  -2  -5  -3   69.30   13.30
  -2   5  -3   67.99    7.91
  -2   5  -2  933.40   29.83
   2  -5  -2 1080.64   54.88
   2  -5  -1   28.44    9.45
  -2  -5  -1   32.41    9.34
  -2  -5   0  249.54   24.06
   2  -5   0  224.21   24.11
   2  -5   1   32.76    9.91
  -2  -5   1   33.22   10.39
  -2  -5   2 1227.47   55.12
   2  -5   2 1191.12   56.08
  -2  -5   3  104.45   15.47
   2  -5   3  109.22   16.26
   2  -5   4   57.43   11.92
  -2  -5   4   43.92   10.44
  -2  -5   5  211.77   21.09
   2  -5   5  138.31   18.16
  -2  -5   6 1914.22   67.30
   2  -5   6 1937.72   71.82
   2  -5   7   42.50   10.66
  -2  -5   7   56.81   10.20
   2  -5   8   39.37    9.43
  -2  -5   8   45.70    9.40
   2  -5   9   94.76   15.29
  -2  -5   9   94.80   15.74
  -2  -5   9  116.13   14.07
   2  -5  10 1026.39   51.21
  -2  -5  10 1159.40   45.44
   2  -5  11   15.78    6.99
  -2  -5  11   40.82   11.46
   2  -5  11   12.95    5.66
  -2  -5  11   38.09    7.69
   2  -5  12  106.25   16.09
  -2  -5  12  107.90   17.73
   2  -5  12   88.54   13.10
   2  -5  13    9.94    6.01
   2  -5  13    1.22    3.93
  -2  -5  13   16.81    8.44
   2  -5  14  533.84   31.86
  -2  -5  14  698.90   44.91
   2  -5  15   43.78    9.46
  -2  -5  15   70.22   15.14
  -2  -5  16   27.72   10.00
  -2  -5  17   34.71   12.36
  -2   5  18  792.20   58.56
  -2  -5  18  909.59   55.24
  -2  -5  19   47.53   11.89
  -2   5  19   50.84   12.68
   2   6 -16   45.85   13.16
   2  -6 -16   21.19   11.97
   2  -6 -15   46.58   15.24
   2  -6 -14  212.90   29.03
  -2  -6 -14  171.54   25.26
   2  -6 -13  204.25   28.61
  -2  -6 -13  201.05   27.30
   2  -6 -12  194.83   27.22
  -2  -6 -12  141.28   22.22
  -2  -6 -11  127.39   20.91
   2  -6 -11  148.52   23.96
   2  -6 -10  291.51   32.32
  -2  -6 -10  205.51   26.47
   2  -6  -9  149.57   23.29
  -2  -6  -9  151.03   22.33
   2  -6  -8   18.44    9.22
  -2  -6  -8   26.84    9.83
   2  -6  -7   11.15    7.85
  -2  -6  -7   -4.56    6.35
   2  -6  -6   20.82    9.95
  -2  -6  -6    1.89    5.12
   2  -6  -5   44.69   13.00
  -2  -6  -5   54.55   13.25
   2  -6  -4   54.74   13.55
  -2  -6  -4   64.29   14.79
   2  -6  -3   42.67   12.38
  -2  -6  -3   40.40   11.31
  -2  -6  -2  138.23   20.96
   2  -6  -2  100.87   19.55
  -2  -6  -1  253.31   26.93
   2  -6  -1  197.22   24.87
  -2  -6   0  400.10   33.67
   2  -6   0  366.24   33.64
  -2  -6   1  213.37   24.59
   2  -6   1  214.83   25.28
   2  -6   2  108.81   18.08
  -2  -6   2  128.47   19.23
   2  -6   3   38.01   10.77
  -2  -6   3   64.29   13.67
   2  -6   4   41.21   11.10
  -2  -6   4   50.25   11.71
   2  -6   5   51.38   12.50
  -2  -6   5   57.70   11.88
   2  -6   6   -4.81    4.16
  -2  -6   6   12.24    5.88
   2  -6   7   -5.73    5.47
  -2  -6   7   -6.54    5.08
   2  -6   8   14.10    6.35
  -2  -6   8   18.25    6.61
  -2  -6   9  103.40   18.15
  -2  -6   9  117.22   15.89
   2  -6   9  132.78   20.36
  -2  -6  10  170.21   23.46
   2  -6  10  256.32   27.61
   2  -6  11   85.29   17.88
  -2  -6  11   90.80   17.74
   2  -6  11   83.23   14.24
  -2  -6  12  148.66   22.80
   2  -6  12  126.39   17.97
  -2  -6  13  168.49   23.76
   2  -6  13  141.78   18.14
   2  -6  13  203.72   25.30
   2  -6  14  144.61   21.15
  -2  -6  14  138.27   22.19
  -2  -7  -7  419.83   39.79
   2  -7  -6    6.35    7.48
  -2  -7  -6   -0.04    6.54
  -2  -7  -5  345.96   35.77
   2  -7  -5  332.26   36.01
   2  -7  -4  144.72   24.32
  -2  -7  -4  147.03   22.93
  -2  -7  -3  525.74   43.94
   2  -7  -3  500.88   44.02
  -2  -7  -2   46.51   13.47
   2  -7  -2   27.80   11.00
  -2  -7  -1  275.58   31.24
   2  -7  -1  262.83   30.79
   2  -7   0   36.96   11.83
  -2  -7   0   51.02   13.95
  -2  -7   1  330.84   32.60
   2  -7   1  334.36   34.24
   2  -7   2   31.88   12.17
  -2  -7   2   39.66   11.76
  -2  -7   3  421.21   36.29
   2  -7   3  403.07   37.20
   2  -7   4  144.09   22.06
  -2  -7   4  154.94   21.98
   2  -7   5  378.90   36.08
  -2  -7   5  394.48   33.73
   2  -7   6  -20.63    9.19
  -2  -7   6   -0.90    4.68
   2  -7   7  346.22   34.21
  -2  -7   7  299.78   28.89
   2  -7   8   85.21   18.56
   2  -7   9  415.96   38.89
   2  -7  10   59.63   15.94
   2  -7  11  193.97   26.50
   3   0 -25   56.81   18.94
  -3   0 -25   47.96   12.10
   3   0 -24   -0.18    6.49
  -3   0 -24    7.72    6.78
   3   0 -23   44.21   15.92
  -3   0 -23   47.12   11.39
   3   0 -22   12.50   10.00
  -3   0 -22    5.41    5.61
  -3   0 -21  419.79   31.43
   3   0 -21  381.70   42.62
   3   0 -20    8.29    9.64
  -3   0 -20    4.96    5.81
   3   0 -19  601.27   50.73
  -3   0 -19  631.57   36.41
   3   0 -18   -6.77    6.95
  -3   0 -18    0.14    4.74
  -3   0 -17  812.34   40.38
   3   0 -17  890.15   28.56
   3   0 -16    3.87    7.56
  -3   0 -16   -1.63    3.46
   3   0 -16    3.94    2.78
   3   0 -15  379.98   17.82
  -3   0 -15  393.41   26.25
   3   0 -15  395.97   35.88
   3   0 -15  428.54   17.69
  -3   0 -15  414.08   18.45
   3   0 -14    1.29    5.06
  -3   0 -14    2.97    2.39
   3   0 -14    3.87    1.77
  -3   0 -14    0.51    2.96
   3   0 -13   44.99    4.87
   3   0 -13   79.92   14.38
  -3   0 -13   71.16   10.37
  -3   0 -13   67.88    6.19
  -3   0 -12    0.70    1.58
   3   0 -12   -0.64    3.56
   3   0 -12    1.23    1.40
  -3   0 -12    4.88    2.90
   3   0 -11   64.94   12.37
   3   0 -11   50.23    4.72
  -3   0 -11   63.73    9.39
  -3   0 -11   44.16    4.24
  -3   0 -10    0.20    0.87
   3   0 -10   -3.79    4.08
   3   0 -10   -0.38    1.29
  -3   0 -10   -0.14    2.25
  -3   0  -9  668.06   28.79
   3   0  -9  643.52   35.19
   3   0  -9  631.87   17.33
   3   0  -8    1.00    1.13
  -3   0  -8    5.53    3.28
  -3   0  -7 1001.39   35.46
   3   0  -7 1017.88   25.52
   3   0  -7 1116.88   34.15
   3   0  -6    0.73    1.62
   3   0  -6    0.57    1.25
  -3   0  -6    1.75    2.26
  -3   0  -5 1727.67   43.95
   3   0  -5 1762.62   34.50
   3   0  -5 1890.56   41.58
  -3   0  -4   -0.17    0.75
   3   0  -4   -0.02    1.75
  -3   0  -4    0.65    0.81
   3   0  -4    1.52    1.28
  -3   0  -4   -0.14    2.08
   3   0  -3  897.67   25.93
  -3   0  -3  839.55   27.82
   3   0  -3  819.59   23.82
  -3   0  -3  765.27   20.50
  -3   0  -3  754.70   17.98
  -3   0  -2    0.81    0.97
   3   0  -2    0.91    1.65
  -3   0  -2    0.04    0.89
  -3   0  -2    0.51    1.59
   3   0  -2    2.08    1.65
   3   0  -1  249.31   11.52
  -3   0  -1  241.40   12.93
   3   0  -1  247.80   12.85
  -3   0  -1  251.08   12.07
  -3   0  -1  245.70   13.52
  -3   0  -1  231.10    9.68
  -3   0   0    0.38    1.03
  -3   0   0   -0.39    1.49
  -3   0   0    1.26    1.40
   3   0   0    0.44    1.42
  -3   0   0   -0.99    1.51
   3   0   1  260.72   14.37
  -3   0   1  243.28   12.16
  -3   0   1  243.61   13.63
  -3   0   1  254.59   11.29
  -3   0   1  238.69   12.73
  -3   0   2   -0.04    1.15
  -3   0   2   -0.10    1.49
  -3   0   2    1.56    1.36
  -3   0   2    0.11    1.46
   3   0   2   -0.43    1.49
  -3   0   3  872.86   25.22
  -3   0   3  948.67   31.92
   3   0   3  909.32   32.19
  -3   0   3  807.01   36.03
  -3   0   3  912.51   26.82
  -3   0   3  884.92   26.55
  -3   0   4    1.37    1.79
  -3   0   4    0.92    2.75
  -3   0   4    3.08    1.77
  -3   0   4    0.13    2.23
   3   0   4    0.81    1.74
  -3   0   5 1948.51   46.25
  -3   0   5 2067.34   56.44
  -3   0   5 2033.77   63.39
   3   0   5 2158.04   58.09
  -3   0   5 2055.37   46.55
  -3   0   6    1.71    2.92
  -3   0   6    2.30    1.40
  -3   0   6   -0.21    2.11
  -3   0   7 1084.15   30.07
  -3   0   7 1205.23   42.61
  -3   0   7 1141.18   46.32
  -3   0   8    0.53    2.67
  -3   0   8    0.23    1.56
  -3   0   8    1.66    4.14
  -3   0   8    0.88    2.52
  -3   0   9  730.51   22.48
  -3   0   9  772.32   34.66
  -3   0   9  737.21   34.74
  -3   0   9  777.54   38.49
  -3   0  10    0.56    2.88
  -3   0  10    2.35    2.99
  -3   0  11   56.38    9.94
  -3   0  12    4.19    4.04
  -3   0  13   53.26   10.33
  -3   0  14    2.55    3.71
  -3   0  15  473.05   33.36
  -3   0  16   -1.75    3.89
  -3   0  17  997.91   54.11
  -3   0  18    1.48    5.86
  -3   0  19  812.87   52.16
  -3   0  20   -0.14    6.86
  -3   0  21  590.63   47.24
   3  -1 -25   55.58   17.62
  -3  -1 -25   24.64    7.88
   3  -1 -24  317.92   40.59
  -3  -1 -24  260.61   25.39
  -3   1 -24  266.26   27.14
   3   1 -24  355.63   44.10
   3  -1 -23   36.48   13.87
  -3  -1 -23   70.69   13.70
  -3   1 -23   54.93   11.85
   3  -1 -22  125.95   24.31
   3   1 -22  167.55   29.57
  -3  -1 -22  151.12   18.76
  -3   1 -22  126.28   18.08
   3  -1 -21  137.11   24.75
   3   1 -21  184.60   29.29
  -3  -1 -21  141.47   17.27
  -3   1 -21  133.91   18.17
   3  -1 -20   84.35   18.38
   3   1 -20   90.62   20.18
  -3  -1 -20   66.40   11.53
  -3   1 -20   67.41   12.64
   3  -1 -19   27.10   10.89
   3   1 -19   17.67   10.07
  -3  -1 -19   11.78    5.97
  -3   1 -19   13.65    4.91
   3   1 -18  141.63   23.61
  -3   1 -18  152.94   17.96
   3  -1 -18  206.84   27.17
  -3  -1 -18  166.34   17.33
   3  -1 -17   61.88   14.21
   3   1 -17   65.45   16.81
  -3  -1 -17   31.61    7.93
  -3   1 -17   45.39   10.11
  -3  -1 -16  206.18   18.30
  -3   1 -16  217.34   21.16
   3   1 -16  218.83   27.84
   3  -1 -16  237.33   26.93
   3  -1 -16  209.59   10.68
   3   1 -15   84.34   16.31
   3  -1 -15   89.31   16.02
  -3   1 -15   82.11   12.95
   3   1 -15   69.18   10.29
  -3   1 -15   55.11    7.13
  -3  -1 -15   77.01   11.11
   3  -1 -15   79.46    6.47
  -3   1 -14  469.72   21.90
   3   1 -14  561.82   29.62
  -3  -1 -14  544.69   28.74
   3   1 -14  507.81   40.66
   3  -1 -14  585.79   38.67
  -3   1 -14  622.56   34.21
   3  -1 -14  556.39   19.28
  -3   1 -13   98.57    9.31
  -3  -1 -13  186.42   15.88
  -3   1 -13  171.34   17.56
   3   1 -13  176.20   23.00
   3   1 -13  172.60   15.32
   3  -1 -13  198.31   20.97
   3  -1 -13  173.55   10.11
  -3  -1 -12  764.34   33.14
  -3   1 -12  874.15   39.57
   3   1 -12  786.54   48.64
   3  -1 -12  896.43   43.66
   3  -1 -12  764.11   23.73
   3   1 -11  225.34   15.96
  -3  -1 -11  208.87   16.17
  -3   1 -11  222.71   19.02
   3   1 -11  222.43   23.99
   3  -1 -11  220.24   20.20
   3  -1 -11  200.13   11.23
  -3  -1 -10  378.81   21.92
  -3   1 -10  454.53   26.41
   3   1 -10  438.09   32.99
   3   1 -10  442.03   21.90
   3  -1 -10  430.82   26.83
   3  -1 -10  397.26   16.52
   3   1  -9  236.98   14.97
  -3  -1  -9  202.07   15.28
  -3   1  -9  252.13   19.11
   3   1  -9  227.47   22.95
   3  -1  -9  207.95   11.61
   3   1  -8  263.57   15.35
  -3  -1  -8  246.43   16.35
  -3   1  -8  282.83   19.66
   3  -1  -8  244.30   12.74
  -3  -1  -7   64.17    8.30
   3   1  -7   68.77    9.42
  -3   1  -7   50.92    8.13
   3   1  -7   63.28    7.28
   3  -1  -7   63.98    8.22
   3  -1  -7   61.40    6.24
   3  -1  -6  233.36   14.90
   3   1  -6  195.56   12.56
  -3   1  -6  213.94   15.78
   3   1  -6  228.36   16.41
  -3  -1  -6  209.97   14.30
   3  -1  -6  200.65   11.75
   3   1  -5   58.91    6.60
  -3   1  -5   65.98    8.65
  -3  -1  -5   51.92    6.93
   3  -1  -5   67.74    7.30
   3  -1  -5   61.98    6.54
  -3   1  -4  397.90   20.40
  -3  -1  -4  391.83   19.08
   3   1  -4  393.81   18.17
   3  -1  -4  445.45   18.66
   3  -1  -4  349.42   16.60
  -3   1  -3  421.27   17.53
   3   1  -3  415.78   18.90
  -3  -1  -3  416.39   19.46
  -3   1  -3  442.16   20.38
   3   1  -3  435.93   20.61
   3  -1  -3  440.16   17.82
   3  -1  -3  438.03   18.45
  -3   1  -2  992.51   30.29
  -3  -1  -2 1028.93   32.67
   3   1  -2 1043.98   32.27
  -3   1  -2 1015.30   32.21
   3   1  -2 1023.97   32.76
   3  -1  -2 1048.00   28.53
   3  -1  -2 1020.99   31.00
   3   1  -1  272.61   14.60
  -3   1  -1  271.38   14.47
   3   1  -1  280.36   15.28
  -3   1  -1  261.80   13.78
  -3  -1  -1  262.51   14.65
   3  -1  -1  250.55   14.26
   3  -1  -1  266.55   11.68
  -3  -1   0 1203.86   32.45
  -3   1   0 1231.79   36.10
  -3  -1   0 1228.89   35.64
   3   1   0 1297.60   37.38
  -3   1   0 1212.39   33.10
   3   1   0 1223.51   33.79
   3  -1   0 1145.61   28.03
  -3  -1   1  274.11   13.66
  -3  -1   1  305.35   15.67
  -3   1   1  292.94   16.19
   3   1   1  294.33   16.26
  -3   1   1  286.01   13.01
   3   1   1  251.54   12.69
   3  -1   1  277.67   10.00
  -3   1   1  301.50   16.03
  -3  -1   2 1024.75   31.70
  -3   1   2  929.83   25.43
  -3   1   2 1050.39   34.16
   3   1   2 1051.85   34.57
   3   1   2  938.33   25.70
   3  -1   2  917.91   20.86
  -3   1   2 1078.07   33.39
  -3  -1   2 1010.31   29.70
  -3  -1   3  480.18   21.06
  -3   1   3  457.07   14.97
  -3  -1   3  478.99   19.31
  -3  -1   3  461.79   27.90
  -3   1   3  518.67   22.35
  -3  -1   4  342.50   17.81
  -3   1   4  325.23   11.27
  -3  -1   4  354.90   24.58
  -3   1   4  332.38   20.43
  -3  -1   4  336.99   16.38
  -3   1   4  367.31   18.53
  -3   1   5   95.63    9.44
  -3   1   5   86.88   10.24
  -3  -1   5   94.76   12.72
  -3   1   5   98.88   11.04
  -3   1   5   88.43    4.90
  -3  -1   5   94.72    8.82
  -3   1   6  225.98   15.07
  -3  -1   6  221.63   19.91
  -3   1   6  231.57   17.45
  -3   1   6  226.85   17.14
  -3  -1   6  210.61    9.24
  -3  -1   6  235.15   14.55
  -3   1   7   56.54    7.55
  -3   1   7   78.48   10.62
  -3  -1   7   65.31    7.92
  -3  -1   7   67.93    4.62
  -3   1   7   47.56    7.93
  -3   1   8  272.49   20.04
  -3   1   8  277.62   17.55
  -3  -1   8  295.27   19.16
  -3   1   8  305.99   21.46
  -3  -1   8  281.48   17.16
  -3   1   8  300.44   21.28
  -3  -1   8  249.69    8.39
  -3   1   9  212.56   15.35
  -3  -1   9  215.63   16.88
  -3   1   9  231.10   18.40
  -3   1   9  233.58   19.54
  -3  -1   9  231.89   16.11
  -3   1   9  223.63   19.35
  -3   1  10  520.49   30.89
  -3   1  10  480.81   23.69
  -3  -1  10  529.42   28.35
  -3   1  10  536.96   30.87
  -3  -1  10  492.32   24.95
  -3   1  11  221.55   20.85
  -3   1  11  219.34   15.19
  -3   1  11  223.06   20.31
  -3  -1  11  230.89   18.65
  -3  -1  11  209.43   16.46
  -3   1  12 1022.90   48.18
  -3  -1  12 1081.74   44.68
  -3   1  12 1050.16   47.57
  -3   1  13  213.79   21.80
  -3   1  13  230.56   21.82
  -3  -1  13  226.55   19.91
  -3   1  14  689.76   39.87
  -3   1  14  694.05   41.99
  -3  -1  14  626.32   35.17
  -3   1  15  160.82   19.59
  -3  -1  15  144.76   17.03
  -3   1  15  110.95   17.52
  -3   1  16  263.44   27.51
  -3   1  16  294.61   27.18
  -3  -1  16  268.97   24.18
  -3   1  17   52.77   11.40
  -3   1  17   43.56   11.41
  -3  -1  17   65.23   12.80
  -3  -1  18  191.17   22.59
  -3   1  18  135.83   21.09
  -3  -1  19   22.29    8.25
  -3  -1  20  101.13   17.73
  -3  -1  21  150.19   22.45
  -3  -1  22  210.68   26.57
  -3  -2 -24  118.73   17.07
   3   2 -23  247.65   34.83
  -3  -2 -23  155.90   18.89
  -3   2 -23  219.78   25.38
   3   2 -22   83.63   21.34
   3  -2 -22   86.97   17.38
  -3  -2 -22   77.56   12.93
  -3   2 -22   82.76   16.01
   3   2 -21  179.21   28.42
   3  -2 -21  188.73   25.21
  -3  -2 -21  149.69   17.64
  -3   2 -21  145.95   20.43
   3   2 -20   46.85   13.39
   3  -2 -20   51.22   13.63
  -3  -2 -20   35.21    8.78
  -3   2 -20   46.65   11.77
   3   2 -19   31.15   11.94
   3  -2 -19   33.42   11.35
  -3  -2 -19   32.17    7.87
  -3   2 -19   29.41    9.85
   3   2 -18   85.62   18.21
   3  -2 -18   42.55   10.92
   3  -2 -18   61.77    8.68
  -3  -2 -18   59.39   10.17
  -3   2 -18   61.73   12.76
   3   2 -17   66.00   16.47
   3  -2 -17   53.71   11.65
   3  -2 -17   40.52    7.46
  -3  -2 -17   43.68    8.78
  -3   2 -17   51.83   11.57
  -3  -2 -16  168.51   16.43
  -3   2 -16  173.12   20.49
   3   2 -16  211.89   27.73
   3  -2 -16  182.15   20.30
   3  -2 -16  151.22   13.76
  -3   2 -15  175.16   20.35
   3   2 -15  191.22   26.08
   3  -2 -15  181.91   19.44
  -3  -2 -15  161.93   15.97
   3  -2 -15  147.69   13.76
  -3  -2 -14  420.98   25.14
  -3   2 -14  451.87   32.09
   3   2 -14  465.96   39.90
   3  -2 -14  450.08   29.38
   3  -2 -14  390.25   22.58
  -3  -2 -13  314.59   21.20
   3  -2 -13  338.39   24.03
  -3   2 -13  321.49   26.53
   3   2 -13  355.78   33.81
   3  -2 -13  290.26   19.36
   3   2 -12  423.91   36.34
  -3  -2 -12  389.79   23.28
  -3   2 -12  436.48   30.43
   3  -2 -12  404.88   22.82
  -3  -2 -11  633.09   29.60
  -3   2 -11  624.59   35.88
   3   2 -11  642.61   44.08
   3  -2 -11  619.87   28.56
  -3  -2 -10  417.39   23.24
  -3   2 -10  440.14   28.72
   3   2 -10  395.30   32.86
   3  -2 -10  435.15   23.27
  -3  -2  -9  314.81   19.99
   3   2  -9  313.30   22.85
  -3   2  -9  332.68   24.60
   3   2  -9  296.41   27.57
   3  -2  -9  347.45   20.65
   3   2  -8  159.13   15.34
  -3  -2  -8  162.21   13.79
  -3   2  -8  156.38   16.57
   3  -2  -8  172.13   14.08
  -3   2  -8  210.98   12.21
   3   2  -7  179.11   16.06
  -3  -2  -7  153.60   13.49
  -3   2  -7  174.50   16.53
   3  -2  -7  183.22   14.24
  -3   2  -7  216.38   12.62
   3   2  -6  139.34   13.40
  -3  -2  -6  106.19   11.06
  -3   2  -6  119.56   13.46
   3  -2  -6  131.83   11.91
  -3   2  -6  143.12   10.50
  -3  -2  -5  114.63   11.09
   3   2  -5  106.59   11.58
  -3   2  -5  117.94   12.92
  -3   2  -5  133.62   10.41
   3  -2  -5  113.81   11.05
   3   2  -4  305.27   19.16
  -3  -2  -4  262.15   17.21
  -3   2  -4  278.92   19.12
   3  -2  -4  283.32   17.57
  -3   2  -4  313.94   16.66
   3  -2  -3  439.09   22.69
  -3  -2  -3  389.63   20.86
   3   2  -3  392.81   21.75
  -3   2  -3  371.86   21.72
   3  -2  -3  405.02   21.25
  -3   2  -3  422.35   20.32
   3  -2  -2  697.52   28.69
  -3  -2  -2  650.33   27.55
   3   2  -2  669.01   28.62
  -3   2  -2  644.68   27.94
   3  -2  -2  653.58   27.76
  -3   2  -2  637.73   26.36
   3  -2  -1  497.29   23.34
  -3  -2  -1  487.51   23.25
   3   2  -1  486.52   24.09
  -3   2  -1  479.76   22.66
   3  -2  -1  494.16   23.74
  -3   2  -1  477.81   22.98
   3   2   0  614.63   27.51
  -3  -2   0  590.91   26.25
  -3   2   0  568.58   23.76
   3  -2   0  588.39   26.83
  -3   2   0  628.38   28.13
  -3   2   0  576.49   26.11
  -3   2   1  515.38   25.59
  -3   2   1  496.36   20.93
   3   2   1  561.06   26.05
  -3  -2   1  525.35   25.19
   3  -2   1  554.08   25.60
  -3   2   1  597.44   27.59
  -3   2   2  563.54   27.88
  -3   2   2  543.71   26.87
  -3  -2   2  500.47   30.29
  -3  -2   2  525.54   25.66
  -3   2   2  523.18   20.08
   3  -2   2  567.09   26.32
  -3   2   3  508.88   26.67
  -3   2   3  508.45   26.40
  -3  -2   3  497.44   23.61
  -3  -2   3  511.59   25.24
  -3   2   3  463.51   21.52
   3  -2   3  530.02   25.26
  -3   2   3  464.64   17.15
  -3  -2   4  252.45   16.49
  -3   2   4  224.03   17.82
  -3   2   4  246.14   10.45
  -3   2   4  226.46   14.44
   3  -2   4  260.72   17.62
  -3  -2   5  157.37   13.11
  -3   2   5  141.64   14.79
  -3   2   5  156.35   11.89
  -3   2   5  149.65    6.53
   3  -2   5  164.74   14.44
  -3  -2   6  105.44    8.85
  -3   2   6  111.63   13.70
  -3   2   6  120.28   10.62
  -3  -2   6  107.40   10.70
   3  -2   6   72.22    4.16
  -3  -2   7  155.61   10.10
  -3   2   7  154.91   16.74
  -3   2   7  165.19   12.37
  -3  -2   7  159.43   13.29
  -3  -2   8  196.71   10.40
  -3   2   8  197.23   19.04
  -3  -2   8  216.33   16.27
  -3   2   9  298.56   24.92
  -3  -2   9  345.66   20.88
  -3  -2   9  272.94    8.72
  -3   2  10  500.16   33.75
  -3   2  10  535.29   32.89
  -3  -2  10  543.48   27.81
  -3  -2  11  645.42   32.15
  -3   2  11  571.60   37.59
  -3   2  11  631.75   36.81
  -3  -2  11  598.40   30.17
  -3  -2  12  533.76   29.86
  -3   2  12  477.44   35.18
  -3   2  12  515.70   33.92
  -3  -2  12  521.58   28.95
  -3  -2  13  438.81   27.91
  -3   2  13  354.99   31.11
  -3   2  13  396.92   30.34
  -3  -2  13  420.13   26.60
  -3  -2  14  445.25   28.72
  -3   2  14  476.69   34.22
  -3  -2  14  459.71   28.44
  -3  -2  15  250.77   22.09
  -3   2  15  252.17   25.35
  -3  -2  15  261.89   22.04
  -3  -2  16  212.79   20.99
  -3  -2  16  186.61   19.16
  -3   2  16  199.52   23.19
  -3  -2  17   64.40   12.32
  -3   2  17   77.24   15.15
  -3  -2  18   65.45   12.06
  -3   2  18   63.79   14.90
  -3   2  19   36.99   12.16
  -3  -2  19   53.94   12.18
  -3   2  20   82.19   16.88
  -3  -2  20   77.32   15.27
  -3   2  21  175.08   25.28
  -3  -3 -23   14.47    7.15
  -3  -3 -22   22.55    7.21
  -3  -3 -21  221.67   21.41
  -3   3 -21  207.23   25.89
   3   3 -20   63.55   16.95
  -3  -3 -20   47.98   10.14
  -3   3 -20   38.79   12.17
  -3  -3 -19  446.92   29.79
  -3   3 -19  476.57   38.07
   3   3 -18  104.04   22.00
   3  -3 -18   62.88   11.14
  -3  -3 -18   91.52   13.28
  -3   3 -18   78.95   16.02
  -3  -3 -17  417.86   27.24
   3   3 -17  488.51   43.21
  -3   3 -17  403.81   34.98
   3  -3 -17  381.44   28.98
   3   3 -16   35.95   13.02
   3  -3 -16   19.47    6.30
  -3  -3 -16   25.89    7.46
  -3   3 -16   24.25    8.67
  -3  -3 -15  161.58   16.36
  -3   3 -15  201.51   23.05
   3   3 -15  222.18   28.30
   3  -3 -15  146.20   17.70
   3   3 -14   35.74   11.90
   3  -3 -14   19.58    6.25
  -3  -3 -14   22.28    6.65
  -3   3 -14   23.77    8.48
   3   3 -13   26.53   10.68
   3  -3 -13   12.01    4.96
  -3  -3 -13   12.24    4.72
  -3   3 -13   18.41    6.64
   3  -3 -12    1.18    3.94
  -3  -3 -12   14.48    4.92
  -3   3 -12    9.49    5.95
   3   3 -11    6.97    4.74
   3  -3 -11   17.64    5.87
  -3  -3 -11   28.47    6.78
  -3   3 -11   14.28    6.14
   3   3 -10   23.32    8.94
   3  -3 -10   28.60    8.16
  -3  -3 -10   28.42    7.16
  -3   3 -10   34.04    9.28
  -3  -3  -9  416.67   24.70
  -3   3  -9  431.76   30.49
   3  -3  -9  467.71   30.05
  -3  -3  -8  153.67   14.49
  -3   3  -8  124.65   15.94
   3  -3  -8  144.37   16.35
  -3   3  -7  870.91   42.55
  -3  -3  -7  914.99   37.06
   3  -3  -7  978.19   43.60
  -3  -3  -6  158.05   14.78
   3  -3  -6  161.29   16.88
  -3  -3  -5 1096.66   41.29
   3  -3  -5 1160.88   46.99
  -3  -3  -4   88.86   11.58
   3  -3  -4  113.52   13.85
  -3  -3  -3  460.75   25.75
   3  -3  -3  487.95   28.50
   3  -3  -2   44.86    8.51
  -3  -3  -2   39.72    7.73
   3  -3  -1   45.50    8.78
  -3  -3  -1   37.59    7.97
   3  -3  -1   19.63    5.67
   3  -3   0    4.50    3.63
  -3   3   0   -2.96    4.83
  -3  -3   0    1.61    2.98
   3  -3   0   -0.48    2.45
   3  -3   1   44.19    8.71
  -3  -3   1   50.23    8.50
  -3  -3   1   58.79    9.33
   3  -3   1   46.16    7.59
  -3   3   1   52.41   10.20
  -3   3   2   48.21   10.21
   3  -3   2   51.37    9.08
  -3  -3   2   51.14    8.59
   3  -3   2   55.92    8.17
  -3  -3   3  408.34   23.49
  -3   3   3  386.13   27.60
   3  -3   3  433.98   25.80
  -3  -3   4  143.77   13.52
  -3   3   4   90.84    6.19
  -3   3   4  109.93   15.13
   3  -3   4  141.15   15.04
  -3  -3   5 1070.95   43.65
  -3  -3   5 1094.44   39.88
   3  -3   5 1126.13   44.64
  -3  -3   6  201.72   17.88
  -3  -3   6  187.65   15.03
  -3   3   6  218.29   10.94
  -3   3   6  194.20   10.31
   3  -3   6  206.40   18.64
  -3  -3   7 1051.13   43.36
  -3  -3   7 1006.84   35.86
  -3   3   7  993.20   22.86
  -3   3   7  991.55   23.42
   3  -3   7 1047.07   43.34
  -3  -3   8  141.25   15.08
   3  -3   8   88.37    7.58
  -3  -3   8  116.12   10.49
   3  -3   8  133.09   14.78
  -3  -3   9  484.99   19.82
  -3  -3   9  482.30   28.05
   3  -3  10   20.93    3.70
  -3  -3  10   30.26    7.82
  -3  -3  10   26.49    3.82
   3  -3  11   16.65    3.14
  -3  -3  11   28.17    7.46
  -3  -3  11   21.46    2.65
   3  -3  12    2.12    1.50
  -3  -3  12   16.02    5.90
  -3  -3  13   16.87    7.03
   3   3  13   13.43    3.17
  -3   3  13   19.05    7.68
  -3  -3  14   25.52    7.47
  -3  -3  14   16.33    6.29
  -3   3  14   27.26    8.74
  -3   3  15  223.75   25.52
  -3  -3  15  227.42   21.28
  -3  -3  15  190.55   20.51
  -3  -3  16   35.76    9.83
  -3   3  16   34.29   10.42
  -3  -3  16   30.39    8.33
  -3   3  17  618.40   44.60
  -3  -3  17  534.93   36.12
  -3  -3  17  583.09   35.82
  -3  -3  18  108.65   16.71
  -3  -3  18  120.55   16.36
  -3   3  18  107.13   18.81
  -3  -3  19  622.18   41.32
  -3   3  19  589.36   45.88
  -3   3  20   60.78   14.71
  -3   3  21  352.07   37.07
  -3   3  22   46.61   14.38
  -3  -4 -22  154.48   18.99
  -3  -4 -21   40.85   10.73
  -3  -4 -20  101.24   18.88
  -3  -4 -20  109.93   15.76
   3   4 -19  -24.26   11.09
  -3  -4 -19   -7.26    7.50
  -3  -4 -19    5.97    5.48
  -3   4 -19  -12.47    7.89
   3   4 -18  162.34   25.80
   3  -4 -18  124.94   19.87
  -3  -4 -18  143.77   17.42
  -3  -4 -18  139.68   21.02
  -3   4 -18   93.60   18.70
   3   4 -17   64.55   17.21
   3  -4 -17   17.71    8.34
  -3  -4 -17   46.52   12.47
  -3  -4 -17   39.89    9.42
  -3   4 -17   45.32   12.45
   3   4 -16  170.48   25.26
   3  -4 -16   89.55   15.72
  -3  -4 -16  130.10   16.25
  -3  -4 -16  132.15   19.67
  -3   4 -16  124.78   19.63
   3   4 -15   84.91   17.31
   3  -4 -15   63.23   13.67
  -3  -4 -15   74.37   14.67
  -3  -4 -15   57.88   10.74
  -3   4 -15   55.94   13.48
  -3  -4 -14  221.01   24.77
  -3  -4 -14  209.97   19.60
  -3   4 -14  176.86   23.15
   3   4 -14  254.61   30.08
   3  -4 -14  164.68   22.59
   3   4 -13   19.42    8.81
   3  -4 -13   16.08    6.93
  -3  -4 -13   36.69   10.45
  -3  -4 -13   37.65    8.72
  -3   4 -13   26.76    9.21
  -3  -4 -12  273.47   26.89
  -3  -4 -12  310.24   23.28
  -3   4 -12  267.50   26.84
   3  -4 -12  268.28   27.39
   3  -4 -11   40.61   10.84
  -3  -4 -11   51.12   11.90
  -3  -4 -11   46.22    9.26
  -3  -4 -10  311.78   27.85
  -3  -4 -10  286.29   22.36
   3  -4 -10  265.44   27.04
   3  -4  -9   72.80   13.94
  -3  -4  -9   95.08   15.06
  -3  -4  -9   84.22   12.20
  -3  -4  -8  151.57   19.16
  -3  -4  -8  177.42   17.37
   3  -4  -8  153.22   19.58
   3  -4  -7   28.34    8.38
  -3  -4  -7   21.09    7.36
  -3  -4  -7   29.24    7.28
  -3  -4  -6  260.57   24.06
  -3  -4  -6  329.65   24.50
   3  -4  -6  299.95   27.44
   3  -4  -5   62.27   12.58
  -3  -4  -5   78.74   12.19
  -3  -4  -5   75.29   12.71
  -3  -4  -4  200.74   20.45
  -3  -4  -4  205.66   19.60
   3  -4  -4  181.00   20.56
  -3  -4  -3  172.12   18.40
  -3  -4  -3  164.53   17.37
   3  -4  -3  170.95   19.33
  -3  -4  -2  388.23   27.75
  -3  -4  -2  431.57   28.02
   3  -4  -2  404.65   30.24
   3  -4  -1   51.00   11.34
  -3  -4  -1   59.19   11.02
  -3  -4   0  572.85   33.53
   3  -4   0  575.87   35.47
   3  -4   1   53.41   11.30
  -3  -4   1   53.49    9.98
  -3  -4   2  415.06   27.69
   3  -4   2  407.76   29.55
  -3  -4   3  189.18   18.38
   3  -4   3  163.79   16.32
   3  -4   3  175.89   19.34
  -3  -4   4  230.02   19.97
   3  -4   4  191.57   16.04
   3  -4   4  220.10   21.07
  -3  -4   5   96.37   13.03
   3  -4   5   93.63   14.10
  -3   4   5   82.16    9.83
   3  -4   5   73.19    9.31
  -3  -4   6  266.95   24.35
  -3  -4   6  346.24   23.68
  -3   4   6  349.11   18.47
   3  -4   6  305.03   25.99
  -3  -4   7   17.82    5.66
   3  -4   7   25.68    7.81
  -3  -4   7   18.47    6.38
  -3  -4   8  161.79   15.08
  -3  -4   8  191.43   21.02
   3  -4   8  161.44   18.58
  -3  -4   9  105.93   11.29
   3  -4   9   95.78   14.40
  -3  -4   9   88.16   14.44
   3  -4   9   62.00    8.41
  -3  -4  10  328.95   27.48
   3  -4  10  331.52   27.67
  -3  -4  10  373.60   19.94
   3  -4  11   35.76    5.80
  -3  -4  11   49.31   11.32
   3  -4  12  208.10   14.67
  -3  -4  12  322.45   27.40
   3  -4  13   16.93    4.05
  -3  -4  13   27.53    9.22
  -3  -4  14  256.67   25.52
  -3  -4  15   99.52   16.19
  -3  -4  15   92.30   14.02
  -3  -4  16  146.07   19.46
  -3   4  16  135.59   22.47
  -3  -4  16  145.63   18.03
  -3  -4  17   46.41   12.25
  -3   4  17   52.61   13.35
  -3   4  18  145.95   23.65
  -3  -4  18  198.55   24.18
  -3  -4  19    9.11    7.48
  -3   4  19    5.55    8.10
  -3   4  20  116.60   21.85
  -3  -5 -19   68.58   13.89
  -3   5 -19   68.76   17.41
   3  -5 -18  -10.67    8.52
  -3  -5 -18   11.33    7.44
  -3   5 -18    4.02    6.80
   3  -5 -17   12.42   10.35
  -3  -5 -17   39.44   11.25
  -3   5 -17   44.76   14.01
   3  -5 -16   22.02   11.40
  -3  -5 -16   35.75   12.15
  -3  -5 -16   32.82    9.48
  -3   5 -16   19.51    9.48
  -3   5 -16   31.01   11.72
   3  -5 -15  135.64   22.86
  -3  -5 -15  169.83   19.81
  -3  -5 -15  126.01   20.66
  -3   5 -15  150.75   21.59
  -3   5 -15  111.48   19.88
   3  -5 -14  102.55   19.19
  -3  -5 -14   87.82   17.50
  -3  -5 -14  104.25   16.31
  -3   5 -14   90.87   17.27
  -3   5 -14   96.67   18.75
  -3  -5 -13  212.73   25.95
  -3   5 -13  199.13   22.77
  -3  -5 -13  251.81   23.64
   3  -5 -13  211.13   28.34
   3  -5 -12   31.94   10.77
  -3  -5 -12   30.65   10.61
  -3  -5 -12   29.54    8.25
  -3   5 -12   29.82    8.20
  -3  -5 -11  245.43   27.16
  -3   5 -11  265.30   23.83
  -3  -5 -11  297.05   25.63
   3  -5 -11  285.33   31.38
   3  -5 -10  104.95   18.16
  -3  -5 -10  141.35   17.56
  -3  -5 -10  108.80   17.66
  -3   5 -10  112.91   14.73
  -3  -5  -9  165.77   21.39
  -3   5  -9  162.41   17.54
  -3  -5  -9  187.09   20.48
   3  -5  -9  167.59   23.78
   3  -5  -8   10.85    8.35
  -3  -5  -8   20.19    8.35
  -3  -5  -8   26.25    7.91
  -3   5  -8   16.00    5.62
   3  -5  -7   84.07   16.41
  -3  -5  -7   83.11   15.24
  -3  -5  -7   92.43   14.01
  -3   5  -7   68.22    9.74
   3  -5  -6    4.19    6.75
  -3  -5  -6   12.65    6.87
  -3   5  -6   15.08    4.80
   3  -5  -5   29.03   10.78
  -3  -5  -5   38.31   11.17
   3  -5  -4   26.27    9.76
  -3  -5  -4   38.30   10.59
  -3  -5  -3  215.89   23.49
   3  -5  -3  245.96   26.42
  -3  -5  -2  118.64   16.97
   3  -5  -2  129.38   19.28
  -3  -5  -1  277.73   26.24
   3  -5  -1  263.55   27.10
   3  -5   0   50.17   11.95
  -3  -5   0   49.84   11.11
  -3  -5   1  324.02   27.77
   3  -5   1  333.80   30.00
  -3  -5   2  117.01   16.54
   3  -5   2   95.78   16.29
  -3  -5   3  302.52   26.05
   3  -5   3  264.24   26.16
   3  -5   4    6.20    5.10
  -3  -5   4   22.04    7.52
   3  -5   5   24.01    8.33
  -3  -5   5   37.11    9.17
   3  -5   6   28.92    9.12
  -3  -5   6   29.86    8.56
   3  -5   7   75.14   14.25
  -3  -5   7   67.95   13.83
  -3  -5   7  105.46   14.21
   3  -5   8   35.50   10.26
  -3  -5   8   29.40    8.66
  -3  -5   8   37.71    8.39
  -3  -5   9  179.65   23.09
   3  -5   9  186.24   23.37
  -3  -5   9  214.64   18.54
  -3  -5  10   94.69   16.44
   3  -5  10   65.38   10.47
  -3  -5  11  280.58   29.36
   3  -5  11  281.88   27.86
  -3  -5  12   35.18   11.57
  -3  -5  13  267.24   28.87
  -3  -5  14  112.50   18.55
  -3  -5  15  176.79   24.00
  -3  -5  16   45.47   13.13
  -3   5  17   11.05    6.96
   3  -6 -15   88.91   20.53
   3  -6 -14   51.90   15.66
   3  -6 -13   13.23    8.87
   3  -6 -12   35.58   12.79
  -3  -6 -12   26.43   10.49
   3  -6 -11   10.51    8.47
  -3  -6 -11    5.82    6.49
   3  -6 -10   25.90   10.84
  -3  -6 -10   28.31   10.49
   3  -6  -9   81.86   17.92
  -3  -6  -9   84.66   17.23
   3  -6  -8  177.97   26.05
  -3  -6  -8  147.79   22.58
  -3  -6  -7  225.26   27.84
   3  -6  -7  226.26   29.39
  -3  -6  -6  177.31   24.34
   3  -6  -6  150.79   23.94
  -3  -6  -5  202.05   25.94
   3  -6  -5  228.23   29.30
  -3  -6  -4  161.00   22.24
   3  -6  -4  129.36   21.73
   3  -6  -3   75.01   16.11
  -3  -6  -3   81.59   15.67
   3  -6  -2    5.46    6.17
  -3  -6  -2   21.50    9.43
   3  -6  -1   -1.78    5.59
  -3  -6  -1   10.91    7.16
   3  -6   0   13.60    7.23
  -3  -6   0   16.72    7.76
   3  -6   1   12.18    7.09
  -3  -6   1   20.63    8.50
   3  -6   2    7.47    5.34
  -3  -6   2   14.24    7.46
   3  -6   3   68.41   15.01
  -3  -6   3   67.94   13.83
  -3  -6   4  161.37   20.38
   3  -6   4  141.46   21.21
  -3  -6   5  246.22   25.12
   3  -6   5  218.00   26.51
  -3  -6   6  181.87   20.62
   3  -6   6  195.07   25.51
  -3  -6   7  242.49   23.49
   3  -6   7  235.40   27.99
  -3  -6   8  123.45   21.35
   3  -6   8  161.33   23.26
   3  -6   9   69.15   16.28
  -3  -6   9   49.79   13.48
   3  -6  10   18.30    8.86
  -3  -6  10   29.82   10.58
   3  -6  11   22.80   10.10
  -3  -6  11   31.74   13.40
   3  -6  12   13.14    7.72
  -3  -6  12   -1.10    9.48
  -3  -7  -5   70.88   16.87
  -3  -7  -4   90.47   19.15
  -3  -7  -3   31.81   10.46
  -3  -7  -2  110.32   20.35
  -3  -7  -1   15.88    8.84
  -3  -7   0  124.68   20.80
  -3  -7   1   18.01    9.02
  -3  -7   2  132.38   20.79
  -3  -7   3   43.36   12.00
  -3  -7   4   92.23   16.44
  -3  -7   5   53.76   12.11
   4   0 -24 1280.28   88.39
   4   0 -23    0.84    7.22
   4   0 -22   38.20   16.63
  -4   0 -22   33.47   10.40
   4   0 -21    8.84    8.20
  -4   0 -21   10.19    6.54
  -4   0 -20  529.98   35.96
   4   0 -20  496.43   48.95
   4   0 -19    3.35    6.39
  -4   0 -19    0.70    4.30
  -4   0 -18  192.48   20.74
   4   0 -18  213.24   29.29
   4   0 -17    0.49    8.59
  -4   0 -17    2.31    4.31
  -4   0 -16 1029.62   47.19
   4   0 -16 1070.00   62.86
   4   0 -15    2.78    5.30
  -4   0 -15    4.77    3.85
  -4   0 -14   79.16   12.64
   4   0 -13    0.42    2.00
  -4   0 -13   -0.02    3.96
   4   0 -12 1988.33   42.87
  -4   0 -12 2648.26   72.56
  -4   0 -11    2.16    4.97
   4   0 -11    1.28    1.81
   4   0 -10   14.85    2.59
  -4   0 -10   22.91    6.38
   4   0  -9    0.91    0.98
  -4   0  -9    6.36    4.79
   4   0  -8  700.19   21.89
  -4   0  -8  869.64   34.96
  -4   0  -7    1.51    2.67
   4   0  -7    0.49    1.35
  -4   0  -6  620.01   27.77
   4   0  -6  628.44   21.45
   4   0  -5    1.29    2.33
  -4   0  -5    1.51    3.50
   4   0  -5   -0.81    1.80
   4   0  -4 2483.25   58.54
  -4   0  -4 2257.17   60.28
   4   0  -4 2356.07   55.20
   4   0  -3    2.31    2.25
  -4   0  -3    2.42    2.07
  -4   0  -3    1.96    2.78
   4   0  -3    3.11    2.43
  -4   0  -2   61.58    7.58
  -4   0  -2   59.31    6.44
   4   0  -2   60.54    7.33
  -4   0  -1   -0.18    2.06
  -4   0  -1    5.00    2.82
  -4   0  -1    3.69    2.95
   4   0  -1    8.26    4.01
  -4   0   0 9598.56  178.50
   4   0   0 9884.63  183.31
  -4   0   0 9536.64  181.09
  -4   0   0 9999.00  180.35
  -4   0   1    0.01    2.11
  -4   0   1    3.92    3.00
   4   0   1    0.83    2.52
  -4   0   2   72.21    7.39
  -4   0   2   58.29    8.25
   4   0   2   60.18    8.50
  -4   0   3    3.83    2.55
  -4   0   3    2.37    2.52
   4   0   3    2.20    2.43
  -4   0   4 2521.06   68.28
  -4   0   4 2464.22   57.69
  -4   0   4 2626.62   68.77
  -4   0   4 2489.47   59.38
  -4   0   5    2.97    2.29
  -4   0   5   -1.51    2.25
  -4   0   5    5.31    4.10
  -4   0   5    0.44    2.18
  -4   0   6  671.99   31.85
  -4   0   6  685.59   32.57
  -4   0   6  675.75   25.42
  -4   0   7    0.29    2.67
  -4   0   7   -0.42    1.57
  -4   0   7   -0.86    2.46
  -4   0   8 1035.26   32.76
  -4   0   8 1004.15   42.54
  -4   0   8 1040.46   43.81
  -4   0   9   -2.61    3.77
  -4   0   9    1.16    2.36
  -4   0   9    2.46    3.84
  -4   0  10   14.17    5.76
  -4   0  10   11.77    3.16
  -4   0  11    5.69    4.57
  -4   0  11   -0.55    1.72
  -4   0  12 3586.49  103.26
  -4   0  13    5.99    4.06
  -4   0  14   93.05   15.02
  -4   0  15    2.17    5.39
  -4   0  16 1377.22   65.17
  -4   0  17   -1.06    5.61
  -4   0  18  217.21   27.09
  -4   0  19    3.56    7.32
  -4   0  20  763.75   55.98
  -4   0  21  -16.91    9.81
  -4   0  22    1.79   10.99
  -4   0  23  -17.08   11.13
   4   1 -23  177.28   32.71
   4  -1 -23  321.18   39.61
   4   1 -22  184.84   32.90
   4  -1 -22  170.32   27.77
  -4  -1 -22  156.22   19.80
  -4   1 -22  134.85   19.04
   4   1 -21  141.02   27.18
   4  -1 -21  120.65   22.33
  -4  -1 -21  127.66   18.03
  -4   1 -21  107.33   17.53
   4   1 -20   14.12   10.07
   4  -1 -20   52.92   15.08
  -4  -1 -20   43.03   10.88
  -4   1 -20   40.49   10.72
  -4  -1 -19  468.63   32.05
  -4   1 -19  485.44   35.17
   4   1 -19  461.79   47.42
   4  -1 -19  382.16   37.82
   4   1 -18   60.30   17.10
   4  -1 -18   51.92   13.26
  -4  -1 -18   48.43   11.01
  -4   1 -18   56.53   12.44
   4   1 -17  110.54   22.18
  -4   1 -17  130.70   17.68
  -4  -1 -17  113.84   15.12
  -4   1 -16  315.62   26.80
  -4  -1 -16  360.15   26.07
   4   1 -16  325.25   36.45
  -4  -1 -15  461.94   29.10
  -4   1 -15  489.80   32.77
   4   1 -15  454.75   41.66
  -4  -1 -14  100.83   13.42
  -4   1 -14  103.79   15.05
   4   1 -13   58.89    7.40
  -4  -1 -13   53.66    9.66
  -4   1 -13   61.21   11.31
   4   1 -12   29.58    4.84
  -4  -1 -12   35.51    7.54
  -4   1 -12   32.78    7.94
   4   1 -11  297.01   16.62
  -4  -1 -11  296.24   21.16
  -4   1 -11  323.00   24.10
   4   1 -10  354.32   18.25
  -4  -1 -10  324.79   22.05
  -4   1 -10  399.89   26.03
   4   1  -9  435.53   20.41
  -4  -1  -9  419.17   24.67
  -4   1  -9  471.49   27.47
   4   1  -8  115.25   10.10
  -4  -1  -8  123.82   12.86
  -4   1  -8  122.11   13.40
   4   1  -7  547.78   23.31
  -4  -1  -7  559.75   27.21
  -4   1  -7  576.41   29.04
   4   1  -6   90.78    8.88
  -4  -1  -6   85.88   10.37
  -4   1  -6   88.64   11.10
  -4  -1  -5  581.89   27.21
  -4   1  -5  554.86   27.24
   4   1  -5  641.46   30.21
   4   1  -5  602.10   24.74
   4  -1  -5  625.72   24.79
  -4  -1  -4  325.31   14.94
  -4   1  -4  404.29   19.80
  -4  -1  -4  395.07   21.32
   4   1  -4  389.11   19.68
  -4   1  -4  385.29   21.02
   4   1  -4  402.78   22.92
   4  -1  -4  400.64   18.41
  -4  -1  -3  478.35   18.60
  -4   1  -3  475.95   22.28
  -4  -1  -3  503.14   23.90
   4   1  -3  519.59   23.49
  -4   1  -3  471.91   22.94
   4  -1  -3  516.16   20.13
  -4  -1  -2  225.91   12.56
  -4   1  -2  230.91   15.43
   4   1  -2  259.70   16.40
  -4   1  -2  217.64   14.54
  -4  -1  -2  242.89   15.81
   4  -1  -2  231.03   12.42
  -4   1  -1  253.47   16.31
  -4  -1  -1  259.41   16.28
   4   1  -1  255.11   16.59
  -4   1  -1  250.77   14.77
   4  -1  -1  245.15   12.12
  -4  -1  -1  258.35   13.63
  -4  -1   0   48.46    6.96
  -4   1   0   43.86    5.94
   4   1   0   31.23    6.63
  -4   1   0   48.30    7.45
  -4  -1   0   43.56    5.76
   4  -1   0   43.33    4.71
   4  -1   1  278.01   11.85
  -4  -1   1  304.69   17.30
  -4   1   1  282.11   18.37
  -4   1   1  287.52   14.61
  -4   1   1  280.70   17.76
  -4  -1   1  297.49   15.51
  -4  -1   2  211.57   14.55
  -4   1   2  199.85   15.71
  -4   1   2  197.24   11.64
  -4  -1   2  208.48   13.14
  -4   1   2  225.57   15.78
  -4  -1   3  573.28   25.31
  -4   1   3  557.15   19.84
  -4   1   3  558.96   27.82
  -4   1   3  591.23   28.67
  -4  -1   3  585.44   23.97
  -4   1   3  632.86   27.51
  -4  -1   4  367.05   20.21
  -4   1   4  353.02   14.39
  -4   1   4  370.32   22.84
  -4   1   4  376.43   23.09
  -4   1   4  370.67   25.85
  -4  -1   4  325.70   15.99
  -4  -1   4  369.48   19.19
  -4  -1   5  618.71   27.31
  -4   1   5  623.26   19.65
  -4   1   5  636.01   31.37
  -4   1   5  669.37   34.95
  -4   1   5  657.68   32.13
  -4  -1   5  558.32   21.07
  -4  -1   5  606.76   25.94
  -4   1   6  147.19    8.35
  -4   1   6  122.89   14.62
  -4   1   6  142.13   14.90
  -4   1   6  145.75   15.29
  -4  -1   6  136.46   12.18
  -4  -1   6  119.07    8.67
  -4   1   7  620.18   34.13
  -4   1   7  596.60   32.32
  -4   1   7  593.85   31.89
  -4  -1   7  611.58   27.44
  -4  -1   7  552.64   19.64
  -4  -1   8  135.60   14.86
  -4   1   8  153.36   17.11
  -4   1   8  151.69   16.53
  -4   1   8  156.50   16.50
  -4  -1   8  171.16   14.31
  -4  -1   8  142.47    8.71
  -4   1   9  446.85   24.83
  -4  -1   9  466.80   28.11
  -4   1   9  508.92   31.35
  -4  -1   9  485.82   25.38
  -4   1   9  462.81   29.82
  -4  -1   9  400.07   14.64
  -4   1  10  488.30   25.82
  -4  -1  10  496.06   29.85
  -4   1  10  513.07   32.52
  -4  -1  10  467.92   25.65
  -4   1  10  506.62   32.50
  -4   1  11  335.35   20.94
  -4  -1  11  320.86   24.47
  -4   1  11  353.93   27.51
  -4   1  11  322.33   26.77
  -4   1  12   25.41    5.47
  -4   1  12   32.10    9.25
  -4   1  12   37.31    9.66
  -4  -1  12   34.03    8.89
  -4  -1  13   87.19   13.72
  -4   1  13  121.42   16.99
  -4   1  13   95.18   16.09
  -4   1  14  102.42   17.64
  -4  -1  14  108.97   16.44
  -4   1  14   99.86   16.21
  -4   1  15  641.99   44.74
  -4   1  15  663.11   43.02
  -4  -1  15  639.90   39.75
  -4   1  16  349.44   34.03
  -4   1  16  374.96   32.98
  -4  -1  16  351.34   30.50
  -4   1  17  200.14   24.51
  -4   1  17  148.64   22.98
  -4  -1  17  187.64   23.02
  -4   1  18   56.36   16.35
  -4  -1  18   68.86   14.47
  -4  -1  19  672.59   47.34
  -4   1  19  660.27   52.16
  -4  -1  20   66.18   15.72
  -4   1  20   24.71   11.55
  -4  -1  21  113.82   22.04
  -4  -1  22  232.72   31.43
  -4  -2 -22  108.73   16.02
  -4  -2 -21  416.08   31.94
   4   2 -21  457.86   48.62
  -4   2 -21  411.59   35.47
   4   2 -20   32.95   14.12
  -4  -2 -20   49.95   11.35
  -4   2 -20   31.71   10.27
  -4  -2 -19  251.10   23.30
  -4   2 -19  244.10   26.80
   4   2 -19  310.28   38.65
  -4  -2 -18  288.68   24.35
  -4   2 -18  318.26   29.84
   4   2 -18  336.53   39.27
  -4  -2 -17  464.52   30.70
  -4   2 -17  494.82   36.56
   4   2 -17  483.77   46.52
   4   2 -16  175.89   26.97
  -4  -2 -16  174.97   18.36
  -4   2 -16  181.22   21.71
  -4  -2 -15  574.24   33.09
  -4   2 -15  591.68   38.84
   4   2 -15  565.08   48.15
   4  -2 -15  596.59   25.52
  -4  -2 -14  217.19   19.85
  -4   2 -14  247.48   24.70
   4  -2 -14  220.97   15.14
  -4  -2 -13  452.59   28.08
  -4   2 -13  525.22   35.32
   4  -2 -13  478.44   22.97
   4  -2 -12   38.54    6.26
  -4   2 -12   20.65    4.45
  -4  -2 -12   35.53    7.62
  -4   2 -12   22.30    8.00
  -4  -2 -11  404.82   25.54
  -4   2 -11  424.15   30.49
  -4   2 -11  451.20   19.23
   4  -2 -11  401.69   21.38
  -4  -2 -10  382.32   24.50
  -4   2 -10  405.02   28.99
  -4   2 -10  419.48   18.94
   4  -2 -10  370.04   20.71
  -4  -2  -9 1515.85   52.43
  -4   2  -9 1548.94   59.78
  -4   2  -9 1712.17   44.58
   4  -2  -9 1506.50   47.17
  -4  -2  -8  111.02   12.76
  -4   2  -8  124.02   15.40
  -4   2  -8  134.50   10.86
   4  -2  -8  127.47   12.14
  -4  -2  -7  890.18   36.84
  -4   2  -7  903.07   41.30
  -4   2  -7  890.77   31.08
   4  -2  -7  906.05   34.38
  -4  -2  -6  891.90   37.16
  -4   2  -6  947.46   41.26
  -4   2  -6  995.18   33.47
   4  -2  -6  937.00   35.43
  -4  -2  -5 1327.70   46.17
  -4   2  -5 1358.76   48.63
  -4   2  -5 1351.13   41.46
   4  -2  -5 1349.74   44.40
   4  -2  -4   51.39    7.19
   4  -2  -4   64.31    8.67
  -4   2  -4   70.25   10.51
  -4  -2  -4   55.36    8.72
  -4   2  -4   63.12    8.48
  -4  -2  -3 1149.34   41.20
   4   2  -3 1106.95   41.58
  -4   2  -3 1118.69   41.31
  -4   2  -3 1115.81   38.33
   4  -2  -3 1158.98   35.67
   4  -2  -3 1145.73   40.70
  -4  -2  -2  522.03   26.10
  -4   2  -2  498.71   24.77
  -4   2  -2  470.61   24.06
   4  -2  -2  520.45   21.05
   4  -2  -2  541.48   26.37
  -4  -2  -1  659.40   29.79
  -4   2  -1  671.20   27.70
  -4   2  -1  644.92   29.27
   4  -2  -1  645.14   22.84
   4  -2  -1  690.65   30.37
   4  -2   0    2.38    1.41
   4  -2   0   11.09    4.53
  -4  -2   0    4.55    2.96
  -4   2   0    0.84    2.17
  -4  -2   0    9.04    4.59
   4   2   0    1.17    2.30
  -4   2   0    3.33    2.55
  -4  -2   1  549.82   25.43
  -4  -2   1  559.40   27.45
  -4   2   1  522.37   21.72
   4   2   1  431.95   21.17
   4  -2   1  459.97   16.75
   4  -2   1  498.08   26.71
  -4   2   1  532.29   27.15
  -4  -2   2  421.64   21.99
  -4  -2   2  464.41   25.12
  -4   2   2  421.75   17.74
   4   2   2  348.79   17.51
  -4   2   2  418.38   24.64
  -4  -2   3 1415.54   42.18
  -4  -2   3 1407.44   45.75
  -4   2   3 1294.31   31.26
  -4   2   3 1384.24   47.38
  -4   2   4   73.80   10.23
  -4   2   4  111.05    7.47
   4   2   4   99.28    7.30
   4  -2   4   58.43    3.51
  -4   2   4  124.23   14.31
  -4  -2   4  115.89   11.70
  -4   2   5 1180.77   47.06
  -4   2   5 1117.63   25.79
  -4   2   5  938.10   39.42
   4   2   5  905.98   25.00
  -4  -2   5 1127.25   39.60
  -4   2   6  868.19   41.21
  -4  -2   6  892.01   34.90
  -4   2   6  776.91   18.06
  -4   2   7 1163.91   50.02
  -4   2   7 1099.26   43.36
  -4  -2   7 1081.24   40.78
  -4   2   8  197.37   20.71
  -4  -2   8  182.54   11.51
  -4   2   8  191.75   16.70
  -4   2   8  193.54   19.57
  -4  -2   8  193.04   16.47
  -4  -2   9 1315.72   33.57
  -4   2   9 1458.96   60.80
  -4   2   9 1611.76   52.10
  -4   2   9 1532.17   59.56
  -4  -2   9 1216.76   29.66
  -4  -2   9 1462.54   49.85
  -4   2  10  423.60   32.22
  -4   2  10  446.36   31.73
  -4  -2  10  459.15   26.93
  -4   2  11  555.18   39.02
  -4  -2  11  584.04   33.92
  -4   2  11  667.83   39.87
  -4  -2  11  567.66   31.41
  -4  -2  12   14.79    6.51
  -4  -2  12   17.51    6.46
  -4   2  12   17.91    7.69
  -4   2  12   28.54    9.09
  -4   2  13  395.90   34.82
  -4  -2  13  449.95   31.47
  -4   2  13  470.07   34.87
  -4  -2  13  430.42   28.33
  -4   2  14  282.70   30.19
  -4  -2  14  315.14   26.57
  -4   2  14  289.51   28.12
  -4  -2  14  302.94   24.28
  -4   2  15  808.52   54.26
  -4  -2  15  859.21   46.41
  -4   2  15  911.76   52.21
  -4  -2  15  854.75   43.04
  -4  -2  16  124.20   17.84
  -4   2  16  130.57   22.68
  -4   2  16  145.60   21.10
  -4   2  17  423.81   40.58
  -4   2  17  436.58   37.66
  -4  -2  17  451.12   34.91
  -4   2  18  453.97   39.40
  -4  -2  18  487.85   37.64
  -4   2  19  469.68   41.14
  -4  -2  19  468.57   37.98
  -4  -2  20   79.25   15.60
  -4   2  20   88.92   18.36
  -4   2  21  526.34   45.67
  -4  -3 -21   84.48   14.06
  -4  -3 -20   74.38   13.45
  -4  -3 -19    3.67    4.68
  -4   3 -19    2.75    7.22
   4   3 -18    4.79    6.38
  -4  -3 -18   28.29    8.89
  -4   3 -18   36.88   12.47
  -4  -3 -17   60.75   11.42
  -4   3 -17   54.75   14.35
   4  -3 -16   94.56   12.50
  -4  -3 -16   85.75   12.72
  -4   3 -16  108.18   18.68
   4  -3 -15   49.02    9.20
  -4  -3 -15   24.23    7.75
  -4   3 -15   29.15   10.15
  -4  -3 -14  333.07   25.02
  -4   3 -14  324.78   31.51
   4  -3 -14  343.69   24.48
  -4  -3 -13  154.97   17.21
  -4   3 -13  192.84   24.06
   4  -3 -13  176.26   17.20
  -4  -3 -12  586.90   33.22
  -4   3 -12  692.48   44.17
   4  -3 -12  657.02   34.16
   4  -3 -11   48.32    9.37
  -4  -3 -11   41.00    8.89
  -4   3 -11   38.55   10.75
  -4  -3 -10  351.90   24.67
  -4   3 -10  343.83   30.19
   4  -3 -10  385.91   25.85
  -4  -3  -9   62.13   10.34
  -4   3  -9  114.89   16.76
   4  -3  -9   94.71   12.82
  -4  -3  -8  144.11   15.47
  -4   3  -8  145.30   18.50
   4  -3  -8  166.89   16.77
   4  -3  -7    3.98    3.66
  -4  -3  -7    4.57    3.77
  -4   3  -7   -2.12    3.96
   4  -3  -6   44.62    8.93
  -4   3  -6   29.47    8.05
  -4  -3  -6   36.84    8.36
  -4   3  -6   42.32    9.77
  -4   3  -5   29.48    8.67
   4  -3  -5   23.42    6.68
  -4  -3  -5   28.44    7.44
  -4   3  -5   31.06    7.90
  -4   3  -4  187.05   18.79
  -4  -3  -4  158.21   15.96
  -4   3  -4  171.62   17.58
   4  -3  -4  162.05   16.87
   4  -3  -3   27.29    6.75
  -4  -3  -3   36.24    8.31
  -4   3  -3   32.62    7.70
  -4   3  -3   25.90    7.72
  -4   3  -2  620.56   34.53
  -4  -3  -2  608.12   32.14
  -4   3  -2  591.70   31.55
   4  -3  -2  625.34   33.80
  -4   3  -1  142.73   16.26
  -4  -3  -1  132.90   15.12
  -4   3  -1  134.04   14.51
   4  -3  -1  147.17   16.00
  -4   3   0 1013.46   45.60
  -4  -3   0 1002.10   43.13
  -4   3   0  969.87   39.26
   4  -3   0 1017.02   44.04
  -4   3   1  133.40   16.11
  -4  -3   1  125.60   14.71
  -4   3   1  124.82   12.25
   4  -3   1  146.17   16.19
  -4   3   2  607.67   35.72
  -4   3   2  604.60   26.41
   4  -3   2  633.72   34.66
  -4   3   3   28.89    5.52
   4  -3   3   51.62   10.33
  -4  -3   3   50.88    9.39
  -4   3   3   56.26    7.19
  -4   3   3   51.46   10.97
  -4  -3   4  110.72   13.99
  -4   3   4  107.52   15.26
  -4  -3   4  126.17   13.19
  -4   3   4   98.52    9.86
  -4   3   4  138.58    9.98
   4  -3   4  111.75   15.15
  -4   3   5   23.77    7.77
   4  -3   5   19.32    7.40
  -4  -3   5   29.64    7.62
  -4  -3   5   36.22    7.40
  -4   3   5   28.02    4.06
  -4   3   5   22.52    4.68
  -4  -3   6   69.83   11.33
  -4   3   6   54.53   12.01
  -4   3   6   67.57    7.69
  -4  -3   6   55.86    8.51
  -4   3   6   58.75    4.45
   4  -3   7   -0.25    1.15
  -4  -3   7    0.43    3.29
  -4   3   7   -1.74    5.31
  -4  -3   7    0.37    2.41
  -4   3   7    4.46    2.98
  -4  -3   8  128.23   11.59
  -4   3   8   96.74   15.29
  -4  -3   8  126.17   14.92
  -4  -3   9  107.96    9.45
  -4   3   9  111.32   17.69
  -4  -3   9  112.26   14.31
  -4   3  10  344.95   32.35
  -4  -3  10  409.84   28.00
  -4  -3  11   36.83    9.29
  -4   3  11   18.37    7.99
  -4   3  12  679.77   44.77
  -4  -3  12  724.36   39.61
  -4  -3  13  238.00   23.17
  -4   3  13  239.81   26.62
  -4  -3  13  242.36   22.64
  -4  -3  14  380.09   30.75
  -4   3  14  419.64   35.76
  -4  -3  14  404.65   30.18
  -4  -3  15   14.56    7.58
  -4   3  15   17.52    8.48
  -4  -3  15   21.77    8.38
  -4  -3  16  115.83   16.57
  -4   3  16   95.03   18.10
  -4  -3  16   98.37   16.30
  -4  -3  17   89.55   15.08
  -4   3  17   73.58   16.40
  -4  -3  17   82.05   14.52
  -4  -3  18   35.80   10.22
  -4  -3  18   18.15    6.79
  -4   3  18   32.05   11.95
  -4   3  19   -4.10    8.15
  -4  -4 -19  304.25   26.93
  -4  -4 -18  115.26   16.61
  -4  -4 -17  281.04   25.58
  -4   4 -17  247.08   30.08
  -4  -4 -16  200.00   21.50
  -4   4 -16  204.21   27.08
   4  -4 -16  189.70   21.79
  -4  -4 -15  255.10   23.37
  -4   4 -15  284.29   31.29
   4  -4 -15  212.42   23.47
  -4  -4 -14  273.28   24.14
  -4   4 -14  247.57   28.90
   4  -4 -14  233.46   24.73
   4  -4 -13  105.03   16.76
  -4  -4 -13   94.25   14.25
  -4   4 -13  127.59   20.04
  -4  -4 -12  291.14   24.21
  -4   4 -12  274.66   29.48
   4  -4 -12  271.53   26.55
  -4  -4 -11  313.00   24.88
  -4   4 -11  314.53   31.56
   4  -4 -11  294.68   27.41
  -4  -4 -10  441.16   29.66
  -4   4 -10  379.31   35.34
   4  -4 -10  381.61   31.10
  -4  -4  -9  279.03   23.86
  -4   4  -9  306.82   30.24
   4  -4  -9  290.79   27.31
  -4  -4  -8  479.21   31.10
  -4   4  -8  463.12   35.97
   4  -4  -8  522.45   36.20
  -4  -4  -7  783.18   40.06
  -4   4  -7  683.08   44.67
   4  -4  -7  741.24   43.43
  -4  -4  -6  340.94   26.15
  -4   4  -6  380.18   31.30
   4  -4  -6  383.40   30.35
  -4  -4  -5  385.04   28.10
  -4   4  -5  394.59   31.37
   4  -4  -5  415.23   32.00
  -4  -4  -4  555.07   34.08
  -4   4  -4  522.16   36.09
   4  -4  -4  548.43   37.07
  -4  -4  -3  567.28   36.13
  -4  -4  -3  604.68   35.93
  -4   4  -3  591.60   37.17
   4  -4  -3  576.33   37.36
  -4  -4  -2  422.60   30.49
  -4  -4  -2  380.83   28.36
  -4   4  -2  383.35   28.79
   4  -4  -2  408.43   31.30
  -4  -4  -1  196.56   20.24
  -4  -4  -1  210.34   20.91
  -4   4  -1  181.14   19.51
   4  -4  -1  208.29   22.01
  -4  -4   0  311.10   25.09
  -4   4   0  348.03   25.08
   4  -4   0  325.39   28.21
  -4  -4   1  265.19   23.04
  -4   4   1  302.54   23.22
   4  -4   1  281.77   25.92
  -4  -4   2  371.31   26.67
  -4   4   2  385.64   25.26
   4  -4   2  389.58   30.30
  -4  -4   3  543.18   32.65
  -4   4   3  614.58   30.50
   4  -4   3  550.77   36.84
  -4  -4   4  496.96   35.63
  -4  -4   4  546.96   32.22
  -4   4   4  633.04   28.84
   4  -4   4  524.33   36.23
  -4  -4   5  557.23   37.85
  -4  -4   5  560.05   32.13
  -4   4   5  610.12   26.49
   4  -4   5  557.96   36.66
  -4  -4   6  311.98   28.18
  -4  -4   6  405.63   26.30
   4  -4   6  395.38   30.58
  -4  -4   7  667.39   41.50
  -4  -4   7  704.12   34.40
   4  -4   7  675.57   40.83
  -4  -4   8  469.97   34.62
  -4  -4   8  510.26   27.70
   4  -4   8  493.03   35.17
  -4  -4   9  401.91   32.08
  -4  -4  10  490.47   35.19
  -4  -4  11  235.18   24.52
  -4  -4  12  304.92   28.44
  -4  -4  13  198.98   23.42
  -4   4  14  241.47   30.06
  -4  -4  14  283.87   28.20
  -4  -4  15  214.41   24.06
  -4   4  15  204.99   27.93
  -4  -4  15  238.24   26.14
  -4  -4  16  248.72   26.27
  -4   4  16  245.33   30.72
  -4  -4  16  280.06   28.94
  -4   4  17  345.93   37.52
  -4  -4  17  375.84   34.08
   4  -5 -16   64.21   14.51
   4  -5 -15   10.40    8.19
  -4  -5 -15   29.71    9.92
   4  -5 -14   94.28   18.59
  -4  -5 -14  117.11   20.40
  -4  -5 -14  121.72   17.74
  -4   5 -14   94.41   18.46
  -4  -5 -13    6.81    6.80
  -4  -5 -13   22.06    8.89
  -4   5 -13   10.74    5.73
   4  -5 -12   56.55   14.15
  -4  -5 -12   68.56   14.42
  -4  -5 -12   63.62   13.80
  -4   5 -12   54.78   13.78
   4  -5 -11   40.14   12.29
  -4  -5 -11   41.53   12.01
  -4  -5 -11   43.94   10.99
  -4   5 -11   50.53   12.44
   4  -5 -10   21.18    9.32
  -4  -5 -10   37.96   11.21
  -4  -5 -10   42.77   11.61
  -4   5 -10   38.35   11.88
   4  -5  -9   73.63   16.35
  -4  -5  -9   53.19   12.91
  -4  -5  -9   68.95   14.12
  -4   5  -9   43.40   12.09
  -4  -5  -8  317.63   30.57
  -4  -5  -8  364.62   30.06
  -4   5  -8  280.65   30.95
   4  -5  -8  320.50   32.39
   4  -5  -7  111.42   18.96
  -4  -5  -7  113.50   17.82
  -4  -5  -7  121.34   17.35
  -4   5  -7  116.81   19.54
  -4  -5  -6  389.88   32.88
  -4  -5  -6  409.12   31.79
  -4   5  -6  319.55   31.46
   4  -5  -6  366.51   34.74
   4  -5  -5   64.81   15.10
  -4  -5  -5   81.24   14.99
  -4  -5  -5   75.94   13.76
  -4   5  -5   66.67   13.23
  -4  -5  -4  194.87   22.89
   4  -5  -4  187.37   24.32
   4  -5  -3   78.07   15.21
  -4  -5  -3   63.81   13.03
  -4  -5  -2  118.82   17.49
   4  -5  -2  147.66   21.69
   4  -5  -1    8.24    4.88
  -4  -5  -1   20.96    7.75
   4  -5   0    1.24    5.30
  -4  -5   0   10.06    6.43
   4  -5   1   24.78    9.74
  -4  -5   1   36.01    9.62
  -4  -5   2  138.21   18.29
   4  -5   2  121.11   20.30
   4  -5   3  127.06   20.13
  -4  -5   3  103.09   16.00
  -4  -5   4  210.88   22.00
   4  -5   4  191.26   24.73
   4  -5   5   69.95   15.73
  -4  -5   5   63.24   15.06
  -4  -5   5   99.15   14.84
  -4  -5   6  363.52   34.68
  -4  -5   6  444.23   30.77
   4  -5   6  398.72   34.70
  -4  -5   7  127.61   15.76
   4  -5   7  129.85   19.98
  -4  -5   7  125.48   20.55
  -4  -5   8  355.94   34.51
   4  -5   8  355.53   32.62
   4  -5   9   39.66   11.52
  -4  -5   9   77.96   16.50
  -4  -5  10   44.68   12.95
  -4  -5  11   42.37   10.73
  -4  -5  12   73.30   16.33
  -4  -5  13    5.55    6.28
  -4  -5  14   79.21   17.72
   4  -6 -12   17.86   10.31
   4  -6 -11  181.11   27.95
  -4   6 -11  169.71   25.93
  -4   6 -10  323.67   35.36
   4  -6 -10  433.00   41.78
   4  -6  -9  118.39   22.23
  -4  -6  -9  138.76   22.48
  -4   6  -9   99.00   19.66
   4  -6  -8   42.00   13.87
  -4  -6  -8   59.94   15.32
  -4   6  -8   47.72   13.60
   4  -6  -7   98.29   19.96
  -4  -6  -7  112.72   20.41
  -4  -6  -6  200.41   25.63
   4  -6  -6  168.44   25.07
   4  -6  -5   71.25   17.27
  -4  -6  -5   62.37   15.06
   4  -6  -4   46.19   13.34
  -4  -6  -4   64.86   15.08
  -4  -6  -3  289.49   30.36
   4  -6  -3  331.61   35.77
  -4  -6  -2  705.23   47.79
   4  -6  -2  779.10   53.73
  -4  -6  -1  293.62   30.15
   4  -6  -1  244.11   30.10
   4  -6   0   -3.96    5.50
  -4  -6   0   11.00    7.91
  -4  -6   1  377.94   33.61
   4  -6   1  327.98   34.68
  -4  -6   2  779.17   48.57
   4  -6   2  772.08   53.98
  -4  -6   3  263.47   27.19
   4  -6   3  308.62   33.89
   4  -6   4   54.69   15.33
  -4  -6   4  101.67   17.11
   4  -6   5   98.35   18.92
  -4  -6   5  123.79   22.69
  -4  -6   5  106.59   16.84
  -4  -6   6  187.96   27.29
   4  -6   6  211.08   27.43
   4  -6   7   98.20   19.15
  -4  -6   7   75.06   18.72
   4  -6   8   65.76   15.77
  -4  -6   8   33.87   13.98
   4  -6   9  167.66   24.95
   4  -6  10  395.40   38.32
  -4  -7  -1   81.28   17.32
  -4  -7   0   13.16    8.25
  -4  -7   1   74.99   16.48
  -4  -7   2   33.68   11.47
  -5   0 -20    4.05    5.00
  -5   0 -19  483.20   35.83
  -5   0 -18    5.03    5.97
  -5   0 -17  471.11   33.37
  -5   0 -16    9.71    6.86
  -5   0 -15  175.46   19.56
  -5   0 -14    4.06    5.96
  -5   0 -13   30.24    8.67
  -5   0 -12    7.49    4.73
  -5   0 -11   23.97    7.44
  -5   0 -10    1.78    3.71
  -5   0  -9  490.56   28.52
  -5   0  -8    3.54    4.00
   5   0  -8    3.54    2.62
  -5   0  -7  886.52   37.91
   5   0  -7  917.79   30.26
  -5   0  -6    3.63    4.28
   5   0  -6    3.15    3.77
  -5   0  -5 1227.74   44.02
   5   0  -5 1244.38   39.02
  -5   0  -4   -1.33    2.77
   5   0  -4    2.03    3.01
  -5   0  -3  355.97   21.01
   5   0  -3  379.49   20.73
  -5   0  -2    3.32    2.67
   5   0  -2    1.22    2.51
  -5   0  -1   33.77    6.09
  -5   0   0    0.66    2.62
  -5   0   1   41.60    7.21
  -5   0   1   33.45    5.83
  -5   0   2   -0.13    2.37
  -5   0   2    0.03    2.09
  -5   0   3  404.32   25.57
  -5   0   3  427.58   20.99
  -5   0   3  460.65   25.77
  -5   0   4    3.17    3.03
  -5   0   4    2.32    4.16
  -5   0   4    5.81    3.49
  -5   0   4    1.95    3.08
  -5   0   5 1396.75   52.46
  -5   0   5 1435.90   43.41
  -5   0   5 1505.43   53.42
  -5   0   5 1349.52   43.59
  -5   0   6    1.49    2.39
  -5   0   6    1.61    5.83
  -5   0   7 1015.26   45.16
  -5   0   8    1.29    5.07
  -5   0   9  569.39   34.90
  -5   0  10    4.25    4.11
  -5   0  11   23.08    7.94
  -5   0  12   -1.65    4.84
  -5   0  13    3.08    4.02
  -5   0  14    3.43    6.06
  -5   0  15  230.35   25.99
  -5   0  16   12.24   11.01
  -5   0  17  691.65   50.12
  -5   0  18   11.36    6.55
  -5   0  19  727.79   55.28
  -5   0  20   27.76   12.25
  -5   0  21  529.42   49.76
  -5   0  22    0.70    7.16
  -5  -1 -20   81.07   15.16
  -5  -1 -19   -0.55    4.43
  -5   1 -19   12.90    6.77
  -5  -1 -18  128.98   17.69
  -5   1 -18  106.55   16.82
  -5  -1 -17   41.61   10.09
  -5   1 -17   37.54   10.65
  -5   1 -16  152.83   19.67
  -5  -1 -16  120.91   16.06
  -5  -1 -15   70.58   12.41
  -5   1 -15   66.04   12.68
  -5  -1 -14  291.52   24.25
  -5   1 -14  303.44   26.59
  -5  -1 -13   81.95   12.98
  -5   1 -13   87.92   14.60
  -5  -1 -12  385.12   26.68
  -5   1 -12  397.59   29.13
  -5  -1 -11  180.62   17.87
  -5   1 -11  177.60   19.31
  -5  -1 -10  260.49   21.17
  -5   1 -10  282.31   22.91
  -5  -1  -9  150.34    8.93
  -5  -1  -9  202.97   18.32
  -5   1  -9  210.17   19.18
  -5  -1  -8  156.91    9.44
  -5  -1  -8  210.24   18.11
  -5   1  -8  203.28   18.13
  -5  -1  -7   34.32    4.46
  -5   1  -7   39.00    7.79
  -5  -1  -7   44.60    8.04
   5   1  -7   54.61    7.92
  -5   1  -7   49.82    8.76
  -5   1  -6  220.90   16.48
  -5  -1  -6  221.08   18.05
  -5   1  -6  198.00   16.90
  -5  -1  -6  158.37   10.29
  -5   1  -5   77.02   10.14
  -5   1  -5   74.36   10.08
  -5  -1  -5   79.26   10.61
  -5  -1  -5   64.80    6.56
  -5   1  -4  282.52   18.91
  -5  -1  -4  295.94   20.08
  -5   1  -4  274.34   18.85
  -5   1  -4  227.26   14.75
  -5  -1  -4  228.38   13.23
   5  -1  -3  279.56   15.97
  -5   1  -3  300.55   19.94
  -5  -1  -3  270.89   19.00
  -5   1  -3  292.08   18.60
  -5   1  -3  226.74   15.36
  -5  -1  -3  248.11   14.31
   5  -1  -2  477.04   20.99
  -5   1  -2  457.19   25.25
  -5  -1  -2  493.00   25.45
  -5   1  -2  438.36   22.82
  -5   1  -2  411.82   22.22
  -5  -1  -2  465.33   20.51
   5  -1  -1   81.18    8.10
  -5   1  -1  124.85   13.80
  -5  -1  -1  108.97   11.64
  -5   1  -1  117.68   11.02
  -5   1  -1  108.19   11.67
  -5  -1  -1  136.68   11.10
  -5  -1   0  534.38   26.29
  -5   1   0  512.66   28.07
  -5   1   0  501.73   23.09
  -5   1   0  533.95   26.63
  -5  -1   0  537.81   23.75
  -5  -1   1  157.96   13.90
  -5   1   1  153.34   15.14
  -5   1   1  160.68   12.26
  -5   1   1  165.35   14.88
  -5  -1   1  164.20   12.85
  -5  -1   2  448.31   23.79
  -5   1   2  441.79   20.39
  -5   1   2  448.38   26.89
  -5   1   2  483.43   26.87
  -5  -1   2  487.02   23.36
  -5  -1   3  332.31   20.70
  -5   1   3  358.58   17.42
  -5   1   3  362.71   24.37
  -5   1   3  353.48   24.06
  -5  -1   3  310.53   18.29
  -5  -1   3  381.80   21.24
  -5  -1   4  248.23   18.05
  -5   1   4  246.15   13.83
  -5   1   4  255.69   20.94
  -5   1   4  260.43   20.96
  -5  -1   4  280.16   18.34
  -5  -1   4  217.35   15.00
  -5  -1   5  105.31   11.99
  -5   1   5  113.90    9.16
  -5   1   5  117.98   14.84
  -5   1   5  126.36   14.60
  -5  -1   5  106.49   11.80
  -5   1   6  231.34   13.12
  -5   1   6  230.79   20.66
  -5   1   6  205.85   19.91
  -5  -1   6  250.32   18.21
  -5  -1   7   54.22    8.91
  -5   1   7   51.13    9.52
  -5  -1   7   57.51    6.92
  -5  -1   7   59.58   10.72
  -5   1   7   77.83   12.52
  -5  -1   8  273.97   22.90
  -5   1   8  290.02   24.78
  -5   1   8  251.07   23.54
  -5  -1   8  261.82   19.61
  -5  -1   9  193.37   20.34
  -5   1   9  199.90   21.11
  -5   1   9  201.01   21.53
  -5  -1  10  387.93   28.77
  -5   1  10  401.56   30.47
  -5   1  10  384.40   30.20
  -5  -1  11  144.21   17.78
  -5   1  11  152.07   19.29
  -5   1  11  166.36   20.26
  -5  -1  12  501.21   34.78
  -5   1  12  554.33   38.34
  -5   1  12  520.59   38.46
  -5  -1  13  109.13   16.71
  -5   1  13  133.81   18.96
  -5   1  13  114.79   18.51
  -5   1  14  395.64   35.26
  -5   1  14  379.56   33.20
  -5  -1  14  323.94   30.18
  -5   1  15  132.63   20.80
  -5  -1  15  104.04   17.99
  -5   1  15  107.33   18.21
  -5   1  16  164.89   24.09
  -5  -1  16  180.29   23.50
  -5   1  17   76.41   18.27
  -5  -1  17   50.14   12.63
  -5  -1  18  184.82   25.58
  -5   1  18  190.89   27.88
  -5  -1  19   13.85    9.15
  -5   1  19   29.86   11.03
  -5   1  20  128.41   26.15
  -5  -1  20  106.45   20.31
  -5  -1  21  124.53   22.85
  -5   1  21   99.42   23.33
  -5  -1  22  190.01   30.79
  -5  -2 -19   25.90    8.88
  -5  -2 -18   30.45    9.63
  -5   2 -18   23.11    9.67
  -5  -2 -17   21.58    8.14
  -5   2 -17   42.98   11.55
  -5  -2 -16   97.45   15.27
  -5   2 -16   90.92   17.21
  -5  -2 -15  112.01   15.93
  -5   2 -15  133.95   19.15
  -5  -2 -14  234.35   22.04
  -5   2 -14  263.67   26.72
  -5  -2 -13  198.35   19.96
  -5   2 -13  207.91   23.19
   5  -2 -13  230.14   16.59
  -5  -2 -12  245.79   22.32
  -5   2 -12  270.85   25.53
   5  -2 -12  270.55   18.05
  -5  -2 -11  347.59   25.28
  -5   2 -11  353.42   28.50
   5  -2 -11  328.23   19.83
  -5  -2 -10  233.26   20.31
  -5   2 -10  205.21   21.17
  -5   2 -10  226.91   15.80
   5  -2 -10  228.80   16.69
  -5  -2  -9  142.97   15.73
  -5   2  -9  137.17   16.84
  -5   2  -9  161.13   13.58
   5  -2  -9  156.84   13.89
  -5   2  -8  102.45   11.02
  -5  -2  -8   87.62   12.49
  -5   2  -8   90.72   13.58
   5  -2  -8  102.85   11.50
  -5  -2  -7   98.49   12.74
  -5   2  -7  105.53   13.90
  -5   2  -7   89.63   10.26
   5  -2  -7   96.30   11.24
  -5   2  -6   62.63    8.53
  -5  -2  -6   60.07   10.38
  -5   2  -6   50.31    9.51
   5  -2  -6   73.65    9.88
  -5   2  -5   68.39    9.30
  -5  -2  -5   64.48   10.26
  -5   2  -5   73.22   10.74
  -5  -2  -4  100.82   11.09
  -5  -2  -4  110.96   13.13
  -5   2  -4  126.05   13.49
  -5   2  -4  115.01   12.84
  -5  -2  -3  162.53   13.92
  -5  -2  -3  200.49   17.50
  -5   2  -3  155.25   14.85
  -5   2  -3  172.86   15.63
   5  -2  -3  177.60   13.01
  -5  -2  -2  254.96   17.80
  -5  -2  -2  285.85   20.86
  -5   2  -2  298.74   19.36
  -5   2  -2  329.17   21.84
   5  -2  -2  299.73   16.09
  -5  -2  -1  277.05   18.68
  -5  -2  -1  295.36   21.18
  -5   2  -1  294.99   18.52
   5   2  -1  291.86   19.89
  -5   2  -1  303.58   21.58
   5  -2  -1  261.15   14.31
  -5  -2   0  355.87   23.33
  -5   2   0  330.26   18.79
  -5   2   0  326.60   23.04
   5  -2   0  307.65   14.79
  -5  -2   0  350.05   21.13
  -5  -2   1  307.88   21.85
  -5   2   1  280.96   16.32
  -5   2   1  324.61   23.07
   5  -2   1  242.19   12.13
  -5  -2   1  307.15   19.64
  -5  -2   2  278.28   20.83
  -5   2   2  286.95   15.49
  -5   2   2  265.04   21.26
  -5  -2   2  282.86   18.74
  -5  -2   3  193.01   17.62
  -5   2   3  214.91   12.94
  -5   2   3  228.80   20.49
  -5  -2   3  220.94   17.16
  -5  -2   4  133.82   14.52
  -5   2   4  121.23    9.04
  -5   2   4  114.18   15.13
  -5  -2   4  153.35   14.47
  -5  -2   5   77.79   10.46
  -5   2   5   65.57    6.14
  -5   2   5   77.45   12.65
  -5   2   5   63.92   11.73
  -5  -2   6   66.34    9.87
  -5   2   6   64.04    5.31
  -5   2   6   62.20   12.03
  -5   2   6   64.84   11.95
  -5   2   7   76.85   13.33
  -5   2   7   93.97   14.87
  -5  -2   7   94.92   12.31
  -5   2   8   91.62   14.61
  -5   2   8  104.41   16.56
  -5  -2   8  109.43   13.26
  -5   2   9  195.93   22.04
  -5   2   9  182.01   20.89
  -5  -2   9  159.06   16.61
  -5   2  10  256.80   26.92
  -5  -2  10  282.61   25.20
  -5   2  10  289.82   27.01
  -5  -2  10  286.89   22.77
  -5   2  11  384.83   33.79
  -5  -2  11  319.38   27.37
  -5   2  11  334.92   29.97
  -5  -2  11  354.00   25.82
  -5   2  12  310.79   31.35
  -5  -2  12  303.49   26.90
  -5   2  12  310.77   29.66
  -5  -2  12  298.42   24.17
  -5   2  13  332.81   34.05
  -5  -2  13  279.70   27.03
  -5   2  13  298.90   29.49
  -5  -2  13  286.81   24.53
  -5   2  14  270.57   30.85
  -5  -2  14  249.95   25.91
  -5   2  14  281.55   29.38
  -5   2  15  141.69   23.89
  -5  -2  15  151.28   21.40
  -5   2  15  159.77   22.75
  -5  -2  16  112.29   19.19
  -5   2  16  140.91   24.26
  -5   2  16  140.25   22.05
  -5  -2  17   34.53   10.97
  -5   2  17   49.74   14.43
  -5   2  17   48.08   13.95
  -5  -2  18   27.70   10.74
  -5   2  18   25.77   10.93
  -5   2  18   47.88   14.49
  -5   2  19   33.02    8.07
  -5  -2  19   32.37   11.74
  -5  -2  20   73.77   17.41
  -5  -2  21  128.49   23.30
  -5  -3 -17  314.98   27.81
  -5   3 -17  316.86   32.98
  -5  -3 -16   15.31    6.93
  -5   3 -16   33.47   12.55
  -5  -3 -15  144.45   18.63
  -5   3 -15  168.50   24.79
   5  -3 -14   27.20    6.79
  -5  -3 -14   17.62    7.34
  -5   3 -14   38.46   10.46
   5  -3 -13   37.00    8.43
  -5  -3 -13   33.68    9.36
  -5   3 -13   18.32    9.00
   5  -3 -12    0.36    3.00
  -5  -3 -12    6.65    4.51
   5  -3 -11   23.00    7.30
  -5  -3 -11   44.27   10.36
  -5   3 -11   31.55    9.95
   5  -3 -10   13.60    5.43
  -5  -3 -10   22.05    8.06
  -5   3 -10   16.25    8.15
  -5  -3  -9  271.25   23.32
  -5   3  -9  284.61   27.49
   5  -3  -9  265.05   21.62
   5  -3  -8   66.02   10.87
  -5  -3  -8   62.80   11.38
  -5   3  -8   63.73   11.56
  -5   3  -8   81.37   14.72
  -5   3  -7  587.36   35.06
  -5  -3  -7  498.21   31.04
  -5   3  -7  506.27   35.03
   5  -3  -7  478.33   29.71
   5  -3  -6   79.67   11.99
  -5   3  -6   98.05   13.82
  -5  -3  -6   80.78   12.72
  -5   3  -6   76.19   14.20
  -5   3  -5  682.79   37.26
  -5  -3  -5  597.96   34.19
  -5   3  -5  621.09   36.21
   5  -3  -5  615.51   34.55
   5  -3  -4   64.02   11.33
  -5   3  -4   53.59   11.55
  -5  -3  -4   53.53   10.55
  -5   3  -4   55.65   11.36
  -5   3  -3  314.97   24.95
  -5  -3  -3  283.51   23.48
  -5   3  -3  272.67   22.49
   5  -3  -3  306.33   23.97
   5  -3  -2   25.65    7.42
  -5   3  -2   30.13    8.66
  -5  -3  -2   36.51    8.91
  -5   3  -2   21.94    6.98
   5  -3  -1   58.77   11.06
  -5   3  -1   37.23    9.99
  -5  -3  -1   49.06    9.74
  -5  -3  -1   57.51   11.00
  -5   3  -1   48.31    8.24
   5  -3   0    9.38    5.97
  -5  -3   0    1.89    4.30
  -5   3   0    2.43    4.24
  -5  -3   0    5.69    3.06
  -5   3   0   -0.93    4.19
   5  -3   1   72.18   12.43
  -5  -3   1   56.33   10.72
  -5   3   1   61.13   12.52
  -5  -3   1   75.59   12.02
  -5   3   1   60.38    8.85
  -5  -3   2   25.47    7.71
  -5   3   2   23.77    7.93
  -5  -3   2   15.09    5.75
  -5   3   2   22.63    5.04
  -5  -3   3  306.98   24.23
  -5   3   3  275.75   25.71
  -5   3   3  266.52   15.55
  -5  -3   4   62.49   11.24
  -5   3   4   66.66    7.10
  -5   3   4   59.69   12.76
  -5   3   5  611.75   39.92
  -5  -3   5  602.96   34.60
  -5  -3   6   91.39   11.43
  -5  -3   6  101.06   13.93
  -5   3   6   80.12   15.24
  -5  -3   7  470.50   25.68
  -5   3   7  508.01   38.37
  -5  -3   7  510.09   32.23
  -5  -3   8   67.53   12.16
  -5   3   8   52.96   13.53
  -5   3   9  252.55   28.58
  -5   3   9  228.09   25.82
  -5  -3   9  266.46   23.69
  -5  -3  10   12.25    6.37
  -5   3  10    7.97    5.68
  -5   3  10   19.06    7.09
  -5  -3  11   16.39    6.84
  -5   3  11    3.56    5.61
  -5   3  11   27.99    9.81
  -5   3  12    2.25    6.70
  -5  -3  12   -3.81    5.20
  -5   3  12    1.20    5.55
  -5  -3  13   47.38   11.09
  -5   3  13   19.70    9.50
  -5  -3  13   29.32    9.22
  -5   3  13   39.04   12.18
  -5  -3  14   22.60    9.11
  -5  -3  14   17.02    7.50
  -5   3  14   18.74    8.39
  -5   3  14    2.80   10.73
  -5  -3  15  179.38   23.67
  -5   3  15  156.84   23.70
  -5  -3  15  192.17   22.33
  -5  -3  16   23.85    9.25
  -5   3  16   33.36   11.48
  -5  -3  16   38.74   12.06
  -5  -3  17  364.61   34.53
  -5   3  17  349.82   37.13
  -5  -3  17  417.15   34.73
  -5  -3  18   45.45   12.80
  -5  -3  19  384.16   37.45
  -5  -4 -15   38.84    9.86
  -5   4 -15   53.15   14.73
  -5  -4 -14  229.06   23.68
  -5   4 -14  223.35   29.86
   5  -4 -14  201.18   21.78
   5  -4 -13    5.72    5.00
  -5  -4 -13   15.04    6.83
  -5  -4 -12  262.42   25.21
  -5   4 -12  271.96   31.65
   5  -4 -12  287.64   26.32
   5  -4 -11   24.45    8.13
  -5  -4 -11   28.92    9.51
  -5   4 -11   31.85   10.76
  -5  -4 -10  234.92   23.74
  -5   4 -10  193.63   26.56
   5  -4 -10  190.44   21.81
   5  -4  -9   85.82   14.66
  -5  -4  -9   62.44   12.69
  -5   4  -9   75.78   15.28
   5  -4  -8   69.27   13.69
  -5  -4  -8   69.65   13.03
  -5   4  -8   76.19   16.24
   5  -4  -7   19.27    7.75
  -5  -4  -7   15.16    7.17
  -5   4  -7   36.01   11.05
  -5  -4  -6  138.06   18.11
  -5   4  -6  149.58   20.94
   5  -4  -6  158.44   19.83
   5  -4  -5   64.49   12.97
  -5  -4  -5   42.56   10.39
  -5   4  -5   62.17   14.37
  -5  -4  -4   96.64   14.88
  -5   4  -4  118.57   17.67
   5  -4  -4  130.94   18.30
   5  -4  -3  125.19   18.37
  -5  -4  -3  113.88   16.69
  -5   4  -3  115.49   17.84
  -5  -4  -2  395.57   30.61
  -5   4  -2  437.82   31.75
   5  -4  -2  376.39   31.75
   5  -4  -1   29.33   10.14
  -5  -4  -1   40.96   10.19
  -5   4  -1   31.83    9.00
  -5  -4   0  449.54   32.14
  -5   4   0  522.81   32.13
   5  -4   0  496.88   36.40
   5  -4   1   31.53    9.98
  -5  -4   1   34.01    9.05
  -5  -4   1   43.44   10.09
  -5   4   1   64.98   11.27
  -5  -4   2  338.38   31.44
  -5  -4   2  344.27   27.01
  -5   4   2  433.75   25.93
   5  -4   2  376.05   32.33
   5  -4   3  117.49   18.14
  -5  -4   3  101.71   16.97
  -5  -4   3  103.21   14.46
  -5  -4   4  126.94   15.63
   5  -4   4  105.54   18.05
  -5  -4   4  106.43   17.79
  -5  -4   5   63.05   13.48
  -5  -4   5   41.13    8.88
  -5  -4   6  158.99   16.66
  -5  -4   6  126.79   18.83
  -5  -4   7   26.41    9.84
  -5  -4   8   55.84   12.45
  -5  -4   9   81.23   15.70
  -5  -4  10  224.70   25.40
  -5  -4  11   38.34   11.90
  -5   4  12  264.21   31.90
  -5  -4  12  301.39   30.01
  -5  -4  13   25.54    9.79
  -5   4  13   18.16   10.99
  -5  -4  14  252.81   27.91
  -5   4  14  254.92   31.69
  -5  -4  14  241.77   27.83
  -5  -4  15   45.03   12.72
  -5  -4  16  125.67   19.81
   5  -5 -14   77.95   17.29
   5  -5 -13  180.65   25.30
   5  -5 -12   10.08    7.84
  -5   5 -12   43.66   13.33
  -5  -5 -11  193.52   26.30
  -5   5 -11  200.19   28.99
   5  -5 -11  243.19   28.73
   5  -5 -10   60.45   13.69
  -5  -5 -10   50.04   14.54
  -5  -5 -10   85.08   16.21
  -5   5 -10   95.13   18.59
   5  -5  -9  102.39   18.33
  -5  -5  -9  112.21   19.26
  -5  -5  -9  141.83   20.16
  -5   5  -9   93.36   20.26
   5  -5  -8   16.25    8.15
  -5  -5  -8   22.30   10.19
  -5  -5  -8    6.65    6.06
  -5   5  -8   24.88   10.36
   5  -5  -7   57.07   13.56
  -5  -5  -7   53.67   13.42
  -5  -5  -7   47.43   11.85
  -5   5  -7   48.76   12.50
   5  -5  -6   12.05    6.66
  -5  -5  -6    4.55    5.89
  -5  -5  -6    9.77    5.00
  -5   5  -6    2.28    7.48
   5  -5  -5    3.94    6.51
  -5  -5  -5   15.99    7.52
  -5  -5  -5   13.88    7.68
  -5   5  -5   18.17    9.07
   5  -5  -4   16.13    9.71
  -5  -5  -4   30.53   10.31
  -5   5  -4   36.16   11.35
  -5  -5  -3  168.73   21.80
  -5   5  -3  194.42   24.08
   5  -5  -3  216.96   28.46
   5  -5  -2  104.24   19.94
  -5  -5  -2   98.73   16.80
  -5   5  -2  109.77   19.46
  -5  -5  -1  233.62   25.08
  -5   5  -1  316.29   29.85
   5  -5  -1  261.86   30.72
   5  -5   0   42.78   12.25
  -5  -5   0   34.36   10.43
  -5  -5   1  236.93   25.42
   5  -5   1  270.71   30.99
   5  -5   2   85.47   19.17
  -5  -5   2   78.95   16.83
  -5  -5   2   69.76   13.80
  -5  -5   3  190.57   21.57
  -5  -5   3  205.25   27.51
   5  -5   3  191.79   26.06
   5  -5   4   11.96    7.92
  -5  -5   4   22.18   10.24
  -5  -5   4    9.52    5.63
   5  -5   5   10.18    6.84
  -5  -5   5   22.71    9.18
   5  -5   6    7.29    6.44
  -5  -5   6   12.77    6.73
  -5  -5   7   44.99   13.94
  -5  -5   8   34.47   13.69
  -5  -5   9  119.40   21.11
  -5  -5  10   88.00   19.16
  -5   6  -8   84.51   18.26
  -5   6  -7   98.35   20.01
  -5   6  -6   87.82   19.08
  -5  -6  -5  156.60   22.80
  -5   6  -5  141.70   23.12
  -5  -6  -4   92.34   17.80
  -5  -6  -3   67.97   15.10
  -5  -6  -2   13.24    7.77
  -5  -6  -1    1.36    5.07
  -5  -6   0   17.99    9.80
  -5  -6   1   16.28    8.39
  -5  -6   2    7.16    5.13
  -5  -6   3   48.43   15.03
  -6   0 -17    0.14    4.57
  -6   0 -16  186.25   22.41
  -6   0 -15   12.30    7.12
  -6   0 -14  273.55   25.62
  -6   0 -13    4.45    5.28
  -6   0 -12  732.30   41.35
  -6   0 -11    4.50    4.94
  -6   0 -10  224.13   21.45
  -6   0  -9   -1.65    4.77
  -6   0  -8  134.62   15.62
  -6   0  -7   -1.42    3.53
  -6   0  -6   43.97    8.58
  -6   0  -5   -1.07    3.73
  -6   0  -4  111.63   12.62
  -6   0  -3   -0.75    3.02
  -6   0  -2  592.41   30.01
  -6   0  -1   -0.12    3.42
  -6   0   0  959.38   37.72
  -6   0   1    0.36    3.69
  -6   0   1    3.27    3.16
  -6   0   2  624.75   35.62
  -6   0   2  656.91   29.81
  -6   0   3    3.32    2.85
  -6   0   3   -3.79    3.69
  -6   0   4  106.89   14.98
  -6   0   4  126.87   12.44
  -6   0   5   -3.47    4.07
  -6   0   5   -1.52    4.22
  -6   0   6   59.23    8.89
  -6   0   6   68.18   12.05
  -6   0   7    0.93    4.19
  -6   0   8  127.22   17.74
  -6   0   9    2.51    4.26
  -6   0  10  346.96   29.85
  -6   0  11    4.96    7.48
  -6   0  12  863.68   51.62
  -6   0  13    4.21    6.51
  -6   0  14  391.12   35.94
  -6   0  15   -4.36    5.43
  -6   0  16  218.10   28.92
  -6   0  17    1.24    6.45
  -6   0  18   57.40   15.86
  -6  -1 -16  417.73   32.47
  -6   1 -16  391.95   33.23
  -6  -1 -15  162.72   20.22
  -6   1 -15  178.78   22.35
  -6  -1 -14  132.46   18.45
  -6   1 -14  148.11   19.54
  -6  -1 -13  226.07   22.32
  -6   1 -13  251.32   24.72
  -6  -1 -12  342.53   27.51
  -6   1 -12  338.50   27.70
  -6   1 -11  100.87   12.60
  -6  -1 -11  123.25   16.08
  -6   1 -11  112.54   16.11
  -6  -1 -10  158.11   17.52
  -6   1 -10  174.63   18.96
  -6  -1  -9  647.10   35.69
  -6   1  -9  610.78   35.15
  -6   1  -8  758.96   36.58
  -6  -1  -8  759.30   38.55
  -6   1  -8  721.81   37.38
  -6   1  -7  581.84   32.30
  -6  -1  -7  549.78   32.03
  -6   1  -7  524.36   30.78
  -6   1  -6  102.93   13.41
  -6  -1  -6  105.56   14.34
  -6   1  -6  105.79   13.30
  -6   1  -5  520.92   29.99
  -6  -1  -5  447.20   27.84
  -6   1  -5  457.69   27.53
  -6   1  -5  396.14   19.90
  -6   1  -4  700.95   35.21
  -6  -1  -4  665.78   33.53
  -6   1  -4  626.35   31.14
  -6   1  -4  542.53   25.26
  -6  -1  -4  556.15   24.47
  -6   1  -3  611.15   33.37
  -6  -1  -3  580.72   30.81
  -6   1  -3  574.60   28.94
  -6   1  -3  501.77   25.40
  -6  -1  -3  561.59   25.38
  -6   1  -2  248.02   21.13
  -6  -1  -2  238.39   19.54
  -6   1  -2  224.11   17.20
  -6   1  -2  224.13   17.17
  -6  -1  -2  265.49   17.35
  -6  -1  -1  246.97   19.32
  -6   1  -1  226.59   20.60
  -6   1  -1  217.33   16.82
  -6   1  -1  221.93   17.91
  -6  -1  -1  247.46   17.16
  -6  -1   0  424.38   25.65
  -6   1   0  421.35   28.25
  -6   1   0  381.50   22.35
  -6   1   0  406.30   25.15
  -6  -1   0  487.72   24.83
  -6  -1   1  162.94   15.54
  -6   1   1  151.07   13.33
  -6   1   1  153.28   17.23
  -6   1   1  160.30   16.43
  -6  -1   1  191.93   15.86
  -6  -1   2  226.47   18.58
  -6   1   2  201.79   15.08
  -6   1   2  233.79   21.42
  -6   1   2  228.99   20.04
  -6  -1   2  254.36   18.65
  -6  -1   3  707.13   34.30
  -6   1   3  692.90   28.88
  -6   1   3  717.88   39.53
  -6   1   3  717.57   37.85
  -6  -1   3  847.56   35.89
  -6  -1   4  776.52   36.34
  -6   1   4  734.71   29.32
  -6   1   4  809.32   40.57
  -6   1   4  760.99   41.36
  -6  -1   5  398.91   25.66
  -6   1   5  403.87   20.55
  -6   1   5  419.92   29.38
  -6   1   5  409.63   30.30
  -6   1   6   87.85   14.41
  -6   1   6  114.53   15.89
  -6  -1   6   97.49   14.99
  -6  -1   7  760.97   42.46
  -6   1   7  756.09   42.52
  -6   1   7  744.12   43.34
  -6  -1   8  842.04   45.74
  -6   1   8  874.18   46.93
  -6   1   8  799.96   46.32
  -6  -1   9  582.96   38.51
  -6   1   9  602.34   39.58
  -6   1   9  631.02   41.40
  -6  -1  10  256.65   25.37
  -6   1  10  278.39   27.12
  -6   1  10  254.39   26.62
  -6  -1  11  236.20   25.47
  -6   1  11  239.91   26.22
  -6   1  11  241.02   27.09
  -6   1  12  436.86   35.91
  -6  -1  12  446.44   35.93
  -6   1  12  459.08   37.99
  -6   1  13  279.62   29.37
  -6  -1  13  209.06   25.06
  -6   1  13  255.30   29.60
  -6  -1  14  137.13   20.91
  -6   1  14  152.03   23.57
  -6   1  15  346.75   36.25
  -6  -1  15  353.57   34.65
  -6   1  16  496.77   45.29
  -6  -1  16  513.13   43.12
  -6   1  17  410.40   42.94
  -6  -1  17  401.09   39.43
  -6  -1  18   21.30    8.81
  -6   2 -16  123.60   19.91
  -6  -2 -15  164.73   20.13
  -6   2 -15  144.35   20.97
  -6  -2 -14  101.21   16.67
  -6   2 -14  123.35   19.63
  -6  -2 -13    5.18    5.17
  -6   2 -13  -10.42    7.64
  -6  -2 -12   27.86    8.50
  -6   2 -12   40.10   10.95
  -6  -2 -11  178.99   20.00
  -6   2 -11  195.42   22.93
  -6  -2 -10   71.58   12.97
  -6   2 -10   77.65   13.71
  -6   2  -9   94.86   11.92
  -6  -2  -9  104.18   14.65
  -6   2  -9  102.63   15.00
  -6  -2  -8  188.21   19.87
  -6   2  -8  157.53   19.01
  -6   2  -8  139.54   14.62
  -6  -2  -7  395.89   28.19
  -6   2  -7  347.92   26.26
  -6   2  -7  287.92   21.99
  -6  -2  -6  248.52   21.86
  -6   2  -6  245.02   21.20
  -6   2  -6  242.86   20.37
  -6  -2  -5  127.15   15.58
  -6   2  -5  130.27   14.92
  -6   2  -5  132.32   15.43
  -6  -2  -5  126.99   12.38
  -6  -2  -4  208.92   19.93
  -6   2  -4  205.64   18.73
  -6   2  -4  205.33   19.15
  -6  -2  -4  155.86   14.25
  -6  -2  -3  207.33   19.73
  -6   2  -3  181.34   16.63
  -6   2  -3  192.47   18.79
  -6  -2  -3  162.20   14.68
  -6  -2  -2  154.07   16.88
  -6   2  -2  144.49   14.05
  -6   2  -2  159.41   17.19
  -6  -2  -2  127.09   13.03
  -6  -2  -1   34.52    7.66
  -6   2  -1   39.34    9.04
  -6  -2  -1   40.13    8.71
  -6   2  -1   35.39    7.18
  -6  -2   0   23.91    6.68
  -6   2   0   25.51    7.92
  -6  -2   0   25.85    7.00
  -6   2   0   24.26    5.48
  -6   2   0   21.32    6.77
  -6  -2   1   45.10    8.44
  -6   2   1   42.07    9.84
  -6  -2   1   46.85    9.67
  -6   2   1   33.24    6.59
  -6   2   1   43.08    9.37
  -6  -2   2  118.78   15.02
  -6   2   2  109.12   15.30
  -6   2   2  117.45   11.10
  -6   2   2   96.61   13.85
  -6  -2   2  104.35   13.08
  -6  -2   3  258.33   22.23
  -6   2   3  266.30   16.15
  -6   2   3  274.47   23.84
  -6   2   3  284.23   25.12
  -6  -2   3  260.04   20.23
  -6  -2   4  214.58   19.88
  -6   2   4  176.34   19.94
  -6   2   4  180.10   20.21
  -6  -2   4  199.20   18.08
  -6   2   5  170.71   19.98
  -6  -2   5  197.31   18.52
  -6   2   5  184.63   21.09
  -6   2   6  273.46   25.66
  -6  -2   6  276.41   22.82
  -6   2   6  287.18   27.29
  -6   2   7  385.73   31.41
  -6  -2   7  441.44   29.12
  -6   2   7  410.31   33.31
  -6   2   8  224.62   25.36
  -6   2   8  225.46   24.38
  -6  -2   8  228.45   21.47
  -6  -2   9   96.54   14.16
  -6  -2   9   79.66   14.63
  -6   2   9   94.25   16.12
  -6   2   9  114.94   18.31
  -6  -2  10  131.59   19.29
  -6   2  10  140.71   20.43
  -6  -2  10  142.06   17.48
  -6   2  10  151.81   22.21
  -6   2  11  204.78   26.67
  -6  -2  11  180.06   23.00
  -6   2  11  241.26   27.11
  -6  -2  11  185.83   19.96
  -6   2  12   76.96   17.76
  -6   2  12   57.98   13.78
  -6  -2  12   56.97   13.21
  -6   2  13   20.12   11.39
  -6   2  13   19.65    7.49
  -6  -2  13   29.83    9.98
  -6   2  14  126.28   23.00
  -6   2  14  144.50   22.25
  -6  -2  14  119.44   19.84
  -6   2  15  244.19   29.94
  -6  -2  15  216.47   26.81
  -6   2  15  234.09   32.06
  -6  -2  16  162.25   23.60
  -6   2  16  147.44   24.24
  -6  -2  17   60.06   16.92
  -6   3 -14  134.32   21.37
  -6  -3 -13  170.27   20.87
  -6   3 -13  165.64   23.11
  -6  -3 -12  597.77   39.14
  -6   3 -12  694.53   47.51
  -6  -3 -11  228.26   23.79
  -6   3 -11  240.22   27.45
  -6  -3 -10  137.30   18.82
  -6   3 -10  103.11   17.38
  -6  -3  -9  217.34   22.99
  -6   3  -9  229.18   24.68
  -6  -3  -8  187.10   20.63
  -6   3  -8  166.08   20.66
  -6  -3  -7  248.10   23.35
  -6   3  -7  201.52   22.93
  -6   3  -6   14.60    7.35
  -6  -3  -6   11.13    6.27
  -6  -3  -6   14.37    7.32
  -6   3  -6    5.34    4.09
  -6  -3  -5  218.47   20.67
  -6   3  -5  250.64   23.96
  -6  -3  -5  260.63   23.86
  -6   3  -5  281.12   24.11
  -6  -3  -4  240.66   21.89
  -6  -3  -4  284.09   24.84
  -6   3  -4  286.73   23.29
  -6  -3  -3  567.85   33.97
  -6   3  -3  487.88   33.89
  -6  -3  -3  615.13   37.26
  -6   3  -3  605.00   34.16
  -6   3  -2  130.41   17.77
  -6  -3  -2  110.65   14.88
  -6  -3  -2  122.47   17.18
  -6   3  -2  137.07   15.06
  -6  -3  -1  506.92   32.65
  -6   3  -1  603.51   38.12
  -6  -3  -1  603.50   37.08
  -6   3  -1  552.32   29.63
  -6   3   0 1195.35   56.11
  -6  -3   0 1272.99   55.39
  -6   3   0 1228.96   44.35
  -6   3   1  744.23   43.34
  -6  -3   1  698.68   40.77
  -6   3   1  699.66   30.79
  -6  -3   1  617.95   36.88
  -6   3   2  140.99   18.93
  -6  -3   2  150.01   18.23
  -6  -3   2  146.42   17.93
  -6   3   3  562.88   38.74
  -6  -3   3  511.51   33.03
  -6   3   4  276.71   28.24
  -6  -3   4  267.08   24.12
  -6   3   5  319.67   30.40
  -6  -3   5  301.78   25.63
  -6  -3   6   17.57    6.77
  -6   3   6   21.52   10.06
  -6   3   6    8.67    5.09
  -6   3   7  205.85   25.22
  -6   3   7  171.38   22.42
  -6  -3   7  215.51   22.01
  -6   3   8  151.10   22.50
  -6   3   8  122.48   19.42
  -6  -3   8  144.86   18.08
  -6   3   9  262.10   30.74
  -6   3   9  271.19   28.87
  -6  -3   9  288.37   26.21
  -6   3  10  118.49   21.94
  -6  -3  10  104.48   16.74
  -6   3  10  107.03   18.84
  -6   3  11  214.27   29.05
  -6  -3  11  201.07   25.35
  -6   3  11  224.53   27.84
  -6  -3  11  265.05   26.51
  -6  -3  12  764.39   50.02
  -6   3  12  797.84   57.26
  -6   3  12  701.35   50.05
  -6  -3  12  782.51   46.51
  -6  -3  13  191.81   25.41
  -6   3  13  226.57   28.59
  -6   3  13  224.91   29.98
  -6  -3  13  233.25   25.51
  -6   3  14  176.83   26.33
  -6  -3  14  144.77   22.33
  -6  -3  14  203.96   24.34
  -6  -3  15  272.76   31.01
  -6  -3  16  215.62   29.15
   6  -4 -12    8.16    6.65
  -6   4 -12   11.62    5.92
   6  -4 -11   38.20   10.25
  -6   4 -11   44.04   12.45
   6  -4 -10   90.40   15.55
  -6  -4 -10  115.33   17.99
  -6   4 -10   87.14   17.68
  -6  -4  -9  197.10   23.65
  -6   4  -9  234.73   28.37
   6  -4  -9  206.52   23.30
   6  -4  -8   53.45   12.53
  -6  -4  -8   46.92   11.87
  -6   4  -8   30.21   10.43
   6  -4  -7  120.10   17.70
  -6  -4  -7  114.60   17.83
  -6   4  -7  115.78   20.09
   6  -4  -6    4.31    5.38
  -6  -4  -6    5.17    6.47
  -6   4  -6   -6.66    8.19
  -6  -4  -5  274.05   27.09
  -6   4  -5  308.19   29.29
   6  -4  -5  277.30   27.45
   6  -4  -4   49.44   12.39
  -6  -4  -4   56.67   12.99
  -6   4  -4   48.84   11.72
  -6  -4  -3  145.00   21.26
  -6  -4  -3  174.60   21.15
  -6   4  -3  155.65   19.37
   6  -4  -3  171.59   22.55
   6  -4  -2   54.04   13.09
  -6  -4  -2   63.07   13.52
  -6  -4  -2   82.64   15.26
  -6   4  -2   41.18   11.22
  -6  -4  -1  145.76   20.96
  -6   4  -1  105.50   18.79
  -6  -4  -1  149.00   19.71
  -6  -4   0   -0.03    5.62
  -6   4   0  -19.15    8.54
  -6  -4   1  145.36   19.48
  -6  -4   1  149.98   21.17
  -6   4   1  158.19   22.95
  -6  -4   2   58.62   13.15
  -6  -4   2   48.41   10.83
  -6   4   2   59.23   14.61
  -6   4   3  148.08   23.76
  -6  -4   3  152.42   18.64
  -6  -4   3  146.25   20.63
  -6  -4   4   60.15   13.98
  -6   4   4   56.88   13.75
  -6   4   5  252.90   31.08
  -6  -4   5  279.14   29.28
  -6  -4   6   11.02    8.75
  -6   4   6   -2.25    5.32
  -6  -4   7  103.53   17.95
  -6  -4   8   56.19   13.95
  -6   4   9  228.66   29.39
  -6  -4   9  267.11   29.12
  -6  -4  10   96.29   17.50
  -6   4  10   85.93   17.24
  -6  -4  11   64.50   15.58
  -6   4  11   13.78    8.87
  -6  -4  13   73.52   17.13
   6  -5 -10  508.59   42.41
   6  -5  -9   35.33   11.48
  -6   5  -9   69.60   17.35
   6  -5  -8    4.99    7.04
  -6   5  -8   29.09   11.68
   6  -5  -7   25.44   10.93
  -6  -5  -7    9.80    7.87
  -6   5  -7   25.22   10.64
  -6   5  -6  970.69   60.58
   6  -5  -6  945.63   60.28
   6  -5  -5  125.76   21.58
  -6  -5  -5   72.94   15.11
   6  -5  -4   21.71   10.17
  -6  -5  -4   33.97   11.06
   6  -5  -3    4.36    9.31
  -6  -5  -3   32.54   10.22
  -6  -5  -2  366.29   39.15
  -6  -5  -2  393.17   34.34
   6  -5  -1   23.36   11.55
  -6  -5  -1    5.85    5.87
   6  -5   0  108.77   21.85
  -6  -5   0   97.98   20.12
  -6  -5   0   78.74   15.28
   6  -5   1   13.76   10.83
  -6  -5   1   36.72   15.14
  -6  -5   1   12.54    8.65
  -6  -5   2  484.77   45.95
  -6  -5   3   40.79   16.46
  -6  -5   4   12.63    8.64
  -6  -5   5   92.76   20.57
  -6  -5   6  979.27   66.14
  -7   0 -13   31.98    9.61
  -7   0 -12    2.75    4.82
  -7   0 -11   36.87   10.81
  -7   0 -10   -4.95    5.08
  -7   0  -9  199.71   20.87
  -7   0  -8    0.74    3.98
  -7   0  -7  322.06   25.65
  -7   0  -6    1.36    4.25
  -7   0  -5  474.50   30.05
  -7   0  -4   -4.58    3.92
  -7   0  -3  245.63   24.67
  -7   0  -3  235.54   20.54
  -7   0  -2   -4.91    7.36
  -7   0  -2   -0.59    3.52
  -7   0  -1   85.58   14.82
  -7   0  -1   63.24   10.59
  -7   0   0    4.73    4.11
  -7   0   0    2.37    3.63
  -7   0   1   81.47   11.61
  -7   0   1   68.34   13.57
  -7   0   2   -0.39    3.72
  -7   0   2    2.01    4.17
  -7   0   3  270.06   20.66
  -7   0   3  256.12   26.12
  -7   0   4   -8.37    5.88
  -7   0   5  556.30   38.94
  -7   0   6    1.88    5.26
  -7   0   7  341.80   31.46
  -7   0   8   -2.60    4.86
  -7   0   9  252.38   27.60
  -7   0  10   -0.71    5.30
  -7   0  11   35.21   10.38
  -7   0  12   -3.70    9.83
  -7   1 -13   81.57   15.09
  -7  -1 -12  288.82   26.95
  -7   1 -12  299.12   28.06
  -7  -1 -11   55.64   12.54
  -7   1 -11   56.40   12.30
  -7  -1 -10  140.47   18.01
  -7   1 -10  141.21   18.62
  -7  -1  -9   47.02   10.69
  -7   1  -9   66.25   12.73
  -7   1  -9   59.37   11.28
  -7  -1  -8   78.32   13.08
  -7   1  -8   92.38   13.66
  -7   1  -8   64.11   12.52
  -7  -1  -7   21.09    6.26
  -7   1  -7   13.58    5.57
  -7   1  -7   12.72    6.11
  -7  -1  -6   63.19   11.33
  -7   1  -6   72.43   11.95
  -7   1  -6   34.75    9.76
  -7  -1  -5   14.32    6.31
  -7   1  -5    5.93    5.46
  -7   1  -5    8.36    6.04
  -7  -1  -4  115.37   15.39
  -7   1  -4  119.47   18.24
  -7   1  -4  106.82   13.64
  -7  -1  -3   99.67   13.88
  -7   1  -3   87.73   11.78
  -7   1  -3  103.65   15.85
  -7  -1  -2  328.21   25.11
  -7   1  -2  288.35   22.08
  -7   1  -2  317.93   27.81
  -7  -1  -1   81.17   12.80
  -7   1  -1   77.99   11.25
  -7   1  -1   61.59   13.36
  -7  -1   0  371.83   26.63
  -7   1   0  333.96   22.87
  -7   1   0  361.86   29.83
  -7   1   0  377.25   26.24
  -7   1   1   86.41   15.45
  -7  -1   1   83.71   12.53
  -7   1   1   73.42   10.24
  -7   1   1   88.14   13.22
  -7  -1   2  355.70   25.91
  -7   1   2  329.89   26.28
  -7   1   2  355.22   30.24
  -7   1   3  123.14   18.04
  -7  -1   3  119.75   15.16
  -7   1   3  120.72   16.31
  -7  -1   3   89.00   16.09
  -7   1   4  113.45   17.60
  -7  -1   4  138.19   16.06
  -7   1   4  110.93   16.09
  -7  -1   4  131.55   18.49
  -7   1   5   19.46    7.46
  -7  -1   5   16.47    5.31
  -7  -1   5   33.85   10.03
  -7   1   5   32.02   10.05
  -7   1   6   68.72   14.50
  -7   1   6   95.54   16.21
  -7  -1   6   76.46   15.20
  -7   1   7   31.30   10.06
  -7   1   7   26.68    9.06
  -7  -1   7   11.43    6.91
  -7   1   8  127.18   20.21
  -7  -1   8  111.75   18.64
  -7   1   9   79.51   16.39
  -7  -1   9   57.82   13.05
  -7  -1  10  182.78   23.71
  -7   1  10  181.34   24.30
  -7   1  11   76.83   17.34
  -7  -1  11   49.85   12.41
  -7  -1  12  303.12   32.80
  -7   1  12  411.33   39.03
  -7   2 -12  155.80   21.84
  -7  -2 -11  254.34   25.45
  -7   2 -11  206.36   23.74
  -7  -2 -10  159.03   19.87
  -7   2 -10  153.98   20.39
  -7  -2  -9  101.86   15.63
  -7   2  -9  104.39   16.21
  -7  -2  -8   63.49   12.55
  -7   2  -8   38.49   10.35
  -7   2  -7   47.34   11.27
  -7  -2  -7   84.68   14.51
  -7   2  -7   70.77   13.22
  -7   2  -6   35.88    9.56
  -7  -2  -6   47.93   11.45
  -7   2  -6   45.17   10.28
  -7   2  -5   30.33    8.56
  -7  -2  -5   53.95   11.78
  -7   2  -5   38.04    9.45
  -7   2  -4   74.70   13.79
  -7  -2  -4  101.21   14.84
  -7   2  -4   99.29   13.54
  -7   2  -3   97.35   15.73
  -7  -2  -3  128.14   17.16
  -7   2  -3  127.47   14.76
  -7  -2  -2  214.77   21.81
  -7   2  -2  226.72   19.14
  -7   2  -2  218.71   23.04
  -7  -2  -1  175.68   19.18
  -7   2  -1  153.20   15.53
  -7   2  -1  155.33   17.51
  -7   2  -1  164.85   20.47
  -7  -2   0  201.24   20.98
  -7   2   0  175.14   18.90
  -7   2   0  172.85   21.19
  -7  -2   1  196.85   20.80
  -7   2   1  171.94   19.65
  -7   2   1  189.89   22.17
  -7  -2   1  191.95   18.87
  -7  -2   2  166.19   19.44
  -7   2   2  164.25   19.53
  -7   2   2  160.49   20.94
  -7  -2   2  190.75   18.90
  -7  -2   3  170.65   19.54
  -7   2   3  164.60   19.81
  -7  -2   3  195.13   19.80
  -7   2   3  184.01   22.44
  -7  -2   4   93.35   14.22
  -7   2   4   96.30   17.08
  -7   2   4   88.09   15.03
  -7  -2   5   64.18   11.90
  -7   2   5   56.68   14.59
  -7   2   5   56.81   12.98
  -7  -2   6   36.25   10.40
  -7   2   6   58.33   13.82
  -7   2   6   35.41   10.44
  -7  -2   7   60.82   12.41
  -7  -2   7   39.57   11.41
  -7   2   7   67.32   14.32
  -7   2   7   62.30   14.95
  -7  -2   8   79.33   17.21
  -7   2   8   67.59   14.63
  -7   2   8   95.22   17.87
  -7  -2   9  114.48   20.07
  -7   2   9  135.70   20.40
  -7   2   9  133.35   21.53
  -7   2  10  217.47   28.35
  -7  -2  10  180.50   25.41
  -7   2  10  184.56   24.23
  -7  -2  11  197.96   26.33
  -7   2  11  203.79   25.93
  -7   2  12  200.40   26.75
  -7   3 -11   28.98   11.31
  -7   3 -10   19.61    7.34
  -7   3  -9  169.01   22.00
  -7  -3  -8   41.53   11.63
  -7   3  -8   69.00   14.53
  -7  -3  -7  328.01   30.08
  -7   3  -7  309.48   28.90
  -7  -3  -6   57.79   12.91
  -7   3  -6   75.19   14.33
  -7  -3  -5  365.58   31.06
  -7   3  -5  354.70   28.85
  -7   3  -4   28.77   10.08
  -7  -3  -4   47.90   11.28
  -7   3  -4   50.72   10.82
  -7   3  -3   94.56   15.95
  -7  -3  -3  155.05   20.17
  -7   3  -2   23.82    9.41
  -7  -3  -2   24.50    9.28
  -7   3  -1   24.48    9.89
  -7  -3  -1    1.69    6.52
  -7   3  -1   14.52    6.02
  -7   3   0   -1.92    4.30
  -7  -3   0    0.02    4.69
  -7  -3   0   10.27    8.49
  -7   3   0   -3.14    5.51
  -7   3   1   28.55    9.84
  -7  -3   1   14.75    6.63
  -7  -3   1   20.71    6.86
  -7   3   1   18.51    6.71
  -7  -3   2   23.76    8.19
  -7   3   2   27.50   10.04
  -7   3   2   24.91    9.23
  -7  -3   3  128.25   17.71
  -7   3   3  124.93   21.87
  -7   3   3  138.20   19.49
  -7  -3   4   30.08    8.95
  -7   3   4   48.51   13.08
  -7   3   4   41.77   11.00
  -7   3   5  409.16   39.11
  -7   3   5  378.63   33.92
  -7  -3   5  359.41   30.13
  -7  -3   6   89.52   14.94
  -7   3   6   75.43   17.22
  -7   3   6   75.70   15.85
  -7   3   7  406.60   39.21
  -7   3   7  343.61   33.52
  -7  -3   8   46.15   11.64
  -7   3   8   38.56   13.12
  -7   3   8   62.93   14.71
  -7   3   9  180.91   25.89
  -7  -3   9  212.89   24.51
  -7  -3  10   14.95    9.24
  -7   3  10   22.79   10.51
  -7  -3  11   22.61    9.10
  -7   4  -8   70.62   15.49
  -7   4  -7   12.23    7.57
  -7  -4  -2  142.46   20.50
  -7   4  -1   30.94   11.37
  -7  -4  -1   11.93    7.77
  -7  -4   0  175.41   22.83
  -7   4   0  186.89   26.52
  -7  -4   1   -0.39    5.24
  -7   4   1   12.94    8.40
  -7  -4   2  144.73   21.61
  -7   4   2  103.61   21.23
  -7   4   3   46.77   15.94
  -7  -4   3   54.87   13.71
  -7  -4   4  111.41   19.59
  -7   4   4   58.12   17.06
  -7   4   4   87.77   18.54
  -7  -4   5   26.42    9.50
  -7   4   5   24.87   10.98
  -7   4   5   33.17   11.96
  -7  -4   6  138.97   21.86
  -7   4   6  108.47   19.52
  -7  -4   7   -3.12    6.02
  -8   0  -8  333.48   32.76
  -8   0  -8  340.70   29.14
  -8   0  -7   13.99    5.74
  -8   0  -7    8.35    6.91
  -8   0  -6   98.29   17.52
  -8   0  -6  100.40   14.67
  -8   0  -5   10.35    8.83
  -8   0  -5   11.38    5.83
  -8   0  -4  715.21   46.98
  -8   0  -4  592.79   36.70
  -8   0  -3   -1.51    3.95
  -8   0  -3    1.71    5.50
  -8   0  -2   15.02    6.54
  -8   0  -2    1.77    5.65
  -8   0  -1    3.39    4.77
  -8   0  -1   10.98    9.59
  -8   0   0 2314.62   90.51
  -8   0   1    7.34    8.79
  -8   0   2   24.06    9.76
  -8   0   3   -0.97    6.77
  -8   0   4  757.24   49.60
  -8   1  -9  138.61   19.13
  -8   1  -8   28.66    8.50
  -8  -1  -7  146.63   19.70
  -8   1  -7  174.19   20.65
  -8  -1  -6   27.80    8.77
  -8   1  -6   30.41    8.71
  -8   1  -6   17.49    8.50
  -8  -1  -5  204.54   21.78
  -8   1  -5  168.50   19.39
  -8   1  -5  214.03   26.04
  -8  -1  -4   91.41   14.92
  -8   1  -4   82.03   13.08
  -8   1  -4   97.99   18.03
  -8   1  -3  134.73   21.28
  -8  -1  -3  151.57   18.27
  -8   1  -2   34.85   10.41
  -8  -1  -2   52.17   10.65
  -8   1  -1   60.16   15.83
  -8  -1  -1   65.80   12.15
  -8   1   0   19.52   10.10
  -8  -1   0   18.71    8.62
  -8  -1   0   11.47    6.00
  -8   1   1  107.56   18.45
  -8  -1   1   84.13   16.45
  -8  -1   1   80.50   13.41
  -8   1   2   24.11    9.24
  -8  -1   2   37.35   11.35
  -8   1   3  164.44   22.63
  -8   1   4   81.01   17.43
  -8   2  -8   38.75   10.97
  -8   2  -7  251.48   24.75
  -8   2  -6  241.43   23.68
  -8  -2  -5  350.48   30.19
  -8   2  -4   47.39   12.96
  -8  -2  -4   34.63   10.61
  -8  -2  -3  374.10   30.89
  -8   2  -3  348.24   33.13
  -8  -2  -2  186.77   22.19
  -8   2  -2  159.52   23.28
  -8  -2  -1  194.44   22.29
  -8   2  -1  220.37   26.19
  -8   2   0    0.64    6.25
  -8  -2   0    4.56    8.18
  -8   2   1  155.67   22.57
  -8  -2   1  141.77   19.05
  -8   2   2  128.93   22.26
  -8  -2   2  132.54   18.59
  -8   2   3  458.95   40.07
  -8   2   6  295.76   30.87
  -8   2   7  366.90   34.83
  -8   2   8   58.94   16.06
  -8   3   0  341.46   36.71
  -8   3   1   49.55   15.82
   0   0   0    0.00    0.00
;
_shelx_hkl_checksum              12553
_olex2_submission_special_instructions 'No special instructions were received'
_oxdiff_exptl_absorpt_empirical_details
;
Empirical correction (ABSPACK) includes:
- Absorption correction using spherical harmonics
- Frame scaling
;
_oxdiff_exptl_absorpt_empirical_full_max 2.336
_oxdiff_exptl_absorpt_empirical_full_min 0.645
loop_
_space_group_symop_operation_xyz
'x, y, z'
'-x+1/2, -y, z+1/2'
'x+1/2, -y, z+1/2'
'-x, y, z'
loop_
_atom_site_label
_atom_site_type_symbol
_atom_site_fract_x
_atom_site_fract_y
_atom_site_fract_z
_atom_site_U_iso_or_equiv
_atom_site_adp_type
_atom_site_occupancy
_atom_site_site_symmetry_order
_atom_site_calc_flag
_atom_site_refinement_flags_posn
_atom_site_refinement_flags_adp
_atom_site_refinement_flags_occupancy
_atom_site_disorder_assembly
_atom_site_disorder_group
U1 U 0.500000 0.18617(15) 0.60650(5) 0.0114(2) Uani 1 2 d S T P . .
Se1 Se 0.000000 -0.1412(4) 0.52727(11) 0.0126(5) Uani 1 2 d S T P . .
Se2 Se 1.000000 0.5108(4) 0.69022(11) 0.0119(5) Uani 1 2 d S T P . .
Cu1 Cu -0.2502(2) 0.6027(3) 0.36182(10) 0.0057(4) Uani 1 1 d . . . . .
Cu2 Cu 0.000000 0.1069(4) 0.35376(15) 0.0052(5) Uani 1 2 d S T P . .
Cu3 Cu -0.500000 0.0974(4) 0.35621(15) 0.0047(4) Uani 1 2 d S T P . .
O1 O 0.500000 0.464(3) 0.5576(9) 0.018(3) Uani 1 2 d S T P . .
O2 O 0.500000 -0.084(3) 0.6562(8) 0.019(4) Uani 1 2 d S T P . .
O3 O 0.2206(19) 0.061(3) 0.5342(6) 0.018(3) Uani 1 1 d . . . . .
O4 O 0.000000 -0.202(3) 0.4417(8) 0.0068(14) Uani 1 2 d S T P . .
O5 O 0.780(2) 0.313(2) 0.6821(7) 0.017(3) Uani 1 1 d . . . . .
O6 O 1.000000 0.561(3) 0.7757(8) 0.008(3) Uani 1 2 d S T P . .
O7 O -0.2544(19) 0.274(2) 0.4025(6) 0.008(2) Uani 1 1 d D . . . .
H7 H -0.24(3) 0.26(4) 0.449(2) 0.012 Uiso 1 1 d D U . . .
O8 O -0.500000 0.720(3) 0.4146(8) 0.0068(14) Uani 1 2 d DS T P . .
H8 H -0.500000 0.64(4) 0.459(7) 0.010 Uiso 1 2 d DS U P . .
O9 O 0.000000 0.485(3) 0.3085(8) 0.008(3) Uani 1 2 d DS T P . .
H9 H 0.10(3) 0.55(6) 0.271(10) 0.012 Uiso 0.5 1 d D U P . .
O10 O -0.2479(14) -0.076(2) 0.3127(6) 0.0068(14) Uani 1 1 d D . . . .
H10 H -0.26(3) -0.09(4) 0.266(2) 0.010 Uiso 1 1 d D U . . .
loop_
_atom_site_aniso_label
_atom_site_aniso_U_11
_atom_site_aniso_U_22
_atom_site_aniso_U_33
_atom_site_aniso_U_23
_atom_site_aniso_U_13
_atom_site_aniso_U_12
U1 0.0094(3) 0.0182(4) 0.0068(3) -0.0026(3) 0.000 0.000
Se1 0.0112(10) 0.0177(12) 0.0088(11) 0.0018(8) 0.000 0.000
Se2 0.0105(9) 0.0165(12) 0.0085(10) 0.0014(8) 0.000 0.000
Cu1 0.0032(8) 0.0043(8) 0.0096(9) 0.0004(7) 0.0008(7) 0.0006(6)
Cu2 0.0017(9) 0.0044(11) 0.0097(11) -0.0001(10) 0.000 0.000
Cu3 0.0017(9) 0.0035(11) 0.0089(11) -0.0014(10) 0.000 0.000
O1 0.016(8) 0.016(9) 0.021(8) 0.001(7) 0.000 0.000
O2 0.029(9) 0.025(10) 0.004(7) 0.002(7) 0.000 0.000
O3 0.012(5) 0.029(7) 0.014(6) -0.005(5) 0.003(4) -0.007(5)
O4 0.005(3) 0.008(4) 0.007(3) 0.000(3) 0.000 0.000
O5 0.019(5) 0.017(7) 0.015(6) -0.007(5) 0.000(5) -0.002(5)
O6 0.007(7) 0.008(7) 0.009(7) -0.007(6) 0.000 0.000
O7 0.006(5) 0.007(6) 0.011(6) -0.004(4) 0.001(4) 0.000(4)
O8 0.005(3) 0.008(4) 0.007(3) 0.000(3) 0.000 0.000
O9 0.005(6) 0.009(7) 0.010(7) -0.005(6) 0.000 0.000
O10 0.005(3) 0.008(4) 0.007(3) 0.000(3) 0.000 0.000
loop_
_atom_type_symbol
_atom_type_description
_atom_type_scat_dispersion_real
_atom_type_scat_dispersion_imag
_atom_type_scat_source
Cu Cu 0.3201 1.2651 'International Tables Vol C Tables 4.2.6.8 and 6.1.1.4'
H H 0.0000 0.0000 'International Tables Vol C Tables 4.2.6.8 and 6.1.1.4'
O O 0.0106 0.0060 'International Tables Vol C Tables 4.2.6.8 and 6.1.1.4'
Se Se -0.0929 2.2259 'International Tables Vol C Tables 4.2.6.8 and 6.1.1.4'
U U -9.6767 9.6646 'International Tables Vol C Tables 4.2.6.8 and 6.1.1.4'
loop_
_exptl_crystal_face_index_h
_exptl_crystal_face_index_k
_exptl_crystal_face_index_l
_exptl_crystal_face_perp_dist
-3 1 25 0.0213
-8 0 1 0.0487
8 0 5 0.0396
-2 5 19 0.0250
1 7 -11 0.0187
2 -4 -21 0.0323
-1 -7 10 0.0219
loop_
_geom_angle_atom_site_label_1
_geom_angle_atom_site_label_2
_geom_angle_atom_site_label_3
_geom_angle
_geom_angle_site_symmetry_1
_geom_angle_site_symmetry_3
O1 U1 O3 87.0(5) . .
O1 U1 O3 87.0(5) . 4_655
O1 U1 O5 93.5(5) . .
O1 U1 O5 93.5(5) . 4_655
O2 U1 O1 178.9(9) . .
O2 U1 O3 93.8(5) . 4_655
O2 U1 O3 93.8(5) . .
O2 U1 O5 85.7(5) . .
O2 U1 O5 85.7(5) . 4_655
O3 U1 O3 94.5(6) 4_655 .
O3 U1 O5 86.6(4) . 4_655
O3 U1 O5 178.8(5) . .
O3 U1 O5 86.6(4) 4_655 .
O3 U1 O5 178.8(5) 4_655 4_655
O5 U1 O5 92.2(6) . 4_655
O3 Se1 O3 98.7(9) . 4
O4 Se1 O3 101.9(5) . 4
O4 Se1 O3 101.9(5) . .
O5 Se2 O5 99.8(8) 4_755 .
O6 Se2 O5 101.4(6) . .
O6 Se2 O5 101.4(6) . 4_755
O4 Cu1 Cu1 51.4(2) 1_565 4
O4 Cu1 O6 175.0(5) 1_565 2_564
O6 Cu1 Cu1 128.4(2) 2_564 4
O7 Cu1 Cu1 90.7(3) . 4
O7 Cu1 O4 100.1(5) . 1_565
O7 Cu1 O6 84.9(5) . 2_564
O7 Cu1 O10 175.3(5) . 1_565
O8 Cu1 Cu1 141.2(4) . 4
O8 Cu1 O4 89.9(4) . 1_565
O8 Cu1 O6 90.3(4) . 2_564
O8 Cu1 O7 95.5(6) . .
O8 Cu1 O9 179.8(6) . .
O8 Cu1 O10 87.1(5) . 1_565
O9 Cu1 Cu1 39.0(4) . 4
O9 Cu1 O4 90.3(4) . 1_565
O9 Cu1 O6 89.5(4) . 2_564
O9 Cu1 O7 84.4(6) . .
O9 Cu1 O10 92.9(5) . 1_565
O10 Cu1 Cu1 89.6(2) 1_565 4
O10 Cu1 O4 83.7(5) 1_565 1_565
O10 Cu1 O6 91.3(4) 1_565 2_564
O7 Cu2 O4 90.4(4) . .
O7 Cu2 O4 90.4(4) 4 .
O7 Cu2 O7 98.2(7) 4 .
O7 Cu2 O9 75.5(4) 4 .
O7 Cu2 O9 75.5(4) . .
O9 Cu2 O4 158.1(5) . .
O10 Cu2 O4 84.7(4) 4 .
O10 Cu2 O4 84.7(4) . .
O10 Cu2 O7 175.1(5) . 4
O10 Cu2 O7 81.6(4) 4 4
O10 Cu2 O7 175.1(5) 4 .
O10 Cu2 O7 81.6(4) . .
O10 Cu2 O9 109.1(4) . .
O10 Cu2 O9 109.1(4) 4 .
O10 Cu2 O10 98.2(6) 4 .
Cu3 Cu3 Cu2 0(10) 4_455 1_455
Cu3 Cu3 O6 0(10) 4_455 2_564
Cu3 Cu3 O7 0(10) 4_455 4_455
Cu3 Cu3 O7 0(10) 4_455 .
Cu3 Cu3 O8 0(10) 4_455 1_545
Cu3 Cu3 O10 0(10) 4_455 .
Cu3 Cu3 O10 0(10) 4_455 4_455
O6 Cu3 Cu2 88.65(7) 2_564 1_455
O7 Cu3 Cu2 41.9(3) 4_455 1_455
O7 Cu3 Cu2 137.8(3) . 1_455
O7 Cu3 O6 84.0(4) . 2_564
O7 Cu3 O6 84.0(4) 4_455 2_564
O7 Cu3 O7 96.0(7) 4_455 .
O7 Cu3 O8 103.2(4) . 1_545
O7 Cu3 O8 103.2(5) 4_455 1_545
O8 Cu3 Cu2 91.32(7) 1_545 1_455
O8 Cu3 O6 168.9(5) 1_545 2_564
O10 Cu3 Cu2 140.0(3) . 1_455
O10 Cu3 Cu2 40.4(3) 4_455 1_455
O10 Cu3 O6 96.6(4) . 2_564
O10 Cu3 O6 96.6(4) 4_455 2_564
O10 Cu3 O7 82.2(4) 4_455 4_455
O10 Cu3 O7 178.0(5) . 4_455
O10 Cu3 O7 178.0(5) 4_455 .
O10 Cu3 O7 82.2(4) . .
O10 Cu3 O8 76.5(4) . 1_545
O10 Cu3 O8 76.5(4) 4_455 1_545
O10 Cu3 O10 99.6(6) 4_455 .
Se1 O3 U1 143.2(7) . .
Se1 O4 Cu1 135.7(4) . 4_545
Se1 O4 Cu1 135.7(4) . 1_545
Se1 O4 Cu2 122.6(8) . .
Cu1 O4 Cu1 77.3(5) 1_545 4_545
Cu1 O4 Cu2 83.1(4) 1_545 .
Cu1 O4 Cu2 83.1(4) 4_545 .
Se2 O5 U1 143.3(8) . .
Se2 O6 Cu1 127.6(5) . 2_565
Se2 O6 Cu1 127.6(5) . 3_665
Se2 O6 Cu3 138.8(9) . 2_565
Cu1 O6 Cu1 76.9(5) 3_665 2_565
Cu1 O6 Cu3 82.2(4) 2_565 2_565
Cu1 O6 Cu3 82.2(4) 3_665 2_565
Cu1 O7 Cu2 103.6(5) . .
Cu1 O7 H7 118(10) . .
Cu2 O7 H7 110(10) . .
Cu3 O7 Cu1 106.9(5) 4_455 .
Cu3 O7 Cu1 106.9(5) . .
Cu3 O7 Cu2 97.2(5) 4_455 .
Cu3 O7 Cu2 97.2(5) . .
Cu3 O7 Cu3 0.00(19) 4_455 .
Cu3 O7 H7 118(10) 4_455 .
Cu3 O7 H7 118(10) . .
Cu1 O8 Cu1 102.4(7) 4_455 .
Cu1 O8 Cu3 93.0(5) . 1_565
Cu1 O8 Cu3 93.0(5) 4_455 1_565
Cu1 O8 H8 108(9) 4_455 .
Cu1 O8 H8 108(9) . .
Cu3 O8 H8 146(10) 1_565 .
Cu1 O9 Cu1 102.0(7) 4 .
Cu1 O9 Cu2 96.5(5) . .
Cu1 O9 Cu2 96.5(5) 4 .
Cu1 O9 H9 78(10) 4 .
Cu1 O9 H9 138(10) . .
Cu2 O9 H9 126(10) . .
Cu1 O10 H10 111(10) 1_545 .
Cu2 O10 Cu1 106.2(5) . 1_545
Cu2 O10 Cu3 98.9(5) . .
Cu2 O10 Cu3 98.9(5) . 4_455
Cu2 O10 H10 121(10) . .
Cu3 O10 Cu1 103.4(5) . 1_545
Cu3 O10 Cu1 103.4(5) 4_455 1_545
Cu3 O10 Cu3 0.00(15) 4_455 .
Cu3 O10 H10 115(10) 4_455 .
Cu3 O10 H10 115(10) . .
loop_
_geom_bond_atom_site_label_1
_geom_bond_atom_site_label_2
_geom_bond_distance
_geom_bond_site_symmetry_2
U1 O1 1.802(18) .
U1 O2 1.776(18) .
U1 O3 2.271(12) 4_655
U1 O3 2.271(12) .
U1 O5 2.315(13) .
U1 O5 2.315(12) 4_655
Se1 O3 1.736(13) .
Se1 O3 1.736(12) 4
Se1 O4 1.666(15) .
Se2 O5 1.720(12) 4_755
Se2 O5 1.720(12) .
Se2 O6 1.653(15) .
Cu1 Cu1 2.986(3) 4
Cu1 O4 2.391(12) 1_565
Cu1 O6 2.398(13) 2_564
Cu1 O7 1.982(13) .
Cu1 O8 1.912(10) .
Cu1 O9 1.922(10) .
Cu1 O10 2.014(11) 1_565
Cu2 O4 2.399(16) .
Cu2 O7 2.008(11) 4
Cu2 O7 2.008(11) .
Cu2 O9 2.267(16) .
Cu2 O10 1.958(10) 4
Cu2 O10 1.958(10) .
Cu3 Cu3 0.000(7) 4_455
Cu3 O6 2.438(15) 2_564
Cu3 O7 1.973(12) 4_455
Cu3 O7 1.973(12) .
Cu3 O8 2.374(16) 1_545
Cu3 O10 1.970(10) 4_455
Cu3 O10 1.970(10) .
O7 H7 0.90(3) .
O8 H8 0.96(2) .
O9 H9 1.00(3) .
O10 H10 0.89(3) .
loop_
_geom_torsion_atom_site_label_1
_geom_torsion_atom_site_label_2
_geom_torsion_atom_site_label_3
_geom_torsion_atom_site_label_4
_geom_torsion
_geom_torsion_site_symmetry_1
_geom_torsion_site_symmetry_2
_geom_torsion_site_symmetry_3
_geom_torsion_site_symmetry_4
O3 Se1 O3 U1 108.9(11) 4 . . .
O3 Se1 O4 Cu1 65.8(11) . . . 4_545
O3 Se1 O4 Cu1 167.5(10) 4 . . 4_545
O3 Se1 O4 Cu1 -167.5(10) . . . 1_545
O3 Se1 O4 Cu1 -65.8(11) 4 . . 1_545
O3 Se1 O4 Cu2 -50.8(5) . . . .
O3 Se1 O4 Cu2 50.8(5) 4 . . .
O4 Se1 O3 U1 -146.8(11) . . . .
O5 Se2 O5 U1 -106.2(11) 4_755 . . .
O5 Se2 O6 Cu1 -103.0(8) 4_755 . . 2_565
O5 Se2 O6 Cu1 0.4(9) 4_755 . . 3_665
O5 Se2 O6 Cu1 -0.4(9) . . . 2_565
O5 Se2 O6 Cu1 103.0(8) . . . 3_665
O5 Se2 O6 Cu3 -128.7(4) . . . 2_565
O5 Se2 O6 Cu3 128.7(4) 4_755 . . 2_565
O6 Se2 O5 U1 150.0(10) . . . .
loop_
_exptl_oxdiff_crystal_face_indexfrac_h
_exptl_oxdiff_crystal_face_indexfrac_k
_exptl_oxdiff_crystal_face_indexfrac_l
_exptl_oxdiff_crystal_face_x
_exptl_oxdiff_crystal_face_y
_exptl_oxdiff_crystal_face_z
-2.6320 1.2167 25.1936 -0.0104 -0.0042 0.9999
-8.4076 0.1667 0.5799 -0.9197 0.2163 0.3277
8.2525 0.1046 5.1923 0.9666 -0.2289 -0.1150
-2.1224 5.1811 18.9871 0.1177 0.5188 0.8467
0.8673 7.0849 -11.0871 0.2241 0.9358 -0.2721
2.3067 -4.3550 -21.0966 -0.0902 -0.4047 -0.9100
-0.7693 -7.2103 10.1697 -0.2262 -0.9456 0.2339
