#------------------------------------------------------------------------------
#$Date: 2022-03-05 00:07:05 +0200 (Sat, 05 Mar 2022) $
#$Revision: 273351 $
#$URL: file:///home/coder/svn-repositories/cod/cif/1/56/61/1566188.cif $
#------------------------------------------------------------------------------
#
# This file is available in the Crystallography Open Database (COD),
# http://www.crystallography.net/
#
# All data on this site have been placed in the public domain by the
# contributors.
#
data_1566188
loop_
_publ_author_name
'Sasikumar, Devika'
'Vinod, Kavya'
'Sunny, Jeswin'
'Hariharan, Mahesh'
_publ_section_title
;
 Exciton interactions in helical crystals of a hydrogen-bonded eumelanin
 monomer
;
_journal_issue                   8
_journal_name_full               'Chemical Science'
_journal_page_first              2331
_journal_page_last               2338
_journal_paper_doi               10.1039/D1SC06755A
_journal_volume                  13
_journal_year                    2022
_chemical_formula_sum            'C8 H7 N O2'
_chemical_formula_weight         149.15
_chemical_properties_physical    Air-sensitive,Moisture-sensitive
_space_group_crystal_system      orthorhombic
_space_group_IT_number           19
_space_group_name_Hall           'P 2ac 2ab'
_space_group_name_H-M_alt        'P 21 21 21'
_atom_sites_solution_hydrogens   geom
_audit_creation_method           SHELXL-2018/3
_audit_update_record
;
2021-11-08 deposited with the CCDC.	2022-01-27 downloaded from the CCDC.
;
_cell_angle_alpha                90
_cell_angle_beta                 90
_cell_angle_gamma                90
_cell_formula_units_Z            4
_cell_length_a                   5.862(3)
_cell_length_b                   7.712(4)
_cell_length_c                   14.907(8)
_cell_measurement_temperature    296(2)
_cell_volume                     673.9(6)
_computing_structure_refinement  'SHELXL-2018/3 (Sheldrick, 2018)'
_diffrn_ambient_temperature      296(2)
_diffrn_measured_fraction_theta_full 1.000
_diffrn_measured_fraction_theta_max 1.000
_diffrn_radiation_type           MoK\a
_diffrn_radiation_wavelength     0.71073
_diffrn_reflns_av_R_equivalents  0.0547
_diffrn_reflns_av_unetI/netI     0.0475
_diffrn_reflns_Laue_measured_fraction_full 1.000
_diffrn_reflns_Laue_measured_fraction_max 1.000
_diffrn_reflns_limit_h_max       6
_diffrn_reflns_limit_h_min       -6
_diffrn_reflns_limit_k_max       6
_diffrn_reflns_limit_k_min       -9
_diffrn_reflns_limit_l_max       17
_diffrn_reflns_limit_l_min       -17
_diffrn_reflns_number            5841
_diffrn_reflns_point_group_measured_fraction_full 1.000
_diffrn_reflns_point_group_measured_fraction_max 1.000
_diffrn_reflns_theta_full        24.995
_diffrn_reflns_theta_max         24.995
_diffrn_reflns_theta_min         2.733
_exptl_absorpt_coefficient_mu    0.107
_exptl_crystal_density_diffrn    1.470
_exptl_crystal_F_000             312
_exptl_crystal_size_max          0.150
_exptl_crystal_size_mid          0.095
_exptl_crystal_size_min          0.048
_refine_diff_density_max         0.152
_refine_diff_density_min         -0.140
_refine_diff_density_rms         0.035
_refine_ls_abs_structure_details
;
 Flack x determined using 279 quotients [(I+)-(I-)]/[(I+)+(I-)]
 (Parsons, Flack and Wagner, Acta Cryst. B69 (2013) 249-259).
;
_refine_ls_abs_structure_Flack   -2.3(10)
_refine_ls_extinction_method     none
_refine_ls_goodness_of_fit_ref   1.023
_refine_ls_hydrogen_treatment    constr
_refine_ls_matrix_type           full
_refine_ls_number_parameters     102
_refine_ls_number_reflns         1183
_refine_ls_number_restraints     0
_refine_ls_restrained_S_all      1.023
_refine_ls_R_factor_all          0.0689
_refine_ls_R_factor_gt           0.0471
_refine_ls_shift/su_max          0.000
_refine_ls_shift/su_mean         0.000
_refine_ls_structure_factor_coef Fsqd
_refine_ls_weighting_details
'w=1/[\s^2^(Fo^2^)+(0.0503P)^2^+0.1300P] where P=(Fo^2^+2Fc^2^)/3'
_refine_ls_weighting_scheme      calc
_refine_ls_wR_factor_gt          0.1044
_refine_ls_wR_factor_ref         0.1155
_reflns_Friedel_coverage         0.645
_reflns_Friedel_fraction_full    1.000
_reflns_Friedel_fraction_max     1.000
_reflns_number_gt                902
_reflns_number_total             1183
_reflns_threshold_expression     'I > 2\s(I)'
_cod_data_source_file            d1sc06755a2.cif
_cod_data_source_block           shelx
_cod_depositor_comments          'Adding full bibliography for 1566188.cif.'
_cod_original_cell_volume        674.0(6)
_cod_database_code               1566188
_shelx_shelxl_version_number     2018/3
_shelx_space_group_comment
;
The symmetry employed for this shelxl refinement is uniquely defined
by the following loop, which should always be used as a source of
symmetry information in preference to the above space-group names.
They are only intended as comments.
;
_shelx_estimated_absorpt_t_min   0.984
_shelx_estimated_absorpt_t_max   0.995
_shelx_res_file
;
TITL shelxt_a.res in P2(1)2(1)2(1)
    shelx.res
    created by SHELXL-2018/3 at 13:06:10 on 04-Mar-2020
CELL  0.71073   5.8622   7.7121  14.9075   90.000   90.000   90.000
ZERR     4.00   0.0032   0.0042   0.0080    0.000    0.000    0.000
LATT  -1
SYMM  1/2 - X, - Y, 1/2 + Z
SYMM  - X, 1/2 + Y, 1/2 - Z
SYMM  1/2 + X, 1/2 - Y, - Z
SFAC  C    H    N    O
UNIT  32 28 4 8
MERG   2
OMIT    -3.00  50.00
FMAP   2
PLAN   5
SIZE     0.048   0.095   0.150
ACTA
BOND   $H
CONF
L.S.  10
TEMP    23.00
WGHT    0.050300    0.130000
FVAR       0.36912
C1    1    0.532371    0.592418    0.658758    11.00000    0.03695    0.02984 =
         0.04309    0.00047   -0.00152   -0.00314
C2    1    0.710520    0.689336    0.622324    11.00000    0.05200    0.03511 =
         0.03749    0.00059    0.00667   -0.00389
C3    1    0.887005    0.744729    0.674407    11.00000    0.04073    0.03457 =
         0.05585   -0.00398    0.01619   -0.00568
AFIX  43
H3    2    1.006914    0.806996    0.649290    11.00000   -1.20000
AFIX   0
C4    1    0.885515    0.706443    0.766864    11.00000    0.03763    0.03106 =
         0.05568   -0.00644    0.00285    0.00695
C5    1    0.703110    0.610018    0.802043    11.00000    0.04934    0.02666 =
         0.04097    0.00353    0.00493    0.00869
C6    1    0.524381    0.552732    0.748852    11.00000    0.04051    0.03135 =
         0.05100    0.00477    0.00573   -0.00230
AFIX  43
H6    2    0.403712    0.489931    0.773031    11.00000   -1.20000
AFIX   0
N1    3    0.741529    0.592766    0.893160    11.00000    0.09103    0.05437 =
         0.04207    0.00130    0.00518    0.01509
AFIX  43
H1N   2    0.653806    0.540066    0.930507    11.00000   -1.20000
AFIX   0
C8    1    1.031640    0.746054    0.837996    11.00000    0.04284    0.04550 =
         0.07770   -0.01582   -0.00916    0.00297
AFIX  43
H8    2    1.165575    0.810275    0.834242    11.00000   -1.20000
AFIX   0
C7    1    0.943077    0.673835    0.913971    11.00000    0.08189    0.05728 =
         0.06279   -0.02212   -0.03161    0.01600
AFIX  43
H7    2    1.008735    0.678769    0.970705    11.00000   -1.20000
AFIX   0
O1    4    0.364829    0.541475    0.598799    11.00000    0.05586    0.05347 =
         0.05684    0.00543   -0.00825   -0.01503
AFIX 147
H1    2    0.272824    0.478577    0.624447    11.00000   -1.50000
AFIX   0
O2    4    0.690497    0.723542    0.532252    11.00000    0.09035    0.07387 =
         0.03993    0.00991    0.00760   -0.02798
AFIX 147
H2    2    0.808803    0.767867    0.513935    11.00000   -1.50000
AFIX   0
HKLF    4




REM  shelxt_a.res in P2(1)2(1)2(1)
REM wR2 = 0.1155, GooF = S = 1.023, Restrained GooF = 1.023 for all data
REM R1 = 0.0471 for 902 Fo > 4sig(Fo) and 0.0689 for all 1183 data
REM 102 parameters refined using 0 restraints

END

WGHT      0.0493      0.1375

REM Highest difference peak  0.152,  deepest hole -0.140,  1-sigma level  0.035
Q1    1   1.1710  0.7497  0.9019  11.00000  0.05    0.15
Q2    1   1.1180  0.7943  0.8146  11.00000  0.05    0.12
Q3    1   0.8687  0.7335  0.7349  11.00000  0.05    0.11
Q4    1   1.0594  0.6969  0.8606  11.00000  0.05    0.11
Q5    1   0.9181  0.6957  0.7249  11.00000  0.05    0.11
;
_shelx_res_checksum              54169
_shelx_hkl_file
;
   1   0   0    0.16    0.11
  -1   0   0    0.85    0.19
  -1   0   0    0.76    0.17
  -1   0   0    0.78    0.20
   1   0   0    0.47    0.17
   1   0   0    0.80    0.18
  -1   0   0    0.77    0.16
   1   0   0    0.85    0.18
   2   0   0    0.80    0.21
  -2   0   0    1.21    0.32
  -2   0   0    1.75    0.32
   2   0   0    1.26    0.35
   2   0   0    0.59    0.27
   2   0   0    1.23    0.29
  -2   0   0    0.94    0.31
  -2   0   0    0.97    0.28
   3   0   0   -0.02    0.28
  -3   0   0   -0.10    0.31
   3   0   0   -0.33    0.29
   3   0   0    0.05    0.24
  -3   0   0   -0.38    0.30
   4   0   0    1.23    0.54
  -4   0   0    2.09    0.61
  -4   0   0    2.32    0.64
   4   0   0    3.83    0.68
   5   0   0   -0.06    0.60
  -5   0   0    0.88    0.81
  -5   0   0    1.02    0.64
  -6   0   0    1.47    0.83
  -6   0   0    0.50    1.05
   6   0   0    1.48    1.01
   7   0   0    1.08    1.26
   0  -1   0    0.31    0.08
  -1  -1   0  169.13    6.23
   1   1   0  174.21    6.29
  -1  -1   0  171.40    6.35
   1   1   0  164.88    6.35
  -1   1   0  167.91    6.33
   1   1   0  169.57    6.31
  -1  -1   0  168.62    6.30
   1  -1   0  168.58    6.33
   1   1   0  163.42    6.29
  -1  -1   0  167.96    6.31
  -1  -1   0  167.62    6.30
   1   1   0  171.13    6.22
  -2  -1   0    1.92    0.41
   2   1   0    1.85    0.43
   2   1   0    1.74    0.39
  -2  -1   0    2.18    0.41
   2  -1   0    2.83    0.48
   2   1   0    2.22    0.37
  -2  -1   0    1.93    0.44
  -2   1   0    1.86    0.41
  -2  -1   0    2.40    0.40
   2   1   0    1.37    0.31
   2   1   0    1.49    0.39
  -3   1   0   11.42    0.87
  -3  -1   0   11.74    1.07
   3  -1   0   12.56    1.01
   3   1   0   12.37    1.23
   3   1   0   11.50    0.92
   3  -1   0   11.00    0.85
  -3  -1   0   12.36    0.91
   4   1   0   17.73    1.52
   4  -1   0   22.19    1.41
  -4  -1   0   20.86    1.40
   4  -1   0   19.27    1.50
  -4  -1   0   17.79    1.35
   5  -1   0   19.21    2.00
  -5  -1   0   21.20    1.86
  -5  -1   0   23.00    1.66
   5   1   0   20.58    2.12
  -6  -1   0   27.53    2.03
  -6  -1   0   24.00    2.21
   6  -1   0   22.39    2.49
   6   1   0   25.29    2.65
  -7  -1   0    2.15    1.12
   7  -1   0    2.44    1.25
   7   1   0    1.56    1.37
   0  -2   0  275.51   10.15
   0  -2   0  277.25   10.26
  -1  -2   0   72.37    2.91
  -1  -2   0   67.91    2.79
   1  -2   0   67.50    2.87
  -1  -2   0   72.67    2.89
   1   2   0   68.87    2.89
  -1  -2   0   68.93    2.81
   1   2   0   73.52    2.91
   2  -2   0    0.97    0.30
   2   2   0    0.19    0.39
   2   2   0    0.89    0.44
   2   2   0    0.45    0.29
  -2  -2   0    0.92    0.39
   2   2   0    1.86    0.51
   2  -2   0    1.23    0.41
  -2  -2   0    1.45    0.42
  -2  -2   0    1.29    0.38
   3   2   0    6.09    0.73
   3   2   0   10.97    1.27
  -3  -2   0    9.22    0.95
  -3  -2   0    9.83    0.96
   3  -2   0    8.34    1.00
   4   2   0    2.03    0.71
  -4  -2   0    1.99    0.59
  -4  -2   0    2.35    0.73
   4  -2   0    2.52    0.72
  -5  -2   0   20.78    1.70
   5   2   0   20.95    2.17
   5  -2   0   24.64    1.74
  -5  -2   0   22.19    1.80
   5  -2   0   21.87    1.90
   6   2   0   -0.08    1.02
  -6  -2   0    0.74    1.08
   6  -2   0    2.28    1.03
  -6  -2   0    1.78    0.96
  -7  -2   0   -0.75    1.00
   7   2   0    1.06    1.29
   7  -2   0   -0.03    1.04
   0  -3   0    0.63    0.21
   0  -3   0    0.59    0.28
  -1  -3   0  312.57   12.01
  -1  -3   0  325.22   11.99
  -2  -3   0    5.14    0.67
   2   3   0    5.27    0.83
   2  -3   0    6.53    0.81
  -2  -3   0    6.01    0.81
   3   3   0    1.74    0.65
  -3  -3   0    2.39    0.65
   3  -3   0    1.67    0.53
  -3  -3   0    0.43    0.40
  -4  -3   0    8.58    1.20
   4  -3   0    8.24    1.18
   4   3   0    8.33    1.40
  -4  -3   0   10.43    1.31
  -5  -3   0    0.25    0.86
  -5  -3   0    0.98    0.71
   5  -3   0    0.11    0.71
   5   3   0    0.49    0.89
  -6  -3   0   -0.41    0.83
  -6  -3   0    1.02    1.17
   6  -3   0   -0.18    0.91
   6   3   0    0.74    1.15
  -7  -3   0   -0.72    1.08
  -7  -3   0   -0.58    1.54
   7   3   0    2.43    1.59
   7  -3   0    0.06    1.22
   0  -4   0   57.40    2.47
   0  -4   0   58.47    2.69
  -1  -4   0  162.31    6.59
   1  -4   0  166.54    6.47
   2   4   0   14.48    1.44
   2  -4   0   12.56    1.05
  -2  -4   0   15.53    1.19
  -2  -4   0   13.91    1.20
   3   4   0    6.34    1.15
  -3  -4   0    2.79    0.77
  -3  -4   0    4.69    0.85
   3  -4   0    4.39    0.88
   4  -4   0   21.07    1.73
  -4  -4   0   19.01    1.52
   4   4   0   19.70    2.20
  -4  -4   0   16.91    1.83
  -5  -4   0   -0.04    0.66
  -5  -4   0    0.47    0.91
   5  -4   0    0.31    0.86
   5   4   0   -0.04    0.96
   6   4   0   -2.02    1.11
  -6  -4   0    0.15    1.21
  -6  -4   0    0.33    0.81
   6  -4   0   -0.08    0.97
   7   4   0    1.04    1.61
  -7  -4   0    0.34    1.19
  -7  -4   0    1.46    1.50
   7  -4   0    2.56    1.50
   0  -5   0    0.92    0.54
   0  -5   0    1.12    0.38
  -1  -5   0    0.87    0.47
   1  -5   0    0.28    0.33
   2  -5   0    1.62    0.59
  -2  -5   0    1.88    0.62
  -3  -5   0    1.22    0.63
   3  -5   0    1.36    0.63
  -3  -5   0    1.10    0.68
   3   5   0    1.25    0.90
   4  -5   0    4.15    1.09
  -4  -5   0    4.66    1.20
  -4  -5   0    2.54    0.83
   4   5   0    3.79    1.32
  -5  -5   0    0.97    1.07
   5   5   0    0.47    1.15
  -5  -5   0    1.45    0.92
   5  -5   0    2.29    1.07
  -6  -5   0    4.97    1.38
   6  -5   0    5.26    1.53
  -6  -5   0    6.66    1.72
   6   5   0    6.83    2.05
   0  -6   0   48.29    2.30
   0  -6   0   44.64    2.54
   1  -6   0    1.14    0.46
   1  -6   0    0.83    0.56
  -1  -6   0    0.25    0.55
   2  -6   0    1.24    0.64
  -2  -6   0    1.65    0.73
   2  -6   0   -0.22    0.48
  -3  -6   0    0.81    0.66
  -3  -6   0    0.26    0.76
   3  -6   0    1.04    0.62
   3  -6   0    1.72    0.77
   4  -6   0    0.38    0.79
  -4  -6   0    2.01    1.10
  -4  -6   0    0.01    0.71
   5  -6   0    2.40    1.13
  -5  -6   0    2.66    1.15
  -5  -6   0    2.19    1.27
   5   6   0    3.55    1.60
  -5  -6   0    3.30    1.37
   6   6   0    2.36    1.78
   6  -6   0    1.70    1.28
  -6  -6   0    0.88    1.24
  -6  -6   0   -0.06    1.32
   0  -7   0    0.12    0.49
   0  -7   0    0.13    0.39
   1  -7   0    9.51    1.15
  -1  -7   0   11.65    1.46
   1  -7   0    9.88    1.41
  -2  -7   0    7.01    1.28
   2  -7   0    6.03    1.04
   2  -7   0    5.71    1.08
   2  -7   0    6.04    1.16
  -3  -7   0    0.22    0.86
  -3  -7   0    0.37    0.66
   3  -7   0    0.48    0.81
   3  -7   0    0.19    0.56
   4  -7   0   -0.41    0.83
  -4  -7   0    0.12    0.85
  -4  -7   0    0.99    1.08
   4  -7   0   -0.50    0.58
   5  -7   0    0.14    1.09
  -5  -7   0    0.12    1.30
   5  -7   0    0.11    0.83
  -5  -7   0   -0.58    0.99
  -5  -7   0   -0.87    1.38
   0  -8   0    1.03    0.52
   0  -8   0   -0.31    0.65
  -1  -8   0    0.05    0.67
   1  -8   0    0.20    0.57
   1  -8   0    0.26    0.65
   1  -8   0   -0.04    0.69
   2  -8   0    0.04    0.53
  -2  -8   0    0.54    0.82
   2  -8   0   -0.26    0.61
   2  -8   0    0.72    0.84
   3  -8   0   -0.32    0.85
   3  -8   0   -0.80    0.62
   3  -8   0    0.04    0.71
  -3  -8   0   -1.09    0.90
   4  -8   0    0.44    0.71
  -4  -8   0    1.14    1.39
  -4  -8   0    0.36    0.99
   4  -8   0    1.12    1.09
  -4  -8   0    6.08    1.68
   0  -9   0    0.66    0.93
   0  -9   0    0.98    0.86
   1  -9   0    4.21    1.00
  -1  -9   0    3.69    1.12
   1  -9   0    4.06    1.11
   1  -9   0    4.93    1.23
  -1  -9   0    3.15    1.24
   1  -9   0    2.58    1.00
   2  -9   0    0.79    0.72
   2  -9   0    1.64    0.84
   2  -9   0    0.99    1.09
  -2  -9   0    1.60    1.18
  -2  -9   0    1.51    1.12
   2  -9   0    1.55    0.99
   3  -9   0    0.25    1.13
   3  -9   0   -0.74    0.85
  -3  -9   0   -0.24    1.26
  -3  -9   0    0.32    1.37
   3  -9   0   -0.15    0.76
   0 -10   0    1.62    1.05
   0 -10   0    0.55    0.92
   1 -10   0   -0.19    0.94
  -1 -10   0    0.04    1.14
   1 -10   0    0.15    0.88
  -1 -10   0    0.12    1.05
   0   0   1    0.02    0.05
   0   0   1    0.00    0.05
   0   0  -1   -0.09    0.07
   0   0   1    0.00    0.05
   0   0   1   -0.04    0.05
   0   0  -1   -0.11    0.07
   0   0  -1    0.02    0.04
   0   0  -1   -0.07    0.08
   1   0  -1    0.85    0.20
   1   0   1    0.87    0.19
  -1   0   1    1.11    0.20
   1   0  -1    1.08    0.21
  -1   0  -1    1.13    0.21
  -1   0   1    1.01    0.21
  -1   0  -1    0.72    0.20
  -1   0  -1    0.90    0.19
   1   0   1    0.92    0.22
   1   0  -1    0.79    0.17
  -1   0   1    1.04    0.20
   1   0  -1    0.87    0.20
   1   0   1    1.00    0.19
   2   0  -1    2.47    0.40
   2   0   1    3.20    0.42
  -2   0   1    4.46    0.51
   2   0  -1    3.10    0.50
  -2   0  -1    2.08    0.40
   2   0   1    2.92    0.47
  -2   0   1    2.80    0.41
  -2   0  -1    2.78    0.40
   2   0   1    3.27    0.45
  -2   0  -1    3.42    0.46
   2   0  -1    3.08    0.43
  -2   0   1    1.83    0.41
  -2   0  -1    2.62    0.46
   3   0  -1    4.67    0.73
  -3   0  -1    4.14    0.64
  -3   0   1    3.84    0.61
   3   0   1    3.67    0.60
   3   0   1    5.30    0.77
  -3   0  -1    4.20    0.62
   3   0  -1    5.04    0.69
   4   0  -1    0.36    0.38
  -4   0  -1    0.26    0.47
   4   0   1    0.10    0.43
  -4   0   1    1.42    0.57
   4   0  -1   -0.28    0.36
  -4   0  -1   -0.23    0.52
  -5   0  -1   34.90    2.06
   5   0   1   36.32    2.40
  -5   0  -1   30.12    2.19
  -5   0   1   34.71    2.05
   5   0  -1   30.99    2.27
   5   0  -1   35.92    2.17
  -6   0  -1    4.54    1.33
  -6   0  -1    5.40    1.08
   6   0  -1    3.30    1.14
   6   0   1    4.64    1.43
   7   0  -1   -0.56    1.15
   7   0   1   -0.34    0.95
   0   1   1   40.56    1.78
   0   1   1   49.14    1.78
   0   1  -1   48.40    1.78
   0  -1  -1   42.79    1.79
  -1  -1  -1  528.22   19.30
   1   1  -1  505.49   19.30
  -1  -1  -1  533.20   19.39
   1   1  -1  538.82   19.33
  -1   1   1  541.62   19.37
   1  -1   1  535.03   19.32
   1   1  -1  518.12   19.31
   1   1  -1  535.75   19.29
   1  -1   1  543.42   19.31
  -1  -1  -1  519.27   19.33
  -1  -1   1  533.28   19.31
   1   1   1  531.43   19.33
   1  -1  -1  522.95   19.37
  -1  -1   1  527.41   19.31
  -1   1  -1  524.98   19.31
  -1  -1   1  533.81   19.29
   1   1   1  524.73   19.39
   1   1   1  546.24   19.30
  -1  -1   1  521.95   19.30
   2   1  -1   71.04    2.91
  -2  -1  -1   70.88    3.01
  -2   1   1   72.33    3.07
   2  -1   1   74.32    2.92
  -2  -1  -1   70.12    2.97
   2   1  -1   71.02    3.06
   2   1  -1   71.08    2.97
  -2  -1  -1   68.46    3.05
  -2  -1  -1   72.67    2.99
   2  -1   1   72.39    3.05
   2   1  -1   71.63    2.98
   2   1  -1   70.86    2.96
   2   1   1   74.59    2.99
   2   1   1   73.81    2.97
  -2  -1   1   73.04    3.04
  -2  -1   1   73.50    3.00
  -2  -1   1   70.96    2.92
   2   1   1   72.97    3.11
   2  -1  -1   75.31    3.09
  -2   1  -1   71.77    3.05
  -2   1  -1   70.02    2.95
  -2  -1   1   71.35    2.99
   3   1  -1    1.88    0.52
   3   1  -1    1.65    0.40
  -3  -1  -1    2.54    0.52
   3   1  -1    3.10    0.59
  -3  -1  -1    2.19    0.48
   3  -1   1    2.05    0.42
   3  -1   1    2.79    0.58
   3  -1   1    3.89    0.60
  -3  -1   1    2.52    0.54
   3  -1  -1    2.26    0.55
   3  -1  -1    2.51    0.49
  -3  -1   1    2.74    0.48
   3   1   1    2.64    0.62
  -3   1  -1    3.72    0.59
   4   1  -1    3.20    0.82
   4  -1   1    4.02    0.83
  -4  -1  -1    2.97    0.67
  -4  -1  -1    3.58    0.79
   4   1  -1    4.86    0.81
  -4   1  -1    3.05    0.76
  -4  -1   1    4.17    0.77
   4   1   1    2.91    0.74
   4  -1  -1    3.69    0.71
   4  -1  -1    3.41    0.77
  -4  -1   1    2.92    0.70
   5   1  -1    0.63    0.58
   5  -1   1    0.03    0.58
  -5  -1  -1   -0.87    0.71
  -5  -1  -1    1.25    0.69
   5   1  -1    1.10    0.79
   5  -1  -1   -0.64    0.57
  -5   1  -1   -1.03    0.78
   5  -1  -1    0.50    0.61
  -5  -1   1    0.46    0.68
   5   1   1   -0.06    0.61
  -5  -1   1    0.89    0.75
  -6  -1  -1   10.91    1.50
   6   1  -1   11.95    1.84
   6  -1   1   12.49    1.86
  -6  -1  -1   13.84    1.72
   6   1   1   12.64    1.86
   6  -1  -1   10.96    1.78
  -6  -1   1   10.27    1.46
  -7  -1  -1    1.43    1.10
   7   1  -1    2.07    1.35
   7  -1   1   -0.42    1.11
  -7  -1   1    1.85    1.08
   7  -1  -1    1.41    1.14
   7   1   1   -0.26    1.10
   0   2  -1  989.79   35.94
   0  -2   1  983.75   35.95
   0  -2  -1  992.17   35.99
   0   2   1 1000.00   35.99
   1   2  -1  634.86   23.55
  -1  -2  -1  662.81   23.75
   1  -2   1  633.60   23.62
  -1  -2  -1  632.18   23.59
   1   2  -1  637.26   23.64
  -1  -2  -1  648.47   23.71
  -1  -2   1  648.71   23.70
  -1  -2   1  641.82   23.62
  -1  -2   1  657.54   23.64
   1   2   1  657.03   23.71
   1   2   1  660.75   23.77
  -1  -2   1  657.17   23.57
  -2  -2  -1   67.53    2.80
   2  -2   1   65.21    2.85
   2  -2   1   66.77    2.77
   2   2  -1   62.81    2.80
  -2  -2  -1   65.91    2.86
   2   2  -1   67.40    2.92
   2   2  -1   65.36    2.72
   2   2  -1   65.37    2.81
  -2  -2   1   65.97    2.81
  -2  -2   1   67.28    2.86
  -2  -2   1   65.61    2.84
  -2  -2   1   66.93    2.73
  -2   2  -1   62.17    2.82
   2   2   1   64.62    2.84
   2   2   1   67.43    2.97
   2  -2  -1   63.07    2.88
  -3  -2  -1    3.32    0.64
   3   2  -1    2.12    0.48
  -3  -2  -1    2.07    0.52
   3  -2   1    3.45    0.70
   3   2  -1    2.11    0.63
   3  -2  -1    3.67    0.73
  -3  -2   1    2.18    0.57
   3   2   1    2.46    0.61
  -3  -2   1    1.72    0.50
   4  -2   1   21.47    1.60
  -4  -2  -1   24.65    1.54
   4   2  -1   19.35    1.65
  -4  -2  -1   19.96    1.52
   4   2   1   23.22    1.75
   4  -2  -1   19.50    1.59
  -4  -2   1   21.07    1.46
  -4  -2   1   20.57    1.47
   5  -2   1    1.95    0.72
  -5  -2  -1    1.79    0.91
   5   2  -1    3.34    1.02
  -5  -2  -1    2.89    0.87
   5  -2  -1    3.07    0.94
   5   2   1    2.57    1.11
  -5  -2   1    2.97    0.89
   5  -2  -1    2.41    0.80
  -5  -2   1    3.79    0.94
   6   2  -1    0.42    1.05
  -6  -2  -1    0.76    1.05
  -6  -2  -1   -0.33    0.76
   6  -2   1    0.28    0.79
   6   2   1    1.60    1.19
   6  -2  -1   -0.23    0.80
   6  -2  -1    0.53    0.94
  -6  -2   1    2.08    1.11
  -6  -2   1   -1.01    0.78
   7  -2   1    0.50    1.19
  -7  -2  -1    3.30    1.50
  -7  -2  -1    1.25    1.18
   7   2  -1    1.57    1.44
   7  -2  -1    0.41    1.20
  -7  -2   1    0.80    1.15
   7   2   1    1.87    1.46
   0  -3  -1   34.86    1.50
   0  -3   1   34.91    1.58
   0  -3  -1   34.53    1.67
   0   3  -1   33.97    1.57
   1  -3   1   13.43    0.87
   1   3  -1   12.39    0.80
   1  -3   1   12.67    0.84
  -1  -3  -1   12.43    0.92
  -1  -3  -1   15.18    1.00
  -1  -3   1   13.31    0.88
  -1  -3   1   13.40    0.78
  -1  -3   1   13.89    0.97
   2   3  -1  105.71    4.50
  -2  -3  -1  107.37    4.39
  -2  -3  -1  106.71    4.50
   2   3  -1  107.18    4.25
   2  -3   1  109.00    4.45
  -2  -3   1  109.43    4.41
  -2  -3   1  109.92    4.51
   2   3   1  108.07    4.58
  -2  -3   1  107.03    4.29
   2  -3  -1  109.88    4.52
   3  -3   1    9.80    1.14
  -3  -3  -1    8.21    0.97
  -3  -3  -1    8.28    1.03
   3   3  -1   11.55    1.33
  -3  -3   1    8.66    0.99
  -3  -3   1    8.34    1.00
   3   3   1   10.12    1.26
   3  -3  -1    8.27    1.08
  -4  -3  -1    8.30    1.14
   4   3  -1   10.34    1.50
   4  -3   1    8.41    1.23
  -4  -3  -1   10.25    1.31
  -4  -3   1   10.13    1.25
   4   3   1   11.88    1.60
  -4  -3   1    8.48    1.17
   4  -3  -1   11.55    1.44
  -5  -3  -1   19.21    1.91
   5   3  -1   22.00    2.35
  -5  -3  -1   22.72    2.15
   5  -3   1   19.91    2.15
  -5  -3   1   20.07    2.00
  -5  -3   1   20.28    1.96
   5   3   1   21.29    2.35
   5  -3  -1   18.46    2.16
   6   3  -1    2.38    1.31
  -6  -3  -1    1.01    0.92
  -6  -3  -1    2.56    1.27
   6  -3   1    0.31    0.87
  -6  -3   1    1.95    1.04
  -6  -3   1    0.88    1.20
   6  -3  -1    1.96    1.13
   6   3   1    2.29    1.26
   7   3  -1    7.35    2.01
  -7  -3  -1    7.27    1.66
  -7  -3  -1    4.49    1.69
   7  -3   1    7.69    1.71
  -7  -3   1    9.45    1.73
   7  -3  -1    4.85    1.58
   7   3   1    3.34    1.67
   0  -4   1   13.43    0.87
   0  -4   1   13.65    1.02
   0  -4  -1   13.70    0.81
   0  -4  -1   12.30    0.96
  -1  -4  -1  108.52    4.49
   1   4  -1  106.42    4.20
   1  -4   1  103.96    4.30
   1  -4   1  102.00    4.36
  -1  -4   1  110.84    4.52
  -1  -4   1  102.37    4.19
   1  -4  -1  105.62    4.35
  -1  -4   1  107.31    4.35
  -2  -4  -1   11.13    1.16
  -2  -4  -1    9.17    0.95
   2  -4   1   10.44    1.07
   2   4  -1    8.21    1.06
   2  -4  -1    9.50    1.11
  -2  -4   1   11.93    1.18
  -2  -4   1   10.18    0.99
  -3  -4  -1   18.16    1.64
  -3  -4  -1   14.01    1.34
   3   4  -1   17.76    1.77
   3  -4   1   14.25    1.46
  -3  -4   1   12.51    1.30
   3   4   1   14.72    1.66
  -3  -4   1   10.65    1.32
   3  -4  -1   13.62    1.44
   4   4  -1   14.95    1.87
   4  -4   1   16.81    1.79
  -4  -4  -1   15.83    1.71
  -4  -4  -1   16.03    1.64
  -4  -4   1   16.28    1.72
   4  -4  -1   13.15    1.66
  -4  -4   1   14.29    1.53
   4   4   1   11.01    1.71
  -5  -4  -1    1.68    0.82
   5  -4   1    0.48    0.82
  -5  -4  -1    1.54    1.00
   5   4  -1    1.64    1.17
   5   4   1    1.58    1.14
   5  -4  -1    0.54    0.75
  -5  -4   1    0.47    0.74
  -5  -4   1    0.47    0.89
   6  -4   1    1.48    1.16
   6   4  -1    3.57    1.61
  -6  -4  -1    0.92    0.92
  -6  -4  -1    6.15    1.52
  -6  -4   1    2.13    0.98
   6   4   1    0.76    1.28
  -6  -4   1    1.27    1.24
   6  -4  -1    0.47    1.05
   7  -4   1   -1.12    1.30
  -7  -4  -1    1.37    1.62
   7   4  -1   -1.10    1.50
  -7  -4  -1    2.24    1.28
   7   4   1    0.43    1.52
  -7  -4   1   -0.30    1.14
   7  -4  -1   -0.40    1.24
   0  -5  -1   30.12    1.50
   0  -5   1   29.69    1.80
   0  -5   1   29.81    1.59
   0  -5  -1   28.54    1.72
   1  -5   1    5.81    0.84
  -1  -5  -1    4.48    0.75
   1  -5  -1    6.64    0.81
   1  -5  -1    4.33    0.73
  -1  -5   1    4.38    0.60
  -1  -5   1    4.78    0.80
   2  -5   1   20.69    1.45
  -2  -5  -1   22.13    1.59
   2  -5   1   20.38    1.44
   2  -5  -1   20.93    1.51
  -2  -5   1   20.27    1.56
   3  -5   1    9.83    1.28
  -3  -5  -1   11.04    1.38
  -3  -5  -1    9.46    1.16
   3   5  -1    6.58    1.31
  -3  -5   1    9.42    1.29
  -3  -5   1    8.39    1.11
   3  -5  -1   10.88    1.36
  -4  -5  -1    7.49    1.40
   4   5  -1    8.54    1.60
  -4  -5  -1    7.37    1.15
  -4  -5  -1    8.45    1.43
   4  -5   1    7.93    1.35
  -4  -5   1   10.92    1.63
  -4  -5   1    8.35    1.32
   4   5   1    8.84    1.70
   4  -5  -1    8.50    1.38
   5   5  -1    2.16    1.28
  -5  -5  -1    1.66    1.12
   5  -5   1    1.24    0.93
  -5  -5  -1    2.23    0.92
   5  -5  -1    0.36    0.89
  -5  -5   1    0.35    1.02
   5   5   1    0.86    1.19
  -5  -5   1    0.98    0.86
   6  -5   1    1.32    1.19
   6   5  -1   -0.73    1.43
  -6  -5  -1    0.37    0.99
  -6  -5  -1    0.21    1.27
  -6  -5   1    0.88    1.05
  -6  -5   1    0.47    1.27
   6   5   1    1.32    1.51
   6  -5  -1    0.54    1.08
   0  -6   1   19.42    1.25
   0  -6  -1   18.50    1.18
   0  -6   1   19.25    1.54
   0  -6  -1   17.39    1.39
   1  -6   1    4.20    0.86
   1  -6   1    4.39    0.75
  -1  -6  -1    4.05    0.85
  -1  -6   1    2.84    0.78
  -1  -6   1    5.92    0.73
   1  -6  -1    4.65    0.87
   1  -6  -1    3.43    0.78
   1  -6  -1    5.53    0.83
   2  -6   1    7.95    1.12
  -2  -6  -1    7.08    1.19
   2  -6   1    6.97    1.07
   2  -6  -1    7.22    1.05
   2  -6  -1    6.53    0.98
  -2  -6   1    6.63    1.15
   2  -6  -1    7.98    1.22
  -3  -6  -1    7.08    1.07
   3  -6   1    6.69    1.09
   3  -6   1    6.10    1.12
  -3  -6  -1    5.64    1.11
  -3  -6   1    7.05    1.12
  -3  -6   1    6.48    1.34
   3  -6  -1    6.11    1.18
   4  -6   1    1.45    0.95
  -4  -6  -1    1.48    0.84
  -4  -6  -1    6.34    1.32
   4   6  -1    1.06    1.18
  -4  -6  -1    2.66    1.20
   4  -6   1    1.00    0.72
   4  -6  -1    2.71    1.03
  -4  -6   1    1.44    1.03
  -4  -6   1    1.54    0.84
   5   6  -1    0.98    1.40
  -5  -6  -1    3.81    1.23
   5  -6   1    2.99    1.29
  -5  -6  -1    6.16    1.53
   5  -6   1    3.05    0.97
   5   6   1    1.90    1.49
  -5  -6   1    3.56    1.36
   5  -6  -1    1.97    1.20
  -5  -6   1    2.01    1.12
   6   6  -1    1.09    1.71
  -6  -6  -1    0.08    1.11
   6  -6   1   -0.14    1.25
   6  -6   1    0.34    0.94
  -6  -6  -1    0.90    1.42
   6  -6  -1    1.15    1.35
  -6  -6   1   -0.50    1.35
   6   6   1   -0.82    1.71
  -6  -6   1   -1.05    1.02
   0  -7  -1    2.85    0.58
   0  -7   1    1.75    0.77
   0  -7   1    2.97    0.63
   0  -7  -1    1.96    0.75
   1  -7   1    6.45    1.02
   1  -7   1    7.06    1.15
   1  -7   1    5.68    0.94
  -1  -7  -1    5.23    1.01
   1  -7  -1    4.87    0.88
   1  -7  -1    5.90    1.03
  -1  -7   1    4.07    0.98
   1  -7  -1    6.20    1.07
   2  -7   1    6.07    1.05
  -2  -7  -1    4.52    1.08
   2  -7   1    6.29    1.13
   2  -7  -1    6.95    1.14
   2  -7  -1    6.92    1.08
   2  -7  -1    6.90    1.21
  -2  -7   1    4.65    1.05
   3  -7   1    1.15    0.78
  -3  -7  -1    0.59    0.84
  -3  -7  -1    1.85    0.84
   3  -7   1    0.24    0.57
  -3  -7  -1   -0.58    0.93
   3  -7  -1    1.51    0.70
   3  -7  -1   -0.27    0.76
  -3  -7   1    0.33    0.69
   3  -7  -1   -0.05    0.58
  -3  -7   1    2.68    1.10
  -4  -7  -1    0.49    1.09
  -4  -7  -1    1.00    1.27
   4  -7   1    0.51    0.88
  -4  -7  -1    0.64    0.86
   4  -7   1    1.33    0.80
   4  -7  -1    0.53    0.66
  -4  -7   1    0.44    0.77
   4  -7  -1   -0.65    0.91
  -4  -7   1   -1.08    0.98
  -5  -7  -1    0.80    1.53
   5  -7   1    1.47    1.20
   5  -7   1    1.33    0.95
  -5  -7  -1    2.01    1.13
  -5  -7  -1    2.00    1.39
  -5  -7   1    2.73    1.55
  -5  -7   1    0.99    1.03
   5  -7  -1    1.35    1.19
   0  -8   1    8.19    1.08
   0  -8  -1    9.58    1.43
   0  -8  -1    7.56    1.25
   1  -8   1    3.45    1.06
   1  -8   1    4.75    1.01
  -1  -8  -1    3.54    1.04
  -1  -8  -1    2.17    0.97
   1  -8   1    4.77    0.99
   1  -8  -1    4.90    0.89
  -1  -8   1    2.45    0.87
   1  -8  -1    4.50    1.04
   1  -8  -1    4.63    1.00
   2  -8   1    0.67    0.72
  -2  -8  -1    0.16    0.85
  -2  -8  -1    0.34    0.91
   2  -8   1    0.20    0.82
   2  -8   1    1.30    0.69
   2  -8  -1    0.29    0.75
  -2  -8   1    1.18    0.78
   2  -8  -1    0.64    0.76
   2  -8  -1    0.60    0.60
   3  -8   1    2.46    1.06
   3  -8   1    1.79    0.83
  -3  -8  -1    2.08    1.26
   3  -8   1    3.14    1.03
  -3  -8  -1    2.91    1.16
   3  -8  -1    1.64    1.07
   3  -8  -1    1.71    0.85
  -3  -8   1    2.37    1.26
  -3  -8   1    2.34    1.02
   3  -8  -1    2.03    0.88
   4  -8   1    0.27    0.71
  -4  -8  -1    1.92    1.32
  -4  -8  -1   -0.22    1.01
   4  -8   1    0.97    1.05
  -4  -8  -1   -0.94    1.21
   4  -8  -1    0.70    0.80
  -4  -8   1    0.45    1.00
   4  -8  -1   -1.09    1.06
  -4  -8   1   -0.61    1.21
   0  -9   1   -0.36    0.77
   0  -9  -1    1.00    0.83
   0  -9  -1   -0.31    0.74
  -1  -9  -1    2.88    1.19
   1  -9   1    1.60    1.02
  -1  -9  -1    1.13    0.83
   1  -9   1    0.86    0.71
   1  -9  -1    1.22    1.05
   1  -9  -1    2.16    0.98
   1  -9  -1    3.29    1.04
  -1  -9   1    1.18    0.94
   2  -9   1    1.07    0.81
   2  -9   1    0.26    0.75
   2  -9   1    0.26    0.85
  -2  -9  -1    0.59    0.95
  -2  -9  -1   -0.80    0.95
   2  -9  -1    0.26    0.79
   2  -9  -1   -0.19    0.98
  -2  -9   1   -0.74    0.76
   2  -9  -1   -0.47    0.59
  -3  -9  -1    0.66    1.21
  -3  -9  -1    1.22    1.23
   3  -9   1    0.36    0.74
   3  -9   1   -0.03    0.90
   3  -9  -1    0.95    0.74
   3  -9  -1    1.33    0.96
  -3  -9   1    0.50    1.36
   3  -9  -1    0.41    1.17
   0 -10   1    0.74    1.02
   0 -10  -1   -0.67    0.83
   0 -10  -1   -0.43    0.88
   0 -10   1   -0.50    0.93
   1 -10   1    0.17    0.97
  -1 -10  -1   -0.07    0.98
   1 -10   1    0.42    0.91
  -1 -10  -1   -0.83    1.01
  -1 -10   1   -1.88    1.07
   1 -10  -1    0.68    1.07
  -1 -10   1   -0.68    0.85
   1 -10  -1    0.37    0.86
   0   0   2  163.13    5.84
   0   0  -2  166.98    5.86
   0   0  -2  149.57    5.83
   0   0   2  153.79    5.83
   1   0  -2   33.23    1.45
  -1   0   2   32.39    1.39
   1   0   2   31.91    1.44
  -1   0   2   32.43    1.43
   1   0  -2   33.53    1.40
  -1   0  -2   31.24    1.38
   1   0   2   33.49    1.37
  -1   0  -2   32.68    1.44
   1   0  -2   31.88    1.42
  -1   0  -2   31.70    1.42
   1   0   2   33.25    1.39
  -1   0   2   32.34    1.41
   1   0   2   33.53    1.43
   2   0  -2  131.47    5.17
  -2   0   2  131.05    5.05
  -2   0  -2  129.43    5.17
   2   0  -2  131.22    5.08
   2   0  -2  128.37    5.14
  -2   0   2  129.70    5.05
   2   0   2  120.02    5.17
  -2   0  -2  133.60    5.08
   2   0   2  130.63    5.08
  -2   0  -2  134.57    5.11
   2   0   2  132.92    5.06
  -2   0  -2  128.72    5.04
  -2   0   2  133.81    5.15
   3   0   2    4.51    0.76
  -3   0  -2    5.34    0.70
   3   0  -2    4.52    0.76
   3   0  -2    4.71    0.68
  -3   0  -2    5.87    0.75
  -3   0   2    4.15    0.63
   4   0  -2    0.67    0.44
  -4   0   2    0.91    0.56
   4   0  -2    0.19    0.50
   4   0   2    0.34    0.52
  -4   0  -2    0.26    0.55
  -4   0  -2    0.80    0.51
   5   0   2    3.47    0.94
  -5   0   2    4.81    0.96
  -5   0  -2    3.52    0.85
   5   0  -2    2.96    0.92
  -5   0  -2    4.53    1.14
   5   0  -2    4.03    0.91
  -6   0  -2    0.56    0.73
   6   0   2   -0.85    0.80
   6   0  -2   -0.05    0.77
   6   0  -2   -0.37    0.76
  -6   0  -2    0.97    1.04
  -6   0   2    0.08    0.81
   7   0   2    0.23    1.14
   7   0  -2    0.82    1.20
  -7   0  -2    0.67    0.99
   0  -1  -2   15.76    0.79
   0  -1   2   17.23    0.84
   0   1   2   20.08    0.81
   0   1   2   20.13    0.86
   0  -1   2   19.61    0.91
   0  -1   2   19.01    0.89
   0  -1  -2   20.64    0.90
   0   1   2   19.39    0.89
   0   1  -2   20.13    0.90
   0  -1  -2   19.80    0.86
   1  -1   2  199.72    7.49
  -1  -1  -2  199.85    7.55
  -1  -1  -2  199.42    7.50
  -1  -1  -2  197.01    7.49
   1   1  -2  202.75    7.52
   1   1  -2  196.69    7.48
   1  -1   2  213.72    7.56
   1  -1   2  200.48    7.54
   1   1  -2  199.68    7.52
  -1  -1  -2  205.37    7.61
   1   1   2  206.64    7.55
   1   1   2  194.66    7.61
  -1  -1   2  199.59    7.47
   1   1   2  202.07    7.49
  -1  -1   2  199.71    7.52
   1   1   2  206.42    7.50
  -1   1  -2  203.92    7.49
   1  -1  -2  200.52    7.59
  -1  -1   2  199.01    7.49
  -1  -1   2  199.44    7.51
  -1  -1   2  202.33    7.53
   2   1  -2   55.94    2.41
   2  -1   2   56.35    2.37
  -2   1   2   57.96    2.52
  -2  -1  -2   53.61    2.36
   2  -1   2   52.83    2.28
   2  -1   2   56.46    2.44
  -2  -1  -2   56.40    2.42
   2   1  -2   55.65    2.39
   2   1  -2   56.61    2.45
  -2  -1  -2   55.05    2.51
  -2   1  -2   52.90    2.42
   2   1   2   54.64    2.40
  -2  -1   2   55.13    2.42
  -2  -1   2   53.73    2.29
  -2  -1   2   53.26    2.41
   2   1   2   56.67    2.39
  -2   1  -2   52.01    2.39
  -2  -1   2   53.84    2.39
   2  -1  -2   54.60    2.47
  -2  -1   2   56.49    2.40
   2   1   2   55.99    2.52
   3  -1   2   12.47    1.00
   3   1  -2   13.05    1.14
   3   1  -2   11.61    1.23
  -3  -1  -2   11.05    1.05
  -3  -1  -2   11.54    1.11
  -3  -1   2   12.22    1.11
   3  -1  -2   12.19    0.88
   3  -1  -2   10.32    1.13
   3   1   2   11.21    1.21
  -3   1  -2   10.60    1.04
  -4  -1  -2   11.58    1.29
  -4  -1  -2   11.54    1.22
   4   1  -2   11.26    1.24
   4   1  -2    9.58    1.30
   4  -1   2   10.99    1.31
   4  -1  -2   12.13    1.22
  -4   1  -2    9.91    1.18
   4  -1  -2    9.13    1.24
   4   1   2   11.08    1.35
  -4  -1   2    9.14    1.09
  -5  -1  -2    9.16    1.24
  -5  -1  -2    6.52    1.20
   5   1  -2    7.14    1.14
   5  -1   2   11.43    1.60
   5   1  -2    8.11    1.36
  -5  -1   2    7.77    1.22
   5  -1  -2    5.09    1.16
   5   1   2    6.21    1.25
   5  -1  -2    7.28    1.15
  -5   1  -2    6.31    1.29
   6   1  -2    9.37    1.68
  -6  -1  -2   11.39    1.51
  -6  -1  -2    5.79    1.42
   6  -1   2    4.59    1.31
  -6  -1   2    7.51    1.37
   6   1   2    5.49    1.39
  -6   1  -2    5.06    1.39
   6  -1  -2    6.57    1.28
   6  -1  -2    5.90    1.32
   7  -1   2    0.23    1.20
  -7  -1  -2   -1.61    1.26
   7   1  -2    0.89    1.33
  -7  -1  -2    1.11    1.12
   7  -1  -2   -0.73    1.06
  -7  -1   2    1.17    1.04
   7   1   2    2.39    1.35
   0   2  -2    6.87    0.59
   0  -2   2    6.16    0.49
   0   2   2    6.16    0.51
   0  -2  -2    7.21    0.63
   1  -2   2  355.60   13.20
  -1  -2  -2  356.02   13.20
  -1  -2  -2  347.89   13.09
  -1  -2  -2  346.76   13.17
  -1  -2  -2  374.61   13.31
   1   2  -2  347.63   13.10
   1   2  -2  355.59   13.10
  -1  -2   2  352.18   13.19
  -1  -2   2  350.59   13.12
   1   2   2  356.07   13.19
  -1   2  -2  363.86   13.07
  -1  -2   2  357.67   13.12
   2   2  -2    2.23    0.49
   2  -2   2    2.32    0.48
  -2  -2  -2    3.03    0.55
   2   2  -2    2.41    0.57
   2  -2   2    2.72    0.51
   2   2  -2    3.39    0.55
  -2  -2  -2    3.17    0.50
  -2  -2   2    1.86    0.48
  -2  -2   2    2.40    0.48
   2  -2  -2    2.95    0.58
  -2   2  -2    3.02    0.60
   2   2   2    2.90    0.59
  -2  -2   2    2.56    0.50
  -2  -2   2    2.81    0.46
  -3  -2  -2   13.26    1.02
   3  -2   2   14.82    1.11
   3   2  -2   11.43    1.14
   3   2  -2   13.63    1.18
  -3  -2  -2   13.67    1.07
   3   2   2   15.14    1.46
   3  -2  -2   14.07    1.15
  -3  -2   2   14.47    1.07
  -3  -2   2   12.19    1.00
   4   2  -2   24.05    1.81
   4   2  -2   23.88    1.62
  -4  -2  -2   21.87    1.63
   4  -2   2   23.77    1.70
  -4  -2  -2   24.33    1.57
  -4  -2   2   23.09    1.58
   4   2   2   25.17    1.83
  -4  -2   2   20.73    1.51
   4  -2  -2   26.35    1.79
  -5  -2  -2    6.20    1.28
   5   2  -2    6.85    1.15
   5   2  -2    6.39    1.37
  -5  -2  -2    6.68    1.19
   5  -2   2    3.62    1.05
  -5  -2   2    8.55    1.27
   5  -2  -2    6.86    1.10
   5   2   2    6.09    1.25
   5  -2  -2    5.67    1.20
  -5  -2   2    4.17    1.03
  -6  -2  -2    3.87    1.16
   6  -2   2    2.77    1.07
  -6  -2  -2    1.04    1.12
   6   2  -2    3.29    1.29
   6  -2  -2    4.47    1.17
  -6  -2   2    3.95    1.19
   6  -2  -2    2.78    0.98
   6   2   2    2.59    1.24
  -7  -2  -2   -0.81    0.93
  -7  -2  -2    0.39    1.31
   7  -2   2    0.71    1.29
   7   2  -2    2.05    1.39
  -7  -2   2    0.61    1.21
   7   2   2    2.90    1.41
   7  -2  -2    1.21    1.25
   0   3   2   34.67    1.63
   0  -3   2   34.53    1.59
   0  -3  -2   31.66    1.60
   0   3  -2   33.06    1.58
   0  -3  -2   31.97    1.62
  -1  -3  -2    6.06    0.75
  -1  -3  -2    5.34    0.70
   1  -3   2    6.87    0.74
   1   3  -2    5.26    0.62
   1  -3  -2    4.44    0.54
   1  -3  -2    5.74    0.64
  -1  -3   2    4.75    0.69
  -1  -3   2    6.99    0.66
  -2  -3  -2  103.88    4.36
   2   3  -2  108.90    4.38
   2  -3   2  102.41    4.30
  -2  -3  -2  104.47    4.30
   2   3  -2  101.56    4.21
  -2  -3  -2  103.89    4.44
   2   3  -2  105.44    4.30
  -2  -3   2  103.66    4.25
  -2  -3   2  106.03    4.32
   2  -3  -2  101.78    4.46
  -2  -3   2  113.24    4.39
  -2  -3   2  106.67    4.42
   2   3   2  108.10    4.58
   3  -3   2   -0.03    0.36
   3   3  -2   -0.24    0.44
   3   3  -2    0.37    0.52
  -3  -3  -2    0.41    0.45
  -3  -3  -2    0.33    0.36
  -3  -3   2    0.11    0.39
   3   3   2    0.19    0.50
   3  -3  -2    0.56    0.42
  -3  -3   2    0.67    0.52
  -3  -3   2    0.25    0.33
  -4  -3  -2    4.30    0.85
   4   3  -2    3.68    1.04
  -4  -3  -2    5.74    0.99
   4  -3   2    5.22    1.01
   4  -3  -2    2.89    0.82
  -4  -3   2    4.25    0.88
  -4  -3   2    3.81    0.91
   4   3   2    4.71    1.13
   5   3  -2    8.50    1.58
  -5  -3  -2    8.62    1.51
   5  -3   2    9.43    1.47
  -5  -3  -2    7.20    1.21
  -5  -3   2    7.09    1.22
  -5  -3   2    7.73    1.30
   5  -3  -2    8.76    1.46
   5   3   2    6.20    1.46
  -6  -3  -2    0.25    0.78
   6  -3   2   -0.02    0.89
  -6  -3  -2    1.17    1.15
   6   3  -2   -0.21    1.11
   6  -3  -2   -1.01    0.88
  -6  -3   2   -0.06    0.89
   6   3   2    0.59    1.07
  -6  -3   2    0.67    1.10
   7  -3   2    1.75    1.28
  -7  -3  -2    0.89    1.42
   7   3  -2    2.78    1.58
  -7  -3  -2    0.37    1.03
  -7  -3   2    1.61    1.24
   7  -3  -2    3.41    1.44
   7   3   2    1.53    1.47
   0  -4  -2    0.03    0.32
   0  -4   2    0.59    0.27
   0  -4  -2    0.39    0.32
   1   4  -2   55.18    2.51
  -1  -4  -2   56.97    2.69
  -1  -4  -2   57.16    2.71
   1  -4   2   54.74    2.65
   1  -4  -2   56.89    2.59
  -1  -4   2   61.10    2.80
   1  -4  -2   58.28    2.59
  -1  -4   2   57.75    2.52
   2  -4   2   54.63    2.56
  -2  -4  -2   56.95    2.71
  -2  -4  -2   53.74    2.71
   2  -4   2   54.64    2.69
   2   4  -2   55.31    2.66
  -2  -4  -2   54.26    2.53
  -2  -4   2   55.94    2.76
  -2  -4   2   54.56    2.48
   2  -4  -2   56.62    2.78
  -2  -4   2   55.71    2.57
   3  -4   2    1.43    0.64
  -3  -4  -2    0.88    0.50
   3   4  -2    0.37    0.73
  -3  -4  -2    1.70    0.72
  -3  -4  -2    1.42    0.63
   3   4   2    1.73    0.79
  -3  -4   2    1.23    0.44
  -3  -4   2    1.26    0.72
   3  -4  -2    2.18    0.67
  -3  -4   2    1.19    0.52
   4   4  -2   11.50    1.65
  -4  -4  -2    7.33    1.29
   4  -4   2    8.38    1.27
  -4  -4  -2    8.04    1.17
  -4  -4   2   12.24    1.42
   4  -4  -2   10.48    1.45
   4   4   2    8.19    1.49
  -4  -4   2    9.06    1.35
   5   4  -2    1.88    1.17
  -5  -4  -2    1.08    1.03
   5  -4   2    1.09    0.84
  -5  -4  -2    1.25    0.83
   5   4   2    1.30    1.13
   5  -4  -2    1.39    0.86
  -5  -4   2    1.58    1.05
  -5  -4   2    3.03    0.99
   6  -4   2    0.79    1.00
  -6  -4  -2    1.89    1.29
   6   4  -2   -1.74    1.13
  -6  -4  -2    2.11    1.07
  -6  -4   2    3.17    1.42
   6  -4  -2    2.35    1.21
  -6  -4   2   -0.20    0.88
   6   4   2    1.12    1.37
   7  -4   2   -0.33    1.14
  -7  -4  -2    1.03    1.49
   7   4  -2    1.22    1.86
  -7  -4  -2    0.38    1.15
  -7  -4   2    0.47    1.29
   7  -4  -2    0.49    1.39
   7   4   2    3.00    1.88
   0  -5  -2   15.28    1.17
   0  -5  -2   14.38    1.16
   0  -5  -2   15.28    0.93
   0  -5   2   13.78    1.01
  -1  -5  -2    6.23    0.92
   1  -5   2    7.65    0.86
  -1  -5  -2    8.12    1.06
   1  -5   2    6.59    0.89
  -1  -5   2    5.65    0.91
   1  -5  -2    6.54    0.87
  -1  -5   2    6.71    0.76
   1  -5  -2    6.55    0.89
  -2  -5  -2   65.32    3.20
  -2  -5  -2   67.46    3.24
   2  -5   2   60.57    2.97
   2  -5   2   65.88    3.16
  -2  -5   2   63.19    2.88
  -2  -5   2   64.09    2.98
  -2  -5   2   64.82    3.25
   2  -5  -2   65.36    3.21
   2  -5  -2   64.88    2.96
   3  -5   2    8.24    1.17
   3  -5   2    4.62    0.89
  -3  -5  -2    7.33    1.19
  -3  -5  -2    4.81    1.08
  -3  -5  -2    5.73    0.96
   3   5  -2    5.16    1.17
   3  -5  -2    5.69    1.05
  -3  -5   2    4.91    1.12
  -3  -5   2    4.74    0.72
  -3  -5   2    5.26    0.97
  -4  -5  -2    2.66    0.82
   4  -5   2    3.41    0.95
   4  -5   2    2.81    0.86
  -4  -5  -2   -0.15    0.71
   4   5  -2    1.58    1.09
   4   5   2    2.11    1.10
   4  -5  -2    0.52    0.76
  -4  -5   2    1.78    0.88
  -4  -5   2    0.59    0.74
   5  -5   2    1.29    1.01
  -5  -5  -2    1.45    0.91
  -5  -5  -2    1.78    1.13
   5   5  -2    2.27    1.33
   5  -5  -2    3.57    1.24
   5   5   2    2.16    1.36
  -5  -5   2    1.91    0.99
  -5  -5   2    4.66    1.38
   6   5  -2    0.38    1.51
  -6  -5  -2    2.69    1.24
  -6  -5  -2    0.93    1.37
   6  -5   2    1.31    1.06
   6   5   2    1.59    1.51
  -6  -5   2    1.41    1.37
   6  -5  -2    1.25    1.25
  -6  -5   2    1.74    1.13
   0  -6   2   12.79    1.04
   0  -6  -2   12.20    1.35
   0  -6  -2   15.87    1.53
   0  -6   2   15.94    1.59
  -1  -6  -2    3.15    0.82
  -1  -6  -2    3.89    0.87
   1  -6   2    3.32    0.71
   1  -6   2    1.79    0.58
   1  -6  -2    3.79    0.78
  -1  -6   2    3.42    0.62
   1  -6  -2    3.12    0.72
  -1  -6   2    4.38    0.92
   1  -6  -2    4.14    0.71
  -2  -6  -2    9.25    1.31
   2  -6   2    7.82    1.12
   2  -6   2    7.32    1.03
  -2  -6  -2    6.37    1.10
   2  -6  -2    6.54    0.97
  -2  -6   2    6.09    0.80
  -2  -6   2    7.00    1.21
   2  -6  -2    8.93    1.31
  -3  -6  -2   38.81    2.52
  -3  -6  -2   39.28    2.24
   3  -6   2   32.81    2.28
   3  -6   2   34.37    2.23
  -3  -6  -2   37.39    2.48
   3  -6  -2   38.66    2.49
  -3  -6   2   36.50    2.45
  -3  -6   2   36.66    2.26
   4  -6   2    1.26    0.72
   4   6  -2    1.48    1.18
  -4  -6  -2    2.19    0.86
  -4  -6  -2    1.71    1.08
  -4  -6  -2    3.75    1.21
   4  -6   2    2.20    0.88
  -4  -6   2    3.29    1.22
   4  -6  -2    2.94    1.06
  -4  -6   2    1.79    0.86
   5   6  -2    2.25    1.47
  -5  -6  -2    0.73    1.17
  -5  -6  -2   -0.23    0.87
   5  -6   2    0.47    0.78
   5  -6   2   -0.31    0.90
   5   6   2    0.88    1.36
   5  -6  -2    1.15    0.95
  -5  -6   2   -0.07    0.83
  -5  -6   2   -0.43    1.10
   6   6  -2   -0.24    1.72
  -6  -6  -2    1.62    1.61
   6  -6   2   -0.02    1.15
  -6  -6  -2    0.21    1.13
   6  -6   2   -0.90    0.84
   6  -6  -2    0.65    1.29
  -6  -6   2    1.61    1.29
   6   6   2    0.82    1.74
  -6  -6   2    0.97    1.55
   0  -7  -2    2.68    0.77
   0  -7  -2    1.89    0.78
   0  -7   2    3.42    0.95
   0  -7   2    1.84    0.55
  -1  -7  -2    0.97    0.65
   1  -7   2    1.68    0.60
   1  -7   2    1.11    0.69
  -1  -7  -2    1.92    0.76
   1  -7  -2    1.26    0.67
   1  -7  -2    0.96    0.64
   1  -7  -2    2.09    0.60
  -1  -7   2    1.06    0.66
  -1  -7   2    0.55    0.42
   2  -7   2    0.46    0.59
   2  -7   2   -0.03    0.57
  -2  -7  -2    0.76    0.82
  -2  -7  -2    2.02    0.81
   2  -7  -2    0.78    0.53
   2  -7  -2    0.73    0.80
  -2  -7   2    1.44    0.80
   2  -7  -2    0.70    0.63
  -3  -7  -2   17.91    2.07
   3  -7   2   15.49    1.82
  -3  -7  -2   16.22    1.99
   3  -7   2   15.54    1.76
  -3  -7   2   20.63    2.26
   3  -7  -2   17.86    1.72
   3  -7  -2   15.61    1.95
  -3  -7   2   15.47    1.72
  -4  -7  -2    0.56    0.80
  -4  -7  -2    0.96    1.12
   4  -7   2    2.64    1.04
   4  -7   2   -0.11    0.59
  -4  -7  -2   -0.16    0.99
  -4  -7   2    0.03    0.92
   4  -7  -2    0.37    0.96
  -4  -7   2    1.84    1.19
  -5  -7  -2    0.34    1.49
   5  -7   2    0.04    0.77
  -5  -7  -2    0.70    1.27
   5  -7   2    0.28    1.11
  -5  -7  -2    0.77    1.09
  -5  -7   2    1.57    1.49
  -5  -7   2    0.89    1.05
   5  -7  -2   -0.02    1.16
   0  -8   2   -0.23    0.46
   0  -8  -2    0.00    0.64
   0  -8  -2    0.72    0.71
   0  -8   2   -0.16    0.56
  -1  -8  -2    1.33    0.79
   1  -8   2    0.97    0.82
  -1  -8  -2    0.02    0.71
   1  -8   2    1.16    0.63
   1  -8  -2    1.07    0.59
   1  -8  -2    1.28    0.76
  -1  -8   2    1.64    0.91
  -1  -8   2    1.55    0.60
   1  -8  -2    1.56    0.81
   2  -8   2    1.20    0.70
   2  -8   2    1.98    0.84
  -2  -8  -2    1.11    0.86
  -2  -8  -2    2.38    1.01
   2  -8   2    2.22    0.94
  -2  -8   2    1.61    0.88
   2  -8  -2    1.97    0.82
   2  -8  -2    1.83    0.76
   2  -8  -2    4.14    1.15
  -3  -8  -2    4.92    1.44
   3  -8   2    4.05    1.17
   3  -8   2    4.53    1.10
  -3  -8  -2    3.58    1.10
  -3  -8  -2    6.15    1.44
   3  -8  -2    2.53    0.90
  -3  -8   2    2.90    1.43
   3  -8  -2    5.50    1.10
   3  -8  -2    5.23    1.38
  -4  -8  -2    0.19    1.16
   4  -8   2    0.42    0.73
  -4  -8  -2    1.39    1.29
   4  -8   2   -0.63    1.01
  -4  -8  -2   -0.47    0.98
  -4  -8   2    0.09    1.02
  -4  -8   2    0.09    1.21
   4  -8  -2   -0.37    1.07
   4  -8  -2    3.41    1.01
   0  -9   2    1.38    1.03
   0  -9  -2    0.09    0.78
   0  -9   2   -0.39    0.62
   0  -9  -2   -0.34    0.82
  -1  -9  -2    0.95    1.03
   1  -9   2    0.87    0.92
  -1  -9  -2    1.64    0.97
   1  -9   2    0.70    0.72
   1  -9  -2    1.00    0.88
  -1  -9   2    1.11    0.89
   1  -9  -2    1.23    0.80
  -2  -9  -2    1.98    1.16
  -2  -9  -2    3.39    1.22
   2  -9   2    2.24    0.98
   2  -9   2    1.48    0.90
  -2  -9   2    0.82    1.06
   2  -9  -2    3.27    1.07
   2  -9  -2    3.04    1.01
   2  -9  -2    2.54    0.97
   2  -9  -2    1.27    1.15
   3  -9   2    0.59    0.70
  -3  -9  -2    3.82    1.51
  -3  -9  -2   -0.64    1.11
   3  -9   2   -0.20    0.88
   3  -9  -2    1.58    1.24
   3  -9  -2    0.33    0.76
  -3  -9   2    0.53    1.31
   0 -10   2    0.63    0.95
   0 -10  -2    1.10    1.07
   0 -10  -2    0.42    0.93
  -1 -10  -2    0.30    1.00
  -1 -10  -2    0.47    1.03
   1 -10   2    2.85    1.19
   1 -10   2    0.17    1.00
   1 -10  -2    1.63    1.02
  -1 -10   2    0.44    1.01
   1 -10  -2    0.85    1.03
   1 -10  -2    1.04    1.76
   0   0  -3   -0.06    0.11
   0   0   3   -0.02    0.14
   0   0  -3    0.01    0.14
   0   0  -3    0.19    0.14
   0   0   3    0.57    0.19
   0   0  -3   -0.13    0.13
   0   0   3    0.83    0.19
   0   0   3    0.04    0.12
   1   0   3    0.48    0.23
   1   0   3    0.38    0.23
  -1   0   3    0.50    0.21
   1   0   3    0.45    0.19
  -1   0  -3    0.47    0.23
  -1   0   3    0.20    0.25
   1   0   3    0.51    0.22
  -1   0  -3    0.47    0.19
  -1   0  -3    0.73    0.24
  -1   0  -3    0.32    0.23
   1   0  -3    0.52    0.25
   1   0  -3    0.30    0.21
  -1   0   3    0.81    0.26
  -1   0   3    0.47    0.22
   1   0  -3    0.22    0.20
   1   0  -3    0.60    0.24
  -2   0  -3   97.38    3.86
  -2   0  -3   94.01    3.75
   2   0  -3   95.46    3.81
  -2   0   3   92.48    3.76
   2   0  -3   94.31    3.87
  -2   0   3   91.63    3.77
  -2   0   3   97.06    3.86
   2   0   3   90.20    3.80
   2   0   3   94.48    3.90
   2   0   3   95.44    3.88
  -2   0  -3   91.28    3.86
   2   0  -3   92.98    3.88
  -3   0   3  149.87    6.03
   3   0  -3  147.65    6.23
  -3   0  -3  151.37    6.14
  -3   0  -3  154.49    6.04
   3   0   3  157.73    6.30
   3   0  -3  156.14    6.10
   4   0   3    6.64    1.10
  -4   0  -3    8.88    1.07
  -4   0   3    6.36    0.93
   4   0  -3    8.02    1.06
  -4   0  -3    5.87    1.04
   4   0  -3    8.04    1.15
  -5   0  -3    4.65    0.95
   5   0   3    2.58    0.84
   5   0  -3    2.90    0.92
   5   0  -3    4.91    1.10
  -6   0   3    0.08    0.86
   6   0  -3    0.50    0.86
   6   0  -3    1.82    1.07
  -6   0  -3   -0.84    0.99
  -6   0  -3    1.20    0.84
   6   0   3   -0.24    0.86
  -7   0  -3    0.36    1.37
   7   0   3   -0.26    1.12
  -7   0  -3    0.93    1.04
   7   0  -3    0.37    1.18
   0  -1  -3   51.48    2.12
   0   1  -3   52.73    2.15
   0  -1   3   52.92    2.20
   0  -1   3   52.04    2.19
   0  -1  -3   55.09    2.10
   0   1  -3   54.09    2.21
   0   1   3   54.19    2.11
   0   1   3   52.34    2.13
   0  -1  -3   52.58    2.19
   0   1  -3   53.80    2.19
   0  -1   3   53.78    2.15
   0   1   3   52.83    2.18
  -1  -1  -3   63.80    2.59
  -1  -1  -3   62.35    2.53
   1   1  -3   63.75    2.56
   1  -1   3   62.52    2.58
   1  -1   3   62.63    2.59
   1   1  -3   59.83    2.55
  -1  -1  -3   59.08    2.51
   1  -1   3   63.05    2.50
   1  -1   3   60.53    2.47
  -1  -1  -3   62.91    2.65
   1   1   3   60.33    2.65
   1   1   3   63.14    2.58
  -1  -1   3   63.02    2.56
   1  -1  -3   61.31    2.57
   1   1   3   64.85    2.53
  -1   1  -3   63.32    2.49
  -1   1  -3   63.61    2.55
  -1  -1   3   58.88    2.56
   1   1   3   61.77    2.51
  -1  -1   3   59.36    2.52
   1  -1  -3   63.46    2.51
   2  -1   3   54.02    2.39
  -2  -1  -3   53.23    2.41
   2   1  -3   53.53    2.38
   2   1  -3   48.96    2.35
   2   1  -3   54.30    2.40
  -2  -1  -3   52.46    2.33
   2  -1   3   53.08    2.37
   2  -1   3   52.60    2.26
   2  -1  -3   55.31    2.30
   2  -1  -3   55.88    2.47
   2   1   3   55.60    2.51
  -2   1  -3   52.36    2.26
  -2  -1   3   53.27    2.36
  -2   1  -3   53.13    2.39
  -2  -1   3   53.60    2.35
  -2  -1   3   54.50    2.39
  -2   1  -3   50.35    2.40
   3   1  -3   31.87    1.75
   3  -1   3   31.72    1.79
  -3  -1  -3   29.05    1.75
  -3  -1  -3   32.60    1.71
   3   1  -3   33.69    1.84
   3   1   3   29.84    1.84
  -3  -1   3   34.84    1.74
   3  -1  -3   35.13    1.71
   3  -1  -3   29.46    1.80
  -3   1  -3   29.14    1.76
   4  -1   3    5.77    0.98
   4   1  -3    5.63    1.02
   4   1  -3    4.84    0.83
  -4  -1  -3    5.61    0.89
  -4  -1  -3    4.18    0.87
   4   1   3    3.40    0.82
  -4  -1   3    7.11    1.02
   4  -1  -3    6.49    1.05
   4  -1  -3    5.34    0.92
   5  -1   3    1.91    0.83
  -5  -1  -3    3.54    0.87
   5   1  -3    3.05    0.93
   5   1  -3    4.16    0.92
  -5  -1  -3    3.36    1.07
   5  -1  -3    3.41    0.88
   5  -1  -3    2.19    0.91
  -5   1  -3    3.55    1.11
  -5  -1   3    3.32    0.88
   5   1   3    3.27    1.04
   6  -1   3   -0.32    0.86
   6   1  -3   -0.03    0.85
  -6  -1  -3    0.56    0.82
  -6  -1  -3   -0.83    1.05
   6   1  -3    0.33    1.03
   6  -1  -3    0.56    0.86
   6   1   3    0.92    0.98
  -6   1  -3    1.45    1.14
   6  -1  -3    0.92    0.88
  -6  -1   3    1.43    0.92
  -7  -1  -3    2.96    1.53
  -7  -1  -3    0.11    1.02
   7   1  -3    1.40    1.32
   7  -1   3    0.76    1.23
  -7  -1   3    3.17    1.21
   7  -1  -3    0.49    1.23
   7  -1  -3    0.56    1.14
   7   1   3    2.47    1.16
   0   2   3   95.20    3.72
   0  -2   3   96.46    3.80
   0  -2   3   93.55    3.77
   0  -2  -3   94.54    3.72
   0  -2  -3   93.59    3.78
   0   2  -3   95.48    3.78
   0   2   3   94.45    3.78
   1  -2   3   45.20    2.05
  -1  -2  -3   43.66    2.04
  -1  -2  -3   43.56    1.93
  -1  -2  -3   46.85    2.15
  -1  -2  -3   46.28    2.04
   1   2  -3   45.58    1.99
   1   2  -3   43.70    1.96
   1   2   3   46.34    2.05
   1   2   3   47.30    2.05
  -1   2  -3   44.12    2.01
   1  -2  -3   45.67    1.97
  -1  -2   3   46.98    2.02
  -1  -2   3   41.38    1.96
   2  -2   3   48.69    2.36
   2  -2   3   48.51    2.29
   2   2  -3   52.67    2.51
   2   2  -3   54.93    2.38
  -2  -2  -3   51.45    2.38
  -2  -2  -3   50.86    2.30
  -2  -2  -3   48.58    2.31
   2   2  -3   50.91    2.35
  -2  -2   3   51.08    2.31
  -2   2  -3   50.90    2.31
   2  -2  -3   52.41    2.46
  -2  -2   3   52.31    2.35
   2   2   3   50.05    2.49
  -2  -2   3   54.14    2.30
   3  -2   3   12.06    1.21
  -3  -2  -3   11.27    1.17
  -3  -2  -3   12.25    1.15
   3   2  -3   13.96    1.37
   3   2  -3   11.08    1.12
  -3  -2   3   11.25    1.05
   3  -2  -3   11.02    1.26
  -3  -2   3    9.23    1.02
   3   2   3   10.81    1.26
  -3  -2   3   10.65    1.05
   4   2  -3    4.00    0.87
  -4  -2  -3    5.86    0.94
   4  -2   3    3.66    0.84
  -4  -2  -3    4.46    0.90
   4   2  -3    4.35    1.05
  -4  -2   3    6.30    0.97
   4  -2  -3    4.51    0.93
   4   2   3    4.33    0.94
   4  -2  -3    4.49    0.90
   5   2  -3    2.86    0.94
   5   2  -3    4.10    1.17
   5  -2   3    1.71    0.84
  -5  -2  -3    1.51    0.76
  -5  -2  -3    0.34    0.85
   5  -2  -3    0.78    0.83
   5  -2  -3    1.37    0.82
  -5  -2   3    3.75    0.97
   5   2   3    1.43    0.91
  -5  -2   3    1.55    0.79
  -6  -2  -3    1.13    0.86
   6  -2   3    0.58    0.86
   6   2  -3    2.46    1.32
  -6  -2  -3    0.89    1.13
   6  -2  -3    0.67    0.86
   6   2   3    0.71    1.05
  -6  -2   3   -0.26    0.91
   6  -2  -3    0.80    1.02
   7  -2   3    0.47    1.20
   7   2  -3    1.44    1.49
  -7  -2  -3    0.56    1.01
  -7  -2  -3   -0.28    1.45
   7  -2  -3   -0.18    1.12
   7  -2  -3    2.05    1.37
  -7  -2   3   -0.44    1.15
   7   2   3    1.37    1.26
   0   3  -3   26.38    1.44
   0  -3  -3   25.21    1.38
   0  -3  -3   25.88    1.35
   0  -3   3   25.02    1.33
   0   3   3   25.97    1.39
  -1  -3  -3   10.31    0.95
   1   3  -3    8.98    0.82
   1  -3   3    8.57    0.87
  -1  -3  -3    8.47    0.85
   1  -3  -3    8.14    0.79
  -1  -3   3    8.20    0.67
   2  -3   3   72.46    3.19
   2   3  -3   74.16    3.07
  -2  -3  -3   69.92    3.19
   2  -3   3   68.59    3.02
  -2  -3  -3   68.93    3.04
   2   3  -3   68.40    3.05
  -2  -3  -3   66.43    3.10
   2   3   3   75.70    3.38
  -2   3  -3   65.99    3.03
  -2  -3   3   71.65    3.07
   2  -3  -3   70.44    3.25
  -2  -3   3   69.18    3.13
  -2  -3   3   72.46    3.03
   3   3  -3    4.96    0.91
   3   3  -3    4.90    0.84
  -3  -3  -3    3.72    0.74
  -3  -3  -3    4.24    0.75
   3  -3   3    3.98    0.77
  -3  -3   3    3.31    0.63
  -3  -3   3    3.29    0.72
   3  -3  -3    3.86    0.77
   3   3   3    3.81    0.87
  -3  -3   3    3.85    0.73
   4   3  -3    7.87    1.38
  -4  -3  -3    3.76    0.84
   4  -3   3    3.94    0.88
   4   3  -3    3.70    0.87
  -4  -3  -3    6.35    1.10
   4  -3  -3    1.97    0.73
  -4  -3   3    5.24    1.00
   4   3   3    2.30    0.87
  -4  -3   3    5.34    1.04
   5   3  -3   -0.14    0.71
  -5  -3  -3   -0.01    0.81
   5   3  -3    1.24    1.04
  -5  -3  -3    0.04    0.66
   5  -3   3    0.31    0.82
  -5  -3   3   -0.04    0.88
   5   3   3    0.38    0.77
   5  -3  -3    1.47    0.78
  -5  -3   3    0.40    0.78
   6  -3   3    3.80    1.23
  -6  -3  -3    2.52    1.11
  -6  -3  -3    3.00    1.32
   6   3  -3    3.23    1.49
   6  -3  -3    3.11    1.25
  -6  -3   3    1.17    0.99
  -6  -3   3    0.47    1.15
   6   3   3    2.21    1.44
   6  -3  -3    0.40    0.93
   7  -3   3    3.28    1.46
   7   3  -3    3.64    1.71
  -7  -3  -3    2.80    1.26
  -7  -3  -3    3.17    1.68
   7  -3  -3    4.12    1.44
   7   3   3    2.70    1.55
   7  -3  -3    4.38    1.58
  -7  -3   3    1.93    1.29
   0  -4  -3    0.96    0.41
   0  -4  -3    0.86    0.38
   0  -4   3    0.64    0.32
  -1  -4  -3   14.28    1.12
  -1  -4  -3   13.50    1.11
   1  -4   3   16.45    1.13
   1  -4  -3   16.79    1.13
  -1  -4   3   18.15    1.08
  -1  -4   3   17.36    1.25
   1  -4  -3   15.72    1.03
   2  -4   3   24.83    1.40
  -2  -4  -3   25.49    1.59
  -2  -4  -3   23.05    1.57
  -2  -4  -3   24.57    1.42
   2   4  -3   23.84    1.49
   2  -4   3   24.12    1.55
   2  -4  -3   22.26    1.56
  -2  -4   3   22.12    1.55
  -2  -4   3   24.55    1.42
   3   4  -3   20.46    1.83
  -3  -4  -3   18.02    1.71
   3   4  -3   20.44    1.43
  -3  -4  -3   16.15    1.29
  -3  -4  -3   18.99    1.49
   3  -4   3   17.12    1.59
  -3  -4   3   18.11    1.49
  -3  -4   3   17.99    1.25
   3   4   3   18.97    1.94
  -3  -4   3   18.64    1.41
   3  -4  -3   17.26    1.45
   4  -4   3   21.04    1.93
  -4  -4  -3   18.78    1.54
   4  -4   3   19.10    1.64
   4   4  -3   23.21    2.33
  -4  -4  -3   22.50    2.10
  -4  -4   3   21.53    1.96
  -4  -4   3   25.61    2.14
   4   4   3   19.12    2.21
   4  -4  -3   21.07    1.75
  -5  -4  -3    1.64    1.06
   5  -4   3    0.67    0.82
  -5  -4  -3    0.52    0.71
   5   4  -3    0.61    1.05
  -5  -4   3    0.14    0.82
  -5  -4   3    1.38    1.03
   5  -4  -3    0.08    0.81
   5   4   3    3.13    1.23
   6  -4   3    0.06    1.01
   6   4  -3    4.39    1.44
  -6  -4  -3    0.38    1.13
  -6  -4  -3    0.70    0.92
  -6  -4   3    1.99    1.25
   6   4   3    1.69    1.29
   6  -4  -3    0.86    1.04
  -6  -4   3    0.74    0.97
   7   4  -3   -0.85    1.57
   7  -4   3    4.10    1.47
   7  -4   3    0.41    1.23
  -7  -4  -3    0.06    1.50
  -7  -4  -3    0.94    1.17
   7   4   3   -1.14    1.45
  -7  -4   3   -0.17    1.16
   7  -4  -3    0.30    1.31
   0  -5  -3    0.41    0.41
   0  -5   3    0.06    0.27
   0  -5  -3    0.20    0.36
   1  -5   3    4.39    0.71
  -1  -5  -3    5.04    0.85
  -1  -5  -3    4.90    0.85
  -1  -5   3    6.16    0.78
   1  -5  -3    6.22    0.82
  -1  -5   3    5.19    0.88
   1  -5  -3    5.74    0.83
   2  -5   3    7.52    0.90
   2  -5   3    8.30    1.08
  -2  -5  -3    7.47    0.95
  -2  -5  -3    7.17    1.05
  -2  -5  -3    7.73    1.10
   2  -5  -3    6.19    1.04
  -2  -5   3    6.09    0.96
  -2  -5   3    6.66    0.82
   2  -5  -3    5.14    0.76
  -3  -5  -3   20.35    1.86
  -3  -5  -3   18.57    1.41
   3   5  -3   17.78    1.89
  -3  -5  -3   19.12    1.89
   3  -5   3   17.31    1.41
   3  -5   3   17.94    1.76
  -3  -5   3   17.16    1.66
  -3  -5   3   19.03    1.80
   3  -5  -3   16.08    1.81
  -3  -5   3   16.37    1.29
  -4  -5  -3    5.16    1.09
   4  -5   3    8.12    1.29
  -4  -5  -3    9.41    1.52
   4  -5   3    5.52    1.16
   4   5  -3    8.25    1.46
   4   5   3    6.90    1.49
  -4  -5   3    9.24    1.38
   4  -5  -3    4.68    1.21
  -4  -5   3    6.92    0.96
  -4  -5   3    6.43    1.25
   5   5  -3    0.15    1.20
   5  -5   3   -0.42    0.67
  -5  -5  -3    0.80    1.03
   5  -5   3   -1.08    0.82
  -5  -5  -3   -0.26    0.77
   5   5   3    1.32    1.20
  -5  -5   3    1.77    1.17
  -5  -5   3    0.01    0.88
   5  -5  -3    0.77    0.92
   6  -5   3    0.22    0.97
   6  -5   3    1.04    1.19
  -6  -5  -3   -0.28    1.25
  -6  -5  -3   -0.98    0.81
   6   5  -3    1.01    1.60
   6  -5  -3    0.08    1.16
  -6  -5   3    1.24    1.44
   6   5   3   -0.31    1.50
  -6  -5   3    0.09    1.04
   0  -6  -3    1.67    0.65
   0  -6   3    0.79    0.61
   0  -6  -3    1.64    0.66
   0  -6   3    2.32    0.61
  -1  -6  -3    0.65    0.56
   1  -6   3    0.72    0.46
  -1  -6  -3    0.86    0.53
   1  -6  -3    0.93    0.48
   1  -6  -3    1.83    0.59
  -1  -6   3    1.62    0.50
  -1  -6   3    0.95    0.66
   1  -6  -3    0.41    0.52
  -2  -6  -3   17.76    1.82
   2  -6   3   19.27    1.81
  -2  -6  -3   20.90    1.90
  -2  -6   3   17.17    1.26
   2  -6  -3   20.16    1.95
  -2  -6   3   14.41    1.62
   2  -6  -3   16.58    1.31
   3  -6   3    3.16    0.91
  -3  -6  -3    1.66    0.95
  -3  -6  -3    3.97    1.05
  -3  -6  -3    1.60    0.69
   3  -6   3    2.84    0.79
  -3  -6   3    1.84    0.90
  -3  -6   3    2.43    0.69
  -3  -6   3    1.79    0.73
   3  -6  -3    2.49    0.95
   4  -6   3    1.20    0.74
  -4  -6  -3    1.73    1.10
  -4  -6  -3    2.75    1.15
   4   6  -3    2.14    1.19
   4  -6   3    1.33    0.92
  -4  -6  -3    0.16    0.72
  -4  -6   3    0.79    0.53
  -4  -6   3    2.26    1.16
   4  -6  -3    2.20    0.98
  -4  -6   3    1.47    0.91
   5   6  -3    3.16    1.52
  -5  -6  -3    3.49    1.28
  -5  -6  -3    0.57    0.90
  -5  -6  -3   -0.15    1.17
   5  -6   3    1.35    1.03
   5  -6   3    1.27    0.87
   5  -6  -3    0.50    1.02
  -5  -6   3    1.75    1.01
  -5  -6   3    0.83    1.20
  -6  -6  -3   -0.38    0.93
   6   6  -3    0.39    1.71
  -6  -6  -3    1.01    1.42
   6  -6   3   -0.70    1.07
   6  -6   3   -0.43    0.90
  -6  -6   3   -0.10    1.10
   6  -6  -3    0.65    1.24
   6   6   3    0.72    1.56
  -6  -6   3    1.11    1.48
   0  -7  -3    0.84    0.67
   0  -7  -3    3.17    0.82
   0  -7   3    3.21    0.92
   0  -7   3    2.61    0.61
   1  -7   3    1.76    0.65
  -1  -7  -3    0.64    0.58
  -1  -7  -3    1.41    0.76
  -1  -7   3    1.27    0.78
   1  -7  -3    1.19    0.68
   1  -7  -3    1.43    0.55
   1  -7  -3    2.12    0.72
   2  -7   3    7.10    1.16
  -2  -7  -3    7.33    1.23
  -2  -7  -3    4.91    1.21
   2  -7  -3    7.21    1.07
   2  -7  -3    9.52    1.49
  -2  -7   3    7.39    1.28
   2  -7  -3    8.94    1.20
  -2  -7   3    6.42    0.93
  -3  -7  -3    3.18    1.11
   3  -7   3    1.41    0.80
  -3  -7  -3    2.78    1.20
   3  -7   3    2.17    0.80
  -3  -7  -3    2.83    0.89
   3  -7  -3    3.31    1.09
  -3  -7   3    0.94    0.97
  -3  -7   3    0.46    0.84
   4  -7   3    1.32    0.77
  -4  -7  -3    1.98    1.14
  -4  -7  -3    0.88    0.92
   4  -7   3    1.92    1.04
  -4  -7  -3    2.28    1.17
  -4  -7   3    1.51    0.99
   4  -7  -3    3.34    1.17
  -4  -7   3    0.13    1.21
  -5  -7  -3   -0.87    1.12
  -5  -7  -3    0.14    0.95
  -5  -7  -3    0.03    1.35
   5  -7   3    0.56    0.75
   5  -7   3   10.99    1.85
  -5  -7   3    0.04    0.97
   5  -7  -3    0.53    1.12
  -5  -7   3   -0.65    1.40
   0  -8  -3    0.21    0.65
   0  -8  -3    1.05    0.75
   0  -8   3    0.48    0.48
   0  -8   3    0.88    0.83
   1  -8   3    1.15    0.68
   1  -8   3    0.10    0.66
  -1  -8  -3    1.44    0.86
  -1  -8  -3    1.71    0.79
  -1  -8   3    0.88    0.56
  -1  -8   3    1.03    0.74
   1  -8  -3    0.30    0.70
   1  -8  -3    3.21    0.80
   1  -8  -3    2.01    0.81
  -2  -8  -3    6.06    1.28
  -2  -8  -3    3.57    1.09
   2  -8   3    5.63    1.13
   2  -8  -3    3.78    0.92
   2  -8  -3    5.35    1.09
   2  -8  -3    5.16    1.27
  -2  -8   3    4.05    1.23
  -3  -8  -3    8.68    1.70
  -3  -8  -3    6.39    1.55
   3  -8   3    8.10    1.32
  -3  -8  -3    7.43    1.34
  -3  -8   3    5.26    1.25
   3  -8  -3    5.84    1.16
   3  -8  -3    7.76    1.65
   3  -8  -3    6.47    1.15
  -3  -8   3    4.78    1.37
   4  -8   3    3.14    1.00
  -4  -8  -3    2.46    1.18
  -4  -8  -3    4.16    1.52
  -4  -8  -3    4.25    1.58
   4  -8  -3    5.52    1.26
  -4  -8   3    4.56    1.65
  -4  -8   3    4.02    1.31
   4  -8  -3    6.50    1.55
   0  -9   3    0.17    0.65
   0  -9  -3    0.01    0.77
   0  -9   3   -0.42    0.77
   0  -9  -3    4.55    1.30
  -1  -9  -3    1.07    0.92
   1  -9   3    1.43    0.96
  -1  -9  -3    0.72    0.85
   1  -9   3    0.52    0.74
  -1  -9   3    1.01    0.97
   1  -9  -3    1.75    0.94
   1  -9  -3    2.01    0.91
  -2  -9  -3    0.85    0.98
  -2  -9  -3    2.92    1.13
   2  -9   3    2.28    0.99
   2  -9   3    2.95    1.03
   2  -9  -3    2.13    1.18
  -2  -9   3    3.59    1.24
   2  -9  -3    4.20    1.20
   2  -9  -3    2.74    1.03
  -3  -9  -3    0.61    1.16
   3  -9   3    2.09    1.04
  -3  -9  -3    3.02    1.47
   3  -9   3    2.68    1.13
   3  -9  -3    3.32    0.98
   3  -9  -3   -0.01    1.30
  -3  -9   3    0.38    1.29
   0 -10  -3    2.63    1.22
   0 -10  -3    1.95    1.09
   0 -10   3    0.33    0.96
  -1 -10  -3    2.06    1.26
   1 -10  -3    2.33    1.12
   0   0  -4  173.39    6.53
   0   0  -4  171.84    6.50
   0   0  -4  179.46    6.49
   0   0  -4  170.55    6.50
   0   0   4  175.31    6.51
   0   0   4  171.03    6.48
   0   0   4  171.62    6.53
   0   0   4  166.72    6.47
   1   0  -4    3.87    0.48
  -1   0  -4    5.61    0.56
   1   0   4    4.44    0.49
  -1   0   4    4.59    0.52
  -1   0  -4    5.50    0.55
   1   0   4    4.07    0.46
   1   0   4    4.81    0.56
  -1   0  -4    4.68    0.46
   1   0   4    4.23    0.52
   1   0  -4    5.75    0.57
  -1   0   4    4.52    0.55
   1   0  -4    5.77    0.57
  -1   0  -4    2.97    0.43
  -1   0  -4    5.53    0.60
   1   0  -4    3.69    0.48
   1   0   4    5.12    0.49
  -1   0   4    4.75    0.51
   2   0  -4   10.49    0.92
  -2   0   4    8.72    0.75
  -2   0   4    7.97    0.84
  -2   0   4    8.09    0.85
  -2   0  -4    7.26    0.90
   2   0   4    8.42    0.82
  -2   0  -4    9.98    0.96
   2   0   4    7.17    0.84
  -2   0  -4   10.12    0.86
   2   0  -4    9.35    0.92
   3   0   4   82.93    3.83
   3   0  -4   87.45    3.71
  -3   0  -4   86.09    3.62
  -3   0   4   83.62    3.63
   3   0  -4   82.72    3.77
  -3   0  -4   87.11    3.79
   4   0   4    5.33    0.98
   4   0  -4    5.01    0.87
  -4   0  -4    3.67    0.89
  -4   0   4    3.83    0.83
   4   0  -4    3.52    0.84
  -4   0  -4    5.45    0.84
   5   0  -4    1.64    0.87
  -5   0  -4    2.73    0.83
  -5   0  -4    4.69    1.17
  -5   0   4    3.06    0.94
   5   0  -4    2.84    0.96
   5   0   4    1.87    0.85
   6   0   4    0.11    0.86
   6   0  -4   -0.70    0.74
  -6   0  -4    0.30    0.84
   6   0  -4   -0.02    0.97
  -6   0  -4    0.18    1.07
  -6   0   4    0.87    1.00
   7   0   4    1.68    1.34
  -7   0  -4    0.32    1.45
   7   0  -4    0.04    1.22
   7   0  -4    0.19    1.07
   0   1   4    2.70    0.37
   0  -1  -4    3.19    0.43
   0  -1   4    2.40    0.37
   0   1  -4    2.43    0.41
   0  -1  -4    3.97    0.43
   0   1  -4    2.34    0.36
   0  -1  -4    2.32    0.31
   0   1  -4    2.55    0.38
   0  -1   4    3.09    0.48
   0   1   4    2.15    0.37
   0   1   4    3.06    0.36
   0  -1   4    2.05    0.35
   0  -1  -4    2.69    0.37
   0   1   4    2.40    0.35
   1   1  -4   11.43    0.76
  -1  -1  -4   13.34    0.79
  -1  -1  -4   10.78    0.72
  -1  -1  -4   12.37    0.79
  -1  -1  -4   11.31    0.84
   1   1  -4    9.80    0.73
   1  -1   4   11.23    0.79
  -1   1   4   11.15    0.76
   1   1  -4   10.39    0.77
   1  -1   4   11.00    0.74
  -1   1   4   11.14    0.76
   1  -1   4   12.02    0.71
  -1   1  -4   11.59    0.75
   1  -1  -4   10.18    0.75
  -1  -1   4   12.41    0.82
   1   1   4   12.53    0.77
   1   1   4   11.16    0.73
  -1  -1   4   11.85    0.77
  -1  -1   4   10.62    0.76
   1  -1  -4   12.45    0.76
  -1   1  -4   12.00    0.71
   1  -1  -4   11.82    0.71
   1   1   4   12.05    0.84
   1   1   4   12.71    0.80
  -2  -1  -4   24.15    1.29
   2   1  -4   22.48    1.31
   2  -1   4   21.19    1.27
  -2  -1  -4   23.83    1.36
   2   1  -4   23.53    1.34
   2  -1   4   22.82    1.31
  -2   1  -4   23.82    1.25
  -2  -1   4   23.88    1.26
  -2   1  -4   22.85    1.33
   2  -1  -4   21.18    1.35
   2   1   4   22.60    1.40
  -2  -1   4   24.91    1.35
   2  -1  -4   24.37    1.25
  -2   1  -4   23.83    1.39
  -3  -1  -4   57.58    2.62
   3   1  -4   55.38    2.64
   3   1  -4   54.65    2.71
  -3  -1  -4   50.57    2.65
   3  -1   4   54.36    2.71
  -3   1  -4   58.70    2.75
   3   1   4   56.86    2.79
  -3  -1   4   55.29    2.62
   3  -1  -4   57.71    2.61
   3  -1  -4   54.20    2.75
   4  -1   4    7.47    1.17
   4   1  -4    7.20    1.08
   4   1  -4    6.44    1.09
  -4  -1  -4    6.70    1.03
  -4  -1  -4    7.10    1.02
  -4  -1   4    5.14    0.93
  -4   1  -4    7.73    1.21
   4  -1  -4    7.52    1.16
   4  -1  -4    6.84    0.98
   4   1   4    6.77    1.12
   5   1  -4    4.42    0.94
  -5  -1  -4    3.84    0.87
   5   1  -4    3.30    1.09
   5  -1   4    3.73    1.05
  -5  -1  -4    2.44    1.00
  -5   1  -4    4.11    1.16
   5   1   4    3.79    1.06
   5  -1  -4    4.17    1.02
  -5  -1   4    5.57    1.11
   5  -1  -4    4.98    1.19
   6   1  -4    0.85    0.92
  -6  -1  -4    0.71    0.85
  -6  -1  -4    1.23    1.18
   6   1  -4    1.35    1.00
   6  -1   4    0.37    0.88
   6  -1  -4   -0.32    0.96
  -6  -1   4   -0.08    0.94
   6   1   4    0.59    0.79
  -6   1  -4    0.68    1.14
   6  -1  -4    0.47    0.85
   7  -1   4    0.14    1.19
  -7  -1  -4    0.39    1.37
   7   1  -4    0.18    1.09
  -7  -1  -4    0.45    1.06
   7   1  -4    0.96    1.34
  -7  -1   4   -0.07    1.06
   7  -1  -4    0.08    1.11
   7  -1  -4   -0.78    1.26
   7   1   4    1.10    1.17
   0  -2   4   12.01    0.85
   0   2   4   11.36    0.81
   0  -2   4   10.84    0.76
   0   2  -4   10.07    0.77
   0  -2   4   12.07    0.73
   0   2   4   11.20    0.73
   0  -2  -4   11.35    0.80
   0  -2  -4   12.19    0.65
   0  -2  -4   11.18    0.72
  -1  -2  -4   28.12    1.49
  -1  -2  -4   29.05    1.49
   1   2  -4   29.21    1.48
   1  -2   4   26.53    1.47
  -1   2   4   30.45    1.47
   1   2  -4   28.66    1.47
  -1  -2  -4   27.90    1.39
   1  -2  -4   30.55    1.47
   1   2   4   33.79    1.93
   1  -2  -4   27.42    1.43
  -1  -2   4   28.69    1.47
  -1  -2   4   34.31    1.80
   1   2   4   30.85    1.72
   1   2   4   28.29    1.39
  -2  -2  -4   44.19    2.12
   2  -2   4   45.09    2.09
   2   2  -4   47.48    2.13
   2  -2   4   47.72    2.22
   2   2  -4   45.59    2.17
  -2  -2  -4   43.70    2.10
  -2  -2  -4   45.26    2.21
  -2  -2   4   45.20    2.12
  -2  -2   4   48.12    2.07
  -2   2  -4   43.67    2.09
   2  -2  -4   41.35    2.23
   2   2   4   42.17    2.30
  -2  -2   4   47.45    2.19
   3   2  -4   15.27    1.26
  -3  -2  -4   17.61    1.54
  -3  -2  -4   16.55    1.18
   3  -2   4   17.71    1.48
   3  -2   4   17.28    1.20
   3   2  -4   15.28    1.21
   3   2   4   16.29    1.61
  -3  -2   4   13.36    1.11
  -3  -2   4   15.72    1.18
   3  -2  -4   15.89    1.26
  -3  -2   4   15.05    1.15
  -4  -2  -4   23.39    1.55
   4   2  -4   20.63    1.71
   4  -2   4   19.41    1.55
  -4  -2  -4   22.41    1.97
   4   2  -4   18.37    1.49
  -4  -2   4   20.92    1.58
   4   2   4   17.72    1.93
   4  -2  -4   22.89    1.73
   5   2  -4    0.70    0.88
   5   2  -4    1.53    0.81
   5  -2   4    0.53    0.74
  -5  -2  -4    1.93    0.87
  -5  -2  -4    0.02    0.77
  -5  -2   4    1.32    0.81
   5  -2  -4    5.16    1.00
   5   2   4    2.71    1.05
   5  -2  -4    0.51    0.67
   6   2  -4   -0.78    1.10
  -6  -2  -4    0.06    0.86
   6   2  -4    0.09    0.85
   6  -2   4   -0.18    0.92
  -6  -2  -4    2.86    1.30
  -6  -2   4    0.19    0.97
   6   2   4    1.62    1.10
   6  -2  -4    1.16    0.97
   6  -2  -4   -0.08    0.91
   7   2  -4    1.39    1.56
  -7  -2  -4    0.07    0.90
   7  -2   4    0.81    1.25
  -7  -2  -4   -1.39    1.39
   7  -2  -4    0.03    1.24
   7   2   4   -2.07    1.16
  -7  -2   4   -0.96    1.03
   7  -2  -4    0.41    1.18
   0  -3  -4    3.51    0.56
   0   3   4    4.27    0.62
   0  -3  -4    4.45    0.57
   0  -3   4    3.94    0.56
  -1  -3  -4   14.08    1.03
   1  -3   4   12.22    0.95
  -1  -3  -4   13.97    0.99
  -1  -3   4   15.37    0.98
   1  -3  -4   14.44    0.97
   2  -3   4   23.43    1.31
  -2  -3  -4   23.66    1.35
  -2  -3  -4   21.82    1.45
  -2  -3  -4   24.02    1.48
   2  -3   4   20.77    1.44
   2   3  -4   24.27    1.42
   2  -3  -4   23.60    1.52
  -2   3  -4   21.52    1.28
  -2  -3   4   24.08    1.39
  -2  -3   4   26.29    1.52
   3   3  -4   -0.24    0.40
  -3  -3  -4    0.96    0.43
  -3  -3  -4    0.40    0.56
   3   3  -4    1.42    0.67
   3  -3   4    0.40    0.41
   3  -3   4    0.04    0.41
  -3  -3  -4    1.47    0.58
  -3  -3   4    0.85    0.38
   3   3   4   -0.52    0.39
   3  -3  -4    0.16    0.40
  -3  -3   4    0.10    0.44
  -3  -3   4   -0.31    0.48
   4  -3   4    2.77    0.82
  -4  -3  -4    2.32    0.72
   4   3  -4    1.91    0.74
  -4  -3  -4    2.06    0.86
   4   3  -4    1.43    0.98
   4  -3  -4    1.45    0.69
  -4  -3   4    2.19    0.75
   4   3   4    1.42    0.81
  -4  -3   4    1.32    0.80
   5   3  -4    1.30    0.78
   5  -3   4    1.39    0.86
  -5  -3  -4    1.45    0.85
   5   3  -4    1.77    0.94
  -5  -3  -4    0.93    0.99
   5  -3   4    1.71    0.84
  -5  -3   4    1.20    0.97
   5   3   4    0.17    0.85
  -5  -3   4    0.42    0.79
   5  -3  -4    1.48    0.84
  -6  -3  -4    0.34    0.93
   6   3  -4    1.53    1.25
   6  -3   4    1.39    1.03
   6  -3   4   -0.12    0.94
  -6  -3  -4    0.04    1.09
   6   3   4    1.27    1.13
   6  -3  -4    0.32    0.87
  -6  -3   4   -1.06    0.86
   6  -3  -4    0.70    0.93
  -7  -3  -4   -2.03    1.35
  -7  -3  -4    0.59    1.05
   7  -3   4    1.61    1.39
   7  -3   4    2.14    1.46
   7   3  -4    1.19    1.62
   7   3   4    0.91    1.45
  -7  -3   4   -0.16    1.18
   7  -3  -4   -0.24    1.16
   0  -4  -4    8.24    0.88
   0  -4  -4    8.51    0.93
   0  -4   4    7.48    0.85
  -1  -4  -4    3.74    0.75
   1  -4   4    3.93    0.68
  -1  -4  -4    2.79    0.59
   1  -4  -4    3.73    0.56
  -1  -4   4    3.47    0.62
   1  -4  -4    3.75    0.67
   2  -4   4   10.25    1.17
  -2  -4  -4   10.21    1.02
  -2  -4  -4    9.52    1.11
  -2  -4  -4    8.36    1.12
  -2  -4   4    9.72    1.01
  -2  -4   4    9.26    1.13
   2  -4  -4    8.55    1.11
   3  -4   4    3.03    0.72
  -3  -4  -4    2.90    0.69
   3   4  -4    2.76    0.79
  -3  -4  -4    3.11    0.86
  -3  -4  -4    2.95    0.75
   3   4  -4    4.35    1.00
   3  -4   4    3.03    0.72
   3  -4  -4    2.17    0.76
  -3  -4   4    3.09    0.75
  -3  -4   4    2.22    0.61
   3   4   4    1.67    0.79
  -3  -4   4    3.11    0.84
   4   4  -4   -0.38    0.88
   4  -4   4    2.38    0.79
  -4  -4  -4    0.98    0.75
  -4  -4  -4    1.54    0.70
   4  -4   4    1.07    0.73
   4   4  -4    1.41    0.77
  -4  -4   4    1.95    0.61
  -4  -4   4    1.69    0.77
  -4  -4   4    3.04    0.97
   4  -4  -4    0.65    0.65
   4   4   4    3.53    1.12
   5  -4   4    1.21    0.80
  -5  -4  -4    0.16    0.67
   5   4  -4   -0.70    1.03
   5  -4   4    0.00    0.76
  -5  -4  -4    1.63    0.97
   5   4   4    0.68    0.95
   5  -4  -4    0.11    0.77
  -5  -4   4   -1.35    0.90
  -5  -4   4   -0.34    0.74
   6  -4   4    0.95    1.02
   6  -4   4    0.44    0.97
   6   4  -4    2.13    1.46
  -6  -4  -4    1.69    1.31
  -6  -4  -4    0.40    0.89
  -6  -4   4    1.69    1.33
   6   4   4    0.49    1.28
  -6  -4   4    0.74    1.01
   6  -4  -4    1.05    1.15
  -7  -4  -4    1.26    1.31
   7  -4   4   -0.23    1.20
  -7  -4   4    1.10    1.39
   0  -5  -4    3.29    0.69
   0  -5   4    4.93    0.75
   0  -5  -4    4.53    0.76
  -1  -5  -4    5.45    0.90
  -1  -5  -4    7.65    1.06
   1  -5   4    4.73    0.81
   1  -5  -4    4.92    0.77
  -1  -5   4    6.71    0.86
   1  -5  -4    5.00    0.81
  -1  -5   4    5.27    0.90
  -2  -5  -4    5.59    1.02
  -2  -5  -4    6.56    1.10
   2  -5   4    9.50    1.17
  -2  -5  -4    7.17    0.90
  -2  -5   4    5.77    0.80
   2  -5  -4    5.56    1.03
  -2  -5   4    6.13    1.04
   3  -5   4   13.57    1.55
   3  -5   4   14.63    1.47
  -3  -5  -4   12.54    1.56
  -3  -5  -4   12.81    1.58
   3   5  -4   10.76    1.44
  -3  -5  -4   16.38    1.56
  -3  -5   4   12.35    1.52
   3  -5  -4   13.23    1.60
  -3  -5   4   13.24    1.34
  -3  -5   4   11.98    1.39
   4  -5   4    0.49    0.72
   4   5  -4    0.14    0.94
  -4  -5  -4    1.20    0.94
  -4  -5  -4    1.08    0.75
   4  -5   4    0.51    0.67
  -4  -5  -4    0.30    0.79
   4   5   4    1.29    0.99
   4  -5  -4    0.66    0.75
  -4  -5   4    0.67    0.76
  -4  -5   4    3.74    1.08
  -4  -5   4    0.77    0.57
   5  -5   4    1.34    0.77
  -5  -5  -4    2.86    1.21
   5   5  -4    1.39    1.36
   5  -5   4    0.54    0.85
  -5  -5  -4    3.43    1.07
   5  -5  -4    0.61    0.88
   5   5   4    1.58    1.28
  -5  -5   4    3.47    1.37
  -5  -5   4    2.42    0.99
   6   5  -4   -2.35    1.44
  -6  -5  -4    0.25    0.97
   6  -5   4    1.52    1.12
  -6  -5  -4   -0.66    1.29
   6  -5   4    0.69    1.02
  -6  -5   4    0.26    1.47
   6   5   4   -0.82    1.37
   6  -5  -4    0.96    1.11
   0  -6  -4    2.15    0.68
   0  -6  -4    1.80    0.67
   0  -6   4    1.01    0.44
  -1  -6  -4    0.45    0.56
  -1  -6  -4   -0.08    0.44
   1  -6   4    0.37    0.48
   1  -6  -4   -0.10    0.49
  -1  -6   4    0.58    0.66
  -1  -6   4    0.58    0.42
   1  -6  -4    0.13    0.47
   2  -6   4    3.78    0.86
  -2  -6  -4    3.54    0.71
  -2  -6  -4    4.85    1.04
  -2  -6  -4    1.33    0.75
  -2  -6   4    3.49    0.72
  -2  -6   4    1.01    0.76
   2  -6  -4    3.23    0.71
   2  -6  -4    3.12    0.97
   3  -6   4   16.45    1.61
   3  -6   4   11.29    1.53
  -3  -6  -4   15.64    1.86
  -3  -6  -4   15.00    1.84
  -3  -6  -4   15.61    1.59
  -3  -6   4   13.36    1.39
  -3  -6   4   17.57    1.75
  -3  -6   4   14.40    1.77
   3  -6  -4   18.80    2.04
   4  -6   4    1.38    0.74
  -4  -6  -4    0.56    0.82
  -4  -6  -4    0.35    0.97
   4   6  -4    3.66    1.24
   4  -6   4   -0.32    0.79
  -4  -6  -4    1.14    1.11
  -4  -6   4    0.34    0.59
  -4  -6   4    1.12    0.92
  -4  -6   4    1.27    1.15
   4  -6  -4    1.77    0.94
  -5  -6  -4    3.07    1.10
   5  -6   4    0.86    0.77
  -5  -6  -4    1.14    1.18
   5  -6   4    1.96    1.09
   5   6  -4    0.94    1.35
  -5  -6  -4    1.80    1.40
  -5  -6   4    3.19    1.20
  -5  -6   4    2.72    1.46
   5  -6  -4    2.25    1.15
   6  -6   4   -0.25    1.16
   6   6  -4    1.18    2.33
  -6  -6  -4    0.22    1.08
   6  -6   4   -1.27    0.73
  -6  -6  -4    1.84    1.60
  -6  -6   4   -0.71    1.11
   6  -6  -4   -0.29    1.26
  -6  -6   4    2.46    1.75
   0  -7   4    0.11    0.57
   0  -7  -4   -0.02    0.57
   0  -7  -4    0.07    0.55
   0  -7   4    0.56    0.47
  -1  -7  -4    2.02    0.80
  -1  -7  -4    1.99    0.79
   1  -7   4    1.52    0.61
   1  -7  -4    1.47    0.67
   1  -7  -4    1.75    0.67
  -1  -7   4    1.17    0.52
  -1  -7   4    0.66    0.74
   1  -7  -4    1.20    0.55
  -2  -7  -4    0.72    0.79
  -2  -7  -4    0.04    0.63
   2  -7   4   -0.16    0.56
   2  -7  -4   -0.60    0.56
  -2  -7   4   -0.09    0.63
   2  -7  -4    0.77    0.82
  -2  -7   4    0.38    0.48
   3  -7   4    7.14    1.25
  -3  -7  -4    8.10    1.23
  -3  -7  -4    6.45    1.33
  -3  -7  -4   10.85    1.63
  -3  -7   4    5.29    0.95
  -3  -7   4    6.19    1.42
  -3  -7   4    9.11    1.45
   3  -7  -4   12.99    1.82
   4  -7   4    3.38    1.01
  -4  -7  -4    3.44    1.30
   4  -7   4    5.65    1.23
  -4  -7  -4    3.97    1.18
  -4  -7  -4    7.83    1.66
  -4  -7   4    7.81    1.84
  -4  -7   4    2.52    1.18
   4  -7  -4    5.03    1.39
  -5  -7  -4    0.79    0.97
  -5  -7  -4    0.48    1.26
   5  -7   4    0.62    0.85
  -5  -7  -4    0.56    1.47
   5  -7  -4    0.76    1.25
  -5  -7   4    1.30    1.21
  -5  -7   4   -0.74    1.44
   0  -8   4   -0.20    0.51
   0  -8  -4   -0.26    0.66
   0  -8   4   -0.12    0.72
   0  -8  -4    0.38    0.65
   1  -8   4    1.92    0.77
  -1  -8  -4    1.38    0.90
  -1  -8  -4    1.98    0.89
   1  -8   4    1.79    0.83
  -1  -8   4    1.35    0.86
   1  -8  -4    1.51    0.78
  -1  -8   4    2.61    0.77
   1  -8  -4    2.55    0.75
   1  -8  -4    1.00    0.76
   2  -8   4    3.67    1.05
  -2  -8  -4    3.22    1.13
  -2  -8  -4    3.52    1.13
   2  -8  -4    6.34    1.48
   2  -8  -4    4.93    1.03
   2  -8  -4    3.60    1.02
   2  -8  -4    3.99    0.94
  -2  -8   4    4.63    1.26
  -2  -8   4    3.62    0.86
  -3  -8  -4    3.61    1.28
  -3  -8  -4    1.60    0.98
  -3  -8  -4    2.65    1.22
   3  -8   4    1.91    0.86
   3  -8  -4    2.96    1.27
  -3  -8   4    0.78    1.15
   3  -8  -4    2.61    0.91
  -3  -8   4    1.51    1.05
  -4  -8  -4    1.87    1.41
  -4  -8  -4    2.35    1.18
   4  -8   4    2.08    0.84
  -4  -8  -4    3.78    1.56
  -4  -8   4    2.48    1.32
   4  -8  -4    2.22    1.32
  -4  -8   4    0.97    1.44
   0  -9   4    0.73    0.78
   0  -9   4    1.00    0.93
   0  -9  -4    2.22    1.02
   0  -9  -4    1.09    0.85
   1  -9   4    0.64    0.91
   1  -9   4    1.41    0.82
  -1  -9  -4    0.55    0.84
  -1  -9  -4    1.51    0.97
   1  -9  -4    0.49    0.81
   1  -9  -4    1.63    0.91
  -1  -9   4   -0.60    0.80
   2  -9   4    3.18    1.20
  -2  -9  -4    3.74    1.24
   2  -9   4    4.33    1.09
  -2  -9  -4    4.33    1.39
   2  -9  -4    3.54    1.15
  -2  -9   4    3.97    1.39
   2  -9  -4    4.47    1.18
   2  -9  -4    5.39    1.58
  -3  -9  -4    1.60    1.29
   3  -9   4    0.56    0.81
  -3  -9  -4    2.60    1.32
  -3  -9   4    0.37    1.15
   3  -9  -4   -0.58    1.18
   3  -9  -4    0.46    0.89
   0 -10  -4   -0.70    0.93
   0   0   5    0.51    0.27
   0   0  -5   -0.09    0.22
   0   0   5    0.09    0.21
   0   0  -5    0.24    0.19
   0   0   5   -0.18    0.26
   0   0   5    0.05    0.22
   0   0  -5   -0.19    0.18
   0   0  -5    0.16    0.21
  -1   0  -5   24.21    1.20
  -1   0  -5   26.30    1.28
  -1   0   5   25.65    1.30
   1   0   5   23.55    1.23
   1   0   5   21.85    1.27
   1   0  -5   24.67    1.27
   1   0   5   24.63    1.22
   1   0  -5   23.27    1.24
  -1   0  -5   22.35    1.24
   1   0  -5   25.12    1.28
  -1   0  -5   27.05    1.26
  -1   0   5   23.42    1.24
  -1   0   5   22.80    1.27
   1   0   5   24.56    1.23
  -1   0  -5   25.37    1.32
   1   0  -5   25.09    1.29
   1   0   5   24.80    1.30
   2   0  -5    4.63    0.66
   2   0   5    4.39    0.70
  -2   0  -5    5.75    0.77
   2   0  -5    5.66    0.73
  -2   0  -5    4.83    0.65
   2   0   5    3.72    0.57
  -2   0   5    4.54    0.70
  -3   0   5   -0.57    0.49
   3   0  -5   -0.05    0.46
   3   0   5    0.30    0.41
  -3   0  -5    0.98    0.43
   3   0  -5    0.21    0.43
  -3   0  -5    0.51    0.52
   3   0   5    0.86    0.52
  -4   0  -5    0.27    0.54
  -4   0   5    1.35    0.64
   4   0   5    0.23    0.62
   4   0  -5    1.74    0.72
   4   0   5    0.29    0.53
  -4   0  -5    0.39    0.64
   4   0  -5    1.51    0.58
  -5   0  -5    1.96    0.80
   5   0   5    1.03    0.87
  -5   0  -5    1.69    0.96
   5   0  -5    1.30    0.81
  -5   0   5    1.11    0.76
   5   0  -5    0.36    0.83
   6   0   5    4.90    1.29
  -6   0  -5    3.35    1.30
  -6   0  -5    5.53    1.20
   6   0  -5    4.79    1.27
   6   0  -5    4.50    1.42
   7   0  -5    0.38    1.14
   7   0   5   -0.97    1.16
  -7   0  -5    0.83    1.16
   7   0   5   -0.85    1.08
   7   0  -5    0.91    1.29
  -7   0  -5   -0.48    1.50
   0   1  -5    5.31    0.59
   0  -1   5    6.37    0.68
   0   1  -5    7.40    0.72
   0  -1   5    7.35    0.71
   0  -1  -5    6.69    0.64
   0   1   5    6.79    0.62
   0  -1   5    6.30    0.63
   0   1   5    8.16    0.74
   0  -1  -5    7.37    0.71
   0  -1  -5    5.91    0.57
   0   1   5    7.23    0.64
   0  -1  -5    7.86    0.56
   0   1   5    7.24    0.65
   0   1  -5    6.51    0.66
   1  -1   5   49.64    2.11
   1  -1   5   48.24    2.32
  -1  -1  -5   50.35    2.19
  -1  -1  -5   48.52    2.14
  -1  -1  -5   46.20    2.23
  -1  -1  -5   46.46    2.09
  -1   1   5   48.02    2.16
  -1  -1  -5   48.76    1.98
   1   1  -5   49.05    2.18
   1  -1   5   44.65    2.07
   1   1  -5   48.73    2.15
  -1   1   5   47.11    2.14
   1   1  -5   50.05    2.37
   1  -1   5   45.81    2.14
   1   1   5   46.03    2.10
   1   1   5   49.40    2.00
  -1   1  -5   50.86    2.16
  -1   1  -5   47.69    2.10
   1  -1  -5   47.12    2.14
  -1  -1   5   48.50    2.21
   1   1   5   48.34    2.17
   1  -1  -5   44.20    2.06
   1  -1  -5   46.94    2.13
  -1   1  -5   46.07    2.14
  -1  -1   5   49.52    2.39
  -1  -1   5   46.28    2.18
   1   1   5   47.44    2.13
  -2  -1  -5    6.60    0.84
   2  -1   5    6.05    0.76
   2   1  -5    7.27    0.85
   2  -1   5    6.33    0.78
   2   1  -5    9.22    0.88
   2   1  -5    9.34    0.89
  -2  -1  -5    7.75    0.82
  -2   1  -5    5.54    0.71
   2   1   5    6.64    0.66
  -2  -1   5    7.87    0.86
  -2  -1   5    7.30    0.76
  -2   1  -5    7.82    0.77
  -2   1  -5    6.73    0.84
   2   1   5    5.52    0.82
   2  -1  -5    7.80    0.90
   2  -1  -5    8.30    0.82
   3  -1   5   26.43    1.62
   3   1  -5   25.94    1.61
  -3  -1  -5   26.73    1.53
   3   1  -5   27.03    1.63
  -3  -1  -5   23.62    1.60
   3  -1   5   26.82    1.57
  -3   1  -5   24.31    1.66
  -3  -1   5   25.28    1.57
   3  -1  -5   24.00    1.63
   3  -1  -5   25.40    1.53
  -3   1  -5   26.01    1.47
   3   1   5   26.05    1.73
  -3  -1   5   25.51    1.58
   3   1   5   26.19    1.42
  -4  -1  -5    0.74    0.53
  -4  -1  -5   -0.25    0.54
   4   1  -5    0.17    0.49
   4  -1   5   -0.11    0.57
   4   1  -5    0.60    0.62
   4  -1   5    0.78    0.55
   4  -1  -5   -0.59    0.45
   4  -1  -5    1.32    0.70
  -4   1  -5    0.01    0.66
   4   1   5    0.51    0.59
  -4  -1   5   -0.57    0.49
   4   1   5    0.31    0.58
   5  -1   5   -0.87    0.73
  -5  -1  -5    0.38    0.62
  -5  -1  -5   -0.76    0.73
   5   1  -5    0.06    0.69
   5  -1   5   -0.33    0.63
   5   1  -5   -0.27    0.71
  -5   1  -5   -0.52    0.85
  -5  -1   5   -1.27    0.64
   5  -1  -5    0.23    0.65
   5   1   5    0.04    0.66
   5  -1  -5   -0.20    0.65
  -6  -1  -5    2.63    1.02
   6  -1   5    4.11    1.14
   6   1  -5   -0.85    0.81
   6  -1   5    0.20    0.92
  -6  -1  -5   -1.65    1.01
   6   1  -5    1.43    1.10
  -6   1  -5    0.02    1.25
   6  -1  -5   -0.63    0.86
   6  -1  -5    1.56    1.10
   6   1   5    0.87    1.00
  -6  -1   5   -0.45    0.92
  -7  -1  -5    0.60    1.43
   7   1  -5   -0.97    1.06
   7   1  -5    3.93    1.69
   7  -1   5   -0.91    1.18
  -7  -1  -5    0.69    1.06
   7  -1   5   -0.22    1.21
   7  -1  -5   -1.08    1.12
   7   1   5    1.31    1.35
  -7  -1   5    0.68    1.20
   7  -1  -5    1.64    1.23
   0  -2  -5    2.53    0.36
   0  -2  -5    3.53    0.45
   0   2   5    2.13    0.44
   0   2   5    2.35    0.44
   0  -2   5    2.54    0.47
   0  -2  -5    2.65    0.50
   0  -2   5    3.63    0.56
   1   2  -5    9.34    0.88
   1  -2   5    6.88    0.79
  -1  -2  -5    7.21    0.80
  -1  -2  -5    8.54    0.87
   1  -2   5    9.31    0.91
   1  -2   5    7.51    0.79
  -1  -2  -5    8.95    0.80
   1   2   5    8.55    0.80
   1  -2  -5    8.15    0.81
   1  -2  -5    7.03    0.73
  -1  -2   5    8.31    0.84
  -1   2  -5    6.21    0.77
   2   2  -5   40.80    2.10
  -2  -2  -5   41.80    2.07
  -2  -2  -5   43.49    2.07
   2  -2   5   41.84    2.03
   2  -2   5   44.70    2.18
  -2  -2  -5   42.93    2.17
  -2  -2   5   44.44    1.98
   2  -2  -5   44.89    2.26
  -2   2  -5   39.42    1.99
  -2  -2   5   45.45    2.17
  -2  -2   5   43.72    2.07
   2   2   5   41.13    2.27
  -3  -2  -5    5.22    0.82
   3   2  -5    5.15    0.87
   3  -2   5    3.29    0.72
   3   2  -5    4.40    0.77
  -3  -2  -5    4.20    0.80
   3  -2   5    2.39    0.60
  -3  -2   5    5.32    0.86
   3   2   5    2.23    0.66
  -3  -2   5    1.90    0.54
   3  -2  -5    2.98    0.72
  -4  -2  -5    2.68    0.88
   4  -2   5    5.06    0.99
   4   2  -5    3.76    0.85
   4  -2   5    4.00    0.92
  -4  -2  -5    3.90    0.87
   4   2  -5    3.47    1.01
   4   2   5    3.35    0.96
  -4  -2   5    4.26    0.92
   4  -2  -5    3.01    0.77
   5  -2   5    1.12    0.83
   5   2  -5    0.39    0.70
  -5  -2  -5    1.52    0.98
  -5  -2  -5    1.60    0.81
   5  -2   5    0.43    0.80
   5   2  -5    1.39    0.98
   5  -2  -5    1.00    0.73
   5  -2  -5    1.53    0.81
   5   2   5    0.58    0.80
  -5  -2   5    0.54    0.78
   6   2  -5   -0.19    0.84
  -6  -2  -5    0.08    0.85
   6  -2   5   -0.79    0.97
   6   2  -5   -0.60    1.20
  -6  -2  -5   -0.71    1.10
   6  -2   5    0.94    0.98
  -6  -2   5   -0.98    0.89
   6  -2  -5    0.82    0.97
   6  -2  -5    0.03    0.94
   6   2   5   -0.29    0.96
   7   2  -5   -0.16    1.39
   7  -2   5    0.43    1.23
   7  -2   5   -1.67    1.16
  -7  -2  -5   -0.53    1.45
   7   2  -5    0.18    1.14
  -7  -2  -5    3.06    1.17
   7   2   5   -0.49    1.25
   7  -2  -5    0.38    1.32
   7  -2  -5    1.08    1.17
  -7  -2   5   -2.03    1.01
   0  -3   5   11.84    0.89
   0  -3  -5   11.45    0.84
   0  -3  -5   12.54    0.94
   1  -3   5   14.86    1.09
  -1  -3  -5   16.19    0.99
  -1  -3  -5   15.86    1.13
  -1  -3  -5   14.93    1.06
   1  -3  -5   15.18    1.05
  -1  -3   5   14.75    1.06
   1  -3  -5   17.27    1.18
   2   3  -5   14.06    1.22
  -2  -3  -5   10.78    1.06
   2  -3   5    8.60    1.03
  -2  -3  -5    8.93    1.08
  -2  -3  -5   10.82    1.11
   2  -3  -5    8.29    1.11
  -2  -3   5    9.73    1.02
  -2  -3   5   11.92    1.16
  -3  -3  -5    2.74    0.65
   3  -3   5    2.92    0.65
   3   3  -5    2.65    0.79
   3   3  -5    2.51    0.70
  -3  -3  -5    2.48    0.69
   3  -3   5    2.22    0.63
  -3  -3   5    1.28    0.52
   3   3   5    2.06    0.74
   3  -3  -5    1.69    0.63
  -3  -3   5    1.20    0.49
  -3  -3   5    1.15    0.63
   4   3  -5   16.87    1.85
   4  -3   5   12.87    1.50
  -4  -3  -5   10.72    1.45
   4  -3   5   11.64    1.43
  -4  -3  -5   14.03    1.54
   4   3  -5   13.84    1.50
   4   3   5   12.16    1.68
  -4  -3   5   10.57    1.33
   4  -3  -5    9.38    1.40
  -4  -3   5   13.59    1.51
  -4  -3   5    9.58    1.23
   5  -3   5    4.69    1.16
   5   3  -5    2.94    1.16
  -5  -3  -5    2.09    1.10
   5   3  -5    3.25    0.97
   5  -3   5    1.64    0.91
  -5  -3  -5    2.66    0.98
   5   3   5    2.64    1.04
  -5  -3   5    5.24    1.17
  -5  -3   5    3.85    1.04
   5  -3  -5    3.93    1.11
   6   3  -5    2.68    1.17
  -6  -3  -5    0.64    1.10
   6  -3   5    0.28    1.06
   6   3  -5    0.40    1.30
  -6  -3  -5    0.36    0.91
   6  -3   5    0.08    0.96
  -6  -3   5    1.02    1.09
   6  -3  -5    0.84    1.05
   6   3   5    0.33    1.23
   7  -3   5    1.40    1.36
  -7  -3  -5    0.59    1.07
   7  -3   5    2.65    1.44
  -7  -3  -5    0.78    1.48
   7   3  -5    2.97    1.76
   7  -3  -5    1.97    1.41
   7  -3  -5    2.16    1.37
   7   3   5    1.63    1.55
  -7  -3   5    1.87    1.46
   0  -4  -5    7.26    0.90
   0  -4  -5    7.14    0.83
   0  -4   5    7.21    0.84
  -1  -4  -5   67.11    3.08
   1  -4   5   70.45    3.16
  -1  -4  -5   64.68    3.08
  -1  -4   5   64.97    3.01
   1  -4  -5   61.99    2.98
   1  -4  -5   64.60    2.86
   2  -4   5    5.21    0.84
  -2  -4  -5    9.19    1.18
  -2  -4  -5    8.16    1.08
  -2  -4  -5    7.57    0.93
  -2  -4   5    6.93    0.90
  -2  -4   5    5.61    0.99
   2  -4  -5    5.58    0.96
   3   4  -5    1.41    0.68
  -3  -4  -5    0.73    0.77
   3   4  -5    0.96    0.74
  -3  -4  -5    1.51    0.60
   3  -4   5    0.74    0.50
  -3  -4  -5    1.03    0.56
   3  -4   5    1.67    0.59
  -3  -4   5    0.72    0.47
   3  -4  -5    0.53    0.59
  -3  -4   5    0.83    0.57
  -3  -4   5    1.17    0.70
   4   4  -5    4.16    1.10
   4  -4   5    5.64    1.08
   4  -4   5    6.63    1.20
  -4  -4  -5    5.79    1.14
   4   4  -5    4.64    1.05
  -4  -4  -5    5.71    1.21
   4   4   5    5.60    1.34
  -4  -4   5    2.37    0.71
  -4  -4   5    6.42    1.27
   4  -4  -5    4.67    0.99
  -4  -4   5    4.43    0.96
  -5  -4  -5    5.79    1.27
   5   4  -5    0.86    1.03
  -5  -4  -5    3.07    1.20
   5  -4   5    1.69    0.98
   5  -4   5    0.78    0.80
   5   4  -5    1.87    0.99
   5   4   5    2.48    1.25
  -5  -4   5    1.04    0.94
   5  -4  -5    2.47    0.96
  -5  -4   5    4.01    1.26
  -6  -4  -5    1.69    1.34
   6  -4   5    0.32    1.03
   6  -4   5    0.27    0.98
   6   4  -5    1.72    1.43
  -6  -4  -5    0.45    0.87
   6  -4  -5   -0.49    1.01
   6   4   5   -0.58    1.21
  -6  -4   5    0.00    0.88
   0  -5   5    0.38    0.39
   0  -5  -5    0.19    0.43
   0  -5  -5    0.08    0.38
   1  -5   5    3.81    0.75
  -1  -5  -5    3.26    0.77
  -1  -5  -5    4.00    0.76
   1  -5  -5    1.41    0.51
  -1  -5   5    2.49    0.61
   1  -5  -5    2.77    0.63
  -2  -5  -5    8.09    1.17
  -2  -5  -5    5.02    1.05
   2  -5   5    5.69    0.96
  -2  -5  -5    5.63    0.85
  -2  -5   5    5.09    0.81
  -2  -5   5    3.25    0.92
   3  -5   5    1.89    0.73
  -3  -5  -5    5.32    1.04
   3  -5   5    4.08    0.87
  -3  -5  -5    1.99    0.96
  -3  -5  -5    3.45    0.86
   3  -5  -5    2.19    0.77
  -3  -5   5    3.82    0.79
  -3  -5   5    2.63    0.83
  -3  -5   5    1.64    0.81
   4   5  -5    0.67    0.96
   4  -5   5    1.53    0.73
  -4  -5  -5    0.06    0.75
   4  -5   5   -0.34    0.66
  -4  -5  -5    1.21    0.76
  -4  -5   5    0.88    1.05
  -4  -5   5    0.33    0.57
   4  -5  -5    0.84    0.85
  -4  -5   5    1.81    0.82
   5  -5   5    2.10    1.01
   5   5  -5   -1.10    1.24
  -5  -5  -5    0.43    0.77
   5  -5   5   -0.88    0.62
  -5  -5  -5    0.58    1.19
   5   5   5    1.66    1.22
  -5  -5   5    1.79    1.27
  -5  -5   5    1.92    1.04
   5  -5  -5    0.32    0.87
   6   5  -5    1.22    1.60
  -6  -5  -5    1.70    1.05
  -6  -5  -5    0.39    1.35
   6  -5   5    0.16    0.91
   6  -5   5    0.77    1.12
   6   5   5    0.82    1.52
  -6  -5   5    0.04    1.08
   6  -5  -5    0.91    1.21
  -6  -5   5    2.29    1.68
   0  -6   5   14.07    1.41
   0  -6  -5   17.86    1.72
   0  -6  -5   14.59    1.46
  -1  -6  -5    6.58    1.03
   1  -6   5    6.96    1.05
  -1  -6  -5    5.58    1.01
  -1  -6   5    4.76    0.80
  -1  -6   5    5.25    1.09
   1  -6  -5    7.07    0.98
   1  -6  -5    7.20    1.06
  -2  -6  -5    2.07    0.77
  -2  -6  -5    2.73    0.67
   2  -6   5    2.67    0.81
  -2  -6  -5    1.45    0.85
  -2  -6   5    1.75    0.60
  -2  -6   5    0.28    0.72
  -3  -6  -5    2.08    0.71
  -3  -6  -5    2.95    0.92
   3  -6   5    1.28    0.75
  -3  -6  -5   -0.28    0.97
  -3  -6   5    0.99    0.55
  -3  -6   5    0.33    0.80
  -3  -6   5    0.25    0.81
   3  -6  -5    0.19    0.79
   4  -6   5   -0.03    0.59
  -4  -6  -5   -1.48    1.03
  -4  -6  -5   -1.01    0.77
   4   6  -5    2.57    1.24
   4  -6   5   -0.54    0.68
  -4  -6  -5    1.00    0.79
   4  -6  -5    0.71    0.88
  -4  -6   5    0.99    0.63
  -4  -6   5    0.55    1.13
  -4  -6   5    0.38    0.83
   5  -6   5    0.90    0.75
  -5  -6  -5   -0.33    1.34
  -5  -6  -5    0.22    0.95
  -5  -6  -5    2.46    1.40
   5  -6   5    0.89    1.01
   5  -6  -5    0.41    1.09
  -5  -6   5    0.77    1.41
  -5  -6   5   -0.80    0.85
   6  -6   5    1.19    1.06
  -6  -6  -5    0.58    1.04
  -6  -6   5    0.72    1.18
   0  -7  -5    3.51    0.87
   0  -7   5    5.22    0.92
   0  -7  -5    2.98    0.83
  -1  -7  -5    0.54    0.66
   1  -7   5    0.66    0.57
  -1  -7  -5    0.39    0.60
   1  -7  -5   -0.42    0.41
   1  -7  -5    1.15    0.61
  -1  -7   5    1.23    0.57
  -1  -7   5    0.16    0.78
   1  -7  -5    0.27    0.58
   2  -7   5    1.96    0.80
  -2  -7  -5    2.00    0.93
  -2  -7  -5    0.68    0.72
  -2  -7  -5    1.97    0.67
  -2  -7   5    1.25    0.93
   2  -7  -5    1.15    0.89
  -2  -7   5    0.88    0.59
   2  -7  -5    0.91    0.60
   3  -7   5    1.98    0.84
  -3  -7  -5    2.77    1.13
  -3  -7  -5    2.28    0.85
  -3  -7  -5    1.52    1.16
  -3  -7   5    1.81    0.96
   3  -7  -5    3.51    1.14
  -3  -7   5    2.73    0.79
  -3  -7   5    2.68    1.03
  -4  -7  -5    2.87    1.24
   4  -7   5    2.04    0.93
  -4  -7  -5    0.41    1.23
  -4  -7  -5    2.51    1.00
  -4  -7   5    1.54    1.14
  -4  -7   5    2.10    1.44
   4  -7  -5    2.77    1.22
  -5  -7  -5   -3.07    1.27
  -5  -7  -5    1.11    1.14
  -5  -7  -5   -0.85    1.08
   5  -7   5    0.90    0.81
  -5  -7   5    0.92    1.13
  -5  -7   5    0.83    1.57
   5  -7  -5   -0.15    1.20
   0  -8   5    0.98    0.91
   0  -8  -5    2.60    0.88
   0  -8   5    2.73    0.81
   0  -8  -5    2.36    0.90
  -1  -8  -5    0.32    0.75
   1  -8   5    2.04    0.79
  -1  -8  -5    1.14    0.95
   1  -8  -5    1.45    0.87
  -1  -8   5    0.51    0.53
  -1  -8   5    1.30    0.90
   1  -8  -5    2.34    0.83
  -2  -8  -5    2.19    1.00
  -2  -8  -5    7.42    1.22
   2  -8   5    5.02    1.12
  -2  -8  -5    1.84    1.12
  -2  -8   5    3.89    1.24
  -2  -8   5    4.53    0.92
   2  -8  -5    4.15    0.94
   2  -8  -5    8.48    1.69
  -3  -8  -5    4.25    1.11
  -3  -8  -5    2.33    1.30
   3  -8   5    2.67    0.97
  -3  -8  -5    5.13    1.48
  -3  -8   5    2.13    1.12
  -3  -8   5    2.44    1.14
   3  -8  -5    1.09    1.10
  -4  -8  -5    1.15    1.21
   4  -8   5    1.53    0.85
  -4  -8  -5    1.55    1.43
  -4  -8  -5    3.30    1.22
  -4  -8   5    5.23    1.87
   4  -8  -5    1.57    1.32
  -4  -8   5    1.43    1.28
   0  -9  -5    1.36    0.93
   0  -9   5    0.51    0.73
   0  -9   5    0.23    0.97
   0  -9  -5   -0.44    0.71
  -1  -9  -5   -0.50    0.77
  -1  -9  -5   -0.99    0.87
   1  -9   5    0.24    0.68
   1  -9   5    0.44    0.90
   1  -9  -5    1.05    0.85
   1  -9  -5    0.43    0.87
  -1  -9   5   -0.17    0.93
  -1  -9   5   -0.21    1.02
  -2  -9  -5   -0.04    1.15
  -2  -9  -5    3.09    1.11
   2  -9   5    0.72    0.81
   2  -9  -5    1.08    1.17
  -2  -9   5   -0.45    0.91
  -3  -9  -5   -0.08    1.11
   3  -9   5   -0.16    0.85
  -3  -9  -5    0.56    1.34
  -3  -9   5    0.91    1.31
   3  -9  -5    1.02    1.32
   0   0  -6   16.30    1.06
   0   0  -6   17.89    1.01
   0   0  -6   17.13    0.99
   0   0   6   16.96    1.00
   0   0   6   16.55    1.02
   0   0  -6   17.27    1.02
   0   0   6   17.74    1.03
  -1   0  -6   14.32    0.93
  -1   0  -6   13.12    0.96
   1   0   6   13.26    0.93
  -1   0   6   14.08    0.98
   1   0  -6   13.69    0.94
   1   0   6   16.80    1.12
  -1   0  -6   15.22    0.89
   1   0  -6   14.88    0.96
  -1   0  -6   13.16    0.98
  -1   0  -6   15.78    0.99
   2   0   6    2.49    0.50
  -2   0  -6    3.06    0.62
   2   0   6    2.81    0.62
   2   0  -6    2.52    0.54
  -2   0   6    2.35    0.52
   2   0  -6    1.74    0.50
  -2   0  -6    2.37    0.54
   3   0  -6    0.04    0.46
  -3   0  -6   -0.05    0.41
   3   0   6   -0.26    0.35
   3   0  -6   -0.34    0.40
  -3   0  -6    1.32    0.53
   3   0   6   -0.12    0.41
  -3   0   6   -0.23    0.42
  -4   0  -6    5.38    0.94
   4   0   6    5.19    0.95
  -4   0   6    4.52    0.92
   4   0  -6    5.37    0.96
   4   0  -6    3.66    0.94
  -4   0  -6    5.11    1.06
   4   0   6    3.95    0.94
   5   0   6    1.39    0.89
   5   0  -6    1.18    0.90
  -5   0  -6    2.83    0.99
  -5   0   6   -0.47    0.70
   5   0   6    0.21    0.83
   5   0  -6    0.83    0.75
  -5   0  -6   -0.26    0.67
  -6   0  -6   -0.91    0.78
   6   0   6    0.61    1.00
  -6   0  -6   -0.20    1.19
   6   0  -6   -0.27    0.97
   6   0  -6   -0.45    0.82
   6   0   6   -0.52    0.98
  -7   0  -6   -1.22    1.47
   7   0  -6    0.28    1.10
   7   0   6   -0.46    1.12
   7   0  -6    0.69    1.38
   7   0   6   -1.03    1.22
   0   1   6   44.55    1.93
   0  -1  -6   40.53    1.88
   0  -1  -6   41.47    1.92
   0   1  -6   42.36    1.95
   0   1   6   41.14    1.91
   0  -1   6   41.23    1.98
   0   1   6   41.71    1.91
   0  -1   6   42.36    2.01
   0  -1  -6   42.39    2.01
   0   1  -6   43.45    2.02
   0  -1  -6   42.52    1.89
  -1  -1  -6    1.72    0.42
  -1  -1  -6    2.40    0.50
  -1  -1  -6    2.53    0.53
   1   1  -6    2.29    0.49
  -1   1   6    2.14    0.51
  -1  -1  -6    1.82    0.33
   1  -1   6    1.43    0.41
  -1   1   6    2.69    0.53
   1   1  -6    2.15    0.50
  -1   1  -6    3.19    0.54
   1  -1  -6    1.73    0.41
   1  -1  -6    3.25    0.53
  -1   1  -6    1.57    0.51
  -1  -1   6    2.10    0.46
   1   1   6    1.65    0.41
  -2  -1  -6   24.75    1.40
   2   1  -6   25.72    1.43
  -2  -1  -6   23.15    1.38
  -2   1   6   25.39    1.49
   2  -1   6   22.57    1.39
   2   1  -6   26.24    1.41
  -2  -1  -6   22.79    1.45
   2   1  -6   26.23    1.47
   2  -1   6   21.30    1.36
   2  -1  -6   26.32    1.55
   2  -1  -6   22.95    1.38
  -2   1  -6   24.09    1.50
  -2  -1   6   23.81    1.33
   2   1   6   24.29    1.26
   2   1   6   24.55    1.55
  -2  -1   6   27.22    1.54
  -2   1  -6   23.05    1.36
   3   1  -6    3.17    0.77
  -3  -1  -6    2.24    0.64
   3  -1   6    3.39    0.78
   3   1  -6    2.56    0.70
   3  -1   6    3.12    0.69
  -3  -1  -6    4.58    0.74
  -3   1  -6    1.76    0.63
   3   1   6    2.41    0.59
   3  -1  -6    3.31    0.70
  -3  -1   6    3.51    0.72
   3  -1  -6    2.90    0.72
   3   1   6    2.64    0.75
  -3  -1   6    2.50    0.63
  -3   1  -6    2.10    0.60
  -4  -1  -6    6.91    1.08
   4   1  -6    3.60    1.00
   4   1  -6    4.86    0.94
  -4  -1  -6    5.70    1.11
   4  -1   6    6.38    1.09
   4  -1   6    4.23    0.92
  -4  -1   6    5.03    0.96
   4  -1  -6    5.46    1.07
   4  -1  -6    8.55    1.15
   4   1   6    5.98    0.93
  -4   1  -6    3.87    1.07
  -4   1  -6    6.63    0.97
   4   1   6    3.77    0.95
   5   1  -6    4.60    1.22
   5   1  -6    2.69    0.99
  -5  -1  -6    6.32    1.18
   5  -1   6    4.39    1.13
  -5  -1  -6    1.29    1.03
   5  -1   6    3.47    1.04
  -5   1  -6    4.90    1.33
   5  -1  -6    4.10    1.22
   5  -1  -6    5.38    1.11
  -5   1  -6    2.32    0.95
  -5  -1   6    6.99    1.24
   5   1   6    4.40    1.15
   5   1   6    5.25    1.04
   6  -1   6    1.08    1.07
   6   1  -6    1.87    1.29
   6  -1   6    2.09    1.10
   6   1  -6    1.26    1.01
  -6  -1  -6    2.09    1.33
  -6  -1  -6    1.94    1.03
   6  -1  -6    0.39    1.02
  -6   1  -6    1.01    0.91
   6   1   6    1.72    1.06
   6   1   6    1.93    1.19
  -6  -1   6    3.00    1.20
  -6   1  -6   -0.06    1.24
   6  -1  -6    2.69    1.22
   7  -1   6   -0.93    1.18
   7  -1   6   -0.22    1.12
  -7  -1  -6   -1.16    1.29
   7   1  -6    0.18    1.33
   7   1  -6    1.19    1.26
  -7  -1  -6   -0.31    1.03
   7   1   6   -0.46    1.26
   7  -1  -6    0.44    1.30
  -7  -1   6    0.87    1.24
   7  -1  -6   -0.17    1.11
   0   2  -6  149.78    5.79
   0  -2  -6  150.53    5.69
   0   2   6  142.96    5.76
   0  -2  -6  145.67    5.76
   0   2   6  152.31    5.72
   0  -2  -6  145.13    5.74
   0  -2  -6  148.54    5.90
   0  -2   6  151.07    5.94
   0   2  -6  147.38    5.92
  -1  -2  -6   11.53    0.88
  -1  -2  -6   13.75    1.01
   1  -2   6   13.43    0.97
   1   2  -6   12.62    0.96
  -1  -2  -6   15.12    1.00
  -1   2  -6   12.59    1.01
   1  -2  -6   12.12    0.94
  -1  -2   6   12.65    0.95
   2  -2   6    0.72    0.39
  -2  -2  -6    1.06    0.49
  -2  -2  -6    0.80    0.52
   2   2  -6    0.22    0.43
  -2  -2  -6    0.98    0.42
   2  -2  -6    0.11    0.38
  -2  -2   6    0.21    0.31
   3   2  -6    0.55    0.62
   3   2  -6    0.56    0.49
   3  -2   6    0.36    0.50
   3  -2   6    0.73    0.44
  -3  -2  -6    0.98    0.44
  -3  -2  -6   -0.11    0.37
  -3  -2   6    0.52    0.40
   3  -2  -6    2.69    0.68
   3   2   6    0.18    0.48
   4  -2   6    0.62    0.76
   4   2  -6    1.15    0.77
  -4  -2  -6    0.07    0.58
   4   2  -6    1.37    0.73
   4  -2   6    0.26    0.59
  -4  -2  -6    0.51    0.74
   4  -2  -6    0.10    0.67
   4   2   6    1.48    0.73
   4  -2  -6    1.12    0.64
   5   2  -6   -0.62    0.66
   5   2  -6    1.00    0.94
   5  -2   6   -0.09    0.74
   5  -2   6    1.00    0.93
  -5  -2  -6   -0.80    0.80
  -5  -2  -6   -0.06    0.63
  -5  -2   6   -0.47    0.65
   5  -2  -6    0.17    0.75
   5  -2  -6   -0.06    0.68
   5   2   6    0.47    0.72
   5   2   6   -0.38    0.77
  -6  -2  -6    3.52    1.12
   6  -2   6    4.46    1.29
   6   2  -6    3.04    1.41
   6  -2   6    4.55    1.34
  -6  -2  -6    1.84    1.24
  -6  -2   6    4.02    1.26
   6   2   6    3.46    1.34
   6  -2  -6    5.28    1.37
   6  -2  -6    2.15    1.11
   7   2  -6   -0.44    1.12
   7   2  -6   -1.00    1.38
   7  -2   6    1.03    1.36
  -7  -2  -6   -0.59    1.48
  -7  -2  -6   -0.17    1.10
   7  -2   6   -1.67    1.20
   7  -2  -6   -0.41    1.14
  -7  -2   6    0.34    1.32
   7  -2  -6   -0.04    1.35
   7   2   6    0.44    1.34
   0  -3  -6    1.10    0.37
   0  -3   6    0.11    0.28
   0  -3  -6    0.54    0.37
  -1  -3  -6   11.53    0.92
   1   3  -6   14.67    1.06
  -1  -3  -6   14.85    1.32
  -1  -3  -6   14.51    1.04
   1  -3   6   12.69    1.02
   1  -3  -6   13.75    1.04
  -1  -3   6   14.05    1.06
   2  -3   6    5.06    0.78
  -2  -3  -6    6.44    0.86
   2   3  -6    7.18    0.91
  -2  -3  -6    4.18    0.80
  -2  -3  -6    4.67    0.79
   2  -3  -6    5.14    0.86
  -2  -3   6    3.23    0.66
  -2  -3   6    4.28    0.74
   3  -3   6   16.14    1.59
  -3  -3  -6   18.74    1.77
  -3  -3  -6   21.38    1.77
  -3  -3  -6   20.41    1.41
   3  -3   6   17.00    1.31
   3   3  -6   18.64    1.51
   3   3  -6   17.81    1.42
  -3  -3   6   19.42    1.44
   3  -3  -6   17.28    1.50
  -3  -3   6   17.85    1.41
   4  -3   6    3.48    0.86
  -4  -3  -6    2.15    0.84
  -4  -3  -6    0.52    0.62
   4   3  -6    0.16    0.66
   4  -3   6    1.52    0.71
   4   3  -6   -0.30    0.78
   4   3   6    0.89    0.78
   4  -3  -6    0.90    0.74
  -4  -3   6    0.64    0.81
  -4  -3   6    1.64    0.74
  -4  -3   6    1.21    0.59
   5  -3   6   -0.74    0.66
   5   3  -6   -0.16    0.72
   5   3  -6    2.21    1.18
   5  -3   6    0.57    0.86
  -5  -3  -6    0.24    0.84
  -5  -3  -6    2.65    1.01
   5   3   6    0.49    0.91
   5  -3  -6    1.20    0.95
  -5  -3   6    1.59    0.90
   6   3  -6    1.18    1.03
   6   3  -6    1.20    1.40
   6  -3   6    0.02    1.00
  -6  -3  -6    0.20    0.89
   6  -3   6   -0.17    1.02
  -6  -3  -6    0.67    1.27
   6   3   6    1.18    1.22
   6  -3  -6    0.04    0.94
  -6  -3   6    1.15    1.12
   6  -3  -6    0.77    1.01
   7  -3   6    0.86    1.32
   7  -3   6    0.67    1.29
   7   3  -6   -1.38    1.55
  -7  -3  -6    0.50    1.57
  -7  -3  -6    0.53    1.14
   7   3   6    0.43    1.56
  -7  -3   6   -0.31    1.19
   7  -3  -6    0.19    1.19
   0  -4  -6    1.53    0.48
   0  -4  -6    1.77    0.55
   0  -4   6    1.43    0.47
  -1  -4  -6   38.53    2.13
   1  -4   6   40.67    2.17
  -1  -4  -6   38.73    2.18
  -1  -4  -6   39.69    1.94
   1  -4  -6   39.79    1.96
  -1  -4   6   39.44    2.11
   1  -4  -6   39.70    2.12
  -2  -4  -6    0.18    0.55
   2  -4   6    0.31    0.36
  -2  -4  -6    0.22    0.44
  -2  -4  -6    0.05    0.39
  -2  -4   6    0.19    0.33
  -2  -4   6   -0.10    0.57
   3   4  -6    1.77    0.72
   3  -4   6    1.85    0.63
  -3  -4  -6    1.56    0.73
  -3  -4  -6    1.83    0.64
   3  -4   6    1.29    0.66
  -3  -4  -6    2.15    0.82
  -3  -4   6    1.40    0.62
  -3  -4   6    0.97    0.74
   3  -4  -6    1.88    0.72
   4   4  -6    0.10    0.85
   4  -4   6    0.43    0.66
   4   4  -6   -0.24    0.70
  -4  -4  -6    0.61    0.79
   4  -4   6    2.12    0.81
  -4  -4  -6    0.78    0.72
   4  -4  -6    0.76    0.71
   4   4   6    0.73    0.90
  -4  -4   6    0.58    0.92
  -4  -4   6    0.75    0.54
  -4  -4   6    1.08    0.84
   5  -4   6    0.28    0.78
  -5  -4  -6    0.14    0.80
   5   4  -6    3.10    0.92
  -5  -4  -6    0.94    1.04
   5   4  -6    0.70    1.16
   5  -4   6   -0.07    0.76
   5   4   6   -0.32    0.97
  -5  -4   6    0.68    0.84
  -5  -4   6   -0.86    0.99
   5  -4  -6    1.21    0.89
  -6  -4  -6    1.77    1.40
   6   4  -6    0.51    1.16
  -6  -4  -6    0.40    0.88
   6  -4   6   -0.57    0.90
   6  -4   6    1.24    1.20
   6   4  -6    0.39    1.41
  -6  -4   6   -0.82    0.98
   6   4   6   -0.34    1.30
   6  -4  -6    1.70    1.13
   0  -5  -6    0.75    0.52
   0  -5   6   -0.06    0.37
   0  -5  -6    0.84    0.51
   1  -5   6    0.05    0.36
  -1  -5  -6    1.35    0.52
  -1  -5  -6    0.83    0.58
  -1  -5   6    0.51    0.39
   1  -5  -6    0.76    0.44
   1  -5  -6    0.37    0.38
  -2  -5  -6    1.88    0.62
  -2  -5  -6    1.56    0.66
   2  -5   6    2.06    0.67
  -2  -5  -6    1.95    0.85
  -2  -5   6    1.51    0.82
   2  -5  -6    1.56    0.62
  -2  -5   6    1.38    0.50
  -3  -5  -6    3.79    0.95
  -3  -5  -6    4.16    0.91
   3  -5   6    5.02    1.01
  -3  -5   6    2.94    0.75
  -3  -5   6    3.87    0.98
   3  -5  -6    4.90    1.09
  -4  -5  -6    1.01    0.88
   4   5  -6    0.61    0.96
   4  -5   6    1.62    0.78
   4  -5   6    0.58    0.65
   4   5  -6   -0.07    0.78
  -4  -5  -6    0.80    0.78
  -4  -5   6    0.75    0.87
   4  -5  -6    0.35    0.73
  -4  -5   6    1.19    0.84
  -4  -5   6    0.38    0.57
   5  -5   6    3.11    1.07
   5   5  -6    0.62    1.28
  -5  -5  -6    1.74    1.06
  -5  -5  -6    0.83    1.11
   5  -5   6    0.24    0.77
   5  -5  -6    0.62    1.01
  -5  -5   6    2.55    1.00
  -5  -5   6    4.72    1.43
   6  -5   6    1.64    1.26
  -6  -5  -6   -0.74    1.00
   6   5  -6    1.73    2.16
   6  -5   6   -0.05    0.96
  -6  -5  -6   -1.63    1.22
  -6  -5   6    1.34    1.24
   6   5   6    1.05    1.55
   6  -5  -6    2.17    1.44
   0  -6  -6   19.01    1.51
   0  -6   6   18.21    1.47
   0  -6  -6   20.76    1.57
  -1  -6  -6    8.70    1.22
  -1  -6  -6    8.22    1.27
   1  -6   6    9.31    1.22
  -1  -6   6    6.27    1.15
   1  -6  -6    8.54    1.06
   1  -6  -6    8.82    1.15
  -1  -6   6    7.33    1.04
  -2  -6  -6   15.77    1.75
  -2  -6  -6   13.63    1.66
  -2  -6  -6   15.50    1.50
   2  -6   6   15.81    1.74
  -2  -6   6   11.16    1.61
  -2  -6   6    9.31    1.25
  -3  -6  -6    2.85    1.02
  -3  -6  -6    0.90    0.99
   3  -6   6    0.87    0.59
  -3  -6  -6    2.40    0.83
   3  -6  -6    1.91    0.93
  -3  -6   6    1.92    0.90
  -3  -6   6    0.56    0.58
  -3  -6   6   -0.19    0.74
  -4  -6  -6    1.05    1.04
  -4  -6  -6    2.42    0.93
   4  -6   6    0.94    0.82
  -4  -6  -6   -0.78    1.09
   4  -6   6   -0.02    0.67
  -4  -6   6    0.40    0.90
   4  -6  -6    0.34    0.86
  -4  -6   6   -0.71    0.53
  -4  -6   6    2.47    1.20
   5  -6   6    1.73    1.32
   5  -6   6    1.63    0.94
  -5  -6  -6    2.15    1.42
  -5  -6  -6    0.53    0.97
  -5  -6  -6    1.86    1.39
  -5  -6   6    2.76    1.18
  -5  -6   6    0.20    1.32
   5  -6  -6    0.82    1.18
   0  -7  -6    0.25    0.67
   0  -7   6   -0.05    0.52
   0  -7  -6   -0.04    0.58
  -1  -7  -6    2.59    0.84
  -1  -7  -6    0.74    0.67
   1  -7  -6    0.72    0.63
  -1  -7   6   -0.44    0.47
   1  -7  -6    0.60    0.61
  -1  -7   6    1.13    0.74
  -2  -7  -6    2.24    0.93
  -2  -7  -6    1.43    0.97
   2  -7   6    2.47    0.85
  -2  -7  -6    1.69    0.77
  -2  -7   6    1.06    1.00
   2  -7  -6    0.93    0.70
  -2  -7   6    1.76    0.66
  -3  -7  -6    0.00    0.94
  -3  -7  -6    0.54    1.13
   3  -7   6    1.26    0.82
  -3  -7  -6    0.45    0.71
  -3  -7   6   -0.29    0.65
  -3  -7   6    0.66    0.90
   3  -7  -6    0.22    0.90
  -3  -7   6    0.01    0.95
  -4  -7  -6    1.00    0.87
  -4  -7  -6    0.02    0.93
  -4  -7  -6    0.08    1.31
   4  -7   6    0.63    0.76
   4  -7  -6    0.55    1.00
  -4  -7   6    1.08    1.13
  -4  -7   6    2.01    1.18
   5  -7   6   -0.53    0.74
  -5  -7  -6   -0.34    1.27
  -5  -7  -6   -1.18    0.92
   5  -7  -6   -0.20    1.25
  -5  -7   6    1.40    1.23
  -5  -7   6    3.56    1.60
   0  -8   6   14.83    1.67
   0  -8   6   13.62    1.91
   0  -8  -6   13.43    1.74
   0  -8  -6   15.06    1.77
  -1  -8  -6    3.97    1.10
  -1  -8  -6    3.18    1.12
   1  -8   6    3.45    0.91
  -1  -8   6    5.30    1.38
   1  -8  -6    2.64    0.96
  -1  -8   6    4.65    0.95
   1  -8  -6    3.34    0.94
  -2  -8  -6    2.00    0.99
  -2  -8  -6    3.81    1.36
   2  -8   6    2.53    0.92
  -2  -8  -6    1.32    0.99
   2  -8  -6    1.80    1.16
  -2  -8   6    0.67    0.65
   2  -8  -6    1.85    0.86
   2  -8  -6    1.90    0.86
  -2  -8   6    1.81    1.02
  -3  -8  -6    0.27    0.82
  -3  -8  -6    0.90    1.23
  -3  -8  -6    0.15    0.98
   3  -8   6   -0.26    0.75
  -3  -8   6    0.00    1.02
   3  -8  -6    1.34    1.23
  -3  -8   6    0.19    1.07
   4  -8   6   -0.47    0.84
  -4  -8  -6   -1.81    1.27
  -4  -8  -6    0.04    0.99
  -4  -8   6    1.67    1.60
  -4  -8   6   -0.65    1.16
   4  -8  -6   -0.53    1.18
   0  -9  -6   -0.05    0.87
   0  -9   6   -0.46    0.68
   0  -9  -6    0.76    0.90
   0  -9   6    2.36    1.03
   1  -9   6    3.74    1.26
  -1  -9  -6    1.22    0.99
   1  -9   6    0.43    0.73
  -1  -9  -6    0.79    1.14
   1  -9  -6   -0.03    0.88
   1  -9  -6    0.27    0.84
  -1  -9   6   -0.49    0.94
  -1  -9   6    0.32    0.70
   2  -9   6    0.54    0.81
  -2  -9  -6    1.30    1.12
   2  -9  -6    1.14    1.29
   2  -9  -6    0.02    0.86
  -2  -9   6    0.22    1.00
   0   0  -7    0.08    0.35
   0   0   7    0.82    0.40
   0   0  -7    0.83    0.33
   0   0   7   -0.02    0.29
   0   0  -7    0.07    0.25
  -1   0  -7   23.46    1.38
  -1   0   7   23.26    1.37
   1   0  -7   23.52    1.36
   1   0  -7   23.90    1.32
  -1   0  -7   18.10    1.27
   1   0   7   22.89    1.30
  -1   0  -7   23.97    1.38
  -1   0  -7   24.14    1.33
   2   0   7    0.78    0.45
  -2   0  -7    0.04    0.36
  -2   0   7   -0.28    0.28
   2   0  -7    0.17    0.37
   2   0   7    0.03    0.34
  -2   0  -7    0.34    0.34
   2   0  -7    0.20    0.38
   2   0  -7   -0.05    0.30
  -3   0   7    0.27    0.42
   3   0   7    0.30    0.48
   3   0  -7   -0.06    0.41
  -3   0  -7    0.13    0.46
   3   0  -7    0.08    0.50
   3   0   7   -0.22    0.41
  -3   0  -7    0.02    0.47
   4   0   7    5.96    1.11
   4   0  -7    7.81    1.29
   4   0   7    4.69    0.98
  -4   0   7    6.39    1.09
  -4   0  -7    5.34    1.11
  -4   0  -7    6.71    1.13
   4   0  -7    8.15    1.15
  -5   0  -7    1.06    0.96
  -5   0   7   -1.00    0.72
  -5   0  -7   -0.28    0.71
   5   0   7   -0.51    0.71
   5   0   7    1.15    0.80
   5   0  -7   -1.29    0.80
   5   0  -7    0.79    0.78
   6   0   7    0.12    1.02
  -6   0  -7    0.87    1.23
  -6   0   7    2.55    1.15
   6   0  -7    2.12    1.30
   6   0   7    2.78    1.22
   6   0  -7    1.12    0.99
  -6   0  -7    2.02    1.07
   7   0  -7    0.61    1.17
   7   0   7    0.50    1.25
  -7   0  -7   -0.06    1.56
   7   0  -7   -1.34    1.25
  -7   0  -7   -0.61    1.11
   0   1  -7   92.70    3.86
   0  -1  -7   98.11    3.95
   0   1   7   93.01    3.81
   0  -1  -7   91.94    3.80
   0  -1   7   89.08    3.90
   0  -1  -7   95.31    3.81
   0   1  -7   92.69    3.92
   0  -1  -7   90.04    3.81
   0   1   7   91.65    3.79
  -1  -1  -7    6.08    0.64
   1   1  -7    5.73    0.75
  -1  -1  -7    5.14    0.70
   1   1  -7    6.34    0.80
  -1   1   7    5.44    0.76
  -1  -1  -7    5.66    0.74
  -1  -1  -7    5.53    0.75
   1  -1   7    4.87    0.70
   1  -1  -7    4.02    0.62
   1   1   7    5.73    0.62
  -1   1  -7    7.12    0.81
   1  -1  -7    5.10    0.70
  -1   1  -7    4.65    0.73
  -1  -1   7    5.37    0.73
   2  -1   7   25.90    1.54
  -2   1   7   27.13    1.63
  -2  -1  -7   25.91    1.58
   2  -1   7   29.73    1.65
   2   1  -7   26.24    1.59
   2   1  -7   27.37    1.59
  -2  -1  -7   23.20    1.51
   2   1  -7   26.75    1.51
  -2  -1  -7   26.27    1.61
   2  -1  -7   30.12    1.71
  -2   1  -7   25.49    1.51
   2  -1  -7   26.32    1.52
   2   1   7   29.09    1.43
   2   1   7   24.07    1.63
  -2   1  -7   27.55    1.67
  -2  -1   7   27.41    1.65
   3  -1   7   -0.35    0.41
  -3  -1  -7    0.19    0.50
  -3  -1  -7    0.25    0.42
   3  -1   7   -0.05    0.46
  -3   1   7    0.73    0.56
   3   1  -7    0.48    0.53
   3   1  -7    0.60    0.60
   3  -1  -7    0.09    0.50
   3   1   7   -0.50    0.46
  -3  -1   7   -0.27    0.35
   3  -1  -7    0.23    0.47
  -3   1  -7    0.84    0.62
  -3   1  -7   -0.73    0.42
   3   1   7   -0.01    0.42
   4  -1   7    0.05    0.66
   4   1  -7    1.83    0.72
  -4  -1  -7    1.77    0.81
   4  -1   7    0.69    0.64
  -4  -1  -7    0.48    0.65
   4   1  -7    0.41    0.77
  -4  -1   7    1.17    0.78
  -4   1  -7   -0.91    0.66
   4   1   7   -0.08    0.62
  -4   1  -7    0.37    0.61
   4  -1  -7    2.46    0.79
   4  -1  -7    0.34    0.70
   4   1   7    0.62    0.72
   5  -1   7    7.46    1.39
   5  -1   7    7.68    1.30
  -5  -1  -7    6.84    1.27
   5   1  -7    5.42    1.34
   5   1  -7    8.22    1.38
  -5  -1  -7    4.41    1.27
   5  -1  -7    7.26    1.25
   5   1   7    7.01    1.13
  -5  -1   7    4.14    1.10
  -5   1  -7    8.25    1.18
   5  -1  -7    8.49    1.56
  -5   1  -7    5.60    1.40
   5   1   7    6.19    1.40
  -6  -1  -7    4.18    1.42
  -6  -1  -7    0.42    0.93
   6  -1   7    0.67    1.01
   6   1  -7    3.07    1.18
   6   1  -7    0.61    1.20
   6  -1   7    0.79    1.02
   6  -1  -7    1.05    1.14
   6   1   7    0.73    1.01
  -6   1  -7    0.90    1.27
   6   1   7   -0.47    1.02
   6  -1  -7    1.21    1.09
  -6  -1   7    1.74    1.12
   7  -1   7    0.45    1.24
  -7  -1  -7    0.62    1.08
   7  -1   7    1.46    1.28
   7   1  -7    0.46    1.19
  -7  -1  -7    1.73    1.54
   7   1  -7   -0.19    1.36
   7  -1  -7    0.23    1.33
   7  -1  -7    0.05    1.10
   7   1   7   -0.79    1.31
   0   2  -7   41.15    2.09
   0  -2  -7   40.13    2.03
   0   2   7   43.26    1.91
   0   2  -7   38.58    1.95
   0  -2  -7   40.16    1.90
   0  -2  -7   37.83    1.92
   0  -2  -7   38.60    1.84
   0  -2   7   40.38    2.06
  -1  -2  -7   54.01    2.60
   1   2  -7   56.66    2.69
  -1  -2  -7   56.59    2.56
   1  -2   7   55.38    2.64
  -1   2   7   58.72    2.60
   1   2  -7   53.86    2.58
  -1  -2  -7   55.52    2.65
   1  -2  -7   55.70    2.62
  -1  -2   7   55.48    2.67
  -1   2  -7   55.18    2.66
   2   2  -7   14.31    1.36
  -2  -2  -7   14.70    1.34
  -2  -2  -7   15.37    1.34
  -2  -2  -7   14.73    1.39
   2  -2   7   14.70    1.18
   2  -2  -7   13.25    1.03
  -2  -2   7   14.41    1.37
   2  -2  -7   15.10    1.26
   2  -2  -7   14.98    1.09
   3  -2   7    7.08    1.02
   3   2  -7    8.06    1.11
  -3  -2  -7    7.12    1.02
   3   2  -7    7.56    1.05
  -3  -2  -7    7.60    1.09
   3  -2   7    8.69    1.10
   3  -2  -7    7.38    1.14
  -3  -2   7    5.78    0.91
   3   2   7    7.64    1.25
   3  -2  -7    8.99    1.03
   4  -2   7    2.90    0.90
  -4  -2  -7    2.89    0.86
   4   2  -7    3.16    0.89
   4   2  -7    1.79    0.91
   4  -2   7    2.50    0.87
  -4  -2  -7    2.38    0.88
   4  -2  -7    3.57    1.01
  -4  -2   7    1.71    0.76
   4  -2  -7    1.98    0.77
   4   2   7    3.17    0.95
  -4  -2   7    2.04    0.70
   5   2  -7    1.23    1.02
  -5  -2  -7    0.90    0.89
   5  -2   7    0.22    0.81
   5  -2   7    1.63    0.93
   5   2  -7    0.51    0.79
  -5  -2  -7    0.73    0.93
  -5  -2   7   -0.49    0.82
   5  -2  -7    1.97    0.94
   5   2   7    1.62    1.01
   5  -2  -7    0.49    0.94
   6   2  -7   -0.54    0.87
  -6  -2  -7   -0.60    1.22
  -6  -2  -7    0.34    0.86
   6  -2   7    3.28    1.22
   6   2  -7    1.31    1.37
   6  -2   7    4.23    1.20
   6  -2  -7   -1.07    1.08
  -6  -2   7    0.30    1.09
   6  -2  -7    0.74    1.11
   6   2   7   -0.86    1.01
   7   2  -7    0.36    1.31
   7  -2   7    0.86    1.22
   7   2  -7    0.01    1.68
  -7  -2  -7   -0.91    1.06
  -7  -2  -7   -0.11    1.54
   7  -2   7    1.11    1.23
   7   2   7    0.69    1.45
  -7  -2   7    1.56    1.34
   7  -2  -7    3.26    1.61
   7  -2  -7    2.74    1.39
   0  -3  -7    3.16    0.58
   0  -3  -7    3.50    0.50
   0  -3  -7    2.62    0.61
   0  -3   7    3.12    0.66
  -1  -3  -7    5.67    0.77
  -1  -3  -7    6.19    0.90
   1   3  -7    4.47    0.77
   1  -3   7    5.10    0.75
  -1  -3  -7    4.39    0.72
   1  -3  -7    5.07    0.82
  -1  -3   7    4.86    0.76
   2  -3   7    2.71    0.66
  -2  -3  -7    3.59    0.72
   2   3  -7    3.29    0.74
  -2  -3  -7    3.07    0.66
  -2  -3  -7    3.88    0.81
   2  -3  -7    3.84    0.83
  -2  -3   7    3.58    0.74
   3   3  -7    3.26    0.83
  -3  -3  -7    2.87    0.79
  -3  -3  -7    4.44    1.00
   3  -3   7    4.71    0.87
  -3  -3  -7    4.84    0.88
   3  -3   7    3.88    0.84
  -3  -3   7    3.92    0.85
  -3  -3   7    4.44    0.87
   3  -3  -7    5.67    1.02
   4  -3   7    6.69    1.20
  -4  -3  -7    7.01    1.19
  -4  -3  -7    8.18    1.37
   4   3  -7    7.97    1.38
   4  -3   7    7.09    1.19
   4   3  -7    6.89    1.19
   4  -3  -7    5.01    1.15
  -4  -3   7    6.35    1.15
   4   3   7    6.12    1.27
  -4  -3   7    8.44    1.23
  -4  -3   7    4.60    0.98
   5   3  -7    2.21    1.18
  -5  -3  -7    3.37    1.06
  -5  -3  -7    2.07    1.11
   5   3  -7    2.14    0.95
   5  -3   7    3.45    1.15
   5  -3   7    1.71    0.91
   5   3   7    2.73    1.20
  -5  -3   7    2.54    1.06
   5  -3  -7    3.99    1.20
   6  -3   7    1.30    1.18
  -6  -3  -7   -0.34    1.20
   6  -3   7   -0.59    1.01
   6   3  -7    1.60    1.16
   6   3  -7    0.24    1.32
  -6  -3  -7    0.50    0.95
   6  -3  -7    1.59    1.12
   6   3   7    2.91    1.37
   6  -3  -7   -0.02    1.08
  -6  -3   7    0.11    1.04
   0  -4   7    4.47    0.76
   0  -4  -7    3.98    0.77
   0  -4  -7    5.64    0.78
  -1  -4  -7   19.83    1.28
  -1  -4  -7   19.82    1.42
   1  -4   7   18.94    1.41
  -1  -4  -7   19.19    1.50
   1  -4  -7   19.44    1.43
  -1  -4   7   21.66    1.45
  -2  -4  -7    2.18    0.69
  -2  -4  -7    2.01    0.65
  -2  -4  -7    2.99    0.84
   2  -4   7    1.61    0.63
  -2  -4   7    1.86    0.80
   2  -4  -7    3.40    0.70
  -2  -4   7    2.41    0.65
   3  -4   7    1.13    0.57
  -3  -4  -7    0.95    0.72
  -3  -4  -7    1.56    0.76
  -3  -4  -7    1.69    0.84
   3   4  -7    0.70    0.69
  -3  -4   7    0.24    0.51
   3  -4  -7    0.95    0.70
  -3  -4   7    1.05    0.72
  -4  -4  -7    0.74    0.72
   4   4  -7   -1.23    0.57
  -4  -4  -7    0.88    0.80
   4   4  -7    1.09    1.01
   4  -4   7    2.68    0.92
   4  -4   7    0.49    0.69
  -4  -4   7   -0.76    0.45
  -4  -4   7   -0.17    0.73
   4  -4  -7    0.25    0.69
  -4  -4   7    0.34    0.79
   5  -4   7    0.50    0.88
   5   4  -7   -0.28    0.89
   5  -4   7    0.15    0.78
   5   4  -7    0.78    1.16
  -5  -4  -7   -0.30    0.90
  -5  -4  -7    0.11    0.83
   5   4   7   -0.07    1.00
   5  -4  -7    1.11    0.96
  -5  -4   7   -0.29    0.83
  -5  -4   7   -0.65    1.08
   6  -4   7    1.15    1.05
  -6  -4  -7    1.08    1.06
  -6  -4  -7    1.88    1.40
   6  -4   7    1.95    1.25
   6   4  -7    4.94    1.57
   6   4  -7    1.08    1.20
  -6  -4   7    0.14    1.20
   6  -4  -7    0.28    1.22
   6   4   7    0.43    1.45
   0  -5  -7    7.65    1.00
   0  -5   7    8.50    1.08
   0  -5  -7    5.72    0.98
   1  -5   7   16.22    1.55
  -1  -5  -7   13.47    1.49
  -1  -5  -7   14.57    1.47
  -1  -5   7   13.14    1.38
   1  -5  -7   14.14    1.17
   1  -5  -7   14.69    1.47
   2  -5   7    0.33    0.49
  -2  -5  -7    0.33    0.76
  -2  -5  -7    0.20    0.48
  -2  -5  -7    0.89    0.58
  -2  -5   7   -0.22    0.73
   2  -5  -7    0.30    0.53
  -2  -5   7    0.43    0.45
  -3  -5  -7    1.52    0.74
  -3  -5  -7    0.78    0.72
   3  -5   7    1.33    0.66
  -3  -5  -7    1.12    0.91
   3   5  -7   -0.24    0.73
  -3  -5   7    1.59    0.81
  -3  -5   7    0.38    0.55
   3  -5  -7   -0.81    0.62
  -4  -5  -7    0.73    0.75
  -4  -5  -7   -0.30    1.00
  -4  -5  -7    0.62    0.92
   4  -5   7    0.94    0.75
   4   5  -7    0.52    0.87
   4  -5   7    2.25    0.82
  -4  -5   7    1.17    0.85
  -4  -5   7    1.00    0.64
   4  -5  -7    1.04    0.75
  -4  -5   7    0.57    0.91
   5  -5   7    2.60    1.09
   5  -5   7    4.07    1.19
   5   5  -7    3.29    1.16
  -5  -5  -7    4.51    1.29
  -5  -5  -7    6.12    1.63
  -5  -5   7    3.51    1.29
  -5  -5   7    5.25    1.52
   5  -5  -7    3.88    1.33
   6  -5   7    0.21    0.97
   6  -5   7    1.97    1.43
  -6  -5  -7    0.95    1.19
  -6  -5  -7    3.44    1.61
  -6  -5   7    2.65    1.38
   6  -5  -7    1.91    1.53
   0  -6  -7   19.20    1.85
   0  -6   7   21.35    1.62
   0  -6  -7   19.38    1.56
   1  -6   7    1.97    0.65
  -1  -6  -7    2.67    0.78
  -1  -6  -7    4.29    1.00
  -1  -6   7    2.42    0.70
   1  -6  -7    3.18    0.75
   1  -6  -7    0.96    0.67
   2  -6   7    3.69    0.92
  -2  -6  -7    2.67    1.01
  -2  -6  -7    2.70    0.92
   2  -6  -7    3.27    0.83
  -2  -6   7    1.85    0.64
  -2  -6   7    1.82    0.94
  -3  -6  -7    2.70    0.89
  -3  -6  -7    0.87    0.84
  -3  -6  -7    2.76    1.17
   3  -6   7    1.61    0.76
  -3  -6   7    1.28    0.67
  -3  -6   7    3.87    1.18
   3  -6  -7    2.25    1.05
  -4  -6  -7    1.93    1.20
  -4  -6  -7    0.57    0.89
   4  -6   7    0.51    0.63
  -4  -6  -7    1.03    1.00
  -4  -6   7    0.31    1.05
  -4  -6   7    0.13    0.67
  -4  -6   7    0.85    1.02
   4  -6  -7   -0.85    0.82
  -5  -6  -7    2.54    1.52
   5  -6   7    0.80    0.91
  -5  -6  -7   -0.23    0.90
  -5  -6  -7    1.01    1.22
   5  -6  -7    3.15    1.42
  -5  -6   7    1.99    0.93
  -5  -6   7    1.57    1.33
  -5  -6   7    2.29    1.58
   0  -7  -7    3.26    0.81
   0  -7   7   -0.09    0.49
   0  -7  -7   -0.23    0.58
  -1  -7  -7    2.68    0.92
   1  -7   7    2.39    0.82
  -1  -7  -7    3.55    1.04
   1  -7  -7    3.42    0.83
  -1  -7   7    3.04    0.80
   1  -7  -7    3.38    0.91
  -1  -7   7    1.28    0.93
  -2  -7  -7    1.17    0.78
  -2  -7  -7    1.58    0.99
   2  -7   7    0.80    0.68
  -2  -7  -7    1.07    0.75
  -2  -7   7   -0.84    0.78
  -2  -7   7    1.34    0.65
   2  -7  -7    1.12    0.72
   3  -7   7   -0.36    0.66
  -3  -7  -7    0.05    0.90
  -3  -7  -7    0.23    1.04
  -3  -7  -7    0.77    0.81
   3  -7  -7    2.18    1.08
  -3  -7   7    0.44    0.98
  -3  -7   7    1.23    0.75
  -3  -7   7    0.86    1.02
  -4  -7  -7   -0.18    1.20
   4  -7   7    0.69    0.80
  -4  -7  -7   -0.13    0.95
  -4  -7  -7    0.20    0.89
  -4  -7   7    0.23    1.03
   4  -7  -7   -1.23    0.94
  -4  -7   7   -0.38    1.09
  -4  -7   7   -0.24    0.75
  -5  -7  -7    4.37    1.43
  -5  -7   7    0.61    1.29
   0  -8   7    0.79    0.91
   0  -8   7    1.47    0.76
   0  -8  -7    2.86    1.06
   0  -8  -7    2.27    1.00
  -1  -8  -7    0.00    0.85
  -1  -8  -7   -0.34    0.85
   1  -8   7    0.95    0.78
  -1  -8   7    1.23    1.02
   1  -8  -7   -0.02    0.75
   1  -8  -7    0.70    0.81
  -1  -8   7    0.14    0.64
  -2  -8  -7    0.64    1.04
   2  -8   7    1.15    0.76
  -2  -8  -7    1.14    0.96
  -2  -8   7   -0.87    0.95
  -2  -8   7   -0.12    0.70
   2  -8  -7    0.90    1.09
   2  -8  -7    0.76    0.81
  -3  -8  -7    1.10    0.98
  -3  -8  -7   -0.55    1.14
   3  -8   7   -0.17    0.68
  -3  -8  -7    0.27    1.01
   3  -8  -7    0.99    1.16
  -3  -8   7    1.51    1.15
  -3  -8   7   -0.63    1.00
  -4  -8  -7    0.86    1.50
   4  -8   7    0.66    0.92
  -4  -8  -7    0.12    0.91
  -4  -8   7    0.49    1.20
   0  -9   7    3.99    1.33
   0  -9   7    3.44    1.08
   0  -9  -7    3.06    1.12
   0  -9  -7    7.69    1.50
   1  -9   7    4.21    1.12
  -1  -9  -7    4.97    1.38
   1  -9   7    0.96    1.00
  -1  -9  -7    5.07    1.38
  -1  -9   7    2.45    0.97
   1  -9  -7    2.38    1.10
  -1  -9   7    2.85    1.24
   1  -9  -7    2.65    1.14
  -2  -9  -7   -0.68    1.15
   2  -9   7    1.10    0.93
  -2  -9  -7   -0.19    1.02
   2  -9  -7    1.98    1.02
   2  -9  -7    0.07    1.21
  -2  -9   7   -0.61    1.07
   0   0  -8   25.91    1.54
   0   0  -8   24.48    1.45
   0   0   8   25.77    1.47
  -1   0  -8  271.45   10.49
   1   0  -8  272.78   10.50
   1   0   8  284.49   10.48
  -1   0   8  270.41   10.57
   1   0  -8  269.02   10.54
  -1   0  -8  280.84   10.59
  -1   0  -8  272.10   10.57
   2   0  -8    1.84    0.64
   2   0  -8    1.74    0.55
   2   0  -8    2.68    0.60
  -2   0  -8    2.23    0.63
  -2   0  -8    1.13    0.45
   2   0   8    2.37    0.58
   2   0   8    1.12    0.54
  -2   0  -8    1.64    0.61
  -2   0   8    1.59    0.56
   3   0  -8   11.54    1.27
  -3   0  -8   11.09    1.28
  -3   0   8   10.14    1.23
  -3   0  -8   11.34    1.34
   3   0  -8   12.34    1.44
   3   0   8   15.87    1.40
   3   0   8   10.28    1.29
  -4   0   8    4.80    0.99
   4   0  -8   12.40    1.51
  -4   0  -8    2.87    0.95
  -4   0  -8    3.25    0.96
   4   0  -8    3.14    1.05
   4   0   8    2.70    0.94
   4   0   8    4.04    0.94
  -5   0  -8    0.53    0.94
  -5   0   8    0.70    0.88
   5   0   8    1.13    0.83
   5   0   8   -0.25    0.78
   5   0  -8    0.62    0.99
   5   0  -8    0.29    0.81
  -5   0  -8    0.15    0.78
  -6   0  -8    0.60    1.22
   6   0  -8    0.11    0.94
   6   0   8    1.11    1.22
  -6   0  -8   -0.42    0.88
   6   0   8   -0.22    0.98
   6   0  -8    1.57    1.35
  -6   0   8   -0.31    1.02
  -7   0  -8    0.64    1.56
   7   0  -8   -0.10    1.10
   7   0  -8   -0.65    1.44
   0  -1  -8   17.94    1.27
   0  -1  -8   20.71    1.26
   0   1  -8   21.01    1.34
   0  -1  -8   19.45    1.20
   0   1  -8   19.39    1.25
   0   1   8   21.57    1.24
   0  -1   8   18.61    1.26
  -1  -1  -8    0.19    0.39
   1   1  -8    0.65    0.43
  -1   1   8    0.13    0.37
  -1  -1  -8    0.08    0.41
  -1  -1  -8   -0.08    0.32
   1  -1   8    0.05    0.37
   1   1  -8   -0.18    0.36
  -1  -1  -8    0.04    0.35
  -1   1  -8   -0.22    0.35
   1   1   8    0.13    0.32
  -1  -1   8    0.27    0.30
   1  -1  -8    0.02    0.32
   1  -1  -8    0.90    0.41
  -1   1  -8   -0.39    0.48
   2   1  -8    0.40    0.48
  -2  -1  -8    1.50    0.51
   2  -1   8   -0.10    0.40
   2  -1   8    0.30    0.41
  -2  -1  -8    0.97    0.58
   2   1  -8    0.60    0.46
  -2   1   8    0.59    0.50
   2   1  -8    0.68    0.47
  -2  -1  -8    1.01    0.50
   2   1   8    1.07    0.48
   2  -1  -8    0.48    0.47
   2  -1  -8    0.80    0.56
  -2   1  -8    1.70    0.55
   2  -1  -8    0.47    0.46
  -2  -1   8    0.73    0.46
  -2   1  -8    1.18    0.52
   3   1  -8    2.21    0.76
  -3  -1  -8    0.99    0.57
  -3  -1  -8    0.99    0.61
   3  -1   8    0.71    0.52
   3  -1   8    1.23    0.63
   3   1  -8    1.36    0.60
   3  -1  -8    1.17    0.70
  -3   1  -8    0.76    0.56
   3   1   8    1.00    0.61
  -3   1  -8    1.25    0.59
   3  -1  -8    1.66    0.60
   3   1   8    2.16    0.62
  -3  -1   8    1.57    0.56
   4   1  -8    8.81    1.35
  -4  -1  -8    9.90    1.47
   4  -1   8    6.32    1.18
   4  -1   8    7.51    1.17
   4   1  -8    6.98    1.17
  -4  -1  -8    5.23    1.06
   4   1   8    8.80    1.42
   4  -1  -8   10.20    1.30
  -4   1  -8    7.67    1.32
   4   1   8    9.85    1.13
  -4   1  -8    7.09    1.17
  -4  -1   8    8.70    1.24
   4  -1  -8    7.34    1.31
   5   1  -8   10.85    1.57
   5  -1   8   10.44    1.62
  -5  -1  -8    9.86    1.50
   5  -1   8   10.19    1.53
  -5  -1  -8    7.86    1.50
   5   1  -8    7.80    1.53
   5   1   8   10.67    1.31
   5  -1  -8   10.59    1.72
  -5   1  -8    7.10    1.50
  -5   1  -8    9.53    1.39
   5   1   8    8.13    1.62
   5  -1  -8    6.87    1.36
  -5  -1   8    8.12    1.41
  -6  -1  -8   -0.06    0.90
   6   1  -8    2.04    1.39
  -6  -1  -8    1.65    1.30
   6  -1   8   -1.24    0.84
   6  -1   8    1.44    1.09
   6   1  -8   -0.82    0.87
  -6  -1   8   -0.14    1.07
   6  -1  -8   -1.50    0.99
   6  -1  -8    0.29    1.08
  -6   1  -8   -0.01    1.25
   6   1   8   -0.26    1.06
   7   1  -8   -0.55    1.41
   7   1  -8    1.51    1.35
  -7  -1  -8    1.05    1.57
   7  -1   8   -0.82    1.31
  -7  -1  -8   -1.13    1.06
   7  -1   8   -0.18    1.31
   7  -1  -8    0.67    1.40
  -7  -1   8    0.45    1.21
   7   1   8   -1.47    1.38
   7  -1  -8    1.56    1.38
   0   2  -8    8.98    1.08
   0  -2  -8   10.56    1.03
   0   2  -8   12.02    1.13
   0  -2  -8    9.75    1.06
   0   2   8   10.91    1.01
   0  -2   8    9.71    1.06
   0  -2  -8    8.77    0.93
   1  -2   8   10.51    1.09
  -1  -2  -8    8.06    1.04
   1   2  -8    9.35    1.04
  -1   2   8   11.38    1.15
   1   2  -8   10.56    1.15
  -1  -2  -8    9.54    1.02
  -1  -2  -8   10.90    1.10
  -1  -2   8    8.82    1.02
   1  -2  -8    9.90    1.12
  -1   2  -8    9.32    1.09
   1  -2  -8   10.53    1.03
  -1   2  -8   11.67    1.11
  -2  -2  -8   10.63    1.22
  -2  -2  -8   13.57    1.32
  -2  -2  -8   13.56    1.32
   2  -2   8   10.73    1.17
   2   2  -8   11.87    1.22
   2  -2  -8   11.95    1.14
  -2  -2   8   10.15    1.20
   2  -2  -8   10.88    1.28
   2  -2  -8    9.90    1.08
   3  -2   8    2.10    0.74
  -3  -2  -8    2.18    0.74
   3  -2   8    1.69    0.65
   3   2  -8    1.40    0.70
   3   2  -8    2.17    0.83
  -3  -2  -8    1.54    0.64
   3   2   8    2.92    0.81
  -3  -2   8    3.44    0.84
   3  -2  -8    1.70    0.78
   3  -2  -8    2.51    0.72
   4   2  -8    0.85    0.61
   4   2  -8    0.59    0.80
  -4  -2  -8   -0.76    0.62
   4  -2   8    1.98    0.81
   4  -2   8    1.10    0.74
  -4  -2  -8    0.14    0.63
  -4  -2   8    0.72    0.68
   4  -2  -8    0.75    0.83
   4  -2  -8    1.45    0.72
   4   2   8    1.33    0.75
  -4  -2   8    1.44    0.71
   5   2  -8   -0.11    0.76
  -5  -2  -8    0.17    0.76
  -5  -2  -8   -1.10    0.80
   5   2  -8   -0.18    0.99
   5  -2   8    0.61    0.92
   5  -2   8    0.53    0.79
   5  -2  -8   -0.05    0.85
  -5  -2   8    0.13    0.80
   5   2   8    0.83    0.92
   5  -2  -8    1.65    0.91
  -6  -2  -8   -0.28    1.11
   6  -2   8    0.18    1.09
   6  -2   8   -0.41    1.02
  -6  -2  -8    0.84    0.98
   6   2  -8    0.79    1.10
   6   2  -8    1.98    1.29
   6  -2  -8   -0.55    0.95
   6  -2  -8   -0.23    1.15
   6   2   8    0.87    1.13
  -6  -2   8   -0.19    1.02
  -7  -2  -8    1.07    1.22
   0  -3  -8   59.78    2.70
   0  -3  -8   56.09    2.83
   0  -3  -8   57.79    2.56
   0  -3  -8   54.52    2.61
   0  -3   8   61.35    2.89
  -1  -3  -8    5.52    0.82
   1  -3   8    3.38    0.71
  -1  -3  -8    5.85    0.83
  -1  -3  -8    5.45    0.89
   1   3  -8    4.78    0.81
  -1  -3   8    4.13    0.78
   1  -3  -8    4.95    0.82
   2  -3   8    1.46    0.60
  -2  -3  -8    1.16    0.56
  -2  -3  -8    1.61    0.64
  -2  -3  -8    1.07    0.56
   2   3  -8    1.26    0.64
  -2  -3   8    7.54    1.11
   2  -3  -8    2.11    0.65
   3   3  -8    2.33    0.77
  -3  -3  -8    3.72    0.93
  -3  -3  -8    2.02    0.90
   3  -3   8    1.95    0.73
  -3  -3  -8    3.00    0.79
  -3  -3   8    2.66    0.77
  -3  -3   8    2.64    0.80
   3  -3  -8    1.69    0.75
   4  -3   8    2.99    0.89
   4  -3   8    3.98    0.99
  -4  -3  -8    3.89    1.00
   4   3  -8    2.95    0.96
   4   3  -8    5.07    1.24
  -4  -3  -8    2.38    0.97
  -4  -3   8    3.30    0.88
  -4  -3   8    5.03    1.14
   4   3   8    4.50    1.30
   4  -3  -8    4.15    1.09
   5  -3   8    2.52    0.96
  -5  -3  -8    2.53    1.17
   5   3  -8    1.49    0.98
  -5  -3  -8    0.92    0.83
   5  -3   8    1.72    1.00
   5   3  -8    2.48    1.33
   5   3   8    0.81    1.01
   5  -3  -8    0.31    0.96
  -5  -3   8    1.01    1.00
   6  -3   8   -1.38    0.93
   6   3  -8    1.93    1.32
   6   3  -8    1.68    1.43
  -6  -3  -8    3.36    1.12
   6  -3   8    0.09    1.09
  -6  -3  -8   -0.03    1.10
   6  -3  -8    1.81    1.24
   6  -3  -8    1.35    1.09
   6   3   8   -0.22    1.18
  -6  -3   8    1.00    1.07
   0  -4  -8   -0.12    0.45
   0  -4  -8    0.37    0.43
   0  -4   8    1.49    0.56
  -1  -4  -8    4.07    0.85
  -1  -4  -8    4.17    0.81
   1  -4   8    4.97    0.87
  -1  -4  -8    5.72    0.85
   1  -4  -8    4.49    0.85
  -1  -4   8    5.54    0.86
   2  -4   8   18.70    1.47
  -2  -4  -8   18.40    1.79
  -2  -4  -8   16.19    1.62
  -2  -4  -8   19.67    1.66
   2   4  -8   17.18    1.57
   2  -4  -8   15.50    1.48
  -2  -4   8   14.41    1.49
  -3  -4  -8    9.14    1.30
  -3  -4  -8    8.36    1.33
   3   4  -8    5.55    1.11
  -3  -4  -8    8.43    1.34
   3  -4   8    3.92    0.91
  -3  -4   8    5.27    0.99
   3  -4  -8    9.00    1.39
  -3  -4   8    5.87    1.12
  -4  -4  -8    2.67    0.95
   4  -4   8    1.48    0.75
   4   4  -8    0.32    0.79
  -4  -4  -8    1.04    1.06
  -4  -4  -8    2.05    0.95
   4  -4   8    2.27    0.84
  -4  -4   8    1.46    0.93
  -4  -4   8    1.25    0.89
  -4  -4   8    1.35    0.69
   4  -4  -8    0.40    0.78
  -5  -4  -8    0.61    1.06
   5   4  -8    3.49    1.38
   5  -4   8    2.24    1.09
   5  -4   8    1.59    0.92
   5   4  -8    0.49    0.94
  -5  -4  -8    1.84    0.99
   5   4   8    2.90    1.28
   5  -4  -8    0.94    1.18
  -5  -4   8    2.16    1.15
   6  -4   8    1.50    1.32
   6   4  -8    0.83    1.19
  -6  -4  -8    0.37    1.24
   6  -4   8    0.35    1.11
  -6  -4  -8    0.14    1.08
   6  -4  -8    0.62    1.26
  -6  -4   8    1.10    1.33
   6   4   8    1.15    1.47
   0  -5   8    2.46    0.66
   0  -5  -8   10.44    1.24
   0  -5  -8    4.17    1.00
   1  -5   8    5.37    0.94
  -1  -5  -8    5.10    0.95
  -1  -5  -8    6.53    1.11
   1  -5  -8    4.69    0.92
   1  -5  -8    6.79    0.93
  -1  -5   8    3.43    0.82
  -2  -5  -8    0.89    0.58
  -2  -5  -8   -0.30    0.59
  -2  -5  -8   -0.24    0.51
   2  -5   8    0.15    0.53
   2  -5  -8   -0.33    0.55
  -2  -5   8   -0.11    0.70
  -2  -5   8    0.41    0.48
  -3  -5  -8    3.82    0.96
  -3  -5  -8    2.73    0.93
  -3  -5  -8    1.06    1.03
   3   5  -8    2.32    0.90
   3  -5   8    1.72    0.75
  -3  -5   8    2.96    1.05
  -3  -5   8    2.12    0.76
   3  -5  -8    2.58    1.02
  -4  -5  -8    4.00    1.08
   4   5  -8    2.34    1.04
   4  -5   8    2.26    0.88
  -4  -5  -8    3.76    1.32
  -4  -5  -8    2.52    1.10
  -4  -5   8    3.26    1.11
   4  -5  -8    2.07    1.05
  -4  -5   8    2.90    0.84
  -4  -5   8    2.31    1.01
  -5  -5  -8    2.63    1.00
   5  -5   8    0.52    0.93
  -5  -5  -8    0.41    1.13
   5  -5   8    2.75    1.49
   5   5  -8   -0.05    0.99
   5  -5  -8    0.46    0.97
  -5  -5   8    2.62    0.92
  -5  -5   8    0.57    1.29
  -5  -5   8    1.11    1.00
  -6  -5  -8    2.01    1.23
   6  -5   8    1.00    1.15
  -6  -5   8   -1.17    1.17
   0  -6   8    1.86    0.64
   0  -6  -8    0.96    0.70
   0  -6  -8    1.50    0.76
  -1  -6  -8    8.53    1.38
   1  -6   8    7.77    1.21
  -1  -6  -8    9.30    1.34
  -1  -6   8    6.41    1.06
   1  -6  -8    9.88    1.17
   1  -6  -8    7.15    1.14
  -2  -6  -8    0.10    0.59
   2  -6   8    1.11    0.65
  -2  -6  -8    1.40    0.73
  -2  -6  -8    0.81    0.86
  -2  -6   8    0.42    0.81
   2  -6  -8    0.14    0.67
  -2  -6   8    0.21    0.53
  -3  -6  -8    0.51    0.75
  -3  -6  -8   -1.04    0.87
   3  -6   8    1.46    0.79
  -3  -6  -8    0.19    0.78
   3  -6  -8   -0.38    0.79
  -3  -6   8    0.60    0.86
  -3  -6   8    0.40    0.68
   4  -6   8   -0.57    0.66
  -4  -6  -8    2.45    1.04
  -4  -6  -8    0.85    1.20
  -4  -6  -8    0.84    0.98
  -4  -6   8    1.24    0.76
  -4  -6   8    1.80    1.03
   4  -6  -8    0.80    1.06
  -4  -6   8    0.25    1.06
  -5  -6  -8    2.97    1.43
  -5  -6  -8    5.12    1.71
   5  -6   8    2.85    1.09
  -5  -6  -8    3.86    1.25
   5  -6  -8    2.34    1.34
  -5  -6   8    2.94    1.03
  -5  -6   8    1.85    1.22
  -5  -6   8    0.66    1.53
   0  -7   8    5.64    1.10
   0  -7  -8    1.99    0.89
   0  -7  -8    7.50    1.16
  -1  -7  -8   10.11    1.51
  -1  -7  -8   11.09    1.58
   1  -7   8   11.15    1.45
  -1  -7   8   10.22    1.40
  -1  -7   8    9.96    1.61
   1  -7  -8   12.77    1.49
   1  -7  -8   10.63    1.45
   2  -7   8    0.54    0.71
  -2  -7  -8    1.17    0.97
  -2  -7  -8    0.62    0.91
  -2  -7   8    2.16    1.12
   2  -7  -8    2.73    0.92
  -2  -7   8    0.88    0.70
  -3  -7  -8   -0.41    0.81
   3  -7   8    0.11    0.68
  -3  -7  -8   -0.23    0.79
  -3  -7  -8   -0.95    1.05
  -3  -7   8   -0.21    0.69
  -3  -7   8   -1.59    0.84
  -4  -7  -8    1.17    1.16
  -4  -7  -8    1.49    1.04
   4  -7   8    0.19    0.84
  -4  -7  -8    0.03    1.28
  -4  -7   8    0.05    0.81
   4  -7  -8    2.11    1.26
  -4  -7   8   -0.51    1.12
  -4  -7   8    1.12    1.28
   0  -8  -8   11.76    1.76
   0  -8   8   12.75    1.67
   0  -8  -8   12.87    1.73
  -1  -8  -8    2.29    1.07
  -1  -8  -8    2.85    1.14
   1  -8   8    1.13    0.84
  -1  -8   8    1.29    0.73
   1  -8  -8    1.63    0.94
  -1  -8   8    3.11    1.26
   1  -8  -8    2.04    0.95
   2  -8   8   -0.11    0.65
  -2  -8  -8   -1.19    0.81
  -2  -8  -8    0.33    1.15
   2  -8  -8    1.19    1.24
  -2  -8   8    1.91    1.13
  -2  -8   8    0.78    0.71
   2  -8  -8   -1.07    0.76
  -3  -8  -8   -1.09    0.85
  -3  -8  -8   -0.48    0.89
  -3  -8  -8    2.21    1.43
   3  -8   8    0.21    0.72
  -3  -8   8   -0.64    0.80
   3  -8  -8    0.07    1.09
  -3  -8   8   -0.43    1.14
  -3  -8   8   -0.49    1.12
   0  -9  -8    3.82    1.30
   0  -9   8    1.97    1.07
   0  -9   8    2.02    1.00
   0  -9  -8    2.69    1.17
  -1  -9  -8    0.37    1.01
   1  -9   8    0.99    0.92
  -1  -9  -8   -0.99    1.01
   1  -9  -8    0.84    0.92
  -1  -9   8   -0.01    1.08
  -1  -9   8    0.92    0.85
   2  -9   8    0.75    0.88
  -2  -9  -8   -0.13    1.31
   2  -9  -8   -0.28    0.91
   0   0  -9    0.00    0.39
   0   0  -9    0.40    0.36
   0   0   9    0.29    0.39
   1   0  -9   15.23    1.18
   1   0  -9   20.04    1.32
  -1   0  -9   17.18    1.26
  -1   0   9   14.62    1.20
   1   0   9   15.17    1.20
  -1   0  -9   17.38    1.21
   2   0   9    1.72    0.58
   2   0  -9    0.99    0.63
  -2   0  -9    0.42    0.68
   2   0  -9    1.06    0.52
  -2   0  -9    0.67    0.54
   2   0  -9    1.29    0.53
  -2   0  -9    2.15    0.60
  -2   0   9    2.31    0.65
  -3   0  -9    5.80    0.98
  -3   0  -9    7.16    1.14
   3   0  -9    8.38    1.28
   3   0   9    5.55    1.01
   3   0   9    7.69    1.04
  -3   0   9    4.98    0.95
   3   0  -9    5.06    0.94
   4   0  -9   -0.71    0.60
  -4   0  -9    0.97    0.77
   4   0   9    0.74    0.76
  -4   0  -9    0.42    0.84
   4   0  -9    1.97    0.94
   4   0   9    0.75    0.74
  -4   0   9    0.45    0.78
  -5   0  -9    0.12    1.01
   5   0  -9    1.60    1.13
  -5   0  -9    0.24    0.85
   5   0   9    0.29    0.90
  -5   0   9    1.00    0.98
   5   0   9    0.61    0.77
   5   0  -9    2.78    1.05
   6   0   9    1.57    1.03
  -6   0  -9    0.79    1.29
   6   0  -9    0.10    1.06
   6   0   9    1.05    1.22
  -6   0   9   -0.99    0.98
   0   1  -9   14.67    1.13
   0   1   9   15.94    1.12
   0   1  -9   14.71    1.19
   0  -1   9   13.64    1.31
   0  -1  -9   16.00    1.09
   0  -1  -9   15.10    1.13
   0  -1  -9   14.68    1.17
   1  -1   9   10.79    1.17
  -1   1   9   14.54    1.36
  -1  -1  -9   10.77    1.21
   1   1  -9   14.67    1.35
   1   1  -9   14.19    1.30
  -1  -1  -9   12.50    1.24
  -1  -1  -9   11.88    1.18
  -1   1  -9   11.64    1.21
   1   1   9   12.24    1.10
   1  -1  -9   11.44    1.17
  -1  -1   9   12.49    1.28
  -1   1  -9   10.37    1.21
   1  -1  -9   11.86    1.18
  -2   1   9    4.34    0.85
  -2  -1  -9    5.65    0.96
   2  -1   9    4.92    0.79
   2  -1   9    6.34    0.96
   2   1  -9    4.65    0.89
   2   1  -9    5.94    0.87
  -2  -1  -9    7.77    1.03
  -2  -1  -9    5.09    0.90
   2   1  -9    4.42    0.83
   2  -1  -9    5.37    0.87
  -2  -1   9    5.89    0.93
   2  -1  -9    5.24    0.89
  -2   1  -9    5.99    1.01
   2  -1  -9    5.68    1.02
   2   1   9    5.27    0.79
  -2   1  -9    7.07    0.94
   3  -1   9    6.95    1.12
  -3  -1  -9   10.18    1.25
  -3  -1  -9    7.10    1.19
   3   1  -9    8.45    1.13
   3   1  -9    6.86    1.12
   3  -1   9    8.63    1.23
   3   1  -9    7.12    1.08
  -3  -1   9    5.73    1.05
  -3   1  -9    7.32    1.26
  -3   1  -9    7.46    1.10
   3  -1  -9    7.54    1.26
   3  -1  -9    9.10    1.14
   3   1   9    6.89    0.94
   3   1   9    7.78    1.28
   4   1  -9    9.11    1.42
   4  -1   9    4.72    1.09
   4  -1   9    4.11    1.01
  -4  -1  -9    4.24    1.06
   4   1  -9    5.38    1.04
  -4  -1  -9    6.53    1.19
   4  -1  -9    4.46    1.00
   4   1   9    5.49    0.98
  -4  -1   9    3.59    0.87
  -4   1  -9    3.98    1.12
  -4   1  -9    4.70    1.00
  -4  -1   9    7.57    1.22
   4  -1  -9    5.98    1.28
   5   1  -9    0.89    1.10
   5   1  -9    2.62    1.04
  -5  -1  -9    2.70    1.14
   5  -1   9    2.86    1.03
  -5  -1  -9    1.27    0.91
   5  -1   9    0.62    1.00
   5  -1  -9    0.92    1.01
  -5   1  -9    0.25    1.14
   5   1   9    0.00    0.82
   5   1   9    0.82    1.02
  -5  -1   9    2.51    1.12
   5  -1  -9    0.59    0.87
  -6  -1  -9    0.24    1.05
   6  -1   9   -0.71    0.99
  -6  -1  -9    1.46    1.23
   6   1  -9   -0.19    1.02
   6   1  -9   -1.01    1.17
   6  -1   9   -1.19    0.95
   6  -1  -9    1.66    1.05
   6  -1  -9    0.40    1.23
   6   1   9   -0.27    1.10
  -6  -1   9    1.24    1.20
   0   2   9    0.26    0.44
   0   2  -9    1.37    0.60
   0   2  -9    0.30    0.42
   0  -2  -9    0.01    0.35
   0  -2  -9    0.28    0.44
   0  -2   9    0.09    0.33
   0  -2  -9    0.12    0.36
   1  -2   9   15.89    1.43
  -1   2   9   15.38    1.22
   1   2  -9   14.16    1.38
  -1  -2  -9   13.27    1.35
   1   2  -9   14.71    1.35
  -1  -2  -9   15.48    1.38
  -1  -2  -9   15.51    1.12
  -1  -2  -9   16.16    1.17
  -1   2  -9   12.94    1.26
   1  -2  -9   12.26    1.28
  -1  -2   9   11.11    1.24
   1  -2  -9   13.37    1.24
  -1   2  -9   12.11    1.35
   1   2   9   14.05    1.02
  -2  -2  -9   38.56    2.09
  -2  -2  -9   34.92    2.11
   2  -2   9   34.86    2.10
   2   2  -9   34.78    2.13
  -2  -2  -9   34.04    2.12
   2   2  -9   38.06    2.12
   2  -2  -9   34.47    2.02
   2  -2  -9   37.43    2.03
   2  -2  -9   38.77    2.23
  -2  -2   9   38.60    2.21
  -3  -2  -9   16.16    1.72
   3   2  -9   16.32    1.62
  -3  -2  -9   19.33    1.75
   3  -2   9   14.62    1.55
   3   2  -9   18.25    1.55
   3  -2   9   17.02    1.74
   3  -2  -9   18.20    1.88
   3  -2  -9   19.63    1.49
  -3  -2   9   16.30    1.68
  -4  -2  -9    0.09    0.80
   4  -2   9    1.19    0.76
  -4  -2  -9    1.37    0.82
   4   2  -9    0.72    0.77
   4  -2   9    1.50    0.82
   4   2  -9    1.14    0.99
   4  -2  -9    0.71    0.70
  -4  -2   9    2.35    0.93
   4  -2  -9    1.08    0.90
  -4  -2   9    0.24    0.59
   4   2   9    1.39    0.94
  -5  -2  -9    2.21    1.22
   5   2  -9   -0.24    1.06
   5   2  -9    0.25    0.80
   5  -2   9   -1.21    0.71
   5  -2   9    1.17    0.99
  -5  -2  -9   -0.31    0.74
   5  -2  -9   -0.66    0.87
   5  -2  -9    1.94    1.07
   5   2   9   -0.57    0.98
  -5  -2   9   -0.13    0.98
   6  -2   9    1.67    1.12
   6   2  -9    1.94    1.18
  -6  -2  -9    0.33    1.17
  -6  -2  -9    1.18    1.07
   6   2  -9   -0.92    1.17
   6  -2   9    0.68    1.13
  -6  -2   9    0.41    1.12
   6  -2  -9   -1.03    1.08
   6  -2  -9    0.30    1.06
   6   2   9   -0.22    1.19
   0  -3  -9    2.04    0.63
   0  -3  -9    2.53    0.59
   0   3  -9    3.07    0.71
   0  -3   9    2.81    0.65
   0  -3  -9    2.64    0.69
   0   3   9    1.35    0.54
  -1  -3  -9   13.85    1.47
   1  -3   9   15.97    1.53
   1   3  -9   14.54    1.41
  -1  -3  -9   15.79    1.46
  -1  -3  -9   16.89    1.44
  -1  -3   9   14.34    1.44
   1  -3  -9   11.39    1.30
   1  -3  -9   13.87    1.26
   2  -3   9    0.44    0.47
  -2  -3  -9    0.00    0.49
  -2  -3  -9    0.29    0.70
   2   3  -9    1.03    0.61
  -2  -3  -9    0.43    0.54
   2  -3  -9    0.63    0.51
   2  -3  -9    0.15    0.50
  -2  -3   9    0.32    0.44
  -3  -3  -9   14.08    1.56
   3  -3   9   11.61    1.47
   3   3  -9   10.05    1.34
  -3  -3  -9   11.97    1.55
  -3  -3  -9   10.66    1.49
   3  -3  -9   10.06    1.46
  -3  -3   9   10.58    1.42
  -3  -3   9   10.78    1.33
   4   3  -9   15.98    1.77
  -4  -3  -9   16.27    1.98
   4  -3   9   14.43    1.77
   4  -3   9   17.80    1.77
  -4  -3  -9   18.13    1.94
   4   3  -9   13.91    1.71
  -4  -3   9   17.20    1.84
   4  -3  -9   13.69    1.86
  -4  -3   9   14.06    1.71
  -5  -3  -9    0.71    0.82
   5  -3   9   -0.05    0.85
   5  -3   9    2.15    0.99
  -5  -3  -9    0.01    1.04
   5   3  -9    0.58    1.22
   5   3  -9   -0.21    0.96
   5  -3  -9    2.93    1.20
  -5  -3   9    1.39    0.93
   5  -3  -9   -0.31    0.91
   5   3   9    1.30    1.12
   6   3  -9    1.50    1.55
   6  -3   9    1.18    1.11
   6  -3   9    0.98    1.20
  -6  -3  -9    2.39    1.39
   6   3  -9    0.03    1.06
  -6  -3  -9    1.12    1.07
   6  -3  -9    0.83    1.08
  -6  -3   9    1.60    1.25
   6   3   9   -0.59    1.24
   6  -3  -9    0.26    1.35
   0  -4  -9    5.16    0.91
   0  -4   9    3.32    0.81
   0  -4  -9    4.63    0.81
  -1  -4  -9   10.64    1.20
  -1  -4  -9   10.82    1.36
  -1  -4  -9   10.58    1.27
   1  -4   9   10.76    1.32
  -1  -4   9   10.04    1.30
   1  -4  -9    6.87    1.03
   2  -4   9   24.44    1.82
  -2  -4  -9   25.30    1.74
   2   4  -9   26.25    1.81
  -2  -4  -9   25.23    1.99
  -2  -4  -9   27.71    1.92
   2  -4  -9   27.04    1.85
  -2  -4   9   25.23    1.84
  -3  -4  -9    4.58    1.19
   3  -4   9    3.79    1.00
  -3  -4  -9    3.87    0.95
   3   4  -9    3.28    0.92
  -3  -4  -9    4.04    1.01
  -3  -4   9    3.64    1.02
   3  -4  -9    6.14    1.23
  -3  -4   9    5.55    1.01
  -4  -4  -9    5.19    1.14
   4   4  -9    2.65    0.97
   4  -4   9    3.84    0.98
  -4  -4  -9    2.11    1.07
   4  -4   9    3.20    1.13
  -4  -4   9    5.00    1.21
  -4  -4   9    3.97    1.05
  -4  -4   9    2.38    1.01
   4  -4  -9    3.90    1.12
   5   4  -9    0.23    0.94
  -5  -4  -9    2.95    1.17
   5  -4   9    1.70    0.94
  -5  -4  -9    1.69    1.23
   5  -4   9    0.16    0.89
  -5  -4   9    0.96    0.76
   5  -4  -9    0.99    1.15
  -5  -4   9    0.90    1.00
   6  -4   9   -0.29    1.01
   6  -4   9    0.31    1.26
  -6  -4  -9   -0.40    0.97
   6   4  -9   -0.52    1.23
  -6  -4  -9    1.34    1.39
   6   4   9    1.10    1.46
  -6  -4   9    0.65    1.28
   6  -4  -9   -1.05    1.24
   0  -5  -9   -0.03    0.52
   0  -5  -9    0.74    0.56
   0  -5   9   -0.29    0.45
  -1  -5  -9   13.82    1.67
  -1  -5  -9   19.20    1.61
   1  -5   9   14.43    1.65
  -1  -5  -9   16.88    1.64
   1  -5  -9   13.46    1.57
  -1  -5   9   15.10    1.59
  -2  -5  -9    4.30    0.91
  -2  -5  -9    3.98    1.09
  -2  -5  -9    2.75    0.89
   2  -5   9    3.75    0.90
  -2  -5   9    1.38    0.85
  -2  -5   9    3.08    0.81
   2  -5  -9    3.89    0.86
   3   5  -9    0.48    0.85
  -3  -5  -9    1.67    0.93
  -3  -5  -9    2.49    1.11
  -3  -5  -9    2.22    0.88
   3  -5   9    1.29    0.74
  -3  -5   9   -0.54    0.78
   3  -5  -9    1.26    0.97
  -3  -5   9    0.76    0.63
  -4  -5  -9    1.89    1.03
  -4  -5  -9    2.56    1.03
   4   5  -9    0.63    0.93
   4  -5   9    2.58    1.01
  -4  -5  -9    2.81    1.39
  -4  -5   9    1.41    1.05
   4  -5  -9    2.38    1.08
  -4  -5   9    1.88    0.81
  -4  -5   9    2.03    0.98
  -5  -5  -9    2.36    1.31
   5  -5   9    0.30    0.79
   5   5  -9    1.28    1.09
  -5  -5  -9    1.04    1.03
  -5  -5   9    1.19    1.18
  -5  -5   9    0.36    0.79
   5  -5  -9    0.27    1.14
   0  -6  -9   10.28    1.45
   0  -6   9    9.08    1.30
   0  -6  -9   12.23    1.42
   1  -6   9    0.53    0.49
  -1  -6  -9    0.15    0.70
  -1  -6  -9    1.35    0.71
   1  -6  -9    1.23    0.74
  -1  -6   9    0.42    0.56
  -2  -6  -9    2.28    0.90
  -2  -6  -9    1.12    0.78
  -2  -6  -9    2.81    1.04
   2  -6   9    1.07    0.73
   2  -6  -9    0.84    0.72
  -2  -6   9    0.43    0.58
  -2  -6   9    0.96    0.99
  -3  -6  -9    3.33    1.03
  -3  -6  -9    2.42    1.02
   3  -6   9    3.34    1.00
  -3  -6  -9    3.19    1.25
  -3  -6   9    1.95    1.14
   3  -6  -9    2.31    1.23
  -3  -6   9    1.51    0.84
  -4  -6  -9    1.18    1.39
  -4  -6  -9    2.39    1.19
  -4  -6  -9    3.88    1.17
   4  -6   9    3.72    1.17
  -4  -6   9    1.49    0.85
  -4  -6   9   -0.14    1.13
   4  -6  -9    5.10    1.48
  -4  -6   9    5.52    1.42
  -5  -6  -9    1.33    1.69
  -5  -6  -9    0.97    1.11
   5  -6   9   -0.59    0.93
   5   6  -9    1.15    1.29
  -5  -6  -9    0.21    1.23
  -5  -6   9   -0.74    1.09
   5  -6  -9   -1.37    1.08
  -5  -6   9    0.13    0.89
   0  -7   9    6.94    1.23
   0  -7  -9   10.47    1.58
   0  -7  -9   11.44    1.50
  -1  -7  -9    3.61    1.16
  -1  -7  -9    5.44    1.18
   1  -7   9    4.76    1.07
   1  -7  -9    4.30    1.01
   1  -7  -9    4.01    1.02
  -1  -7   9    2.83    0.84
  -2  -7  -9    2.39    1.04
   2  -7   9    1.41    0.75
  -2  -7  -9    0.37    1.06
  -2  -7  -9    1.84    0.90
  -2  -7   9    1.13    1.09
  -2  -7   9    1.53    0.76
   2  -7  -9    1.79    0.89
  -3  -7  -9    2.23    1.37
  -3  -7  -9    1.18    1.08
  -3  -7  -9    2.79    1.09
   3  -7   9    0.87    0.81
  -3  -7   9    1.61    0.88
   3  -7  -9    1.89    1.15
  -3  -7   9    2.38    1.20
   4  -7   9   -0.30    0.76
  -4  -7  -9   -0.90    0.99
  -4  -7  -9   -2.28    1.33
  -4  -7  -9    0.17    1.04
  -4  -7   9    0.14    1.12
  -4  -7   9    0.26    0.82
   4  -7  -9   -2.66    1.02
  -4  -7   9   -0.20    1.18
   0  -8  -9    0.98    0.96
   0  -8  -9   -0.59    0.87
   0  -8   9    1.91    0.85
  -1  -8  -9    1.22    1.05
  -1  -8  -9    2.12    1.15
   1  -8   9    2.55    1.02
   1  -8  -9    2.14    1.03
   1  -8  -9    1.71    1.03
  -1  -8   9    0.42    0.73
  -1  -8   9    0.84    1.04
  -2  -8  -9   -0.08    0.85
  -2  -8  -9    0.06    1.19
   2  -8   9    0.92    0.81
  -2  -8   9    1.18    1.24
   2  -8  -9    0.36    0.91
  -2  -8   9   -0.23    0.66
  -3  -8  -9    0.42    1.12
  -3  -8  -9   -0.47    1.35
   3  -8   9    2.05    0.99
  -3  -8  -9    1.19    1.13
   3  -8  -9    1.38    1.30
  -3  -8   9    1.93    1.34
  -3  -8   9    1.05    1.31
  -3  -8   9    0.70    0.89
   0  -9   9    1.67    1.18
   0  -9  -9    1.10    1.10
   0  -9   9    0.69    0.80
   0  -9  -9   -0.16    1.10
  -1  -9  -9    1.65    1.24
   1  -9   9   -0.47    0.78
  -1  -9   9    1.06    0.84
   1  -9  -9    0.87    0.98
   0   0 -10    3.16    0.66
   0   0 -10    2.49    0.64
   0   0  10    2.49    0.63
  -1   0  10    5.07    0.87
  -1   0 -10    4.42    0.78
  -1   0 -10    4.49    0.81
   1   0 -10    3.27    0.73
  -1   0 -10    4.71    0.88
   1   0 -10    4.68    0.79
   1   0  10    4.33    0.79
   2   0  10   42.10    2.26
  -2   0 -10   40.19    2.38
  -2   0 -10   40.03    2.25
   2   0 -10   37.71    2.24
   2   0 -10   43.47    2.34
   2   0 -10   46.18    2.36
  -2   0  10   39.22    2.36
  -2   0 -10   41.24    2.40
  -3   0  10    6.67    1.19
   3   0  10   12.43    1.35
  -3   0 -10    8.91    1.39
  -3   0 -10   11.71    1.37
   3   0  10   11.52    1.52
   3   0 -10   12.30    1.41
   3   0 -10   14.18    1.62
   4   0  10    1.74    0.90
  -4   0  10    2.16    0.96
   4   0  10    2.90    0.93
  -4   0 -10    1.39    0.79
   4   0 -10    2.77    1.06
   4   0 -10    1.70    0.88
  -4   0 -10    2.12    0.99
  -5   0  10   -1.78    0.91
   5   0 -10    1.32    0.95
  -5   0 -10   -0.75    0.95
   5   0  10    1.22    1.01
   5   0  10    0.79    0.95
   5   0 -10   -0.82    1.02
  -5   0 -10    0.07    0.87
  -6   0 -10   -0.75    1.26
  -6   0 -10    0.39    1.00
   6   0 -10    0.31    1.01
  -6   0  10   -0.03    1.20
   6   0 -10   -0.92    1.36
   6   0  10   -1.01    1.36
   0   1  10    0.69    0.46
   0  -1 -10    0.05    0.34
   0   1 -10    0.00    0.41
   0  -1  10   -0.02    0.47
   0  -1 -10    0.61    0.43
   0   1 -10   -0.04    0.35
   0  -1 -10    0.69    0.45
  -1  -1 -10    4.16    0.77
   1  -1  10    2.99    0.76
  -1  -1 -10    2.26    0.70
   1   1 -10    3.77    0.76
   1   1 -10    3.91    0.79
  -1  -1 -10    4.15    0.76
  -1   1  10    2.92    0.76
   1  -1 -10    1.84    0.64
   1  -1 -10    2.88    0.69
  -1  -1  10    2.67    0.72
  -1   1 -10    4.25    0.90
  -1   1 -10    4.16    0.78
   1   1  10    2.44    0.62
  -2  -1 -10    2.47    0.78
   2   1 -10    2.55    0.71
  -2  -1 -10    2.57    0.71
   2  -1  10    3.41    0.83
  -2   1  10    2.12    0.71
   2   1 -10    1.25    0.61
  -2  -1 -10    2.46    0.78
   2   1 -10    2.96    0.72
   2  -1 -10    1.99    0.77
  -2   1 -10    2.69    0.75
   2  -1 -10    2.55    0.74
  -2  -1  10    1.32    0.60
   2   1  10    2.64    0.66
   2  -1 -10    2.12    0.75
  -2   1 -10    2.33    0.85
   3   1 -10   34.84    2.18
  -3  -1 -10   33.25    2.11
  -3  -1 -10   27.57    2.13
   3  -1  10   41.51    2.23
   3  -1  10   32.40    2.16
   3   1 -10   32.45    2.13
   3   1 -10   33.08    2.12
   3   1  10   32.56    1.94
   3  -1 -10   32.08    2.23
  -3   1 -10   28.50    2.21
   3  -1 -10   32.00    2.08
  -3   1 -10   31.21    2.09
  -3  -1  10   35.47    2.25
   3  -1 -10   33.70    2.09
   4   1 -10    2.64    1.08
   4  -1  10    3.41    1.07
   4  -1  10    4.70    1.12
  -4  -1 -10    3.38    1.02
   4   1 -10    3.86    1.06
  -4  -1 -10    4.05    1.07
   4  -1 -10    3.73    0.97
  -4  -1  10    3.74    1.06
   4   1  10    4.48    0.95
  -4   1 -10    4.54    1.19
   4  -1 -10    4.52    1.17
  -4  -1  10    4.19    1.01
   4   1  10    4.30    1.21
  -4   1 -10    5.70    1.08
  -5  -1 -10   -0.03    0.84
   5  -1  10   -0.57    0.83
   5   1 -10    1.51    0.96
   5  -1  10    1.85    1.14
   5   1 -10    0.08    1.05
  -5  -1 -10    0.92    0.95
  -5   1 -10    1.17    0.95
   5  -1 -10   -1.10    0.85
  -5   1 -10   -0.46    1.05
  -5  -1  10    0.94    1.06
   5   1  10   -0.02    1.01
   5  -1 -10    0.90    0.96
   5   1  10   -0.75    0.87
   6   1 -10    0.48    1.18
   6   1 -10    1.33    1.27
   6  -1  10    1.88    1.37
   6  -1  10    0.35    1.11
  -6  -1 -10   -1.30    0.93
  -6  -1 -10    2.60    1.42
   6  -1 -10    2.34    1.17
   6   1  10    2.32    1.37
   6  -1 -10    0.14    1.30
  -6  -1  10    1.04    1.17
  -6   1 -10    0.18    1.03
   0  -2 -10   15.19    1.21
   0  -2 -10   15.43    1.20
   0   2  10   17.59    1.48
   0   2 -10   17.04    1.51
   0   2 -10   13.54    1.42
   0  -2 -10   14.72    1.49
   0  -2  10   14.69    1.47
  -1   2  10    7.83    1.03
   1   2 -10    6.97    1.03
   1  -2  10    6.34    1.02
   1   2 -10    5.52    0.98
  -1  -2 -10    6.84    0.98
  -1  -2 -10    5.28    0.97
  -1  -2 -10    8.43    1.02
   1  -2 -10    6.85    0.94
  -1  -2  10    6.41    1.00
   1  -2 -10    6.29    0.94
  -1   2 -10    6.17    1.10
  -1   2 -10    6.61    0.98
   1   2  10    8.63    0.93
   2  -2  10    9.36    1.23
  -2  -2 -10   13.25    1.39
  -2  -2 -10   12.29    1.45
   2   2 -10    9.68    1.28
  -2  -2 -10    7.85    1.12
   2   2 -10   11.41    1.39
   2  -2 -10    9.86    1.20
  -2   2 -10   11.06    1.43
  -2  -2  10    7.79    1.12
   2  -2 -10   13.08    1.47
  -2   2 -10   10.87    1.26
   2  -2 -10    9.34    1.21
   3  -2  10   31.49    1.97
   3  -2  10   28.28    2.04
  -3  -2 -10   27.52    1.98
  -3  -2 -10   31.08    2.14
   3  -2 -10   36.70    2.32
   3  -2 -10   29.05    1.99
  -3  -2  10   29.07    2.12
  -3   2 -10   28.70    2.00
   4  -2  10    7.38    1.37
   4   2 -10    7.31    1.33
  -4  -2 -10    5.04    1.28
   4  -2  10    6.39    1.21
   4   2 -10    5.60    1.16
  -4  -2 -10    5.83    1.23
   4   2  10    7.06    1.46
  -4  -2  10    5.66    1.20
   4  -2 -10    6.99    1.24
   4  -2 -10    5.92    1.34
   5  -2  10    0.04    0.96
   5   2 -10    1.03    0.99
  -5  -2 -10   -0.35    0.89
  -5  -2 -10   -2.18    0.90
   5  -2  10    0.30    1.03
   5   2 -10    3.07    1.26
   5  -2 -10    1.73    1.20
   5   2  10    0.38    1.00
   5  -2 -10   -0.33    0.92
  -5  -2  10    1.22    1.01
  -6  -2 -10   -1.41    0.99
   6  -2  10    0.76    1.24
   6   2 -10    0.22    1.13
  -6  -2 -10    0.23    1.19
   6  -2  10    0.13    1.12
   6   2 -10    0.39    1.39
   6  -2 -10    1.76    1.21
   6  -2 -10    0.34    1.28
   6   2  10    1.27    1.21
  -6  -2  10   -0.34    1.18
   0  -3 -10    5.00    0.93
   0  -3 -10    5.58    0.85
   0  -3  10    4.46    0.89
   0   3  10    6.61    0.90
   0  -3 -10    5.91    0.88
   1   3 -10   14.63    1.49
  -1  -3 -10   15.37    1.48
  -1  -3 -10   15.22    1.46
  -1  -3 -10   12.78    1.42
   1  -3  10   11.51    1.38
   1  -3 -10   13.82    1.33
   1  -3 -10   12.64    1.41
  -1  -3  10   11.21    1.33
  -1   3 -10   11.07    1.51
  -2  -3 -10    2.92    0.83
  -2  -3 -10    5.50    1.08
   2  -3  10    4.97    0.96
  -2  -3 -10    3.53    0.89
   2   3 -10    3.45    0.87
  -2  -3  10    5.23    0.99
   2  -3 -10    3.13    0.80
  -3  -3 -10    6.24    1.24
   3   3 -10    3.52    0.96
  -3  -3 -10    5.53    1.09
  -3  -3 -10    8.46    1.41
   3  -3  10    6.55    1.16
  -3  -3  10    3.87    0.97
   3  -3 -10    4.76    1.01
   3  -3 -10    7.79    1.41
  -3  -3  10    7.35    1.14
   4   3 -10    3.61    1.06
   4  -3  10    2.76    0.92
  -4  -3 -10    1.85    0.88
  -4  -3 -10    5.53    1.23
   4  -3  10    3.61    1.03
   4   3 -10    3.27    1.15
  -4  -3  10    0.85    0.72
   4  -3 -10    3.17    0.97
   4  -3 -10    2.43    1.11
   5  -3  10   -0.69    0.90
  -5  -3 -10    0.83    0.99
   5   3 -10    0.24    0.99
  -5  -3 -10    1.21    1.11
   5  -3  10   -0.52    0.90
   5   3 -10   -0.70    1.16
   5  -3 -10   -0.71    0.98
   5  -3 -10    0.29    1.00
  -5  -3  10   -0.33    0.96
   5   3  10    0.71    1.12
  -6  -3 -10    1.75    1.22
   6  -3  10   -0.49    1.24
   6  -3  10    1.19    1.17
   6   3 -10    1.11    1.35
  -6  -3 -10    0.89    1.41
   6   3  10    0.76    1.36
  -6  -3  10    0.28    1.25
   6  -3 -10   -0.13    1.12
   6  -3 -10   -1.22    1.20
   0  -4  10    9.87    1.29
   0  -4 -10   10.97    1.20
   0  -4 -10   11.69    1.24
   0  -4 -10   10.45    1.30
   1  -4  10    0.19    0.51
  -1  -4 -10    1.10    0.79
  -1  -4 -10    1.52    0.64
  -1  -4 -10    0.92    0.66
   1  -4 -10    1.04    0.62
  -1  -4  10    1.43    0.62
  -2  -4 -10   10.50    1.38
  -2  -4 -10    8.66    1.42
   2  -4  10    7.32    1.19
  -2  -4 -10    9.70    1.39
   2   4 -10    6.52    1.13
  -2  -4  10    7.78    1.23
   2  -4 -10    8.38    1.27
  -3  -4 -10   13.14    1.59
  -3  -4 -10    7.64    1.48
   3  -4  10   10.32    1.41
   3   4 -10    6.02    1.15
  -3  -4 -10    8.51    1.45
   3  -4 -10   11.66    1.67
  -3  -4  10    3.78    0.89
  -3  -4  10    8.42    1.33
  -4  -4 -10    2.98    1.02
   4   4 -10    1.56    1.00
  -4  -4 -10    5.42    1.51
   4  -4  10    2.83    1.08
  -4  -4 -10    0.97    0.97
  -4  -4  10    4.61    1.24
   4  -4 -10    3.64    1.25
  -4  -4  10    6.02    1.24
  -4  -4  10    1.57    0.81
  -5  -4 -10    0.03    0.92
   5  -4  10    0.55    0.93
  -5  -4 -10    4.08    1.38
   5   4 -10   -0.02    1.06
   5  -4 -10   -0.87    1.08
  -5  -4  10    1.61    1.17
  -5  -4  10    0.22    0.79
   6  -4  10    0.54    1.28
  -6  -4 -10   -0.58    1.09
  -6  -4  10    0.36    1.44
   0  -5 -10    5.32    0.98
   0  -5 -10    5.25    1.07
   0  -5  10    5.39    1.06
   1  -5  10    8.91    1.38
  -1  -5 -10    9.66    1.35
  -1  -5 -10    9.36    1.38
   1  -5 -10    8.76    1.25
  -1  -5  10    7.96    1.23
  -2  -5 -10    5.14    1.04
  -2  -5 -10    4.41    1.11
   2  -5  10    5.42    1.13
  -2  -5 -10    3.46    1.15
   2  -5 -10    2.43    0.86
  -2  -5  10    5.10    1.04
   3   5 -10    3.75    1.08
   3  -5  10    3.91    1.07
  -3  -5 -10    4.04    1.17
  -3  -5 -10    3.82    1.37
  -3  -5 -10    6.12    1.25
  -3  -5  10    2.30    0.88
   3  -5 -10    2.54    1.08
  -3  -5  10    3.60    1.17
   4  -5  10    3.00    1.09
  -4  -5 -10    2.80    1.46
  -4  -5 -10    3.95    1.26
   4   5 -10    1.01    1.07
  -4  -5 -10    4.59    1.16
  -4  -5  10    3.86    1.16
   4  -5 -10    4.14    1.36
  -4  -5  10    2.34    1.12
  -5  -5 -10    0.34    1.22
   5   5 -10   -0.64    1.12
  -5  -5 -10    0.51    0.94
   5  -5  10    0.27    1.05
  -5  -5  10    0.05    0.75
   5  -5 -10    1.14    1.23
  -5  -5  10   -1.16    1.04
   0  -6 -10    1.79    0.80
   0  -6 -10    0.85    0.79
   0  -6  10    0.88    0.71
  -1  -6 -10    3.65    0.96
   1  -6  10    3.60    1.00
  -1  -6 -10    2.39    1.00
  -1  -6 -10    4.92    1.10
  -1  -6  10    3.42    0.90
   1  -6 -10    2.04    0.82
  -2  -6 -10   11.08    1.67
  -2  -6 -10   14.27    1.63
  -2  -6 -10   11.53    1.75
   2  -6  10   10.97    1.62
  -2  -6  10   10.71    1.70
   2  -6 -10   11.53    1.51
  -2  -6  10    8.44    1.33
  -3  -6 -10    2.61    1.01
  -3  -6 -10    3.58    1.08
   3  -6  10    2.31    0.93
  -3  -6 -10    2.84    1.37
  -3  -6  10    0.57    0.77
   3  -6 -10    3.21    1.28
  -3  -6  10    3.44    1.20
  -4  -6 -10    0.40    0.90
   4  -6  10    1.47    0.92
  -4  -6 -10    1.12    1.14
  -4  -6 -10    0.16    1.38
  -4  -6  10    0.50    0.78
   4  -6 -10   -2.10    0.96
  -4  -6  10   -0.03    1.15
  -4  -6  10    1.50    1.09
   0  -7  10    0.53    0.62
   0  -7 -10    1.80    0.86
   0  -7 -10    0.44    0.86
  -1  -7 -10   -0.92    0.77
   1  -7  10    1.46    0.81
  -1  -7 -10    0.84    0.89
  -1  -7  10   -0.39    0.56
   1  -7 -10    0.69    0.76
   1  -7 -10    0.81    0.80
  -2  -7 -10    1.24    1.14
   2  -7  10    2.70    1.02
  -2  -7 -10    2.83    1.17
  -2  -7  10    2.58    1.26
   2  -7 -10    2.40    0.98
  -2  -7  10    2.66    0.91
   3  -7  10    0.33    0.77
  -3  -7 -10    1.54    0.97
  -3  -7 -10    1.26    1.17
  -3  -7 -10    0.65    1.30
  -3  -7  10   -0.22    0.72
   3  -7 -10    1.43    1.22
  -3  -7  10   -1.08    1.03
  -4  -7 -10   -1.56    1.44
   4  -7  10   -0.66    0.79
  -4  -7 -10   -0.14    1.08
  -4  -7 -10    0.74    0.95
  -4  -7  10    0.31    0.90
   4  -7 -10    0.74    1.45
  -4  -7  10    0.89    1.18
   0  -8  10    0.24    0.69
   0  -8 -10    0.22    0.92
   0  -8 -10    0.53    0.86
  -1  -8 -10    0.74    0.96
  -1  -8 -10    0.31    1.04
   1  -8  10   -0.09    0.72
  -1  -8  10   -0.29    0.62
  -1  -8  10    0.33    1.06
   1  -8 -10   -0.35    0.87
  -2  -8 -10    0.83    1.19
   2  -8  10    1.04    0.83
  -2  -8 -10    1.27    1.12
   2  -8 -10    1.89    1.08
  -2  -8  10    0.48    1.18
  -2  -8  10    1.00    0.82
   0   0 -11    0.46    0.47
   0   0 -11   -0.07    0.48
   0   0  11   -0.34    0.46
  -1   0 -11    4.01    0.84
  -1   0 -11    2.78    0.85
  -1   0  11    4.61    0.90
  -1   0 -11    2.93    0.75
   1   0 -11    3.32    0.77
   1   0  11    3.28    0.82
   1   0 -11    2.87    0.76
   2   0 -11   36.99    2.07
   2   0 -11   29.12    1.98
  -2   0 -11   28.52    2.04
   2   0  11   26.00    1.86
  -2   0 -11   30.88    2.11
  -2   0 -11   31.89    1.97
   2   0 -11   26.83    1.92
  -2   0  11   28.05    2.04
   3   0  11   42.60    2.38
  -3   0  11   36.85    2.51
  -3   0 -11   34.99    2.55
   3   0 -11   44.34    2.52
  -3   0 -11   40.58    2.45
   3   0 -11   39.65    2.43
   3   0 -11   45.10    2.56
   4   0 -11    1.90    0.89
   4   0  11    4.63    1.27
  -4   0 -11    3.80    1.15
   4   0 -11    3.35    1.11
  -4   0  11    2.52    1.04
   4   0  11    1.44    0.86
  -4   0 -11    2.70    0.92
   5   0  11   -0.73    0.96
  -5   0 -11   -0.19    1.05
   5   0 -11    0.24    0.87
  -5   0 -11    1.91    1.04
   5   0 -11    0.02    1.16
   5   0  11   -0.61    0.95
   6   0 -11    1.66    1.37
   6   0  11    2.18    1.38
  -6   0 -11    0.14    1.07
   6   0 -11    1.52    1.15
  -6   0 -11   -0.33    1.34
   0  -1 -11    4.92    0.91
   0   1  11    4.65    0.85
   0  -1 -11    5.98    0.96
   0   1 -11    6.04    0.99
   0  -1  11    6.32    1.01
   0   1 -11    4.92    0.94
   0  -1 -11    6.94    0.93
   1  -1  11   17.13    1.60
  -1  -1 -11   17.43    1.63
   1   1 -11   16.47    1.62
   1   1 -11   19.15    1.44
  -1   1  11   18.60    1.70
  -1  -1 -11   14.92    1.52
  -1   1 -11   17.07    1.58
  -1  -1  11   15.17    1.54
   1  -1 -11   14.71    1.51
  -1   1 -11   15.85    1.59
   1   1  11   16.09    1.30
   1  -1 -11   15.53    1.55
   2   1 -11    4.17    0.99
  -2  -1 -11    3.65    0.84
  -2   1  11    6.94    1.12
   2  -1  11    3.69    0.95
  -2  -1 -11    5.01    1.08
   2   1 -11    5.69    1.01
   2   1 -11    3.94    0.91
  -2  -1 -11    5.14    1.02
   2   1  11    4.23    0.89
  -2   1 -11    3.79    1.08
  -2  -1  11    3.93    0.95
   2  -1 -11    6.89    1.23
  -2   1 -11    5.14    1.05
   2  -1 -11    4.97    0.98
   2  -1 -11    4.92    1.04
   3  -1  11   12.69    1.51
   3   1 -11   12.86    1.55
  -3   1  11   11.57    1.58
   3  -1  11   16.51    1.63
   3   1 -11   13.11    1.61
  -3  -1 -11   11.66    1.57
  -3  -1 -11   11.62    1.51
   3   1 -11   11.41    1.47
   3  -1 -11   12.49    1.43
   3  -1 -11   14.42    1.58
  -3   1 -11   15.92    1.73
  -3  -1  11   10.16    1.41
   3   1  11   13.51    1.38
   3  -1 -11   14.02    1.71
  -4  -1 -11    8.85    1.51
   4  -1  11   10.33    1.48
  -4  -1 -11   12.34    1.64
   4   1 -11    8.43    1.38
   4   1 -11   12.00    1.70
   4  -1  11   11.18    1.71
   4   1  11   11.90    1.38
   4  -1 -11   12.29    1.79
  -4  -1  11   14.52    1.70
   4  -1 -11   14.87    1.75
   4   1  11   13.35    1.90
  -4   1 -11   14.84    1.64
  -4  -1  11   10.33    1.49
   5   1 -11    1.40    1.04
  -5  -1 -11    0.61    1.14
  -5  -1 -11    3.14    1.08
   5  -1  11   -0.03    0.97
   5   1 -11    1.89    1.30
   5  -1  11    2.03    1.20
  -5  -1  11    0.49    1.10
   5   1  11    0.93    1.07
   5  -1 -11    0.41    1.02
  -5   1 -11   -0.37    0.94
   5  -1 -11    3.03    1.40
  -6  -1 -11    1.34    1.38
   6   1 -11   -0.69    1.13
  -6  -1 -11    0.48    1.15
   6  -1  11   -0.42    1.12
   6   1 -11    0.39    1.41
   6  -1  11    1.00    1.30
  -6  -1  11   -0.27    1.20
   6  -1 -11    0.50    1.12
   6   1  11    0.63    1.36
   6  -1 -11    1.56    1.41
   0   2 -11    6.87    1.03
   0  -2 -11    7.40    1.06
   0  -2 -11    7.58    1.00
   0   2  11    6.42    1.02
   0  -2 -11    6.55    1.03
   0   2 -11    6.04    1.07
   0  -2  11    5.69    0.99
  -1  -2 -11   25.38    1.80
  -1  -2 -11   32.02    1.87
   1  -2  11   30.19    1.95
   1   2 -11   25.15    1.90
   1   2 -11   27.13    1.87
  -1  -2 -11   26.07    1.92
  -1   2  11   26.07    1.81
   1  -2 -11   25.99    1.82
   1  -2 -11   32.45    1.85
  -1   2 -11   27.07    1.80
  -1  -2  11   28.09    1.93
  -1   2 -11   28.91    2.06
  -2  -2 -11   38.49    2.24
   2   2 -11   38.69    2.38
  -2  -2 -11   35.19    2.37
  -2   2  11   36.61    2.32
  -2  -2 -11   35.73    2.31
   2  -2  11   39.21    2.34
   2   2 -11   34.52    2.26
  -2  -2  11   37.86    2.38
  -2   2 -11   36.62    2.47
   2  -2 -11   38.06    2.23
   2  -2 -11   38.33    2.32
  -2   2 -11   35.65    2.21
   2  -2 -11   38.04    2.42
   3  -2  11    2.05    0.80
  -3  -2 -11    1.69    1.01
  -3  -2 -11    0.77    0.74
  -3  -2 -11    2.73    0.86
   3   2 -11    1.16    0.82
   3  -2  11    2.70    0.87
   3  -2 -11    1.53    0.78
   3  -2 -11    2.09    0.97
   3  -2 -11    2.48    0.83
  -3  -2  11    2.02    0.85
   4   2 -11    0.70    0.95
   4  -2  11    0.42    0.91
   4  -2  11   -0.39    0.72
   4   2 -11    0.80    0.83
  -4  -2 -11    0.51    0.79
  -4  -2 -11   -0.54    0.83
   4  -2 -11    0.53    0.92
   4  -2 -11    0.38    0.79
  -4  -2  11   -0.65    0.49
   5  -2  11    4.60    1.31
   5   2 -11    1.95    1.12
   5  -2  11    1.12    1.15
  -5  -2 -11    1.10    1.16
   5   2 -11    0.26    1.16
  -5  -2 -11    0.14    0.97
  -5  -2  11    1.79    1.22
   5   2  11   -0.76    0.99
   5  -2 -11    1.11    1.21
   5  -2 -11    0.32    1.02
  -6  -2 -11   -0.76    1.27
   6   2 -11   -0.65    1.46
   6  -2  11    0.29    1.26
   6   2 -11    0.37    1.25
   6  -2  11   -0.69    1.23
  -6  -2 -11   -0.89    1.13
   6   2  11    0.24    1.43
   6  -2 -11    0.38    1.38
  -6  -2  11   -0.20    1.26
   6  -2 -11    0.10    1.07
   0  -3 -11    0.34    0.52
   0   3  11   -0.05    0.63
   0  -3  11    0.01    0.47
   0  -3 -11   -0.45    0.45
   0   3 -11   -0.39    0.66
   0   3 -11   -0.10    0.60
   0  -3 -11    0.55    0.59
  -1  -3 -11    1.82    0.71
  -1  -3 -11    1.92    0.68
   1   3 -11    0.52    0.67
   1  -3  11    2.07    0.70
  -1  -3 -11    1.44    0.74
  -1  -3  11    0.94    0.53
   1  -3 -11    1.77    0.71
  -1   3 -11    1.26    0.87
   1  -3 -11    0.75    0.62
   2  -3  11    7.68    1.19
  -2  -3 -11    9.81    1.33
  -2  -3 -11    9.98    1.37
  -2  -3 -11    7.38    1.29
   2   3 -11    4.89    1.05
   2  -3 -11    8.80    1.18
  -2  -3  11   10.50    1.42
   2  -3 -11    6.74    1.12
   3  -3  11    9.51    1.45
   3   3 -11    5.94    1.22
  -3  -3 -11   11.04    1.45
  -3  -3 -11    7.56    1.34
  -3  -3 -11    6.52    1.43
   3  -3 -11   10.32    1.33
  -3  -3  11    7.02    1.24
   3  -3 -11    7.98    1.48
   4   3 -11    1.33    0.89
   4  -3  11    0.65    0.82
  -4  -3 -11   -0.26    0.73
   4  -3  11   -0.41    0.70
  -4  -3 -11    1.57    1.01
   4  -3 -11    0.72    0.84
  -4  -3  11    0.38    0.67
   4  -3 -11    1.91    1.03
  -5  -3 -11    1.07    1.04
   5  -3  11    0.84    1.09
   5  -3  11   -0.05    1.03
  -5  -3 -11    0.98    1.27
   5   3 -11   -0.28    1.03
  -5  -3  11   -1.66    1.00
  -5  -3  11    0.59    0.75
   5  -3 -11   -0.76    1.09
   5  -3 -11    1.58    1.11
   6  -3  11   -0.65    2.18
  -6  -3 -11   -0.39    1.35
  -6  -3 -11   -0.40    1.19
   6  -3  11    0.08    1.24
   6  -3 -11   -1.24    1.31
  -6  -3  11    0.02    1.35
   0  -4 -11    2.89    0.89
   0  -4 -11    1.96    0.72
   0  -4 -11    2.25    0.76
   0  -4  11    2.34    0.70
  -1  -4 -11    5.21    1.00
   1  -4  11    6.51    1.16
  -1  -4 -11    4.77    1.04
  -1  -4 -11    4.81    1.08
   1   4 -11    2.02    0.82
   1  -4 -11    4.12    0.86
  -1  -4  11    2.62    0.75
   1  -4 -11    6.61    1.15
  -2  -4 -11    8.87    1.43
  -2  -4 -11   13.76    1.59
   2   4 -11    8.13    1.24
   2  -4  11    9.74    1.41
  -2  -4 -11    9.51    1.40
  -2  -4  11    9.26    1.36
   2  -4 -11    8.74    1.34
  -3  -4 -11    0.20    0.97
  -3  -4 -11    0.65    0.82
   3   4 -11    1.75    0.89
  -3  -4 -11    0.20    0.78
   3  -4  11    1.88    0.90
   3  -4 -11    3.09    1.16
  -3  -4  11    1.27    0.74
  -3  -4  11    0.27    0.82
   4   4 -11    3.11    1.14
   4  -4  11    2.12    0.95
  -4  -4 -11    3.94    1.18
  -4  -4 -11    2.67    1.20
   4  -4 -11    5.39    1.39
  -4  -4  11    2.51    1.02
  -4  -4  11    4.00    1.56
  -5  -4 -11    1.69    1.05
  -5  -4 -11    0.70    1.27
   5   4 -11    3.72    1.43
   5  -4  11   -0.18    1.06
   5  -4 -11    1.75    1.22
  -5  -4  11    1.07    1.16
  -5  -4  11    1.58    0.87
   0  -5  11    3.21    0.91
   0  -5 -11    4.59    1.06
   0  -5 -11    5.77    1.03
   1  -5  11    1.01    0.72
  -1  -5 -11    0.11    0.71
  -1  -5 -11    0.64    0.78
  -1  -5 -11    1.19    0.76
   1  -5 -11    0.45    0.70
  -1  -5  11    2.41    0.81
  -2  -5 -11    1.35    1.04
  -2  -5 -11    0.80    0.79
   2  -5  11    0.72    0.71
  -2  -5 -11    0.37    0.79
  -2  -5  11    0.52    0.70
   2  -5 -11    1.29    0.78
  -3  -5 -11   -0.50    0.77
  -3  -5 -11    0.64    0.87
  -3  -5 -11   -0.73    1.14
   3  -5  11    0.60    0.83
   3   5 -11    1.85    1.02
   3  -5 -11   -0.82    0.94
  -3  -5  11   -0.10    0.95
  -3  -5  11    0.25    0.66
  -4  -5 -11    0.68    0.91
   4   5 -11    1.66    1.14
   4  -5  11    1.47    0.97
  -4  -5 -11    0.68    1.33
  -4  -5 -11    1.14    1.11
   4  -5 -11    2.46    1.28
  -4  -5  11   -0.04    1.01
  -4  -5  11    0.58    0.81
  -5  -5 -11   -1.01    1.06
  -5  -5 -11    0.45    1.19
   5  -5  11    2.28    1.26
   5   5 -11   -0.97    1.10
  -5  -5  11    1.45    0.97
  -5  -5  11   -0.98    1.14
   5  -5 -11    1.18    1.29
   0  -6 -11    0.73    0.76
   0  -6 -11    0.03    0.73
   0  -6  11   -0.04    0.53
   1  -6  11   -0.22    0.58
  -1  -6 -11   -0.39    0.84
  -1  -6 -11    1.19    0.90
   1  -6 -11   -0.33    0.66
  -1  -6  11    1.03    0.62
  -2  -6 -11    1.62    1.16
   2  -6  11    0.91    0.76
  -2  -6 -11    3.57    1.07
  -2  -6 -11    3.35    1.13
  -2  -6  11    0.92    0.98
   2  -6 -11    2.27    0.94
  -2  -6  11    3.04    0.94
  -3  -6 -11    3.57    1.18
   3  -6  11    3.09    1.10
  -3  -6 -11    2.00    1.20
  -3  -6 -11    1.53    1.04
   3  -6 -11    2.72    1.19
  -3  -6  11    0.22    1.03
  -3  -6  11    1.26    0.77
  -4  -6 -11    0.93    1.49
  -4  -6 -11    0.39    0.98
  -4  -6 -11    1.11    1.20
   4  -6  11   -0.69    0.76
  -4  -6  11    0.89    1.13
  -4  -6  11    0.43    1.15
  -4  -6  11   -0.98    0.72
   4  -6 -11    0.36    1.22
   0  -7  11    0.02    0.64
   0  -7 -11   -1.21    0.65
   0  -7 -11    0.23    0.83
  -1  -7 -11    0.54    0.97
   1  -7  11    1.11    0.81
  -1  -7 -11    0.99    1.01
  -1  -7  11    1.29    0.78
   1  -7 -11    1.77    0.89
  -2  -7 -11    0.83    1.03
  -2  -7 -11    1.71    1.24
   2  -7  11    1.51    0.84
  -2  -7 -11    0.53    1.01
   2  -7 -11    2.64    0.98
  -2  -7  11    2.28    0.86
  -2  -7  11   -0.47    1.07
   3  -7  11   -0.63    0.77
  -3  -7 -11   -0.83    0.99
  -3  -7 -11    0.57    1.38
  -3  -7 -11    0.32    1.02
  -3  -7  11    0.33    1.26
   3  -7 -11    2.93    1.47
  -3  -7  11    0.04    0.79
   0  -8 -11   -0.07    0.99
   0  -8 -11    0.13    0.93
  -1  -8 -11    2.34    1.25
   1  -8  11    0.59    0.79
  -1  -8 -11    0.91    1.08
  -1  -8  11    0.57    0.78
  -1  -8  11    1.65    1.10
   1  -8 -11   -0.47    0.85
  -2  -8 -11    0.88    1.38
  -2  -8 -11    1.03    1.18
   2  -8  11    0.35    0.82
   2  -8 -11    1.97    1.52
  -2  -8  11    1.13    1.29
  -2  -8  11    0.41    0.79
   2  -8 -11    0.99    1.05
   0   0  12    5.54    1.02
   0   0 -12    7.04    1.08
   0   0 -12    5.61    0.99
   1   0  12    1.47    0.79
  -1   0 -12    2.18    0.75
   1   0 -12    2.04    0.75
  -1   0  12    3.26    0.92
   1   0 -12    2.91    0.83
  -1   0 -12    1.89    0.86
   2   0  12   56.63    2.95
   2   0 -12   54.73    3.00
   2   0 -12   55.48    3.03
  -2   0 -12   56.46    3.11
   2   0 -12   50.94    2.91
  -2   0  12   55.56    3.12
  -2   0 -12   58.31    3.15
  -2   0 -12   57.69    3.00
  -3   0 -12    3.07    0.98
  -3   0 -12    2.70    0.99
   3   0 -12    1.89    0.91
   3   0 -12    3.27    1.06
   3   0 -12    1.93    0.79
   3   0  12    2.65    0.90
  -3   0  12    4.81    1.09
  -4   0 -12    0.68    0.90
  -4   0  12    0.13    0.91
   4   0 -12    1.08    1.04
  -4   0 -12    0.28    0.91
   4   0  12    0.84    0.79
   4   0 -12   -0.13    0.80
   4   0  12    2.12    1.10
   5   0  12    2.10    1.08
  -5   0 -12    1.37    1.04
  -5   0 -12    2.03    1.30
   5   0 -12    2.16    1.10
   5   0  12    2.35    1.26
   5   0 -12    0.62    1.30
  -6   0  12   -0.52    1.25
   6   0  12   -0.73    1.28
   6   0 -12    0.68    1.12
   6   0 -12   -0.22    1.41
  -6   0 -12    0.47    1.22
  -6   0 -12    0.51    1.47
   0  -1 -12    0.17    0.53
   0  -1  12    0.25    0.57
   0   1 -12    0.06    0.63
   0  -1 -12    0.32    0.54
   0   1 -12   -0.13    0.54
   0  -1 -12    0.27    0.62
   0   1  12   -0.39    0.62
  -1   1  12    6.66    1.13
  -1  -1 -12    4.50    0.95
  -1  -1 -12    4.40    0.91
   1   1 -12    2.45    0.78
   1  -1  12    3.64    0.90
  -1  -1 -12    4.89    1.04
   1   1 -12    4.55    1.00
  -1   1 -12    3.93    1.07
  -1   1 -12    5.16    1.03
   1  -1 -12    3.40    0.86
  -1  -1  12    2.93    0.85
   1   1  12    3.85    0.92
   1  -1 -12    4.18    0.93
  -2   1  12    9.72    1.37
   2  -1  12   10.98    1.43
   2   1 -12    9.85    1.36
   2   1 -12   11.86    1.49
  -2  -1 -12    7.33    1.31
  -2  -1 -12    8.33    1.32
  -2  -1 -12   15.15    1.63
   2  -1 -12   10.49    1.37
   2  -1 -12   10.92    1.43
  -2   1 -12   15.12    1.61
   2   1  12   12.66    1.36
  -2   1 -12   10.62    1.57
  -2  -1  12   10.63    1.43
   3  -1  12    4.83    1.07
  -3  -1 -12    4.37    1.13
   3   1 -12    4.77    1.11
  -3  -1 -12    2.99    0.97
   3   1 -12    2.09    0.96
  -3   1  12    4.26    1.07
   3   1 -12    3.30    0.95
  -3   1 -12    2.42    0.94
   3  -1 -12    4.05    1.02
  -3  -1  12    4.40    1.05
   3  -1 -12    3.88    1.13
   3   1  12    3.30    0.96
   3  -1 -12    3.68    1.01
   4   1 -12   10.53    1.69
   4  -1  12   10.78    1.52
   4   1 -12    5.96    1.24
  -4  -1 -12    9.06    1.43
   4  -1  12   11.83    1.72
  -4  -1 -12   11.73    1.78
   4  -1 -12    7.77    1.45
  -4  -1  12   10.66    1.55
   4  -1 -12   12.17    1.84
  -4   1 -12   10.98    1.59
   4   1  12   10.74    1.41
   5   1 -12    0.79    1.01
  -5  -1 -12    1.34    1.17
  -5  -1 -12    1.33    1.20
   5   1 -12    2.07    1.38
   5  -1  12    0.78    0.99
   5  -1  12    1.41    1.19
   5  -1 -12    2.21    1.19
  -5  -1  12    1.36    1.19
   5   1  12    2.52    1.36
   5  -1 -12    3.80    1.53
  -5   1 -12    1.55    1.03
   6   1 -12    0.92    1.47
  -6  -1 -12   -0.59    1.14
   6  -1  12    1.48    1.50
  -6  -1 -12   -0.48    1.25
   6  -1  12    0.52    1.19
   6   1 -12    3.06    1.36
   6  -1 -12    0.72    1.14
  -6  -1  12   -0.97    1.27
   6  -1 -12   -2.03    1.31
   6   1  12    0.74    1.40
   0  -2 -12    3.83    0.87
   0   2  12    2.44    0.83
   0  -2  12    3.32    0.90
   0  -2 -12    2.55    0.78
   0   2 -12    2.65    0.89
   0  -2 -12    3.62    0.78
   0   2 -12    2.53    0.81
   1   2 -12   19.12    1.91
   1   2 -12   19.60    1.81
  -1  -2 -12   19.87    1.83
   1  -2  12   18.23    1.81
  -1  -2 -12   20.96    1.95
  -1   2  12   21.51    1.89
  -1  -2 -12   20.69    1.63
  -1  -2  12   23.65    1.75
  -1   2 -12   16.27    1.85
   1  -2 -12   21.76    1.63
  -1   2 -12   18.98    1.77
   1  -2 -12   14.75    1.60
   1   2  12   19.09    1.51
  -2  -2 -12    6.58    1.18
   2   2 -12    4.30    1.00
   2  -2  12    3.71    0.97
  -2  -2 -12    4.13    1.12
  -2   2  12    2.76    0.96
  -2  -2 -12    6.05    1.13
   2   2 -12    4.71    1.01
  -2  -2  12    4.33    0.97
   2  -2 -12    4.94    1.21
   2  -2 -12    2.85    0.93
   2  -2 -12    4.40    1.01
  -2   2 -12    5.43    1.09
   2   2  12    5.62    0.95
  -2   2 -12    3.66    1.11
  -3  -2 -12    6.09    1.28
  -3  -2 -12    5.03    1.14
   3  -2  12    6.62    1.24
  -3  -2 -12    6.53    1.31
   3   2 -12    4.30    1.05
   3  -2 -12    6.30    1.17
  -3   2 -12    6.88    1.29
   3  -2 -12    5.37    1.14
  -3  -2  12    5.79    1.18
   3  -2 -12    7.27    1.46
  -4  -2 -12    1.21    0.98
   4   2 -12    1.73    1.04
   4  -2  12    2.37    1.09
   4  -2  12    1.92    0.99
   4   2 -12    2.35    1.12
  -4  -2 -12    3.98    1.09
  -4  -2  12    0.69    0.75
   4  -2 -12    2.93    1.08
   4  -2 -12    2.98    1.01
  -5  -2 -12   -0.88    0.81
   5   2 -12    0.78    1.54
  -5  -2 -12    0.99    1.19
   5   2 -12    1.05    1.00
   5  -2  12    0.16    1.04
   5  -2  12   -0.63    0.94
   5  -2 -12    2.32    1.02
   5  -2 -12   -0.39    1.18
  -5  -2  12   -0.42    1.04
   6  -2  12    2.21    1.44
   6  -2  12   -0.04    1.20
  -6  -2  12   -0.28    1.37
   6   2  12    2.19    1.57
   0  -3 -12    0.66    0.60
   0  -3 -12   -0.49    0.53
   0   3 -12    0.01    0.63
   0   3 -12    0.41    0.81
   0  -3 -12    1.11    0.65
   0  -3  12    0.02    0.52
   0   3  12    0.40    0.70
  -1  -3 -12    2.76    0.86
  -1  -3 -12    1.18    0.72
   1  -3  12    2.71    0.90
   1   3 -12    2.82    0.87
  -1  -3 -12    2.44    0.96
  -1  -3  12    1.80    0.70
   1  -3 -12    1.67    0.67
   1  -3 -12    3.12    0.86
  -1   3 -12    2.58    0.80
  -1   3 -12    1.21    1.00
   2   3 -12    0.86    0.71
  -2  -3 -12    4.24    1.18
  -2  -3 -12    2.83    0.85
   2  -3  12    3.60    0.95
  -2  -3 -12    3.11    0.95
  -2  -3  12    2.29    0.88
  -2   3 -12    4.55    1.34
   2  -3 -12    2.91    0.88
   2  -3 -12    3.65    0.93
  -3  -3 -12    4.12    1.37
   3   3 -12    2.43    1.03
  -3  -3 -12    2.92    1.02
  -3  -3 -12    8.15    1.33
   3  -3  12    7.21    1.26
  -3  -3  12    4.88    1.14
   3  -3 -12    4.56    1.33
   3  -3 -12    3.26    1.06
  -4  -3 -12   -0.37    1.23
   4   3 -12    1.33    1.01
  -4  -3 -12    1.29    0.92
  -4  -3 -12   -1.04    0.86
   4  -3  12    0.54    0.83
   4  -3 -12    0.03    0.91
   4  -3 -12    0.26    1.01
  -4  -3  12    0.65    0.67
  -5  -3 -12    2.23    1.47
   5   3 -12    1.36    1.27
   5  -3  12    2.49    1.17
  -5  -3 -12    5.92    1.48
  -5  -3  12    4.34    1.48
   5  -3 -12    3.92    1.56
   5  -3 -12    2.38    1.21
  -5  -3  12    0.97    0.72
   0  -4 -12    1.50    0.80
   0  -4  12    1.37    0.68
   0  -4 -12    2.23    0.78
   0  -4 -12    1.28    0.80
  -1  -4 -12   12.22    1.50
   1   4 -12   10.34    1.34
  -1  -4 -12   14.52    1.78
   1  -4  12   14.96    1.76
  -1  -4 -12   15.60    1.61
  -1  -4  12   15.00    1.68
   1  -4 -12   11.36    1.53
   1  -4 -12   19.81    1.80
   2  -4  12    2.68    0.97
  -2  -4 -12    1.22    0.86
   2   4 -12    0.42    0.83
  -2  -4 -12    0.71    0.93
  -2  -4 -12    2.25    0.87
  -2  -4  12    0.70    0.62
   2  -4 -12    1.90    0.83
  -3  -4 -12    1.53    0.89
   3  -4  12    0.83    0.89
  -3  -4 -12    0.71    0.94
  -3  -4 -12    2.22    1.33
   3   4 -12    0.46    0.85
   3  -4 -12    1.20    0.96
  -3  -4  12    0.67    0.67
   3  -4 -12    0.36    0.84
  -3  -4  12    1.90    1.05
  -4  -4 -12    0.19    0.96
   4   4 -12    0.60    0.96
   4  -4  12   -1.13    0.72
  -4  -4 -12    3.59    1.23
  -4  -4 -12    3.19    1.45
   4  -4 -12    2.75    1.15
  -4  -4  12    0.58    0.68
   4  -4 -12    1.89    1.32
  -5  -4 -12    0.29    1.16
  -5  -4 -12    1.62    1.31
   5   4 -12    1.54    1.36
   5  -4  12    1.18    1.09
  -5  -4  12   -0.10    1.11
   5  -4 -12    0.66    1.31
  -5  -4  12   -0.02    0.79
   0  -5 -12   21.42    1.90
   0  -5 -12   17.77    1.96
   0  -5 -12   21.09    1.71
   0  -5  12   20.62    2.04
  -1  -5 -12    1.04    0.78
   1  -5  12   -0.06    0.64
  -1  -5 -12    0.37    0.75
  -1  -5 -12    0.50    0.81
  -1  -5  12    0.28    0.61
   1  -5 -12   -0.25    0.62
  -2  -5 -12    2.87    1.23
  -2  -5 -12    0.75    0.88
  -2  -5 -12    3.29    1.06
   2  -5  12    3.88    1.12
  -2  -5  12    1.74    0.87
   2  -5 -12    0.75    0.86
   3   5 -12    0.73    1.01
  -3  -5 -12    2.35    1.01
  -3  -5 -12    1.31    1.09
  -3  -5 -12    2.70    1.23
   3  -5  12    2.01    1.02
   3  -5 -12    1.40    1.04
  -3  -5  12    2.37    1.18
  -3  -5  12    1.12    0.74
   4  -5  12    1.16    1.01
  -4  -5 -12    1.82    1.20
  -4  -5 -12    1.99    1.53
   4   5 -12    2.85    1.27
  -4  -5 -12    2.15    1.18
  -4  -5  12    1.20    0.91
   4  -5 -12    2.63    1.39
   0  -6  12    0.37    0.63
   0  -6 -12    1.86    0.89
   0  -6 -12    1.39    0.81
   1  -6  12    1.10    0.81
  -1  -6 -12    0.67    0.89
  -1  -6 -12    1.07    1.01
  -1  -6 -12    0.69    0.88
   1  -6 -12    3.37    1.05
  -1  -6  12    2.45    0.82
  -2  -6 -12    0.75    1.00
   2  -6  12    0.76    0.83
  -2  -6 -12    2.74    1.09
  -2  -6 -12    2.84    1.36
  -2  -6  12   -0.02    0.73
  -2  -6  12    0.76    1.08
   2  -6 -12    1.17    0.92
  -3  -6 -12    1.15    1.02
   3  -6  12    0.92    0.93
  -3  -6 -12    2.19    1.17
  -3  -6 -12    0.20    1.35
   3  -6 -12    2.40    1.32
  -3  -6  12    2.62    0.95
  -3  -6  12   -0.88    1.09
   4  -6  12   -0.61    0.98
  -4  -6 -12    0.21    1.55
  -4  -6 -12    0.15    1.20
  -4  -6 -12    0.33    1.06
   4  -6 -12   -0.76    1.26
  -4  -6  12    0.46    1.15
  -4  -6  12    0.76    0.97
   0  -7  12    1.32    0.76
   0  -7 -12    1.60    1.05
   0  -7 -12   -0.12    0.88
  -1  -7 -12    2.35    1.18
   1  -7  12    1.17    0.91
  -1  -7 -12    2.99    1.12
  -1  -7  12    0.98    0.74
   1  -7 -12    0.49    0.82
   2  -7  12   -0.05    0.74
  -2  -7 -12   -0.40    1.00
  -2  -7 -12   -0.46    1.26
  -2  -7  12   -0.43    1.11
  -2  -7  12   -0.83    0.62
   2  -7 -12    0.36    0.94
  -3  -7 -12    1.85    1.22
  -3  -7 -12   -0.40    1.18
   3  -7  12   -0.47    0.87
  -3  -7 -12    1.87    1.59
   3  -7 -12    0.86    1.10
  -3  -7  12    1.08    1.37
   3  -7 -12    0.31    1.25
  -3  -7  12    0.55    0.83
   0  -8  12    0.62    0.82
   0  -8 -12    0.48    1.07
  -1  -8 -12   -1.90    1.08
   1  -8  12   -0.16    0.79
   1  -8 -12    2.66    1.07
  -1  -8  12    0.41    0.80
   0   0 -13    0.46    0.67
   0   0  13    0.61    0.69
   0   0 -13   -0.21    0.62
  -1   0 -13    1.75    0.78
   1   0 -13   -0.46    0.61
   1   0 -13    0.13    0.60
   1   0  13   -0.27    0.62
  -1   0  13    0.21    0.64
  -1   0 -13    0.57    0.82
  -2   0 -13    3.55    0.94
   2   0 -13    2.15    0.81
  -2   0 -13    3.81    1.08
   2   0 -13    3.15    1.02
   2   0 -13    3.68    0.93
   2   0  13    2.33    0.88
  -2   0 -13    3.56    0.94
  -2   0  13    1.75    0.82
  -3   0 -13    0.80    1.08
  -3   0 -13   -0.25    0.70
   3   0 -13    0.50    0.80
   3   0  13   -0.75    0.72
  -3   0  13    0.83    0.80
   3   0 -13    0.58    0.74
   3   0 -13    1.44    0.95
  -3   0 -13    1.62    0.91
   4   0 -13    2.78    1.24
  -4   0 -13    1.73    1.12
  -4   0 -13    3.13    1.08
   4   0  13    2.65    1.06
   4   0 -13    0.31    0.92
  -5   0 -13    1.74    1.19
   5   0 -13    0.04    1.15
   5   0 -13    0.66    1.33
   5   0  13    1.06    1.28
   0  -1 -13   11.86    1.42
   0   1 -13   10.91    1.48
   0   1  13   12.28    1.41
   0  -1  13   11.44    1.48
   0   1 -13    9.26    1.31
   0  -1 -13   10.02    1.40
   1   1 -13    1.45    0.75
   1  -1  13    5.63    1.08
   1   1 -13    3.84    0.98
  -1  -1 -13    3.44    0.93
  -1  -1 -13    3.47    1.08
  -1   1  13    5.31    1.17
  -1  -1 -13    3.88    1.01
   1  -1 -13    3.60    0.97
  -1  -1  13    2.48    0.88
   1  -1 -13    4.06    0.96
  -1   1 -13    2.67    1.02
   1   1  13    5.56    1.04
  -1   1 -13    4.14    1.02
  -2   1  13    2.07    0.86
   2  -1  13    1.19    0.93
   2   1 -13    1.99    0.81
  -2  -1 -13    0.36    0.71
   2   1 -13    1.58    0.81
  -2  -1 -13    2.75    1.08
  -2  -1 -13    2.23    0.85
  -2   1 -13    0.88    0.97
   2   1  13    2.78    0.87
  -2  -1  13    2.67    0.90
   2  -1 -13    2.82    0.88
   2  -1 -13    3.04    1.05
  -2   1 -13    2.08    0.88
   2  -1 -13    1.05    0.84
   3  -1  13    2.46    0.94
   3   1 -13    2.65    1.01
  -3  -1 -13    2.15    1.27
   3   1 -13    1.24    0.84
  -3  -1 -13    1.38    0.88
  -3   1  13    3.79    1.09
   3   1 -13    1.19    0.88
   3  -1 -13    1.86    0.87
   3  -1 -13    1.56    0.88
  -3   1 -13    1.20    0.84
  -3  -1  13    1.81    0.84
   3   1  13    1.03    0.83
   3  -1 -13    1.31    0.97
   4  -1  13    2.72    1.06
   4   1 -13    2.19    1.05
   4   1 -13    1.06    1.16
  -4  -1 -13    1.01    0.90
  -4  -1 -13    1.85    0.94
  -4   1 -13    1.72    1.02
   4   1  13    2.84    1.71
   4  -1 -13    1.62    1.18
   4  -1 -13    2.33    1.10
  -4  -1  13    0.37    0.75
  -5  -1 -13    0.31    1.12
   5  -1  13    0.74    1.33
   5  -1  13    0.05    1.02
   5   1 -13   -0.55    1.27
   5   1 -13    0.16    1.07
  -5  -1 -13   -0.24    0.99
   5  -1 -13   -0.11    1.29
   5  -1 -13    1.07    1.10
  -5  -1  13   -0.64    1.12
  -5   1 -13   -0.15    1.02
   0  -2  13    8.25    1.41
   0   2 -13    7.27    1.25
   0   2 -13    6.54    1.16
   0   2  13    6.99    1.17
   0  -2 -13    5.02    1.06
   0  -2 -13    7.08    1.11
   0  -2 -13    5.46    1.12
   1   2 -13   11.37    1.54
  -1   2  13   12.79    1.52
  -1  -2 -13   13.04    1.46
  -1  -2 -13   13.51    1.54
  -1  -2 -13   10.12    1.46
   1  -2  13   14.90    1.72
   1   2 -13   12.34    1.51
  -1   2 -13   11.30    1.47
  -1  -2  13   11.73    1.57
  -1   2 -13   11.45    1.65
   1   2  13   14.05    1.41
   1  -2 -13   13.97    1.61
   1  -2 -13    7.96    1.30
  -2   2  13    2.48    0.95
  -2  -2 -13    1.17    0.76
   2   2 -13    0.51    0.75
   2   2 -13    0.22    0.64
  -2  -2 -13    0.39    0.76
  -2  -2 -13    2.61    1.04
   2  -2  13    1.93    0.89
   2  -2 -13    3.04    0.98
   2  -2 -13    0.97    0.79
   2   2  13    1.17    0.74
  -2  -2  13    2.30    0.87
  -2   2 -13    2.31    1.10
   2  -2 -13    1.95    0.96
  -2   2 -13    1.45    0.90
  -3  -2 -13    1.19    0.89
   3  -2  13    1.01    0.85
   3   2 -13    0.17    0.79
  -3  -2 -13    1.11    0.85
  -3  -2 -13    0.97    1.11
  -3  -2  13   -0.14    0.63
   3  -2 -13    1.00    0.84
  -3   2 -13    1.65    0.90
   3  -2 -13    0.51    0.98
   3  -2 -13    2.45    1.00
   4   2 -13    1.35    0.97
  -4  -2 -13    3.11    1.19
   4  -2  13    2.72    1.08
  -4  -2 -13    4.14    1.23
   4  -2 -13    3.56    1.29
   4  -2 -13    2.20    1.04
  -4  -2  13    3.31    1.04
   5  -2  13    0.43    1.32
   5   2 -13    0.78    1.11
   5  -2  13    0.91    1.05
  -5  -2 -13    1.16    1.18
  -5  -2 -13   -0.81    0.99
  -5  -2  13   -1.32    1.05
   5  -2 -13   -0.91    1.02
   5  -2 -13    0.08    1.32
   0   3 -13   30.99    2.39
   0  -3 -13   32.89    2.30
   0   3  13   30.88    2.10
   0  -3 -13   35.86    2.24
   0   3 -13   27.57    2.10
   0  -3 -13   34.88    2.14
   0  -3  13   32.93    2.31
  -1  -3 -13    3.55    0.96
  -1   3  13    2.54    0.96
   1   3 -13    2.26    0.90
   1  -3  13    3.08    1.01
  -1  -3 -13    5.34    1.15
  -1  -3 -13    1.49    0.94
  -1   3 -13    2.75    0.90
  -1   3 -13    2.55    1.13
  -1  -3  13    1.44    0.78
   1  -3 -13    4.79    1.04
   1  -3 -13    1.42    0.73
   1   3  13    2.05    0.83
   2  -3  13    0.56    0.79
  -2  -3 -13    0.74    1.03
  -2  -3 -13    1.42    0.78
   2   3 -13    1.03    0.82
  -2  -3 -13    0.96    0.83
  -2   3 -13    0.35    1.06
  -2  -3  13    0.36    0.69
   2  -3 -13    0.51    0.66
   2  -3 -13    0.82    0.68
   2  -3 -13    1.41    0.96
   3  -3  13    3.94    1.11
   3   3 -13    1.35    0.99
  -3  -3 -13    0.72    1.12
  -3  -3 -13    0.68    0.84
  -3  -3 -13    2.41    1.13
  -3  -3  13    0.10    0.74
   3  -3 -13    0.21    0.85
   3  -3 -13    1.96    1.00
   3  -3 -13    4.67    1.28
   4  -3  13    1.11    1.01
  -4  -3 -13    1.30    1.01
   4   3 -13    2.61    1.19
  -4  -3 -13    3.90    1.40
  -4  -3  13    0.67    0.71
   4  -3 -13    3.39    1.38
   4  -3 -13    1.53    1.06
  -5  -3 -13    4.35    1.44
   5   3 -13    0.82    1.26
   5  -3  13    6.82    1.61
  -5  -3 -13    4.94    1.58
  -5  -3  13    4.08    1.49
   5  -3 -13    2.45    1.56
   5  -3 -13    1.37    1.27
  -5  -3  13    2.81    1.10
   0  -4 -13    3.80    0.99
   0  -4  13    2.74    0.95
   0  -4 -13    4.90    1.21
   0  -4 -13    3.56    0.93
  -1  -4 -13   12.86    1.54
  -1  -4 -13    9.94    1.40
   1  -4  13   11.27    1.58
   1   4 -13    9.55    1.39
   1  -4 -13   10.85    1.52
   1  -4 -13   12.97    1.51
  -1  -4  13    9.41    1.47
  -2  -4 -13    2.89    1.01
   2  -4  13    1.26    0.94
   2   4 -13    2.08    0.97
  -2  -4 -13    1.15    0.84
  -2  -4 -13    0.82    1.05
   2  -4 -13    0.67    0.80
   2  -4 -13    1.72    0.89
  -2  -4  13    2.28    0.90
   3   4 -13   -0.97    0.82
  -3  -4 -13   -0.82    1.21
  -3  -4 -13    0.42    0.87
   3  -4  13    1.62    1.00
  -3  -4 -13    0.12    0.81
   3  -4 -13    0.07    0.78
   3  -4 -13   -0.74    0.89
  -3  -4  13   -0.59    0.57
  -3  -4  13   -0.06    0.99
   3  -4 -13   -0.55    0.87
  -4  -4 -13    1.86    1.10
   4  -4  13    0.75    0.99
   4   4 -13    1.02    1.13
  -4  -4 -13    0.59    1.08
  -4  -4 -13   -0.35    1.43
  -4  -4  13   -0.14    0.66
   4  -4 -13   -0.26    1.13
   5  -4  13   -0.92    1.07
  -5  -4  13    0.25    1.22
  -5  -4  13    0.29    0.82
   0  -5  13   -0.42    0.60
   0  -5 -13    0.54    0.81
   0  -5 -13    0.41    0.76
   0  -5 -13    0.54    0.77
  -1  -5 -13   -0.37    0.77
  -1  -5 -13    1.23    0.91
   1  -5  13   -0.04    0.75
  -1  -5 -13    2.30    1.07
   1  -5 -13    0.49    0.75
  -1  -5  13    0.35    0.68
   1  -5 -13    1.07    0.85
  -2  -5 -13    0.44    1.13
  -2  -5 -13   -0.02    0.87
  -2  -5 -13    1.20    0.93
   2  -5  13   -1.05    0.71
  -2  -5  13    0.45    0.73
   2  -5 -13   -0.24    0.76
  -3  -5 -13   -0.32    0.95
   3   5 -13   -0.22    0.93
  -3  -5 -13   -0.32    1.24
   3  -5  13    0.69    0.97
  -3  -5 -13    2.28    1.21
   3  -5 -13   -0.62    0.77
  -3  -5  13    2.96    1.27
   3  -5 -13    0.21    1.12
  -3  -5  13    0.29    0.70
   4   5 -13   -0.87    1.02
  -4  -5 -13    1.85    1.24
  -4  -5 -13    0.71    1.23
   4  -5  13    0.35    1.00
  -4  -5 -13    1.26    1.63
  -4  -5  13    1.61    1.01
   4  -5 -13    0.13    1.19
   0  -6  13    2.74    0.94
   0  -6 -13    3.87    1.18
   0  -6 -13    3.99    1.08
   0  -6 -13    3.64    1.18
   1  -6  13    5.03    1.31
  -1  -6 -13    3.14    1.15
  -1  -6 -13    2.34    0.99
  -1  -6 -13    2.70    1.20
  -1  -6  13    3.82    1.11
   1  -6 -13    3.35    1.09
  -2  -6 -13    0.30    0.92
  -2  -6 -13    0.86    1.13
  -2  -6 -13    0.36    0.94
   2  -6  13   -0.04    0.77
   2  -6 -13    2.01    1.03
  -2  -6  13    0.80    0.86
  -3  -6 -13    1.72    1.09
  -3  -6 -13   -0.57    1.37
   3  -6  13    0.87    1.04
  -3  -6 -13   -1.01    0.95
  -3  -6  13    0.52    1.31
  -3  -6  13    1.27    0.91
   3  -6 -13   -0.42    1.17
   0  -7  13    3.52    1.08
   0  -7 -13    2.65    1.16
   0  -7 -13    4.40    1.61
  -1  -7 -13    1.32    1.17
  -1  -7 -13    2.44    1.20
   1  -7  13   -0.01    0.81
  -1  -7  13    1.62    0.88
   1  -7 -13   -0.09    0.91
  -2  -7 -13   -0.51    1.39
  -2  -7 -13    0.48    1.11
  -2  -7 -13    1.12    1.13
   2  -7  13    0.89    0.94
  -2  -7  13    0.54    0.87
   2  -7 -13    1.83    1.15
  -2  -7  13    6.16    1.64
   0   0  14   34.90    2.36
   0   0 -14   35.83    2.33
   0   0 -14   32.18    2.39
  -1   0 -14    0.17    0.73
   1   0 -14    0.01    0.71
   1   0  14    0.48    0.79
  -1   0  14   -0.10    0.69
  -1   0 -14   -0.41    0.84
   1   0 -14   -0.29    0.66
  -2   0 -14    2.10    0.99
   2   0  14    2.01    0.94
   2   0 -14    1.77    0.89
  -2   0  14    4.72    1.13
   2   0 -14    2.62    1.06
   2   0 -14    3.57    1.04
  -2   0 -14    3.93    1.20
   3   0 -14   -0.34    0.73
  -3   0 -14    1.06    0.80
   3   0  14    0.10    0.88
  -3   0 -14    1.18    0.97
   3   0 -14    1.26    0.89
   3   0 -14   -0.04    0.95
  -3   0  14    0.97    0.87
   4   0  14    0.56    0.99
   4   0 -14    0.71    1.20
  -4   0 -14   -0.48    0.92
   4   0 -14   -0.32    0.81
  -4   0  14   -1.27    0.65
  -4   0 -14   -1.41    0.80
  -5   0 -14    4.02    1.50
   5   0 -14    0.88    1.43
  -5   0 -14   -0.29    1.16
   5   0 -14    0.51    1.24
  -5   0  14   -0.84    1.25
   0   1 -14    1.21    0.73
   0   1 -14    3.08    1.06
   0  -1 -14    3.62    1.03
   0  -1 -14    1.49    0.85
   0   1  14    2.59    0.90
   0  -1  14    2.70    0.93
   1  -1  14    6.66    1.25
  -1   1  14   14.23    1.66
  -1  -1 -14   11.08    1.42
   1   1 -14    8.06    1.26
  -1  -1 -14    6.11    1.24
   1   1 -14    6.26    1.25
  -1  -1 -14    6.26    1.31
   1   1  14    8.35    1.25
   1  -1 -14    9.39    1.37
  -1   1 -14    7.79    1.36
   1  -1 -14    6.30    1.24
  -1   1 -14    6.91    1.31
  -1  -1  14    7.64    1.37
   2   1 -14    0.16    0.69
  -2   1  14    0.46    0.75
  -2  -1 -14    0.10    0.71
  -2  -1 -14   -0.08    0.97
   2   1 -14    0.58    0.82
  -2  -1 -14    0.47    0.75
  -2  -1  14   -0.10    0.76
  -2   1 -14    0.24    0.77
   2  -1 -14    2.23    0.87
   2   1  14    0.78    0.72
   2  -1 -14    0.06    0.71
  -2   1 -14   -0.18    1.02
   2  -1 -14    0.98    0.96
  -3  -1 -14   11.72    1.68
  -3  -1 -14    2.01    1.00
  -3   1  14    2.18    0.92
   3   1 -14    2.04    0.95
   3   1 -14    0.03    0.78
   3  -1  14    0.77    0.92
  -3  -1 -14    2.06    1.30
   3   1 -14    1.82    1.03
   3  -1 -14   -0.19    0.80
  -3  -1  14    1.47    0.95
  -3   1 -14    2.14    1.03
   3   1  14    1.32    0.86
   3  -1 -14    2.83    1.20
   3  -1 -14    2.19    1.00
   4  -1  14    0.03    0.97
  -4  -1 -14    1.39    1.01
  -4   1  14    1.72    1.14
   4   1 -14   -0.02    1.00
   4   1 -14    1.27    1.34
  -4  -1 -14    0.30    0.93
  -4   1 -14    0.79    1.04
   4  -1 -14    0.20    1.25
   4  -1 -14    0.49    1.00
  -4  -1  14   -0.16    0.76
  -5  -1 -14    1.67    1.34
  -5  -1 -14    0.59    1.22
   5  -1  14    1.07    1.13
   5   1 -14    1.05    1.22
   5  -1 -14    1.79    1.54
  -5  -1  14    1.82    1.32
  -5   1 -14    0.40    1.25
   5  -1 -14    2.02    1.22
   0  -2 -14    1.24    0.83
   0   2  14    0.79    0.86
   0  -2 -14    0.90    0.73
   0   2 -14    1.08    0.78
   0   2 -14    0.75    0.95
   0  -2  14   -0.12    0.75
   0  -2 -14   -0.51    0.69
  -1  -2 -14   -0.28    0.77
   1   2 -14    1.24    0.82
  -1  -2 -14    1.21    0.76
  -1  -2 -14    3.03    0.99
  -1   2  14    1.41    0.78
   1   2 -14    1.19    0.79
   1  -2  14    2.95    0.97
   1   2  14    1.12    0.79
   1  -2 -14    1.29    0.81
  -1   2 -14    1.10    0.77
  -1  -2  14    2.11    0.90
   1  -2 -14    0.37    0.82
  -1   2 -14    2.67    1.06
  -2  -2 -14    4.88    1.23
  -2   2  14    2.63    1.02
  -2  -2 -14    2.65    0.97
   2   2 -14    3.18    1.02
   2   2 -14    0.49    0.76
  -2  -2 -14    2.45    0.94
   2  -2  14    2.63    0.95
   2   2  14    2.27    0.88
   2  -2 -14    2.74    1.16
  -2   2 -14    1.92    1.19
   2  -2 -14    3.61    1.04
  -2  -2  14   -0.21    0.71
  -2   2 -14    2.53    0.96
   2  -2 -14    2.53    0.97
   3  -2  14   -0.60    0.88
  -3  -2 -14    0.48    0.80
  -3  -2 -14    0.94    1.15
  -3  -2 -14    2.26    0.92
   3   2 -14   -0.80    0.81
  -3   2 -14   -0.87    0.94
   3  -2 -14    1.21    0.93
   3  -2 -14   -0.96    0.95
   3  -2 -14   -0.55    0.83
  -3  -2  14    1.49    0.87
   4  -2  14    1.69    1.01
  -4  -2 -14    0.56    0.94
   4   2 -14    1.47    1.18
  -4  -2 -14    0.74    1.04
  -4  -2  14   -0.23    0.79
   4  -2 -14    0.39    1.11
  -4   2 -14    0.77    1.06
   4  -2 -14    0.91    0.98
   5  -2  14    0.62    1.15
  -5  -2 -14    0.98    1.19
  -5  -2 -14    1.11    1.20
   5   2 -14    1.32    1.40
  -5  -2  14   -0.33    1.27
   5  -2 -14    0.52    1.20
   5  -2 -14    1.76    1.43
   0   3 -14    2.79    1.13
   0   3  14    3.31    1.04
   0   3 -14    3.47    1.03
   0  -3 -14    5.78    1.20
   0  -3 -14    5.46    1.08
   0  -3  14    4.62    1.04
   0  -3 -14    4.45    1.12
  -1  -3 -14    0.89    0.94
  -1  -3 -14   -0.45    0.73
  -1   3  14   -0.02    0.86
  -1  -3 -14    2.13    0.84
   1   3 -14    2.07    0.91
   1   3 -14    1.32    0.87
   1  -3  14    2.02    0.93
   1  -3 -14    1.83    0.86
  -1   3 -14    1.33    0.87
  -1  -3  14    2.65    0.96
  -1   3 -14    3.24    1.22
   1  -3 -14    1.78    0.86
   1   3  14    2.38    0.91
  -2  -3 -14   -0.01    0.75
  -2  -3 -14    0.39    0.94
   2   3 -14    0.47    0.75
   2  -3  14    0.73    0.85
  -2  -3 -14    1.41    0.86
  -2  -3  14    0.38    0.72
  -2   3 -14   -0.79    1.23
   2  -3 -14    0.50    0.79
   2  -3 -14    0.14    0.80
  -3  -3 -14    1.65    1.26
  -3  -3 -14   -0.59    0.79
   3  -3  14    0.29    0.94
  -3  -3 -14   -0.54    0.80
   3   3 -14    0.41    0.98
   3  -3 -14    0.47    0.92
   3  -3 -14    0.06    1.11
   3  -3 -14    0.98    0.92
  -3  -3  14    0.87    0.86
   4   3 -14    2.12    1.26
  -4  -3 -14    4.17    1.28
   4  -3  14    2.04    1.11
  -4  -3 -14    3.16    1.45
  -4  -3 -14    0.20    1.00
   4  -3 -14    3.05    1.40
   4  -3 -14    0.69    1.09
  -4  -3  14    1.60    0.86
   5  -3  14    1.12    1.21
  -5  -3  14    1.36    1.03
  -5  -3  14    2.01    1.45
   0  -4 -14    3.28    1.01
   0  -4 -14    5.37    1.17
   0  -4  14    4.83    1.18
   0  -4 -14    2.28    0.92
  -1  -4 -14    1.58    0.92
  -1  -4 -14    0.30    0.84
  -1  -4 -14    0.48    0.95
   1   4 -14    0.09    0.88
   1  -4  14    1.20    0.92
   1  -4 -14    1.04    0.89
  -1  -4  14    0.34    0.71
   1  -4 -14    1.22    0.93
   2  -4  14    0.75    0.87
  -2  -4 -14    1.90    1.26
  -2  -4 -14    1.32    0.92
  -2  -4 -14    1.44    0.95
   2   4 -14    1.75    0.98
   2  -4 -14    1.84    1.00
  -2  -4  14    0.54    0.72
   2  -4 -14    1.33    0.86
   3  -4  14    0.84    0.96
   3   4 -14   -0.02    0.95
  -3  -4 -14   -0.27    1.25
  -3  -4 -14    2.53    1.14
  -3  -4 -14    0.26    0.89
   3  -4 -14    0.64    1.02
  -3  -4  14    0.16    0.71
   3  -4 -14    0.79    1.00
   3  -4 -14   -0.56    0.95
   4  -4  14    1.24    1.08
  -4  -4 -14    2.02    1.34
   4   4 -14    2.13    1.29
  -4  -4 -14    1.34    1.18
  -4  -4 -14    1.56    1.61
  -4  -4  14    0.73    0.91
   4  -4 -14    0.47    1.13
   4  -4 -14    5.27    1.59
   0  -5  14    8.68    1.50
   0  -5 -14    7.17    1.50
   0  -5 -14   11.58    1.55
   0  -5 -14    7.84    1.29
  -1  -5 -14    2.51    1.03
  -1  -5 -14   -0.21    1.08
  -1  -5 -14    2.50    0.99
   1  -5  14    0.70    0.87
   1  -5 -14   -0.90    0.85
   1  -5 -14    0.04    0.81
  -1  -5  14    1.05    0.80
  -2  -5 -14   -0.22    0.82
  -2  -5 -14    0.81    0.95
   2  -5  14    2.62    1.13
   2   5 -14    0.64    1.01
  -2  -5 -14    0.69    1.32
  -2  -5  14    0.52    0.66
   2  -5 -14    1.21    0.95
   2  -5 -14    0.10    0.93
  -3  -5 -14   -0.05    0.90
  -3  -5 -14   -0.97    1.38
   3   5 -14   -0.85    1.01
  -3  -5 -14   -0.82    0.86
   3  -5  14   -1.32    0.95
   3  -5 -14    0.43    0.90
  -3  -5  14    0.87    1.10
   3  -5 -14    0.56    1.23
  -3  -5  14    0.96    0.85
  -4  -5 -14    0.54    1.64
   4  -5  14   -0.19    0.98
  -4  -5  14   -0.09    0.88
   0  -6 -14    3.19    1.20
   0  -6 -14    1.52    1.05
   0  -6  14    2.06    0.98
   1  -6  14    3.66    1.20
  -1  -6 -14    2.78    1.40
  -1  -6 -14    2.60    1.16
  -1  -6 -14    4.75    1.35
   1  -6 -14    3.23    1.15
  -1  -6  14    1.55    0.96
  -2  -6 -14   -0.02    1.00
  -2  -6 -14    0.08    1.26
   2  -6  14   -0.51    0.87
  -2  -6 -14   -0.20    1.05
   2  -6 -14    1.54    1.09
  -2  -6  14    0.53    0.75
  -3  -6 -14   -0.49    1.51
  -3  -6 -14    0.10    1.08
   3  -6  14   -0.96    1.07
  -3  -6  14   -0.28    0.68
   3  -6 -14   -0.22    0.95
   3  -6 -14    0.81    1.28
   0  -7 -14   -0.01    1.10
   0  -7  14    0.26    0.78
  -1  -7 -14    0.96    1.25
  -1  -7 -14    0.59    1.20
  -1  -7 -14    1.01    1.13
   1  -7  14    1.55    0.96
   1  -7 -14    0.20    1.04
  -1  -7  14    0.31    0.84
   0   0  15    1.68    0.93
   0   0 -15    1.36    0.84
   0   0 -15    1.70    0.95
  -1   0  15    0.78    0.81
  -1   0 -15    0.64    1.03
  -1   0 -15    0.39    0.76
   1   0 -15    1.43    0.96
   1   0 -15    0.63    0.80
   1   0 -15    0.21    0.81
   1   0  15    1.66    0.91
   2   0 -15   -0.18    0.70
  -2   0  15    0.15    0.87
   2   0  15    0.00    0.81
   2   0 -15    0.07    0.78
   2   0 -15    1.65    1.00
  -2   0 -15    0.33    0.84
  -2   0 -15    1.99    1.17
   3   0 -15    0.72    0.95
   3   0  15    1.31    1.04
   3   0 -15    0.05    0.97
  -3   0 -15   -3.44    1.15
  -3   0  15   -0.01    0.87
  -3   0 -15    0.74    1.01
   3   0 -15   -0.25    1.08
   4   0 -15    0.22    1.04
   4   0 -15    0.79    1.27
   4   0  15    0.13    1.03
   4   0 -15    0.49    0.99
  -4   0 -15    0.83    1.06
  -4   0  15    3.09    1.04
  -5   0 -15    0.71    1.15
  -5   0  15    1.32    1.48
   0  -1 -15    1.36    0.83
   0  -1 -15    0.56    0.76
   0   1  15    2.80    1.01
   0  -1  15    1.22    0.85
   0   1 -15    1.53    0.84
   0   1 -15    2.54    1.00
   1   1 -15    4.00    1.08
   1  -1  15    6.38    1.28
   1   1 -15    5.51    1.17
  -1   1  15    3.89    1.19
  -1  -1 -15    3.38    1.12
  -1  -1 -15    2.98    1.08
  -1  -1  15    5.82    1.25
  -1   1 -15    5.77    1.39
   1  -1 -15    4.41    1.07
  -1   1 -15    4.31    1.12
   1  -1 -15    5.85    1.17
   1   1  15    5.24    1.14
   2  -1  15    3.32    1.10
  -2  -1 -15   -0.03    1.01
  -2  -1 -15    0.45    0.82
   2   1 -15    0.72    0.84
  -2  -1 -15    1.12    0.94
  -2   1  15    0.71    0.83
   2   1 -15    1.08    0.94
  -2   1 -15    4.58    1.31
   2  -1 -15   -0.68    0.72
   2   1  15    1.29    0.92
  -2  -1  15    1.32    0.98
  -2   1 -15    0.64    0.83
   2  -1 -15    0.91    0.89
   2  -1 -15    1.75    1.10
   3  -1  15   -0.93    0.95
  -3  -1 -15    1.01    0.97
   3   1 -15    2.24    1.11
   3   1 -15    1.99    0.99
  -3   1  15    1.02    0.94
  -3  -1 -15    3.79    1.26
  -3  -1 -15    2.65    1.48
   3  -1 -15    2.38    1.02
   3  -1 -15    3.26    1.04
  -3   1 -15    0.26    1.30
  -3  -1  15    0.46    0.92
   3  -1 -15    1.53    1.19
   3   1  15    1.15    0.94
  -3   1 -15    0.48    0.95
  -4  -1 -15    0.21    1.02
   4  -1  15    0.18    1.15
   4   1 -15   -0.92    1.01
  -4  -1 -15    1.08    1.18
  -4   1 -15   -1.57    0.99
   4  -1 -15    1.92    1.38
  -4  -1  15    1.29    1.09
   4  -1 -15    4.73    1.23
   4  -1 -15   -1.20    0.95
   5  -1  15    2.88    1.94
  -5  -1 -15    0.16    1.24
  -5  -1  15   -1.90    1.29
   0  -2 -15    0.01    0.83
   0   2 -15    0.10    0.72
   0   2  15    0.55    0.91
   0  -2 -15   -0.04    0.66
   0  -2 -15    0.67    0.76
   0  -2  15    0.43    0.86
   0   2 -15   -1.63    0.78
  -1  -2 -15   -0.50    0.85
   1   2 -15    0.29    0.85
  -1   2  15    0.94    0.88
   1   2 -15    0.36    0.82
   1  -2  15   -1.01    0.72
  -1  -2 -15    0.18    0.80
  -1  -2 -15    0.15    0.73
  -1   2 -15    0.22    1.04
   1  -2 -15   -0.11    0.79
  -1  -2  15   -0.14    0.72
  -1   2 -15    0.36    0.81
   1  -2 -15   -0.23    0.69
   1   2  15   -1.08    0.71
  -2   2  15    3.27    1.15
  -2  -2 -15    2.84    1.23
   2  -2  15    4.54    1.24
  -2  -2 -15    3.97    1.13
   2   2 -15    1.80    0.93
   2   2 -15    1.61    1.01
  -2  -2 -15    4.54    1.17
  -2   2 -15    1.72    0.97
   2  -2 -15    4.04    1.18
  -2   2 -15    3.65    1.45
   2  -2 -15    4.43    1.32
   2  -2 -15    5.02    1.22
  -2  -2  15    5.04    1.21
   2   2  15    3.86    1.28
   3   2 -15    0.05    0.94
  -3  -2 -15    1.13    1.36
   3  -2  15   -0.17    0.91
  -3  -2 -15    0.40    0.95
  -3  -2 -15    0.05    0.78
   3  -2 -15   -0.01    0.92
   3  -2 -15   -0.14    1.15
  -3  -2  15   -1.48    0.79
  -3   2 -15   -1.21    0.96
   3  -2 -15    1.46    1.05
   4   2 -15   -0.32    1.22
  -4  -2 -15    1.21    1.21
  -4  -2 -15   -0.38    0.96
   4  -2  15   -0.68    1.09
   4  -2 -15    1.19    1.07
  -4  -2  15    0.17    0.88
   4  -2 -15    1.72    1.40
   0  -3  15    1.36    0.94
   0   3 -15    0.64    1.11
   0  -3 -15    1.10    0.83
   0  -3 -15    2.00    1.00
   0   3  15    0.94    0.95
   0   3 -15    1.28    0.89
   0  -3 -15    1.66    0.89
   1   3 -15    0.56    0.93
  -1  -3 -15   -0.30    0.79
  -1  -3 -15   -0.04    0.90
   1  -3  15   -0.69    0.72
  -1   3  15   -0.13    0.91
  -1  -3 -15   -0.96    0.65
   1   3 -15    0.66    0.91
   1  -3 -15    0.65    0.82
  -1   3 -15   -0.52    1.07
  -1  -3  15    0.83    0.84
  -1   3 -15    1.00    0.94
   1  -3 -15    0.52    0.82
  -2  -3 -15    1.11    0.97
   2   3 -15   -0.02    0.89
  -2  -3 -15    1.26    1.14
  -2  -3 -15    3.31    1.09
   2  -3  15    1.87    1.04
  -2   3 -15    3.27    1.47
   2  -3 -15    1.94    1.03
   2  -3 -15    0.50    0.95
   2  -3 -15    2.48    1.16
  -2  -3  15    2.30    0.97
  -3  -3 -15   -0.66    1.16
   3   3 -15    0.89    1.16
  -3  -3 -15    0.24    0.85
   3  -3  15    0.10    1.05
  -3  -3 -15    1.78    1.05
   3  -3 -15   -0.19    0.94
  -3  -3  15    0.12    0.83
   3  -3 -15   -0.12    1.25
   3  -3 -15    1.93    1.05
  -4  -3 -15   -1.67    1.39
   4  -3  15    1.10    1.20
  -4  -3 -15    2.59    1.14
  -4  -3 -15    0.80    1.19
   4   3 -15    3.64    1.46
   4  -3 -15    0.48    1.30
  -4  -3  15    1.15    0.98
   4  -3 -15   -0.91    1.04
   0  -4 -15    0.64    0.91
   0  -4 -15    1.34    0.90
   0  -4  15    0.30    0.81
   0  -4 -15    0.40    0.85
  -1  -4 -15   -0.66    0.99
   1   4 -15   -1.56    0.80
  -1  -4 -15    0.14    0.85
   1  -4  15   -0.37    0.81
  -1  -4 -15    1.60    0.97
   1  -4 -15   -0.58    0.68
   1  -4 -15    0.69    0.86
  -1  -4  15    0.95    0.90
   2   4 -15    0.13    1.01
   2  -4  15    1.86    1.09
  -2  -4 -15    2.29    1.32
  -2  -4 -15    2.03    1.10
  -2  -4 -15    1.00    1.07
   2  -4 -15    2.27    1.06
  -2  -4  15    0.42    0.91
   2  -4 -15    0.18    0.87
   2  -4 -15    0.10    1.10
  -3  -4 -15    1.46    1.57
  -3  -4 -15    0.61    1.13
   3  -4  15    1.10    1.11
  -3  -4 -15    1.53    1.08
   3   4 -15   -0.20    1.06
   3  -4 -15   -0.23    1.08
   3  -4 -15    1.37    1.18
   3  -4 -15    1.24    1.36
  -3  -4  15    1.04    0.88
   4  -4  15    0.33    1.08
  -4  -4 -15    0.33    1.12
  -4  -4 -15    1.80    1.71
   4  -4 -15    1.24    1.41
  -4  -4  15   -0.09    0.81
   0  -5 -15    2.09    1.11
   0  -5 -15    0.41    0.99
   0  -5 -15    1.43    1.06
   0  -5  15    1.87    1.00
  -1  -5 -15    0.04    1.16
   1  -5  15    0.01    0.90
  -1  -5 -15    3.14    1.14
  -1  -5 -15   -0.40    0.90
   1  -5 -15    0.14    0.88
  -1  -5  15   -0.45    0.79
   1  -5 -15   -0.88    0.92
   2  -5  15   -0.44    0.96
  -2  -5 -15   -1.67    1.17
  -2  -5 -15   -0.88    0.91
  -2  -5 -15    0.37    1.05
  -2  -5  15   -0.46    0.73
   2  -5 -15   -0.55    0.89
   2  -5 -15    0.50    1.07
  -3  -5 -15    0.49    1.57
  -3  -5 -15   -0.62    1.07
   3  -5  15    2.31    1.34
  -3  -5 -15    1.53    1.21
   3   5 -15    0.15    1.15
   3  -5 -15    0.51    1.32
  -3  -5  15    1.61    0.92
   3  -5 -15    0.46    1.06
   0  -6  15    1.19    0.91
   0  -6 -15    0.79    1.13
   0  -6 -15    1.45    1.15
   1  -6  15    2.48    1.16
  -1  -6 -15   -0.03    1.32
  -1  -6 -15    2.21    1.17
  -1  -6 -15    2.94    1.25
  -1  -6  15    1.32    0.94
   1  -6 -15    0.53    0.98
   1  -6 -15    1.20    1.23
  -2  -6 -15    1.06    1.07
  -2  -6 -15   -0.50    1.08
  -2  -6 -15   -0.67    1.34
   2  -6  15   -1.41    0.92
  -2  -6  15   -0.23    0.77
   2  -6 -15    2.10    1.17
   0   0  16    4.46    1.19
   0   0 -16    3.53    1.14
   0   0 -16    2.83    1.11
  -1   0  16    0.44    0.88
   1   0 -16   -1.09    0.75
  -1   0 -16   -0.88    0.97
   1   0  16    0.15    0.96
  -1   0 -16   -1.06    0.76
   1   0 -16    0.46    0.95
   1   0 -16   -0.06    0.94
   2   0 -16   -0.27    0.73
   2   0 -16   -0.37    0.91
  -2   0 -16    0.77    0.96
   2   0  16    0.90    0.95
  -2   0  16   -0.24    0.73
   2   0 -16   -0.08    1.08
  -2   0 -16   -0.80    1.12
  -3   0 -16   -1.48    1.29
   3   0 -16    0.57    0.95
   3   0 -16    0.82    1.02
  -3   0  16    1.35    1.00
   3   0  16   -0.60    0.98
  -3   0 -16   -0.28    1.05
   4   0 -16    0.33    1.12
   4   0 -16    0.06    0.99
  -4   0  16    0.37    0.96
  -4   0 -16    0.68    1.15
   0  -1 -16   -0.69    0.66
   0   1 -16   -0.58    0.85
   0   1 -16    0.45    0.84
   0  -1 -16    1.35    0.94
   0   1  16    0.75    0.92
   0  -1  16    0.88    0.96
   1   1 -16    0.73    0.92
   1  -1  16    0.51    0.95
  -1   1  16    1.14    1.01
  -1  -1 -16    1.41    1.10
   1   1 -16    0.53    0.90
  -1  -1 -16    0.81    1.01
  -1   1 -16    0.48    0.98
  -1   1 -16   -0.34    0.83
   1  -1 -16    0.32    0.83
  -1  -1  16    1.40    1.01
   1  -1 -16    1.10    0.96
   1   1  16    1.47    0.97
   2   1 -16   -0.13    0.92
  -2  -1 -16    0.26    0.92
  -2  -1 -16    1.15    0.99
   2  -1  16   -0.90    0.85
  -2  -1 -16   -0.03    1.08
  -2   1  16    1.29    1.00
   2   1 -16    1.10    0.93
   2  -1 -16   -0.20    0.84
   2  -1 -16    2.75    1.24
  -2  -1  16    0.04    0.91
   2   1  16    1.52    1.03
  -2   1 -16    0.91    1.03
  -2   1 -16    0.66    1.23
   2  -1 -16   -0.38    0.83
  -3   1  16    0.08    1.03
   3   1 -16   -0.47    0.88
  -3  -1 -16    0.47    1.39
   3  -1  16    0.67    1.10
  -3  -1 -16   -0.20    1.03
  -3  -1 -16    0.32    0.85
   3   1 -16    0.31    1.04
   3  -1 -16    2.91    1.16
   3  -1 -16    0.52    1.21
   3  -1 -16    2.11    0.98
  -3   1 -16   -0.55    1.28
  -3   1 -16    2.49    1.12
  -3  -1  16    1.01    1.00
  -4  -1 -16    0.10    1.11
   4  -1  16    1.51    1.22
   4   1 -16   -1.18    1.01
  -4  -1 -16   -1.07    0.92
  -4   1 -16    0.73    1.17
   4  -1 -16    1.18    1.23
   4  -1 -16   -0.23    1.51
  -4  -1  16   -0.53    0.99
   0  -2 -16   -0.55    0.86
   0   2 -16    0.35    0.93
   0  -2 -16    1.18    0.87
   0   2  16    1.04    0.93
   0   2 -16   -0.79    0.97
   0  -2  16    0.62    0.92
   1   2 -16    0.99    1.04
   1  -2  16    2.55    1.10
  -1  -2 -16    0.33    0.88
  -1  -2 -16    1.90    0.95
  -1  -2 -16    0.34    1.11
   1   2 -16    2.16    1.06
   1   2  16    1.87    0.97
   1  -2 -16    1.10    0.89
  -1   2 -16    2.02    1.21
   1  -2 -16    2.35    1.06
  -1  -2  16   -0.32    0.83
  -1   2 -16    1.35    0.92
   2  -2  16    1.50    1.07
  -2   2  16    1.14    1.06
  -2  -2 -16    0.15    0.97
   2   2 -16    0.73    0.93
  -2  -2 -16    0.91    0.88
  -2  -2 -16    1.22    1.15
   2   2 -16    1.05    0.97
  -2   2 -16   -0.74    0.92
   2  -2 -16   -0.22    0.93
  -2   2 -16    0.19    1.37
   2  -2 -16   -0.14    1.10
  -2  -2  16    0.38    0.97
   2  -2 -16    0.69    0.87
  -3  -2 -16    2.09    0.98
   3   2 -16    0.03    1.08
   3  -2  16   -0.19    1.06
  -3  -2 -16    1.98    1.54
  -3  -2 -16    0.17    1.00
   3  -2 -16    2.21    1.17
  -3   2 -16    0.15    1.46
   3  -2 -16   -0.73    1.13
   3  -2 -16   -0.36    0.93
  -3   2 -16    0.89    1.15
  -3  -2  16   -0.86    0.80
   4   2 -16    2.64    1.53
   4  -2  16    0.87    1.19
  -4  -2 -16   -0.27    1.19
  -4  -2 -16    3.75    1.38
  -4  -2  16    0.03    1.00
  -4   2 -16    0.88    1.39
   4  -2 -16    2.37    1.50
   4  -2 -16    1.26    1.18
   0  -3 -16    1.89    0.97
   0  -3 -16   -0.40    0.88
   0  -3 -16   -0.57    0.78
   0  -3  16    5.51    1.42
   0   3 -16    0.30    0.93
   0   3 -16    1.97    1.33
   0   3  16    1.51    1.13
   1  -3  16    0.11    0.98
  -1  -3 -16    0.52    0.86
  -1  -3 -16    0.18    0.80
  -1   3  16   -0.24    0.96
   1   3 -16    0.83    0.93
  -1  -3 -16    0.95    1.01
  -1  -3  16    0.36    0.89
   1  -3 -16    0.35    0.98
  -1   3 -16   13.85    2.29
  -1   3 -16   -0.70    0.87
   1  -3 -16    3.29    1.18
   2   3 -16    0.75    0.99
  -2  -3 -16    0.99    0.90
  -2  -3 -16    0.35    1.09
   2  -3  16    1.37    1.16
  -2  -3 -16    1.53    0.95
  -2   3 -16    1.89    1.42
   2  -3 -16   -1.14    0.84
  -2  -3  16    0.55    0.93
   2  -3 -16    1.33    1.03
   2  -3 -16    2.38    1.36
  -3  -3 -16    0.60    1.29
  -3  -3 -16    1.82    1.18
   3  -3  16   -0.30    1.03
   3   3 -16    3.41    1.28
  -3  -3 -16    2.39    1.13
  -3  -3  16   -0.53    0.78
   3  -3 -16    0.30    1.28
   3  -3 -16    1.74    1.24
   3  -3 -16    1.66    1.17
   4  -3  16   -0.61    1.24
  -4  -3  16    0.72    1.00
   0  -4 -16    0.85    1.01
   0  -4  16    1.87    1.12
   0  -4 -16    1.41    0.92
   0  -4 -16    1.99    1.12
  -1  -4 -16   -0.88    0.92
  -1  -4 -16    0.55    1.09
   1  -4  16    0.77    1.00
  -1  -4 -16   -1.06    0.81
   1   4 -16   -1.40    0.83
  -1  -4  16    1.43    0.98
   1  -4 -16    0.12    0.90
   1  -4 -16   -0.06    0.79
   2  -4  16    2.21    1.13
   2   4 -16    2.66    1.27
  -2  -4 -16    0.23    1.34
  -2  -4 -16    0.62    1.03
  -2  -4 -16    0.35    1.07
   2  -4 -16    0.96    1.03
   2  -4 -16    0.98    1.07
   2  -4 -16    1.12    1.38
  -2  -4  16    1.08    0.88
   3   4 -16   -0.07    1.16
  -3  -4 -16    1.51    1.11
  -3  -4 -16    0.52    1.10
  -3  -4 -16   -0.99    1.41
   3  -4  16   -0.74    1.04
   3  -4 -16    1.37    1.13
  -3  -4  16   -0.26    0.88
   3  -4 -16    1.04    1.46
   0  -5 -16   -0.26    0.93
   0  -5  16    0.85    1.00
   0  -5 -16    1.46    1.13
  -1  -5 -16   -2.26    1.11
  -1  -5 -16   -0.63    0.96
   1  -5  16   -0.23    0.91
  -1  -5 -16    1.24    1.08
   1  -5 -16   -0.25    1.14
  -1  -5  16   -0.27    0.85
   1  -5 -16   -0.28    0.97
  -2  -5 -16    1.12    1.12
   2   5 -16    1.34    1.20
  -2  -5 -16    1.46    1.20
   2  -5  16   -1.90    0.83
  -2  -5 -16   -0.13    1.35
   2  -5 -16    0.68    1.15
   2  -5 -16    1.12    0.91
   2  -5 -16    0.45    1.29
  -2  -5  16    0.84    0.93
   0  -6 -16    0.51    1.29
   0  -6  16    0.14    0.87
   0   0 -17    0.15    0.96
   0   0 -17   -0.44    0.96
   0   0  17    0.51    0.99
  -1   0 -17    0.12    0.98
   1   0 -17   -0.30    0.85
   1   0 -17    0.19    0.95
   1   0  17    0.33    0.99
  -1   0  17   -0.76    0.82
  -1   0 -17    1.00    1.17
   2   0  17    0.15    1.02
   2   0 -17    0.54    0.75
  -2   0  17   -0.52    0.90
  -2   0 -17   -0.50    0.96
   2   0 -17    0.31    1.04
   3   0  17   -0.72    1.03
   3   0 -17    1.18    1.09
  -3   0 -17    0.67    1.12
  -3   0 -17   -0.32    1.48
   3   0 -17    0.52    1.16
  -3   0  17    0.52    1.05
   4   0 -17   -0.29    1.08
   0   1 -17    0.39    0.93
   0   1  17   -1.34    0.87
   0  -1 -17    0.24    1.01
   0   1 -17    0.29    1.03
   0  -1  17    0.58    0.95
   0  -1 -17   -0.29    0.86
   1   1 -17    0.43    0.91
   1  -1  17    0.86    0.95
  -1  -1 -17    0.37    0.91
  -1  -1 -17    1.50    1.15
  -1   1  17   -0.14    0.92
   1   1 -17    0.81    0.92
  -1  -1  17    1.86    1.10
   1   1  17   -0.10    0.97
   1  -1 -17    0.81    0.99
   1  -1 -17    0.97    1.02
  -1   1 -17    0.15    0.97
  -1   1 -17   -0.32    1.02
  -2  -1 -17    1.93    1.36
   2  -1  17    0.18    0.95
  -2   1  17    1.74    1.17
   2   1 -17    0.32    0.97
   2   1 -17    1.08    1.01
  -2  -1 -17    0.89    1.01
  -2   1 -17    2.23    1.42
   2  -1 -17    0.30    1.20
  -2   1 -17    0.88    1.17
  -2  -1  17    0.55    1.01
   2   1  17    0.61    1.12
   2  -1 -17    0.36    0.98
   2  -1 -17    0.43    1.09
  -3  -1 -17    0.88    1.40
   3   1 -17   -0.08    1.10
  -3   1  17   -0.97    1.04
   3  -1  17   -0.92    1.07
  -3  -1 -17   -1.01    0.90
   3   1 -17    0.10    0.90
  -3  -1 -17   -0.42    1.06
  -3  -1  17   -0.01    1.00
   3  -1 -17    0.18    1.27
  -3   1 -17   -1.44    1.06
  -3   1 -17    0.07    1.42
   3  -1 -17    0.24    1.02
   3  -1 -17    1.12    1.12
   0  -2  17    0.18    0.89
   0   2 -17    0.07    1.14
   0  -2 -17   -0.15    0.87
   0  -2 -17    0.13    0.95
   0   2  17    1.54    1.06
   0   2 -17    1.14    1.04
  -1  -2 -17    0.76    0.92
   1  -2  17    0.42    1.03
   1   2 -17    0.24    1.01
  -1  -2 -17    0.74    1.09
  -1  -2 -17   -0.39    0.81
  -1   2  17    0.09    0.93
   1   2 -17   -0.01    0.97
   1  -2 -17    1.51    1.08
  -1  -2  17   -0.28    0.92
   1  -2 -17    2.87    1.16
   1   2  17   -1.15    1.14
  -1   2 -17   -1.14    1.19
  -1   2 -17    0.83    1.00
  -2  -2 -17    0.99    1.02
   2  -2  17    0.45    1.07
  -2  -2 -17    0.85    0.90
   2   2 -17   -0.24    1.01
  -2  -2 -17   -0.10    1.31
  -2   2  17   -0.42    1.03
   2   2 -17    0.49    1.00
  -2  -2  17    1.19    1.07
   2  -2 -17    0.71    1.32
   2  -2 -17    0.37    0.97
   2  -2 -17    0.60    1.04
  -2   2 -17    3.57    1.22
  -2   2 -17   -1.56    1.32
  -3  -2 -17    0.23    1.49
   3  -2  17   -1.55    1.02
   3   2 -17   -0.74    1.14
  -3  -2 -17    0.46    1.05
  -3  -2 -17    1.31    1.16
   3  -2 -17    0.03    0.99
   3  -2 -17    1.67    1.57
  -3   2 -17   -0.07    1.07
   3  -2 -17    0.78    1.15
  -3  -2  17    0.15    1.05
   0   3 -17    1.72    1.08
   0  -3 -17   -0.90    0.87
   0  -3  17   -0.14    0.91
   0  -3 -17    0.48    0.93
   0   3 -17   -0.40    1.21
   0  -3 -17    0.34    0.96
   1  -3  17   -0.81    0.89
  -1  -3 -17    1.41    1.16
  -1   3  17    2.82    1.20
  -1  -3 -17    0.76    0.99
  -1  -3 -17   -0.96    0.89
   1   3 -17   -0.38    0.97
  -1  -3  17    0.74    0.95
  -1   3 -17   -2.00    1.18
   1  -3 -17   -0.31    0.98
   1  -3 -17    0.34    1.00
  -1   3 -17    1.72    1.16
  -2  -3 -17    1.41    1.41
   2  -3  17    1.53    1.18
  -2  -3 -17    2.88    1.35
   2   3 -17    3.89    1.17
  -2  -3 -17    0.33    1.01
  -2   3 -17    0.27    1.05
   2  -3 -17    1.57    1.51
   2  -3 -17   -0.38    0.96
  -2   3 -17   -1.84    1.38
   2  -3 -17    1.64    1.22
  -2  -3  17    2.28    1.06
  -3  -3 -17    1.14    1.10
  -3  -3 -17    0.77    1.15
  -3  -3 -17    0.59    1.51
   3  -3  17    1.35    1.31
   3  -3 -17    1.43    1.56
  -3  -3  17    2.81    1.26
   3  -3 -17    1.07    1.30
   3  -3 -17    0.34    1.10
   0  -4 -17    1.82    1.15
   0  -4  17    0.80    1.02
   0  -4 -17    1.28    1.08
   0   4 -17    0.31    1.11
  -1  -4 -17    0.21    1.23
   1   4 -17    0.16    1.05
  -1  -4 -17    0.26    0.94
   1  -4  17    0.09    0.99
  -1  -4  17    0.08    1.10
   1  -4 -17   -1.28    0.99
   1  -4 -17   -0.09    0.93
  -2  -4 -17    2.16    1.01
   2   4 -17    1.45    1.29
  -2  -4 -17    0.91    1.43
   2  -4  17    1.24    1.22
  -2  -4 -17    0.00    0.99
   2  -4 -17    0.33    1.10
  -2  -4  17    0.27    0.91
   2  -4 -17    1.72    1.53
   2  -4 -17    0.56    1.21
   0  -5 -17   -0.35    1.11
   0  -5  17   -1.09    0.93
   0  -5 -17    0.87    1.21
   1  -5  17    1.34    1.13
  -1  -5 -17   -0.05    1.30
   1  -5 -17    0.41    1.04
  -1  -5  17   -0.12    0.92
   0   0 -18   -0.69    1.03
   0   0  18   -0.80    0.93
   0   0 -18    2.70    1.28
   1   0 -18   -0.70    0.97
   1   0  18    0.26    1.12
  -1   0  18    1.20    1.22
  -1   0 -18    2.54    1.28
   1   0 -18    2.87    1.24
  -1   0 -18    2.09    1.37
   2   0 -18    0.62    1.15
  -2   0 -18    3.22    1.60
  -2   0 -18    0.83    1.24
   2   0  18   -0.90    1.12
   2   0 -18    1.42    1.01
  -2   0  18    1.07    1.16
  -3   0  18   -0.63    1.14
  -3   0 -18   -0.50    1.15
  -3   0 -18   -1.05    1.50
   3   0 -18    0.41    1.11
   0   1  18    0.13    1.00
   0   1 -18    0.13    1.09
   0  -1 -18   -0.94    0.90
   0  -1  18   -0.84    0.93
   0   1 -18    1.58    1.12
   0  -1 -18    0.18    1.04
  -1  -1 -18   -0.99    1.16
   1  -1  18   -0.35    0.96
   1   1 -18    1.13    1.11
   1   1 -18   -0.60    1.06
  -1  -1 -18   -0.43    1.03
  -1   1  18    0.52    1.12
  -1   1 -18   -0.11    1.20
   1  -1 -18    1.26    1.13
   1  -1 -18    0.25    1.06
   1   1  18    0.16    1.03
  -1  -1  18   -0.43    0.99
  -1   1 -18    1.52    1.09
   2   1 -18    0.20    1.05
  -2  -1 -18    3.30    1.34
   2   1 -18    0.46    1.09
  -2   1  18    3.04    1.34
   2  -1  18    1.36    1.27
   2  -1 -18    0.39    1.14
  -2   1 -18   -1.28    1.36
   2  -1 -18    0.68    1.09
  -2   1 -18    1.10    1.14
  -2  -1  18    0.30    1.04
   3   1 -18    0.39    1.08
  -3  -1 -18    1.57    1.34
  -3   1  18   -0.68    1.05
   3  -1  18   -0.09    1.23
  -3  -1 -18    1.03    1.63
  -3   1 -18    0.61    1.63
   3  -1 -18    1.19    1.11
  -3   1 -18    0.70    1.42
  -3  -1  18   -0.20    1.11
   0  -2 -18   -0.09    1.11
   0   2 -18   -0.65    1.24
   0  -2  18   -0.68    1.03
   0  -2 -18   -0.37    1.08
   0   2  18   -0.96    0.98
   0   2 -18    1.19    1.12
  -1  -2 -18    0.01    1.27
   1   2 -18    1.18    1.17
  -1  -2 -18   -0.50    0.90
   1   2 -18   -0.45    1.02
  -1   2  18   -0.22    1.05
   1  -2  18   -1.26    1.04
   1  -2 -18    0.20    1.00
  -1   2 -18    0.63    1.10
  -1  -2  18    1.27    1.07
  -1   2 -18    0.03    1.39
   1  -2 -18    0.82    1.08
   2   2 -18    0.47    1.09
  -2  -2 -18    0.51    1.50
   2   2 -18   -0.32    1.15
  -2  -2 -18   -1.17    1.06
  -2   2  18    0.32    1.15
  -2  -2 -18    0.09    1.02
   2  -2  18    2.33    1.26
   2  -2 -18    1.58    1.57
  -2  -2  18    3.14    1.42
   2  -2 -18    0.63    1.08
  -2   2 -18    0.93    1.16
   2  -2 -18    2.38    1.19
  -2   2 -18   -0.06    1.51
   0  -3  18   -0.06    1.09
   0  -3 -18   -1.06    1.10
   0  -3 -18    0.31    0.99
   0   3 -18    0.00    1.33
   0   3 -18    0.88    1.11
  -1  -3 -18    0.81    1.45
   1   3 -18    1.37    1.23
  -1  -3 -18    0.87    0.98
   1  -3  18   -0.35    1.14
  -1  -3 -18   -0.03    1.04
  -1   3 -18   -1.40    1.46
   1  -3 -18    0.74    1.22
  -1   3 -18    0.65    1.15
   1  -3 -18    1.19    1.22
  -1  -3  18    0.28    1.06
  -2  -3 -18   -1.38    1.01
  -2  -3 -18    0.58    1.19
  -2  -3 -18   -1.52    1.41
   2  -3  18    0.76    1.15
  -2  -3  18    2.43    1.15
   2  -3 -18   -0.20    1.08
   2  -3 -18    2.10    1.46
  -2   3 -18   -0.71    1.62
   0  -4 -18    0.36    1.25
   0  -4 -18    0.80    1.10
   0  -4  18   -1.56    1.02
   1  -4  18   -0.63    1.06
  -1  -4 -18   -1.56    1.30
  -1  -4 -18    0.82    1.11
   1  -4 -18   -0.77    1.22
  -1  -4  18   -0.16    1.05
   0   0  19    1.86    1.23
   0   0 -19   -0.49    1.18
   0   0 -19    0.61    1.30
   1   0 -19   -0.01    1.22
  -1   0 -19    3.26    1.51
   1   0 -19    0.74    1.12
  -1   0  19    0.86    1.32
  -1   0 -19    1.06    1.31
   1   0  19    2.03    1.32
  -2   0 -19    1.44    1.40
  -2   0 -19    1.47    1.48
   2   0  19    2.75    1.40
   2   0 -19    2.29    1.32
  -2   0  19    2.08    1.29
   0   1 -19    1.10    1.24
   0  -1 -19    0.19    1.31
   0   1 -19    0.90    1.19
   0  -1  19    2.41    1.33
   0   1  19   -0.35    1.27
   0  -1 -19    0.60    1.24
  -1   1  19    0.87    1.31
  -1  -1 -19   -0.36    1.12
   1   1 -19    0.65    1.26
   1  -1  19    2.42    1.27
  -1  -1 -19    1.13    1.55
   1   1 -19   -0.12    1.18
   1  -1 -19    1.11    1.41
  -1   1 -19   -1.04    1.16
   1   1  19    1.36    1.19
  -1  -1  19    1.68    1.27
  -1   1 -19    0.79    1.48
   1  -1 -19   -0.57    0.99
   2   1 -19    1.15    1.27
  -2  -1 -19    1.52    1.67
  -2   1  19    1.68    1.32
   2  -1  19    0.24    1.18
  -2  -1  19   -0.04    1.20
   2  -1 -19    1.36    1.26
  -2   1 -19    1.84    1.60
   0   2 -19    1.38    1.51
   0  -2 -19    0.89    1.26
   0   2 -19    1.39    1.27
   0  -2  19   -1.25    1.07
   0  -2 -19    1.48    1.28
  -1   2  19    1.07    1.37
  -1  -2 -19    2.09    1.42
   1  -2  19    0.72    1.25
  -1  -2 -19    0.84    1.24
   1   2 -19    0.67    1.35
   1  -2 -19    0.78    1.34
  -1  -2  19    0.85    1.22
  -1   2 -19    0.02    1.42
   0  -3  19    1.27    1.17
   0   0   0    0.00    0.00
;
_shelx_hkl_checksum              73914
loop_
_space_group_symop_operation_xyz
'x, y, z'
'-x+1/2, -y, z+1/2'
'-x, y+1/2, -z+1/2'
'x+1/2, -y+1/2, -z'
loop_
_atom_site_label
_atom_site_type_symbol
_atom_site_fract_x
_atom_site_fract_y
_atom_site_fract_z
_atom_site_U_iso_or_equiv
_atom_site_adp_type
_atom_site_occupancy
_atom_site_site_symmetry_order
_atom_site_calc_flag
_atom_site_refinement_flags_posn
_atom_site_refinement_flags_adp
_atom_site_refinement_flags_occupancy
_atom_site_disorder_assembly
_atom_site_disorder_group
C1 C 0.5324(6) 0.5924(5) 0.6588(2) 0.0366(9) Uani 1 1 d . . . . .
C2 C 0.7105(7) 0.6893(5) 0.6223(2) 0.0415(10) Uani 1 1 d . . . . .
C3 C 0.8870(7) 0.7447(5) 0.6744(3) 0.0437(10) Uani 1 1 d . . . . .
H3 H 1.006914 0.806996 0.649290 0.052 Uiso 1 1 calc R U . . .
C4 C 0.8855(6) 0.7064(5) 0.7669(3) 0.0415(10) Uani 1 1 d . . . . .
C5 C 0.7031(7) 0.6100(5) 0.8020(2) 0.0390(9) Uani 1 1 d . . . . .
C6 C 0.5244(7) 0.5527(5) 0.7489(3) 0.0410(10) Uani 1 1 d . . . . .
H6 H 0.403712 0.489931 0.773031 0.049 Uiso 1 1 calc R U . . .
N1 N 0.7415(7) 0.5928(5) 0.8932(2) 0.0625(12) Uani 1 1 d . . . . .
H1N H 0.653806 0.540066 0.930507 0.075 Uiso 1 1 calc R U . . .
C8 C 1.0316(7) 0.7461(6) 0.8380(3) 0.0553(12) Uani 1 1 d . . . . .
H8 H 1.165575 0.810275 0.834242 0.066 Uiso 1 1 calc R U . . .
C7 C 0.9431(9) 0.6738(6) 0.9140(3) 0.0673(15) Uani 1 1 d . . . . .
H7 H 1.008735 0.678769 0.970705 0.081 Uiso 1 1 calc R U . . .
O1 O 0.3648(5) 0.5415(4) 0.59880(18) 0.0554(9) Uani 1 1 d . . . . .
H1 H 0.272824 0.478577 0.624447 0.083 Uiso 1 1 calc R U . . .
O2 O 0.6905(5) 0.7235(4) 0.53225(16) 0.0681(11) Uani 1 1 d . . . . .
H2 H 0.808803 0.767867 0.513935 0.102 Uiso 1 1 calc R U . . .
loop_
_atom_site_aniso_label
_atom_site_aniso_U_11
_atom_site_aniso_U_22
_atom_site_aniso_U_33
_atom_site_aniso_U_23
_atom_site_aniso_U_13
_atom_site_aniso_U_12
C1 0.037(2) 0.0298(19) 0.043(2) 0.0005(18) -0.0015(18) -0.0031(17)
C2 0.052(3) 0.035(2) 0.037(2) 0.0006(17) 0.0067(19) -0.004(2)
C3 0.041(2) 0.035(2) 0.056(2) -0.004(2) 0.0162(19) -0.006(2)
C4 0.038(2) 0.031(2) 0.056(2) -0.0064(19) 0.0028(19) 0.0069(19)
C5 0.049(2) 0.0267(18) 0.041(2) 0.0035(17) 0.0049(19) 0.009(2)
C6 0.041(2) 0.0313(19) 0.051(2) 0.005(2) 0.0057(18) -0.0023(19)
N1 0.091(3) 0.054(2) 0.042(2) 0.0013(18) 0.005(2) 0.015(2)
C8 0.043(3) 0.046(2) 0.078(3) -0.016(3) -0.009(2) 0.003(2)
C7 0.082(4) 0.057(3) 0.063(3) -0.022(3) -0.032(3) 0.016(3)
O1 0.0559(19) 0.0535(19) 0.0568(18) 0.0054(15) -0.0082(15) -0.0150(16)
O2 0.090(3) 0.074(2) 0.0399(16) 0.0099(15) 0.0076(16) -0.028(2)
loop_
_atom_type_symbol
_atom_type_description
_atom_type_scat_dispersion_real
_atom_type_scat_dispersion_imag
_atom_type_scat_source
C C 0.0033 0.0016 'International Tables Vol C Tables 4.2.6.8 and 6.1.1.4'
H H 0.0000 0.0000 'International Tables Vol C Tables 4.2.6.8 and 6.1.1.4'
N N 0.0061 0.0033 'International Tables Vol C Tables 4.2.6.8 and 6.1.1.4'
O O 0.0106 0.0060 'International Tables Vol C Tables 4.2.6.8 and 6.1.1.4'
loop_
_geom_angle_atom_site_label_1
_geom_angle_atom_site_label_2
_geom_angle_atom_site_label_3
_geom_angle
_geom_angle_site_symmetry_1
_geom_angle_site_symmetry_3
_geom_angle_publ_flag
C6 C1 O1 122.8(4) . . ?
C6 C1 C2 121.6(4) . . ?
O1 C1 C2 115.6(3) . . ?
C3 C2 O2 124.2(4) . . ?
C3 C2 C1 121.0(3) . . ?
O2 C2 C1 114.8(4) . . ?
C2 C3 C4 119.1(4) . . ?
C2 C3 H3 120.4 . . ?
C4 C3 H3 120.4 . . ?
C8 C4 C5 107.4(4) . . ?
C8 C4 C3 133.8(4) . . ?
C5 C4 C3 118.7(4) . . ?
N1 C5 C6 130.9(4) . . ?
N1 C5 C4 107.1(4) . . ?
C6 C5 C4 122.1(3) . . ?
C1 C6 C5 117.4(4) . . ?
C1 C6 H6 121.3 . . ?
C5 C6 H6 121.3 . . ?
C7 N1 C5 108.6(4) . . ?
C7 N1 H1N 125.7 . . ?
C5 N1 H1N 125.7 . . ?
C7 C8 C4 107.9(4) . . ?
C7 C8 H8 126.0 . . ?
C4 C8 H8 126.0 . . ?
C8 C7 N1 109.0(4) . . ?
C8 C7 H7 125.5 . . ?
N1 C7 H7 125.5 . . ?
C1 O1 H1 109.5 . . ?
C2 O2 H2 109.5 . . ?
loop_
_geom_bond_atom_site_label_1
_geom_bond_atom_site_label_2
_geom_bond_distance
_geom_bond_site_symmetry_2
_geom_bond_publ_flag
C1 C6 1.378(5) . ?
C1 O1 1.385(4) . ?
C1 C2 1.394(5) . ?
C2 C3 1.362(5) . ?
C2 O2 1.373(4) . ?
C3 C4 1.410(5) . ?
C3 H3 0.9300 . ?
C4 C8 1.397(5) . ?
C4 C5 1.404(5) . ?
C5 N1 1.383(5) . ?
C5 C6 1.386(5) . ?
C6 H6 0.9300 . ?
N1 C7 1.372(6) . ?
N1 H1N 0.8600 . ?
C8 C7 1.365(6) . ?
C8 H8 0.9300 . ?
C7 H7 0.9300 . ?
O1 H1 0.8200 . ?
O2 H2 0.8200 . ?
loop_
_geom_torsion_atom_site_label_1
_geom_torsion_atom_site_label_2
_geom_torsion_atom_site_label_3
_geom_torsion_atom_site_label_4
_geom_torsion
_geom_torsion_site_symmetry_1
_geom_torsion_site_symmetry_2
_geom_torsion_site_symmetry_3
_geom_torsion_site_symmetry_4
_geom_torsion_publ_flag
C6 C1 C2 C3 1.7(6) . . . . ?
O1 C1 C2 C3 -179.0(4) . . . . ?
C6 C1 C2 O2 -177.8(4) . . . . ?
O1 C1 C2 O2 1.5(5) . . . . ?
O2 C2 C3 C4 177.9(4) . . . . ?
C1 C2 C3 C4 -1.5(6) . . . . ?
C2 C3 C4 C8 -178.1(4) . . . . ?
C2 C3 C4 C5 0.9(5) . . . . ?
C8 C4 C5 N1 -0.1(4) . . . . ?
C3 C4 C5 N1 -179.3(4) . . . . ?
C8 C4 C5 C6 178.7(4) . . . . ?
C3 C4 C5 C6 -0.5(5) . . . . ?
O1 C1 C6 C5 179.6(3) . . . . ?
C2 C1 C6 C5 -1.2(6) . . . . ?
N1 C5 C6 C1 179.1(4) . . . . ?
C4 C5 C6 C1 0.6(5) . . . . ?
C6 C5 N1 C7 -179.4(4) . . . . ?
C4 C5 N1 C7 -0.8(4) . . . . ?
C5 C4 C8 C7 0.9(5) . . . . ?
C3 C4 C8 C7 179.9(4) . . . . ?
C4 C8 C7 N1 -1.4(5) . . . . ?
C5 N1 C7 C8 1.4(5) . . . . ?
