#------------------------------------------------------------------------------
#$Date: 2023-04-20 14:53:48 +0300 (Thu, 20 Apr 2023) $
#$Revision: 282777 $
#$URL: file:///home/coder/svn-repositories/cod/cif/1/56/66/1566629.cif $
#------------------------------------------------------------------------------
#
# This file is available in the Crystallography Open Database (COD),
# http://www.crystallography.net/
#
# All data on this site have been placed in the public domain by the
# contributors.
#
data_1566629
loop_
_publ_author_name
'Tan, Yee Seng'
'Yeo, Chien Ing'
'Kwong, Huey Chong'
'Tiekink, Edward R. T.'
_publ_section_title
;
 Unusual {&#x22EF;HNC <sub>2</sub> O&#x22EF;HC <sub> <i>n</i> </sub> O},
 <i>n</i> = 1 or 2, synthons predominate in the molecular packing of
 one-dimensional coordination polymers, {Cd[S <sub>2</sub> P(OR)
 <sub>2</sub> ] <sub>2</sub> ( <sup>3</sup> LH <sub>2</sub> )} <sub>
 <i>n</i> </sub> , for R = Me and Et, but are precluded when R = i-Pr;
 <sup>3</sup> LH <sub>2</sub> = <i>N</i> , <i>N</i>
 &#x2032;-bis(3-pyridylmethyl)oxalamide
;
_journal_issue                   16
_journal_name_full               CrystEngComm
_journal_page_first              2992
_journal_page_last               3004
_journal_paper_doi               10.1039/D2CE00208F
_journal_volume                  24
_journal_year                    2022
_chemical_formula_moiety         'C18 H26 Cd N4 O6 P2 S4'
_chemical_formula_sum            'C18 H26 Cd N4 O6 P2 S4'
_chemical_formula_weight         697.01
_space_group_crystal_system      triclinic
_space_group_IT_number           2
_space_group_name_Hall           '-P 1'
_space_group_name_H-M_alt        'P -1'
_atom_sites_solution_hydrogens   mixed
_atom_sites_solution_primary     direct
_atom_sites_solution_secondary   difmap
_audit_creation_method           SHELXL-2017/1
_audit_update_record
;
2022-01-29 deposited with the CCDC.	2022-03-17 downloaded from the CCDC.
;
_cell_angle_alpha                81.4480(10)
_cell_angle_beta                 75.3990(10)
_cell_angle_gamma                70.165(2)
_cell_formula_units_Z            1
_cell_length_a                   7.23870(10)
_cell_length_b                   9.6411(2)
_cell_length_c                   10.4545(2)
_cell_measurement_reflns_used    11511
_cell_measurement_temperature    100(2)
_cell_measurement_theta_max      75.6460
_cell_measurement_theta_min      4.3690
_cell_volume                     662.56(2)
_computing_cell_refinement       'CrysAlisPro 1.171.39.31a (Rigaku OD, 2017)'
_computing_data_collection       'CrysAlisPro 1.171.39.31a (Rigaku OD, 2017)'
_computing_data_reduction        'CrysAlisPro 1.171.39.31a (Rigaku OD, 2017)'
_computing_molecular_graphics
'ORTEP-3 for Windows (Farrugia, 2012), DIAMOND (Brandenburg, 2006)'
_computing_publication_material  'publCIF (Westrip, 2010)'
_computing_structure_refinement  'SHELXL-2014/7 (Sheldrick, 2014)'
_computing_structure_solution    'SHELXS97 (Sheldrick, 2008)'
_diffrn_ambient_temperature      100(2)
_diffrn_measured_fraction_theta_full 1.000
_diffrn_measured_fraction_theta_max 1.000
_diffrn_measurement_device_type  'XtaLAB Synergy, Dualflex, AtlasS2'
_diffrn_measurement_method       '\w scans'
_diffrn_radiation_type           CuK\a
_diffrn_radiation_wavelength     1.54178
_diffrn_reflns_av_R_equivalents  0.0250
_diffrn_reflns_av_unetI/netI     0.0151
_diffrn_reflns_Laue_measured_fraction_full 1.000
_diffrn_reflns_Laue_measured_fraction_max 1.000
_diffrn_reflns_limit_h_max       8
_diffrn_reflns_limit_h_min       -8
_diffrn_reflns_limit_k_max       11
_diffrn_reflns_limit_k_min       -11
_diffrn_reflns_limit_l_max       12
_diffrn_reflns_limit_l_min       -12
_diffrn_reflns_number            14558
_diffrn_reflns_point_group_measured_fraction_full 1.000
_diffrn_reflns_point_group_measured_fraction_max 1.000
_diffrn_reflns_theta_full        67.072
_diffrn_reflns_theta_max         67.072
_diffrn_reflns_theta_min         4.381
_diffrn_source                   'micro-focus sealed X-ray tube'
_exptl_absorpt_coefficient_mu    11.062
_exptl_absorpt_correction_T_max  0.904
_exptl_absorpt_correction_T_min  0.360
_exptl_absorpt_correction_type   gaussian
_exptl_absorpt_process_details
'CrysAlisPro 1.171.39.31a (Rigaku Oxford Diffraction, 2017)'
_exptl_crystal_colour            colourless
_exptl_crystal_density_diffrn    1.747
_exptl_crystal_description       plate
_exptl_crystal_F_000             352
_exptl_crystal_size_max          0.166
_exptl_crystal_size_mid          0.065
_exptl_crystal_size_min          0.051
_refine_diff_density_max         0.340
_refine_diff_density_min         -0.346
_refine_diff_density_rms         0.052
_refine_ls_extinction_method     none
_refine_ls_goodness_of_fit_ref   1.026
_refine_ls_hydrogen_treatment    mixed
_refine_ls_matrix_type           full
_refine_ls_number_parameters     165
_refine_ls_number_reflns         2373
_refine_ls_number_restraints     1
_refine_ls_restrained_S_all      1.026
_refine_ls_R_factor_all          0.0165
_refine_ls_R_factor_gt           0.0164
_refine_ls_shift/su_max          0.001
_refine_ls_shift/su_mean         0.000
_refine_ls_structure_factor_coef Fsqd
_refine_ls_weighting_details
'w=1/[\s^2^(Fo^2^)+(0.0244P)^2^+0.4008P] where P=(Fo^2^+2Fc^2^)/3'
_refine_ls_weighting_scheme      calc
_refine_ls_wR_factor_gt          0.0431
_refine_ls_wR_factor_ref         0.0432
_reflns_Friedel_coverage         0.000
_reflns_number_gt                2360
_reflns_number_total             2373
_reflns_threshold_expression     'I > 2\s(I)'
_cod_data_source_file            d2ce00208f2.cif
_cod_data_source_block           1
_cod_database_code               1566629
_shelx_shelxl_version_number     2017/1
_shelx_space_group_comment
;
The symmetry employed for this shelxl refinement is uniquely defined
by the following loop, which should always be used as a source of
symmetry information in preference to the above space-group names.
They are only intended as comments.
;
_shelx_estimated_absorpt_t_min   0.261
_shelx_estimated_absorpt_t_max   0.602
_shelx_res_file
;
TITL P-1
    A.res
    created by SHELXL-2017/1 at 13:37:36 on 11-Dec-2017
CELL 1.54178 7.2387 9.6411 10.4545 81.448 75.399 70.165
ZERR 1       0.0001 0.0002  0.0002  0.001  0.001  0.002
LATT 1
SFAC C  H  N  O  P  S  Cd
UNIT 18 26 4 6 2 4 1
L.S. 18
OMIT -3 150
ACTA
BOND $H
FMAP 2
PLAN -1
DFIX 0.88 0.01 N2 H1n
SIZE 0.051 0.065 0.166
CONF
TEMP -173
WGHT    0.024400    0.400800
FVAR       0.23979
CD    7    0.500000    0.500000    0.500000    10.50000    0.01677    0.01071 =
         0.00990   -0.00159   -0.00192   -0.00471
S1    6    0.328487    0.671079    0.305290    11.00000    0.01320    0.01525 =
         0.01451   -0.00067   -0.00328   -0.00189
S2    6    0.821693    0.512492    0.304941    11.00000    0.01278    0.01629 =
         0.01329   -0.00099   -0.00417   -0.00307
P1    5    0.608501    0.595476    0.201561    11.00000    0.01268    0.01146 =
         0.01077   -0.00056   -0.00266   -0.00431
O1    4    0.671485    0.722903    0.100931    11.00000    0.01807    0.01563 =
         0.01418    0.00251   -0.00609   -0.00803
O2    4    0.609308    0.480325    0.107246    11.00000    0.01493    0.01553 =
         0.01439   -0.00426   -0.00191   -0.00515
O3    4   -0.053258    0.916324    0.880960    11.00000    0.02299    0.01801 =
         0.01711   -0.00335   -0.00302   -0.01027
N1    3    0.520163    0.708084    0.586326    11.00000    0.01535    0.01278 =
         0.01224   -0.00243   -0.00279   -0.00406
N2    3    0.119277    1.080721    0.851855    11.00000    0.01689    0.01199 =
         0.01345   -0.00427   -0.00021   -0.00527
H1N   2    0.160205    1.133948    0.891539    11.00000   -1.50000
C1    1    0.552209    0.795376    0.002564    11.00000    0.02644    0.02073 =
         0.02009    0.00833   -0.01193   -0.01060
AFIX 137
H1A   2    0.614817    0.863363   -0.056963    11.00000   -1.50000
H1B   2    0.415988    0.850813    0.047219    11.00000   -1.50000
H1C   2    0.545463    0.720779   -0.048837    11.00000   -1.50000
AFIX   0
C2    1    0.794435    0.415816    0.012373    11.00000    0.01676    0.02162 =
         0.01997   -0.01028   -0.00003   -0.00386
AFIX 137
H2A   2    0.771766    0.350890   -0.041726    11.00000   -1.50000
H2B   2    0.899990    0.358317    0.059927    11.00000   -1.50000
H2C   2    0.836324    0.494761   -0.045028    11.00000   -1.50000
AFIX   0
C3    1    0.359356    0.826678    0.618865    11.00000    0.01478    0.01464 =
         0.01195   -0.00011   -0.00236   -0.00598
AFIX  43
H3    2    0.233111    0.825959    0.608339    11.00000   -1.20000
AFIX   0
C4    1    0.367095    0.950656    0.667156    11.00000    0.01767    0.01288 =
         0.00803    0.00141   -0.00120   -0.00552
C5    1    0.553805    0.950353    0.681341    11.00000    0.02260    0.01652 =
         0.01232   -0.00273   -0.00227   -0.00998
AFIX  43
H5    2    0.566438    1.033959    0.712005    11.00000   -1.20000
AFIX   0
C6    1    0.720188    0.827362    0.650389    11.00000    0.01663    0.02363 =
         0.01736   -0.00238   -0.00449   -0.00829
AFIX  43
H6    2    0.847911    0.824403    0.661243    11.00000   -1.20000
AFIX   0
C7    1    0.697576    0.708245    0.603186    11.00000    0.01575    0.01685 =
         0.01521   -0.00263   -0.00332   -0.00387
AFIX  43
H7    2    0.812055    0.623727    0.582051    11.00000   -1.20000
AFIX   0
C8    1    0.178761    1.078741    0.707906    11.00000    0.01967    0.01222 =
         0.01287   -0.00146   -0.00111   -0.00429
AFIX  23
H8A   2    0.203526    1.172717    0.669476    11.00000   -1.20000
H8B   2    0.068431    1.069904    0.673043    11.00000   -1.20000
AFIX   0
C9    1    0.015339    0.995446    0.925008    11.00000    0.01210    0.01116 =
         0.01574   -0.00307   -0.00110   -0.00077
HKLF 4




REM  P-1
REM R1 =  0.0164 for    2360 Fo > 4sig(Fo)  and  0.0165 for all    2373 data
REM    165 parameters refined using      1 restraints

END

WGHT      0.0180      0.5100

REM Highest difference peak  0.340,  deepest hole -0.346,  1-sigma level  0.052
Q1    1   0.7243  0.5691  0.2463  11.00000  0.05    0.34
;
_shelx_res_checksum              2863
_shelx_hkl_file
;
   0   0  -1   40.57    0.88
   0   0  -1   39.46    0.91
   0   0   1   39.66    0.88
   0   0  -1   39.35    0.89
   0   0  -1   39.13    0.86
   0   0   1   39.01    0.89
   0   0  -2    0.55    0.15
   0   0   2    0.22    0.11
   0   0   2    0.29    0.11
   0   0   2    0.33    0.12
   0   0  -2    0.44    0.11
   0   0   2    0.27    0.05
   0   0  -2    0.59    0.14
   0   0   3   35.68    0.73
   0   0  -3   34.52    1.06
   0   0   3   34.85    1.07
   0   0   3   36.01    1.06
   0   0  -3   35.30    1.04
   0   0   3   35.05    1.15
   0   0   3   36.49    0.87
   0   0   3   36.58    1.10
   0   0  -4    1.95    0.24
   0   0   4    0.93    0.24
   0   0   4    2.02    0.26
   0   0   4    1.42    0.23
   0   0   4    1.65    0.25
   0   0  -4    1.63    0.29
   0   0   4    1.48    0.23
   0   0   4    1.74    0.16
   0   0  -4    1.55    0.24
   0   0   5  302.00    6.43
   0   0   5  277.26    6.18
   0   0   5  284.20    5.64
   0   0   5  305.88    6.23
   0   0  -5  269.76    6.41
   0   0   5  296.09    6.11
   0   0   5  303.67    6.43
   0   0  -5  297.07    6.16
   0   0   5  306.46    6.30
   0   0  -5  293.94    6.17
   0   0   5  289.29    6.18
   0   0  -5  291.11    6.30
   0   0  -6  138.59    3.46
   0   0  -6  139.67    3.71
   0   0  -6  145.82    3.95
   0   0   6  138.02    3.75
   0   0   6  138.24    3.65
   0   0   6  140.57    3.51
   0   0   6  146.21    3.76
   0   0   6  144.77    3.72
   0   0   6  144.53    3.59
   0   0   7    7.58    0.67
   0   0   7    8.81    0.79
   0   0  -7    8.17    0.83
   0   0   7    7.87    0.74
   0   0   7    7.42    0.72
   0   0   7    8.11    0.80
   0   0  -7    8.00    0.75
   0   0   7    8.14    0.72
   0   0  -8    0.47    0.30
   0   0   8    0.27    0.26
   0   0   8    0.29    0.28
   0   0   8    0.23    0.26
   0   0   8    0.56    0.27
   0   0   8    0.33    0.34
   0   0  -8    0.32    0.30
   0   0   8   -0.21    0.27
   0   0   9    4.08    0.68
   0   0   9    3.42    0.63
   0   0   9    2.85    0.55
   0   0   9    3.43    0.54
   0   0  -9    4.47    0.68
   0   0   9    3.71    0.60
   0   0  -9    3.95    0.63
   0   0  -9    4.61    0.63
   0   0   9    3.64    0.68
   0   0  10  268.75    6.71
   0   0 -10  271.00    6.51
   0   0 -10  268.59    6.64
   0   0 -10  262.13    6.35
   0   0  10  271.30    6.72
   0   0  10  271.52    7.03
   0   0  10  280.44    7.08
   0   0  10  265.31    6.87
   0   0 -11   53.40    1.90
   0   0  11   52.02    2.04
   0   0  11   51.60    2.13
   0   0 -11   51.62    1.82
   0   0  11   54.27    2.23
   0   0 -11   47.79    1.79
   0   0  12    1.16    0.23
   0  -1  11    4.46    0.56
   0  -1  11    4.68    0.51
   0  -1  11    5.28    0.56
   0   1 -11    4.50    0.44
   0   1 -11    5.12    0.52
   0   1 -11    5.00    0.48
   0  -1  11    5.26    0.66
   0  -1  10  152.93    4.39
   0   1 -10  147.04    4.09
   0   1 -10  170.45    4.43
   0  -1  10  158.73    4.66
   0  -1  10  157.46    4.75
   0   1 -10  141.41    4.23
   0   1 -10  170.63    4.49
   0  -1  10  158.48    4.30
   0  -1  10  163.18    4.53
   0  -1  10  151.94    4.50
   0  -1   9   87.22    2.86
   0   1  -9   78.86    2.76
   0   1  -9   78.46    2.90
   0  -1   9   83.72    3.17
   0  -1   9   74.86    2.96
   0  -1   9   85.69    3.03
   0   1  -9   75.48    2.94
   0  -1   9   76.96    2.90
   0   1  -9   83.66    3.00
   0  -1   9   81.57    3.15
   0  -1   8    0.25    0.31
   0  -1   8    0.48    0.36
   0  -1   8    0.52    0.35
   0   1  -8    1.17    0.41
   0   1  -8    0.85    0.31
   0   1  -8    0.89    0.29
   0  -1   8    0.42    0.31
   0   1  -8    0.92    0.39
   0  -1   8    0.48    0.32
   0  -1   7    1.96    0.37
   0   1  -7    1.35    0.35
   0  -1   7    1.40    0.39
   0  -1   7    1.46    0.38
   0   1  -7    1.38    0.37
   0  -1   7    0.77    0.28
   0  -1   7    1.91    0.42
   0   1  -7    1.05    0.32
   0  -1   7    1.79    0.37
   0   1  -7    1.77    0.44
   0  -1   6    6.35    0.54
   0   1  -6    6.82    0.43
   0  -1   6    6.85    0.61
   0  -1   6    7.35    0.67
   0   1  -6    6.46    0.67
   0  -1   6    5.98    0.60
   0  -1   6    6.95    0.64
   0  -1   6    7.09    0.60
   0   1  -6    6.68    0.64
   0  -1   5   39.53    1.37
   0  -1   5   36.25    1.27
   0  -1   5   37.37    1.35
   0  -1   5   37.57    1.24
   0   1  -5   41.51    1.51
   0  -1   5   37.85    0.81
   0  -1   5   37.10    1.33
   0  -1   5   36.13    1.27
   0  -1   5   36.07    1.27
   0   1  -5   36.65    1.25
   0   1  -5   35.93    1.04
   0   1  -5   38.33    1.31
   0   1  -5   36.07    1.35
   0  -1   5   38.58    1.34
   0  -1   4  393.98    7.36
   0  -1   4  366.10    7.22
   0  -1   4  394.55    7.79
   0   1  -4  385.15    7.75
   0  -1   4  387.92    7.73
   0  -1   4  385.41    7.63
   0  -1   4  383.96    7.74
   0  -1   4  384.82    7.86
   0   1  -4  400.55    7.98
   0  -1   4  395.93    7.80
   0   1  -4  381.88    7.79
   0  -1   4  392.62    7.85
   0  -1   4  391.89    7.77
   0   1  -4  374.51    7.81
   0  -1   3  385.79    7.73
   0  -1   3  391.45    7.71
   0   1  -3  385.51    7.67
   0   1  -3  383.13    7.70
   0  -1   3  394.74    7.74
   0  -1   3  388.29    7.27
   0  -1   3  393.92    7.43
   0  -1   3  386.04    7.27
   0  -1   3  381.16    7.68
   0   1  -2  253.63    4.95
   0  -1   2  253.91    4.85
   0  -1   2  258.54    4.95
   0   1  -2  246.03    5.06
   0  -1   2  253.92    5.06
   0   1  -1   32.52    0.80
   0   1  -1   30.88    0.79
   0   1  -1   31.29    0.82
   0  -1   1   31.44    0.80
   0  -1   1   32.13    0.80
   0   1  -1   32.70    0.82
   0  -1   1   30.93    0.81
   0  -1   0  241.15    4.65
   0  -1   0  242.38    4.52
   0   1   0  247.12    4.60
   0  -1   0  241.84    4.59
   0   1   0  243.52    4.59
   0  -1   0  243.29    4.58
   0   1   1  250.78    4.67
   0  -1  -1  241.79    4.63
   0  -1  -1  246.00    4.71
   0   1   1  243.12    4.73
   0   1   1  252.76    4.71
   0   1   1  246.05    4.75
   0  -1  -1  251.95    4.77
   0  -1  -1  247.80    4.75
   0   1   1  243.23    4.63
   0   1   1  249.62    4.60
   0  -1  -1  241.73    4.66
   0  -1  -2   12.17    0.52
   0   1   2   11.91    0.42
   0  -1  -2   12.33    0.45
   0   1   2   11.96    0.43
   0   1   2   11.54    0.45
   0   1   2   12.04    0.51
   0  -1  -2   11.80    0.29
   0   1   2   11.47    0.43
   0  -1  -2   11.74    0.38
   0  -1  -2   11.75    0.43
   0   1   3    1.90    0.21
   0   1   3    1.66    0.18
   0  -1  -3    2.43    0.29
   0   1   3    1.61    0.22
   0  -1  -3    2.09    0.14
   0  -1  -3    2.44    0.23
   0   1   3    1.52    0.19
   0  -1  -3    2.15    0.20
   0  -1  -3    2.25    0.14
   0  -1  -4  123.47    2.80
   0   1   4  124.64    2.81
   0   1   4  123.53    2.94
   0   1   4  121.41    2.79
   0   1   4  121.44    3.02
   0  -1  -4  123.19    2.96
   0  -1  -4  117.93    2.73
   0   1   4  127.79    2.88
   0   1   4  116.28    2.63
   0   1   4  123.34    2.83
   0   1   5   54.61    1.53
   0   1   5   54.79    1.43
   0   1   5   56.50    1.88
   0  -1  -5   56.09    1.60
   0  -1  -5   58.10    1.66
   0   1   5   55.06    1.66
   0   1   5   57.48    1.76
   0   1   5   57.68    1.67
   0   1   5   54.51    1.73
   0  -1  -5   56.18    1.81
   0  -1  -5   57.40    1.87
   0   1   5   53.28    1.76
   0   1   6  146.86    3.84
   0   1   6  154.12    3.60
   0   1   6  159.70    3.65
   0   1   6  158.90    3.87
   0   1   6  165.33    3.99
   0  -1  -6  149.94    3.91
   0  -1  -6  152.72    4.16
   0   1   6  152.46    3.94
   0   1   6  158.85    4.05
   0  -1  -6  151.45    3.60
   0   1   7  107.99    3.19
   0   1   7  109.74    3.38
   0   1   7  116.12    3.36
   0   1   7  111.66    3.34
   0   1   7  110.43    3.26
   0   1   7  111.76    3.01
   0  -1  -7  109.56    3.26
   0  -1  -7  114.84    3.59
   0  -1  -8    6.86    0.84
   0   1   8    5.62    0.69
   0   1   8    4.98    0.71
   0   1   8    5.94    0.71
   0   1   8    4.83    0.67
   0   1   8    6.52    0.63
   0  -1  -8    5.54    0.64
   0   1   8    6.61    0.74
   0   1   9    0.13    0.29
   0  -1  -9    0.71    0.29
   0   1   9    0.06    0.28
   0   1   9    0.59    0.34
   0   1   9    0.32    0.35
   0   1   9   -0.04    0.32
   0  -1  -9    1.16    0.46
   0  -1 -10  159.16    4.51
   0   1  10  156.65    4.63
   0   1  10  156.49    4.75
   0   1  10  157.83    4.60
   0  -1 -10  158.99    4.45
   0  -1 -10  154.28    4.01
   0   1  11   68.61    2.51
   0  -1 -11   64.81    2.22
   0  -1 -11   68.11    2.26
   0  -1 -11   63.11    2.24
   0   1  11   69.54    2.56
   0   1  12    2.02    0.33
   0   1  12    2.75    0.42
   0  -2  11    2.64    0.38
   0   2 -11    3.28    0.41
   0  -2  11    3.26    0.41
   0  -2  11    3.01    0.48
   0   2 -11    3.46    0.50
   0  -2  10   49.93    2.16
   0   2 -10   50.78    1.95
   0   2 -10   51.13    1.81
   0  -2  10   53.90    2.14
   0   2 -10   49.58    2.02
   0   2 -10   51.13    2.07
   0  -2  10   49.46    2.09
   0  -2  10   51.01    1.84
   0  -2  10   49.63    2.25
   0   2  -9   66.96    2.40
   0  -2   9   72.71    2.75
   0  -2   9   68.86    2.89
   0   2  -9   72.09    2.72
   0   2  -9   69.99    2.75
   0  -2   9   70.53    2.77
   0  -2   9   73.81    2.94
   0  -2   9   77.70    2.47
   0  -2   9   68.69    2.59
   0   2  -9   68.30    2.64
   0   2  -8    7.00    0.80
   0  -2   8    7.02    0.73
   0  -2   8    6.59    0.76
   0   2  -8    7.90    0.73
   0   2  -8    6.71    0.71
   0   2  -8    8.18    0.88
   0  -2   8    6.90    0.85
   0  -2   8    7.55    0.87
   0   2  -8    7.18    0.81
   0  -2   8    7.76    0.85
   0  -2   7    6.80    0.74
   0  -2   7    6.01    0.71
   0   2  -7    7.72    0.70
   0   2  -7    6.69    0.69
   0  -2   7    6.83    0.77
   0   2  -7    8.01    0.82
   0   2  -7    8.05    0.83
   0  -2   7    6.78    0.73
   0   2  -7    6.98    0.77
   0  -2   7    7.82    0.68
   0  -2   6  126.61    3.59
   0  -2   6  125.06    3.23
   0   2  -6  127.92    3.38
   0  -2   6  121.90    3.20
   0   2  -6  123.25    3.60
   0   2  -6  127.34    3.64
   0  -2   6  127.36    3.51
   0   2  -6  123.76    3.37
   0  -2   6  124.39    3.50
   0  -2   6  128.79    3.57
   0   2  -5  368.78    6.94
   0  -2   5  351.40    7.06
   0   2  -5  375.08    7.86
   0   2  -5  352.90    7.73
   0  -2   5  365.75    7.64
   0  -2   5  344.85    7.33
   0   2  -5  353.42    7.51
   0  -2   5  355.20    7.66
   0  -2   5  347.07    7.54
   0   2  -5  354.02    7.59
   0   2  -4  180.04    4.07
   0   2  -4  183.97    4.01
   0  -2   4  179.66    4.01
   0  -2   4  178.98    4.09
   0  -2   4  187.88    4.06
   0  -2   4  178.84    3.77
   0  -2   4  179.03    3.57
   0   2  -4  178.09    4.12
   0  -2   4  182.75    4.11
   0   2  -4  180.12    4.20
   0  -2   4  182.19    4.07
   0  -2   4  189.69    3.59
   0   2  -4  175.08    4.00
   0  -2   4  176.94    4.06
   0  -2   4  175.92    3.94
   0   2  -4  179.50    3.52
   0  -2   3  210.73    4.38
   0  -2   3  209.92    4.25
   0   2  -3  203.04    4.40
   0   2  -3  200.72    3.87
   0  -2   3  200.26    4.40
   0  -2   3  196.93    4.39
   0  -2   3  198.52    4.08
   0  -2   3  204.45    4.38
   0  -2   3  202.90    4.10
   0   2  -3  202.51    4.35
   0  -2   3  198.94    4.33
   0   2  -3  196.88    4.36
   0   2  -3  203.74    4.47
   0   2  -3  208.06    3.88
   0   2  -2    2.50    0.25
   0   2  -2    3.18    0.27
   0  -2   2    1.89    0.24
   0   2  -2    2.66    0.26
   0  -2   2    2.19    0.25
   0  -2   2    2.44    0.26
   0  -2   2    2.50    0.27
   0  -2   2    2.00    0.23
   0  -2   1   72.52    1.71
   0  -2   1   74.69    1.75
   0  -2   1   74.04    1.63
   0  -2   1   72.72    1.69
   0  -2   1   72.25    1.71
   0   2  -1   71.89    1.71
   0  -2   1   73.99    1.66
   0   2  -1   74.50    1.70
   0  -2   0  321.75    6.24
   0  -2   0  331.12    6.14
   0  -2   0  321.21    6.28
   0   2   0  328.85    6.30
   0   2   0  329.85    6.31
   0  -2   0  334.34    6.34
   0  -2   0  320.40    6.39
   0  -2   0  332.65    6.38
   0  -2  -1  290.77    5.56
   0   2   1  296.25    5.74
   0   2   1  290.07    5.64
   0  -2  -1  295.08    5.70
   0  -2  -1  287.33    5.50
   0  -2  -1  287.44    5.67
   0  -2  -1  292.15    5.65
   0   2   1  294.46    5.70
   0  -2  -2   19.86    0.60
   0  -2  -2   19.74    0.50
   0  -2  -2   20.08    0.71
   0  -2  -2   20.96    0.76
   0   2   2   19.94    0.53
   0  -2  -2   20.92    0.68
   0   2   2   20.77    0.66
   0   2   2   20.48    0.69
   0   2   2   21.01    0.62
   0   2   3   34.49    1.11
   0  -2  -3   34.74    1.20
   0  -2  -3   35.04    0.91
   0   2   3   34.90    0.95
   0  -2  -3   37.41    1.04
   0   2   3   35.32    1.07
   0  -2  -3   37.40    0.83
   0   2   3   35.73    0.87
   0   2   3   35.94    1.05
   0  -2  -3   35.16    0.99
   0   2   4   36.26    1.28
   0  -2  -4   37.42    1.01
   0  -2  -4   38.19    1.34
   0  -2  -4   37.34    1.12
   0   2   4   38.21    1.15
   0   2   4   38.89    1.24
   0   2   4   37.49    1.10
   0   2   4   36.39    1.17
   0   2   4   37.31    1.03
   0  -2  -4   35.28    1.03
   0   2   4   39.33    1.17
   0  -2  -4   38.24    1.02
   0  -2  -5  156.42    3.80
   0   2   5  153.21    3.78
   0   2   5  158.69    3.49
   0   2   5  160.46    3.62
   0   2   5  156.57    3.40
   0  -2  -5  154.05    3.39
   0   2   5  151.92    3.63
   0  -2  -5  158.29    3.50
   0   2   5  156.98    3.76
   0  -2  -5  152.85    3.82
   0   2   5  154.53    3.47
   0  -2  -6  102.73    2.97
   0   2   6  103.28    2.97
   0   2   6  105.64    2.90
   0   2   6  103.79    2.89
   0   2   6  101.90    2.68
   0  -2  -6  104.18    2.52
   0   2   6  101.93    2.96
   0  -2  -6  111.87    3.22
   0   2   6  107.96    3.04
   0   2   7   99.91    2.73
   0   2   7  100.88    3.08
   0   2   7   98.24    3.12
   0   2   7   99.29    3.02
   0   2   7  105.49    2.87
   0  -2  -7  100.66    3.39
   0  -2  -7  100.26    3.03
   0   2   7  102.73    3.19
   0   2   7  103.90    3.17
   0   2   8   49.53    1.73
   0  -2  -8   48.01    1.95
   0  -2  -8   52.29    2.41
   0   2   8   47.94    2.03
   0   2   8   51.99    2.25
   0   2   8   53.12    1.99
   0   2   8   49.35    2.18
   0   2   8   52.08    2.25
   0  -2  -9    1.30    0.33
   0   2   9    1.54    0.37
   0   2   9    2.10    0.46
   0   2   9    2.59    0.57
   0  -2  -9    2.04    0.54
   0   2   9    1.58    0.46
   0   2   9    1.06    0.40
   0  -2 -10   28.52    1.60
   0   2  10   25.90    1.59
   0   2  10   25.08    1.46
   0   2  10   26.79    1.64
   0  -2 -10   25.68    1.53
   0  -2 -11   93.67    2.78
   0   2  11   92.26    3.05
   0  -2 -11   90.92    2.81
   0   2  11   93.40    3.02
   0   2  11   85.27    3.16
   0   2  12    7.55    0.59
   0   2  12    9.11    0.70
   0   3 -11    1.64    0.29
   0  -3  11    1.46    0.29
   0   3 -11    1.45    0.32
   0  -3  10    5.17    0.61
   0   3 -10    4.51    0.49
   0   3 -10    5.24    0.59
   0  -3  10    5.55    0.66
   0  -3  10    4.54    0.62
   0   3 -10    5.19    0.67
   0  -3  10    5.07    0.54
   0   3  -9   63.14    2.42
   0   3  -9   60.73    2.05
   0   3  -9   61.73    2.42
   0  -3   9   57.02    2.59
   0   3  -9   62.15    2.54
   0  -3   9   58.59    2.19
   0  -3   9   61.83    2.29
   0  -3   9   58.29    2.48
   0   3  -9   56.78    2.23
   0  -3   9   59.97    2.46
   0   3  -8  135.18    4.06
   0  -3   8  138.84    4.49
   0  -3   8  134.62    4.16
   0  -3   8  132.42    3.93
   0   3  -8  130.01    4.21
   0   3  -8  132.11    4.09
   0  -3   8  138.76    3.50
   0   3  -8  140.74    4.23
   0  -3   8  132.30    4.19
   0   3  -8  131.39    3.67
   0  -3   8  137.99    3.79
   0   3  -7   12.06    1.01
   0   3  -7   13.98    1.08
   0  -3   7   11.22    0.91
   0  -3   7   11.54    1.00
   0   3  -7   13.30    0.89
   0   3  -7   12.29    1.06
   0   3  -7   12.22    1.02
   0  -3   7   12.96    1.13
   0  -3   7   11.34    0.81
   0  -3   7   11.90    1.01
   0  -3   6  164.49    3.93
   0   3  -6  163.72    4.59
   0   3  -6  171.14    4.43
   0  -3   6  171.12    4.42
   0   3  -6  166.04    4.12
   0   3  -6  167.53    4.54
   0   3  -6  155.89    4.42
   0  -3   6  165.36    4.60
   0  -3   6  163.55    4.22
   0  -3   5   36.66    1.62
   0   3  -5   36.22    1.61
   0  -3   5   35.81    1.20
   0  -3   5   38.04    1.50
   0  -3   5   37.28    1.14
   0   3  -5   38.40    1.65
   0  -3   5   36.70    1.40
   0   3  -5   39.17    1.59
   0   3  -5   37.56    1.59
   0   3  -5   37.89    1.41
   0   3  -4    1.25    0.29
   0   3  -4    1.27    0.25
   0  -3   4    1.42    0.19
   0   3  -4    1.69    0.27
   0  -3   4    1.47    0.26
   0   3  -4    1.17    0.31
   0  -3   4    1.27    0.30
   0  -3   4    0.86    0.19
   0  -3   4    1.12    0.13
   0   3  -4    1.78    0.34
   0  -3   4    1.06    0.23
   0  -3   4    1.18    0.17
   0  -3   4    1.61    0.25
   0  -3   3  167.87    3.63
   0   3  -3  169.46    3.83
   0  -3   3  162.66    3.72
   0  -3   3  166.56    3.85
   0   3  -3  168.41    3.91
   0  -3   3  163.82    3.63
   0   3  -3  166.08    3.96
   0  -3   3  170.88    3.76
   0  -3   3  173.04    3.89
   0   3  -3  180.36    3.78
   0   3  -3  164.15    3.83
   0   3  -3  165.66    3.96
   0  -3   3  162.05    3.61
   0  -3   3  170.15    3.90
   0  -3   3  170.24    3.49
   0   3  -2   51.65    1.48
   0  -3   2   50.79    1.43
   0  -3   2   50.71    1.49
   0   3  -2   52.50    1.56
   0  -3   2   51.67    1.34
   0   3  -2   52.53    1.51
   0   3  -2   54.30    1.61
   0   3  -2   50.04    1.46
   0  -3   2   49.80    1.49
   0  -3   2   48.48    1.47
   0   3  -2   51.34    1.50
   0  -3   2   50.23    1.45
   0  -3   2   47.25    1.35
   0   3  -1   10.24    0.55
   0  -3   1   11.10    0.53
   0  -3   1   11.23    0.52
   0  -3   1   10.95    0.58
   0  -3   1   11.00    0.50
   0  -3   1   10.64    0.43
   0   3  -1   10.26    0.51
   0   3  -1   11.31    0.53
   0  -3   1   11.77    0.55
   0  -3   0   63.21    1.60
   0  -3   0   62.12    1.46
   0  -3   0   63.23    1.54
   0   3   0   63.49    1.60
   0   3   0   63.85    1.69
   0  -3   0   64.73    1.65
   0  -3   0   62.38    1.67
   0  -3   0   65.20    1.33
   0  -3   0   63.18    1.39
   0  -3  -1  170.93    3.58
   0  -3  -1  168.55    3.33
   0   3   1  175.08    3.68
   0  -3  -1  170.03    3.46
   0  -3  -1  168.37    3.69
   0  -3  -1  176.59    3.66
   0  -3  -1  170.00    3.65
   0  -3  -2  199.22    3.84
   0  -3  -2  212.43    4.17
   0  -3  -2  198.64    3.99
   0  -3  -2  205.79    4.19
   0  -3  -2  203.51    4.32
   0  -3  -2  199.85    3.84
   0   3   2  200.04    4.14
   0  -3  -2  198.40    4.28
   0  -3  -3    3.19    0.30
   0   3   3    3.58    0.29
   0  -3  -3    2.88    0.22
   0  -3  -3    2.90    0.34
   0   3   3    3.36    0.32
   0  -3  -3    3.29    0.19
   0  -3  -3    3.12    0.31
   0   3   3    3.39    0.18
   0  -3  -3    3.48    0.32
   0  -3  -3    3.01    0.16
   0  -3  -4  243.55    5.48
   0   3   4  249.65    5.26
   0   3   4  243.85    5.04
   0  -3  -4  251.88    5.17
   0  -3  -4  247.97    5.04
   0   3   4  241.93    5.15
   0   3   4  252.70    5.31
   0  -3  -4  244.02    5.14
   0   3   4  241.17    5.28
   0   3   4  246.54    4.94
   0  -3  -4  245.24    4.85
   0  -3  -4  259.59    4.78
   0  -3  -5   72.70    2.31
   0  -3  -5   78.24    1.88
   0   3   5   77.91    2.24
   0  -3  -5   76.03    2.28
   0   3   5   78.00    2.09
   0  -3  -5   74.50    1.86
   0   3   5   76.06    1.83
   0   3   5   73.53    2.01
   0   3   6   19.00    0.99
   0   3   6   17.97    1.00
   0   3   6   20.87    1.11
   0  -3  -6   19.30    1.10
   0   3   6   20.05    1.13
   0   3   6   19.04    0.96
   0   3   6   19.52    1.06
   0   3   7   75.27    2.72
   0   3   7   78.46    2.62
   0   3   7   74.50    2.41
   0  -3  -7   78.91    2.55
   0   3   7   75.79    2.20
   0   3   7   75.67    2.58
   0   3   7   78.78    2.46
   0  -3  -7   81.32    2.94
   0   3   8   51.93    2.01
   0   3   8   51.24    1.80
   0  -3  -8   48.97    2.37
   0   3   8   54.66    2.23
   0   3   8   49.71    2.30
   0  -3  -8   55.69    2.00
   0   3   8   52.27    1.93
   0  -3  -9    2.39    0.57
   0   3   9    3.04    0.41
   0   3   9    2.45    0.50
   0   3   9    2.65    0.58
   0  -3 -10   36.34    1.80
   0   3  10   33.28    1.85
   0   3  10   32.50    1.68
   0   3  10   34.30    1.93
   0  -3 -11   21.37    1.17
   0   3  11   19.20    1.21
   0   3  11   18.37    1.24
   0  -3 -11   20.87    1.09
   0   3  11   22.22    1.19
   0   4 -10   53.84    1.88
   0   4 -10   55.52    2.02
   0  -4  10   51.75    1.93
   0  -4  10   55.07    2.03
   0  -4   9   34.42    1.67
   0   4  -9   36.57    1.55
   0  -4   9   37.03    1.83
   0  -4   9   35.81    1.93
   0   4  -9   41.09    1.91
   0   4  -9   37.17    1.75
   0   4  -9   40.62    1.92
   0  -4   8    8.67    0.85
   0   4  -8    8.32    0.80
   0  -4   8    9.49    0.74
   0   4  -8    8.83    0.97
   0  -4   8    8.43    0.93
   0   4  -8    8.39    0.92
   0   4  -8    8.50    0.87
   0   4  -8    9.29    0.98
   0  -4   8    7.65    0.96
   0  -4   8   10.26    0.74
   0  -4   7   12.27    0.85
   0   4  -7   14.07    1.06
   0   4  -7   12.71    1.15
   0   4  -7   13.30    0.86
   0  -4   7   12.49    1.12
   0  -4   7   12.56    1.01
   0  -4   7   11.93    1.14
   0   4  -7   11.87    1.04
   0  -4   7   12.00    0.77
   0   4  -7   12.83    1.13
   0   4  -6   61.26    2.34
   0   4  -6   59.31    2.40
   0  -4   6   65.87    2.29
   0   4  -6   61.25    2.04
   0   4  -6   58.00    2.41
   0  -4   6   67.54    2.66
   0   4  -6   59.50    2.53
   0  -4   6   62.01    2.04
   0  -4   5  142.76    3.44
   0  -4   5  147.01    3.72
   0  -4   5  150.30    4.18
   0   4  -5  131.18    4.00
   0   4  -5  136.77    3.88
   0   4  -5  147.47    3.61
   0   4  -5  142.41    4.13
   0   4  -5  147.37    4.01
   0   4  -4    2.16    0.38
   0  -4   4    1.26    0.27
   0   4  -4    1.83    0.37
   0   4  -4    0.89    0.25
   0  -4   4    1.14    0.30
   0   4  -4    1.43    0.28
   0  -4   4    1.48    0.24
   0   4  -4    2.37    0.38
   0   4  -4    1.89    0.40
   0  -4   4    1.44    0.26
   0   4  -3   11.37    0.81
   0   4  -3   11.50    0.76
   0   4  -3   11.82    0.79
   0  -4   3   10.57    0.67
   0  -4   3   10.83    0.63
   0  -4   3   11.12    0.53
   0  -4   3   11.70    0.63
   0   4  -3   11.76    0.70
   0   4  -3   11.50    0.65
   0  -4   3   11.24    0.76
   0  -4   3   10.90    0.55
   0  -4   3   10.76    0.58
   0   4  -3   11.24    0.68
   0  -4   2  136.98    3.06
   0   4  -2  135.47    3.11
   0  -4   2  132.22    3.18
   0   4  -2  130.05    3.17
   0   4  -2  138.06    3.39
   0  -4   2  127.90    3.18
   0  -4   2  133.11    3.20
   0  -4   2  132.83    3.24
   0  -4   2  130.62    2.95
   0   4  -2  128.30    3.13
   0   4  -2  134.58    3.39
   0  -4   1   97.33    2.36
   0  -4   1   92.98    2.06
   0   4  -1   93.97    2.31
   0   4  -1   97.70    2.62
   0  -4   1   92.87    2.40
   0  -4   1   95.10    2.34
   0   4  -1   94.61    2.51
   0   4  -1   93.66    2.45
   0  -4   1   91.02    2.21
   0  -4   1   95.61    2.37
   0  -4   1   92.60    2.30
   0  -4   1   92.67    2.43
   0   4  -1   89.77    2.30
   0   4  -1   90.99    2.40
   0   4  -1   94.93    2.33
   0   4   0  135.06    3.06
   0   4   0  133.90    3.18
   0   4   0  136.15    3.15
   0  -4   0  130.86    2.94
   0  -4   0  137.20    2.87
   0  -4   0  133.83    3.14
   0  -4   0  135.47    3.20
   0   4   0  136.11    3.42
   0  -4   0  134.48    2.72
   0  -4   0  137.01    3.08
   0  -4   0  131.33    2.99
   0   4   0  134.82    3.19
   0  -4  -1   63.49    1.77
   0  -4  -1   62.08    1.54
   0  -4  -1   61.91    1.78
   0  -4  -1   63.93    1.56
   0  -4  -1   62.73    1.38
   0   4   1   61.00    1.78
   0   4   1   64.00    1.79
   0  -4  -1   61.35    1.46
   0  -4  -1   62.11    1.67
   0   4   1   57.94    1.93
   0   4   2  119.35    2.73
   0  -4  -2  117.27    2.35
   0  -4  -2  123.89    2.79
   0  -4  -2  121.83    2.79
   0  -4  -2  123.42    2.65
   0  -4  -2  119.18    2.75
   0  -4  -2  119.55    2.62
   0  -4  -3   14.14    0.75
   0  -4  -3   14.89    0.82
   0  -4  -3   15.68    0.77
   0  -4  -3   14.45    0.62
   0  -4  -3   14.67    0.52
   0  -4  -3   13.07    0.71
   0   4   3   14.15    0.64
   0  -4  -3   15.39    0.73
   0  -4  -4  126.98    2.64
   0   4   4  120.24    2.85
   0  -4  -4  122.23    2.92
   0  -4  -4  117.08    2.97
   0  -4  -4  122.30    3.20
   0   4   5  245.39    5.37
   0   4   5  241.07    5.69
   0   4   5  248.97    5.42
   0   4   5  241.33    5.60
   0  -4  -5  241.02    5.70
   0   4   5  254.50    5.63
   0  -4  -5  234.91    5.39
   0  -4  -6    1.11    0.32
   0   4   6    0.96    0.28
   0   4   6    1.00    0.31
   0   4   6    0.91    0.25
   0   4   6    1.71    0.43
   0   4   7   18.55    1.22
   0   4   7   17.12    1.24
   0   4   7   17.68    1.06
   0   4   7   18.03    1.13
   0   4   8   46.11    1.91
   0   4   8   49.47    2.34
   0   4   8   48.14    1.96
   0  -4  -8   50.50    2.39
   0   4   8   48.96    2.23
   0   4   9    9.65    0.83
   0   4   9   10.47    0.79
   0  -4  -9   10.35    1.04
   0   4   9   10.03    1.04
   0   4   9   10.44    1.05
   0  -4 -10   20.52    1.28
   0   4  10   19.37    1.35
   0   4  10   18.83    0.91
   0   4  10   18.94    1.09
   0   4  10   16.97    1.27
   0   4  11   21.39    1.24
   0  -4 -11   21.95    1.02
   0   4  11   21.51    1.22
   0  -4 -11   23.45    1.19
   0  -5  10   16.50    0.91
   0  -5  10   17.40    0.93
   0   5 -10   16.26    0.83
   0   5 -10   17.43    0.91
   0  -5   9   18.57    1.18
   0   5  -9   18.96    1.24
   0   5  -9   16.28    0.83
   0   5  -9   17.70    1.08
   0   5  -9   17.35    1.09
   0  -5   9   16.83    0.87
   0  -5   9   17.15    1.19
   0  -5   8   13.19    1.14
   0   5  -8   13.08    1.04
   0  -5   8   12.16    1.14
   0   5  -8   12.52    1.03
   0   5  -8   12.49    1.13
   0   5  -8   12.25    0.90
   0  -5   8   10.63    0.83
   0  -5   7    0.66    0.42
   0  -5   7    1.01    0.49
   0   5  -7    1.09    0.40
   0   5  -7    0.91    0.30
   0   5  -7    0.98    0.47
   0   5  -7    0.67    0.37
   0  -5   7    0.95    0.33
   0   5  -6   40.20    2.07
   0  -5   6   44.13    2.21
   0  -5   6   42.01    1.68
   0   5  -6   42.28    2.06
   0   5  -6   40.88    1.90
   0   5  -6   40.35    1.86
   0  -5   5  329.47    6.77
   0   5  -5  303.40    7.18
   0   5  -5  300.75    7.42
   0   5  -5  298.57    6.61
   0   5  -5  289.38    7.46
   0  -5   5  301.62    7.54
   0   5  -5  313.74    7.46
   0   5  -5  315.07    7.18
   0   5  -4    3.96    0.53
   0   5  -4    3.94    0.53
   0  -5   4    4.26    0.59
   0   5  -4    4.55    0.64
   0   5  -4    4.27    0.52
   0   5  -4    4.31    0.43
   0   5  -3   15.59    0.80
   0  -5   3   16.41    1.02
   0   5  -3   14.37    0.75
   0   5  -3   14.66    0.94
   0   5  -3   16.04    1.10
   0   5  -3   16.89    0.98
   0   5  -3   13.24    0.72
   0   5  -3   14.90    0.92
   0   5  -2   29.02    1.37
   0  -5   2   33.27    1.39
   0   5  -2   34.91    1.33
   0  -5   2   33.56    1.29
   0   5  -2   36.23    1.51
   0   5  -2   34.44    1.56
   0   5  -2   32.97    1.23
   0  -5   2   32.75    1.10
   0   5  -2   28.70    1.13
   0   5  -2   30.50    1.19
   0  -5   1  133.91    3.17
   0   5  -1  139.35    3.26
   0   5  -1  148.07    3.82
   0  -5   1  141.46    3.25
   0   5  -1  144.37    3.75
   0  -5   1  133.58    3.47
   0   5  -1  139.69    3.38
   0   5   0  230.43    5.39
   0  -5   0  221.79    4.54
   0  -5   0  219.88    4.21
   0  -5   0  220.87    4.75
   0   5   0  204.16    4.58
   0  -5   0  198.15    4.87
   0  -5   0  225.09    4.62
   0   5   1   86.77    2.87
   0  -5  -1   96.21    2.08
   0  -5  -1   94.18    2.18
   0  -5  -1   94.24    2.58
   0  -5  -1   93.96    2.38
   0  -5  -1   91.87    2.13
   0  -5  -1   94.11    2.54
   0  -5  -2   10.89    0.61
   0  -5  -2   10.81    0.64
   0  -5  -2   10.02    0.69
   0  -5  -2   11.54    0.57
   0  -5  -2   11.51    0.73
   0   5   3   20.01    0.99
   0   5   3   19.12    1.04
   0  -5  -3   19.15    0.83
   0  -5  -3   19.86    0.81
   0  -5  -3   18.48    0.94
   0  -5  -3   20.24    0.98
   0   5   4   21.26    0.91
   0   5   4   20.25    0.99
   0   5   4   17.83    0.85
   0   5   4   20.88    1.06
   0   5   4   19.11    0.87
   0   5   4   22.45    1.17
   0   5   5  368.61    7.70
   0   5   5  365.67    7.95
   0   5   5  357.30    8.03
   0   5   6    6.92    0.77
   0   5   6    6.01    0.67
   0  -5  -6    6.76    0.67
   0   5   6    6.16    0.70
   0   5   7   19.15    1.37
   0   5   7   21.18    1.30
   0   5   7   15.58    0.90
   0   5   7   17.48    1.22
   0   5   8   16.18    1.31
   0   5   8   13.78    0.85
   0   5   8   13.36    1.02
   0  -5  -8   15.26    1.27
   0   5   8   14.58    1.16
   0  -5  -9   57.95    2.49
   0   5   9   58.01    2.12
   0   5   9   61.12    2.49
   0   5   9   59.75    2.58
   0  -5 -10   95.04    2.99
   0   5  10   97.16    3.14
   0   5  10   92.52    2.54
   0   5  10  100.59    3.22
   0   5  11   62.08    2.08
   0  -6   9   38.11    1.59
   0  -6   9   36.19    1.55
   0   6  -9   37.86    1.45
   0   6  -9   37.68    1.46
   0   6  -9   39.14    1.67
   0   6  -8    0.87    0.33
   0   6  -8    0.60    0.34
   0  -6   8    0.94    0.39
   0  -6   8    0.89    0.36
   0   6  -8    1.32    0.29
   0   6  -8    1.22    0.35
   0  -6   8    1.21    0.29
   0   6  -7    0.69    0.32
   0  -6   7    0.38    0.27
   0   6  -7    0.99    0.40
   0  -6   7   -0.35    0.34
   0  -6   7    0.96    0.42
   0   6  -7    0.17    0.26
   0   6  -7    0.47    0.25
   0   6  -6    7.87    0.76
   0  -6   6    7.28    0.90
   0   6  -6    6.61    0.75
   0   6  -6    6.62    0.82
   0   6  -6    6.64    0.90
   0   6  -5  210.03    5.40
   0   6  -5  215.01    5.86
   0  -6   5  216.28    5.87
   0   6  -5  222.63    5.91
   0   6  -5  210.86    5.84
   0   6  -4  135.29    4.09
   0   6  -4  138.14    3.44
   0   6  -4  139.04    3.46
   0  -6   4  133.40    4.10
   0   6  -4  136.04    3.86
   0   6  -4  132.36    3.89
   0   6  -4  134.49    4.28
   0  -6   3    3.89    0.57
   0   6  -3    3.69    0.47
   0   6  -3    3.88    0.53
   0   6  -3    4.60    0.58
   0   6  -3    4.60    0.68
   0   6  -3    4.75    0.53
   0   6  -3    4.01    0.55
   0   6  -2   11.85    0.85
   0   6  -2   12.40    0.84
   0   6  -2    9.94    0.82
   0   6  -2   10.72    0.70
   0   6  -2   12.44    0.97
   0   6  -2   11.87    0.92
   0   6  -2   10.86    0.79
   0  -6   2   12.02    0.87
   0   6  -1  115.23    3.43
   0   6  -1  115.30    3.21
   0   6  -1  118.64    3.19
   0   6  -1  117.68    3.22
   0  -6   1  114.82    3.15
   0   6  -1  119.47    3.10
   0   6  -1  111.10    3.30
   0   6  -1  122.56    3.60
   0   6   0   82.11    2.25
   0   6   0   79.86    2.55
   0   6   0   87.87    2.55
   0   6   0   89.96    2.64
   0   6   0   85.21    2.43
   0   6   0   94.80    3.09
   0   6   0   86.67    2.61
   0   6   0   88.93    2.75
   0   6   1  190.26    5.24
   0   6   1  190.73    4.70
   0   6   1  183.72    4.30
   0   6   1  187.35    4.63
   0   6   1  196.66    4.51
   0   6   1  179.13    4.60
   0   6   1  195.04    4.68
   0   6   2   54.55    1.98
   0   6   2   58.66    2.03
   0   6   2   56.71    1.72
   0   6   2   58.58    2.03
   0   6   2   57.43    2.11
   0   6   2   54.50    1.84
   0   6   3   23.28    1.31
   0   6   3   20.70    1.12
   0   6   3   22.17    1.19
   0   6   3   22.09    1.15
   0   6   3   22.40    1.09
   0   6   3   21.78    0.95
   0   6   4    1.29    0.33
   0   6   4    1.41    0.35
   0   6   4    1.88    0.41
   0   6   4    1.62    0.30
   0   6   4    1.60    0.33
   0   6   5  141.40    3.65
   0   6   5  139.71    4.19
   0   6   5  145.60    3.67
   0   6   5  135.75    3.96
   0   6   6   87.49    2.78
   0   6   6   86.69    2.81
   0   6   7   39.87    1.92
   0   6   7   39.19    1.94
   0   6   7   39.83    1.94
   0  -6  -8    8.31    0.91
   0   6   8    9.32    0.87
   0   6   8    7.15    0.81
   0   6   9   37.93    1.63
   0   6   9   39.25    1.82
   0  -6  -9   38.98    1.87
   0  -6 -10   28.89    1.23
   0   6  10   27.50    1.07
   0   6  10   25.99    1.31
   0   7  -8   43.03    1.83
   0  -7   8   40.83    1.66
   0  -7   8   44.21    1.76
   0   7  -8   41.69    1.54
   0   7  -7    5.52    0.58
   0  -7   7    4.69    0.63
   0  -7   7    5.07    0.67
   0   7  -7    5.76    0.52
   0   7  -7    5.99    0.78
   0  -7   7    5.34    0.63
   0  -7   6   12.05    1.06
   0   7  -6   13.29    0.92
   0   7  -6   12.74    1.16
   0   7  -6   12.65    0.95
   0   7  -6   12.66    1.07
   0  -7   5  118.92    3.87
   0   7  -5  117.99    3.98
   0   7  -5  116.51    3.50
   0   7  -5  115.45    3.57
   0   7  -4  130.09    3.56
   0   7  -4  129.08    4.09
   0   7  -4  135.64    3.59
   0   7  -4  127.27    3.83
   0   7  -4  127.04    4.14
   0   7  -4  135.75    3.94
   0  -7   4  133.11    4.07
   0   7  -3   18.06    1.12
   0   7  -3   19.53    1.16
   0   7  -3   19.35    1.25
   0   7  -3   18.78    1.24
   0   7  -3   17.95    1.21
   0  -7   3   18.98    1.23
   0   7  -3   17.63    1.23
   0   7  -2    1.66    0.39
   0   7  -2    1.31    0.33
   0   7  -2    1.47    0.37
   0   7  -2    1.21    0.38
   0   7  -2    0.67    0.31
   0  -7   2    1.05    0.33
   0  -7   1   69.71    2.25
   0   7  -1   65.17    2.43
   0   7  -1   65.55    2.65
   0   7  -1   74.23    2.74
   0   7  -1   69.08    2.53
   0   7  -1   70.12    2.33
   0   7  -1   71.62    2.51
   0   7   0   79.03    2.88
   0   7   0   81.57    2.76
   0   7   0   76.60    2.70
   0   7   0   76.97    2.47
   0   7   0   87.50    3.12
   0   7   0   73.89    2.25
   0   7   0   83.61    2.71
   0   7   1   26.24    1.44
   0   7   1   25.23    1.22
   0   7   1   27.37    1.44
   0   7   1   25.71    1.43
   0   7   1   24.60    1.45
   0   7   1   26.35    1.31
   0   7   2   24.54    1.43
   0   7   2   22.04    1.09
   0   7   2   22.10    1.33
   0   7   2   21.24    1.31
   0   7   2   23.08    1.35
   0   7   2   22.70    1.18
   0   7   3    0.66    0.35
   0   7   3    0.99    0.35
   0   7   3    0.53    0.28
   0   7   3    0.97    0.27
   0   7   3    0.53    0.34
   0   7   4    0.63    0.31
   0   7   4    0.74    0.44
   0   7   4    0.70    0.28
   0   7   4    0.77    0.33
   0   7   5  209.09    5.83
   0   7   5  217.29    5.37
   0   7   5  212.77    5.33
   0   7   5  210.74    5.58
   0   7   6  243.73    6.43
   0   7   6  239.11    6.15
   0   7   7    5.83    0.74
   0   7   7    5.13    0.67
   0   7   8    0.50    0.31
   0   7   8    0.90    0.36
   0  -7  -8    0.49    0.35
   0  -7  -9    8.91    0.77
   0   7   9    8.80    0.69
   0   7   9    8.54    0.75
   0   8  -7    7.78    0.56
   0  -8   7    7.60    0.57
   0   8  -7    7.31    0.68
   0  -8   7    7.35    0.60
   0  -8   7    7.53    0.66
   0   8  -6    1.34    0.29
   0  -8   6    1.07    0.36
   0   8  -6    1.49    0.41
   0  -8   6    1.79    0.41
   0   8  -6    2.02    0.36
   0  -8   6    1.56    0.38
   0   8  -5   48.45    2.20
   0  -8   5   51.19    2.06
   0   8  -5   52.28    2.02
   0  -8   5   45.60    2.16
   0   8  -5   51.20    1.88
   0   8  -4  124.16    3.97
   0   8  -4  126.13    3.69
   0  -8   4  131.44    3.80
   0   8  -4  136.69    3.90
   0   8  -4  132.45    3.52
   0   8  -3   60.24    2.43
   0   8  -3   64.03    2.50
   0   8  -3   62.12    2.45
   0   8  -3   66.77    2.39
   0  -8   3   62.57    2.28
   0   8  -3   61.69    2.39
   0   8  -3   63.04    2.33
   0  -8   2    9.25    0.74
   0   8  -2    8.15    0.82
   0   8  -2    7.57    0.75
   0   8  -2    8.00    0.82
   0   8  -2    8.84    0.80
   0   8  -2    8.39    0.84
   0   8  -2    8.83    0.89
   0   8  -1    1.55    0.44
   0   8  -1    1.40    0.43
   0   8  -1    1.71    0.55
   0   8  -1    2.22    0.49
   0   8  -1    1.81    0.38
   0   8  -1    1.15    0.41
   0   8  -1    1.71    0.37
   0   8   0    8.07    0.87
   0   8   0    6.82    0.87
   0   8   0    7.60    0.78
   0   8   0    7.30    0.82
   0   8   1   34.35    1.91
   0   8   1   38.64    1.73
   0   8   1   34.80    1.84
   0  -8  -1   34.65    1.55
   0   8   1   39.48    1.96
   0   8   1   34.21    1.52
   0   8   2  227.16    5.37
   0   8   2  230.16    6.14
   0   8   2  233.06    6.10
   0   8   2  230.52    6.09
   0   8   2  229.05    5.61
   0   8   2  229.63    6.01
   0   8   3   49.58    2.21
   0   8   3   50.91    2.22
   0   8   3   50.50    2.29
   0   8   3   52.87    2.36
   0   8   4    0.33    0.30
   0   8   4    0.47    0.29
   0   8   4    0.92    0.44
   0   8   4    0.49    0.32
   0   8   5   26.33    1.44
   0   8   5   31.75    1.81
   0   8   5   28.85    1.62
   0   8   6   38.19    1.96
   0   8   6   36.24    1.78
   0   8   7   90.90    3.07
   0   8   7   85.24    2.86
   0  -8  -8    4.73    0.61
   0   8   8    4.57    0.55
   0   8   8    4.64    0.54
   0   9  -6    9.44    0.64
   0   9  -6    8.92    0.51
   0  -9   6    8.73    0.61
   0  -9   5    6.39    0.63
   0  -9   5    7.25    0.66
   0   9  -5    6.74    0.54
   0   9  -5    5.86    0.58
   0  -9   4   13.77    1.05
   0   9  -4   13.36    0.92
   0   9  -4   13.60    0.74
   0   9  -4   12.45    0.84
   0   9  -3   10.54    0.81
   0  -9   3    9.53    0.91
   0   9  -3   10.06    0.80
   0   9  -3    9.28    0.79
   0   9  -2    0.87    0.33
   0   9  -2    0.56    0.27
   0   9  -2    1.23    0.39
   0   9  -2    0.09    0.22
   0  -9   2    0.26    0.32
   0   9  -1   61.62    2.45
   0   9  -1   63.01    2.32
   0   9  -1   64.18    2.50
   0   9   0   95.71    3.06
   0   9   0   99.56    3.41
   0   9   0  103.63    3.47
   0   9   0   89.85    3.39
   0  -9   0   97.76    3.04
   0   9   1   20.53    1.41
   0   9   1   19.00    1.40
   0   9   1   19.95    1.17
   0   9   1   19.14    1.36
   0   9   2   40.05    2.00
   0   9   2   37.57    1.98
   0   9   2   39.06    1.98
   0   9   3   52.35    2.25
   0   9   3   53.43    2.37
   0   9   3   52.11    2.24
   0   9   4    0.84    0.44
   0   9   4    0.99    0.33
   0   9   5   10.55    0.80
   0   9   5   11.78    0.97
   0   9   6   33.25    1.57
   0   9   7   18.23    1.02
   0  10  -3   34.78    1.25
   0 -10   3   35.31    1.44
   0 -10   2   22.10    1.14
   0  10  -2   22.34    1.15
   0 -10   1   14.56    0.87
   0  10  -1   15.98    1.06
   0  10   0  102.74    3.27
   0  10   1    1.81    0.44
   0 -10  -1    1.57    0.36
   0  10   2    4.57    0.60
   0  10   2    5.20    0.67
   0  10   3   25.09    1.30
   0  10   3   23.59    1.35
   0  10   4   16.43    0.94
   0  10   4   15.50    1.03
   0  10   5    6.73    0.63
  -1  10   3   29.71    1.18
  -1  10   2    1.85    0.35
  -1  10   1    2.21    0.40
  -1  10   0   76.99    2.51
  -1  10  -1  101.34    2.92
  -1  10  -2    6.65    0.48
  -1  10  -2    6.95    0.55
  -1   9   6    1.08    0.28
  -1   9   5   25.56    1.29
  -1   9   4   61.35    2.28
  -1   9   4   58.97    2.07
  -1   9   3   45.00    1.91
  -1   9   3   39.71    1.88
  -1   9   2   36.79    1.84
  -1   9   2   36.53    1.83
  -1   9   1    8.17    0.88
  -1   9   1    6.71    0.81
  -1   9   0   31.32    1.71
  -1   9   0   26.23    1.50
   1  -9   1  146.28    4.02
  -1   9  -1  149.31    4.32
  -1   9  -1  144.45    4.18
  -1   9  -2   23.95    1.32
  -1   9  -2   22.80    1.33
  -1   9  -3    0.27    0.20
  -1   9  -3    0.73    0.27
   1  -9   4    0.04    0.18
  -1   9  -4    0.07    0.16
  -1   9  -4    0.76    0.24
   1  -9   4    0.66    0.26
   1  -9   5    7.01    0.47
  -1   9  -5    8.82    0.58
   1  -9   5    7.88    0.63
  -1   8   7    0.80    0.33
  -1   8   7    0.50    0.24
  -1   8   6   16.16    1.05
  -1   8   6   15.13    1.14
  -1   8   5   16.88    1.03
  -1   8   5   18.82    1.29
  -1   8   5   18.05    1.20
  -1   8   4   51.62    2.21
  -1   8   4   46.23    2.01
  -1   8   4   49.93    2.19
  -1   8   3  103.89    3.46
  -1   8   3  102.76    3.34
  -1   8   3   93.43    3.30
  -1   8   2   84.90    2.87
  -1   8   2   89.52    3.22
  -1   8   2   84.28    3.17
  -1   8   1    1.34    0.46
  -1   8   1    1.61    0.48
  -1   8   1    2.51    0.56
  -1   8   1    1.51    0.48
  -1   8   0    0.83    0.37
  -1   8   0    0.59    0.37
  -1   8   0    0.65    0.34
  -1   8   0    0.71    0.39
  -1   8  -1   69.45    2.76
  -1   8  -1   65.79    2.75
  -1   8  -1   70.20    2.74
   1  -8   2   28.10    1.39
  -1   8  -2   26.14    1.54
  -1   8  -2   27.33    1.64
  -1   8  -3   17.82    1.18
  -1   8  -3   17.02    1.22
   1  -8   3   14.10    1.02
  -1   8  -3   16.35    1.05
  -1   8  -4   14.46    1.04
  -1   8  -4   12.88    0.88
  -1   8  -4   13.44    0.98
   1  -8   4   12.35    0.94
   1  -8   5   15.26    1.01
  -1   8  -5   15.52    1.01
   1  -8   5   16.35    1.04
  -1   8  -5   15.43    1.04
  -1   8  -6   33.04    1.39
  -1   8  -6   31.75    1.45
   1  -8   6   33.58    1.42
   1  -8   6   29.47    1.42
   1  -8   6   32.09    1.39
  -1   8  -7   19.99    0.91
   1  -8   7   18.00    0.87
  -1   7   8   38.62    1.71
  -1   7   8   36.07    1.50
   1  -7  -7   22.08    1.31
  -1   7   7   21.87    1.25
  -1   7   7   24.24    1.49
  -1   7   6   27.39    1.67
  -1   7   6   23.82    1.39
  -1   7   5   56.11    2.16
  -1   7   5   58.00    2.33
  -1   7   5   54.58    2.49
  -1   7   4   54.86    1.94
  -1   7   4   60.76    2.57
  -1   7   4   59.36    2.38
  -1   7   4   56.44    2.25
  -1   7   3    5.10    0.49
  -1   7   3    4.72    0.66
  -1   7   3    5.40    0.67
  -1   7   3    4.31    0.63
  -1   7   3    5.93    0.76
  -1   7   2   70.77    2.59
  -1   7   2   73.32    2.78
  -1   7   2   72.99    2.78
  -1   7   2   71.95    2.71
  -1   7   2   68.31    2.69
  -1   7   1    1.37    0.42
  -1   7   1    0.82    0.35
  -1   7   1    1.26    0.41
  -1   7   1    1.02    0.40
  -1   7   1    0.80    0.31
  -1   7   0    2.80    0.52
  -1   7   0    2.38    0.52
  -1   7   0    2.35    0.50
  -1   7   0    1.10    0.43
  -1   7  -1   98.84    3.46
   1  -7   1  103.82    3.12
  -1   7  -1   98.59    3.33
  -1   7  -1  104.33    3.38
  -1   7  -1   93.80    3.45
   1  -7   2  148.01    4.09
  -1   7  -2  144.38    3.94
  -1   7  -2  153.35    4.39
  -1   7  -2  146.71    3.83
  -1   7  -3    4.44    0.63
  -1   7  -3    5.88    0.74
   1  -7   3    3.75    0.60
  -1   7  -3    4.17    0.60
  -1   7  -3    4.07    0.57
  -1   7  -4   50.17    1.97
  -1   7  -4   47.61    1.89
  -1   7  -4   46.73    2.13
   1  -7   4   52.12    2.30
  -1   7  -4   48.04    2.12
   1  -7   5   10.08    0.98
  -1   7  -5   12.46    0.84
  -1   7  -5   11.00    0.93
  -1   7  -5   12.02    1.06
  -1   7  -6   29.57    1.69
   1  -7   6   30.99    1.62
   1  -7   6   29.51    1.63
  -1   7  -6   29.54    1.50
  -1   7  -7   27.56    1.52
   1  -7   7   25.82    1.38
  -1   7  -7   28.78    1.37
   1  -7   7   27.77    1.42
   1  -7   8   36.44    1.45
   1  -7   8   37.16    1.47
  -1   7  -8   36.89    1.41
  -1   6   9   32.44    1.39
  -1   6   9   31.68    1.43
  -1   6   8   85.46    2.91
  -1   6   8   82.30    2.67
  -1   6   7   18.63    1.21
  -1   6   7   17.93    1.35
  -1   6   6   24.86    1.61
  -1   6   6   22.80    1.37
  -1   6   5   59.19    2.58
  -1   6   5   65.23    2.26
  -1   6   5   60.57    2.36
  -1   6   4    1.19    0.35
  -1   6   4    0.47    0.32
  -1   6   4    0.95    0.27
  -1   6   4    0.74    0.29
  -1   6   3    1.15    0.33
  -1   6   3    0.90    0.33
  -1   6   3    1.13    0.33
  -1   6   3    0.57    0.24
  -1   6   3    1.29    0.34
  -1   6   3    1.80    0.44
  -1   6   2   62.39    1.90
  -1   6   2   66.45    2.34
  -1   6   2   67.27    2.39
  -1   6   2   67.19    2.33
  -1   6   2   65.06    2.36
  -1   6   2   68.96    2.44
  -1   6   1  108.52    3.32
  -1   6   1   99.12    3.23
  -1   6   1   97.84    3.09
  -1   6   1  100.98    3.08
  -1   6   1   98.25    3.10
  -1   6   1  101.82    2.99
  -1   6   0   69.64    2.43
  -1   6   0   73.95    2.53
  -1   6   0   67.43    2.61
  -1   6   0   69.59    2.17
  -1   6   0   68.22    2.58
  -1   6   0   68.30    2.41
  -1   6  -1   28.33    1.43
  -1   6  -1   27.63    1.42
  -1   6  -1   26.38    1.53
  -1   6  -1   30.75    1.62
  -1   6  -1   29.52    1.45
  -1   6  -1   27.79    1.51
  -1   6  -2   65.13    2.20
  -1   6  -2   64.95    2.33
  -1   6  -2   64.83    2.32
  -1   6  -2   65.88    2.49
  -1   6  -2   63.04    2.48
  -1   6  -2   64.01    2.18
  -1   6  -2   63.82    2.26
  -1   6  -3   40.79    1.72
  -1   6  -3   38.64    1.73
  -1   6  -3   37.29    1.63
   1  -6   3   37.76    1.90
  -1   6  -3   37.11    1.76
  -1   6  -3   37.99    1.99
  -1   6  -3   36.88    1.69
  -1   6  -3   39.86    1.72
  -1   6  -4   16.03    1.27
   1  -6   4   15.39    1.23
  -1   6  -4   16.39    1.02
  -1   6  -4   12.85    1.06
  -1   6  -4   15.08    1.08
  -1   6  -4   14.69    0.98
   1  -6   5  111.62    3.89
  -1   6  -5  111.00    3.83
  -1   6  -5  112.16    3.54
  -1   6  -5  118.42    3.84
  -1   6  -5  118.27    3.33
  -1   6  -6   20.60    1.08
  -1   6  -6   17.31    1.19
  -1   6  -6   18.56    1.44
   1  -6   6   20.18    1.46
  -1   6  -6   18.48    1.30
  -1   6  -7    5.23    0.65
   1  -6   7    4.29    0.68
  -1   6  -7    5.98    0.81
  -1   6  -7    6.95    0.72
   1  -6   7    5.66    0.75
   1  -6   8   36.83    1.52
  -1   6  -8   38.07    1.65
   1  -6   8   38.17    1.77
   1  -6   8   38.37    1.77
  -1   6  -8   38.23    1.87
  -1   6  -8   38.08    1.66
   1  -6   9   23.08    1.11
  -1   6  -9   23.33    1.09
   1  -6   9   22.68    1.15
  -1   6  -9   22.18    1.04
   1  -5 -10   54.44    1.97
  -1   5  10   58.05    1.75
  -1   5   9   68.71    2.36
  -1   5   9   63.07    2.47
  -1   5   9   70.94    2.40
   1  -5  -9   60.97    2.17
   1  -5  -8   10.59    1.02
  -1   5   8   14.50    1.11
  -1   5   8   13.63    1.14
  -1   5   8   12.37    0.99
  -1   5   7    0.80    0.37
  -1   5   7    0.17    0.26
  -1   5   7    0.29    0.32
  -1   5   6   30.16    1.61
  -1   5   6   30.65    1.57
  -1   5   6   35.49    1.66
  -1   5   6   34.79    1.90
  -1   5   5  193.71    4.83
  -1   5   5  199.27    5.05
  -1   5   5  206.82    5.00
  -1   5   5  196.81    5.36
  -1   5   4  149.98    3.88
  -1   5   4  151.43    3.78
  -1   5   4  146.28    4.15
  -1   5   4  145.72    3.72
  -1   5   4  139.52    3.69
  -1   5   3   16.77    0.99
  -1   5   3   17.36    0.99
  -1   5   3   14.61    0.90
  -1   5   3   17.03    0.96
  -1   5   3   16.13    1.04
  -1   5   3   17.15    0.89
  -1   5   3   17.52    0.97
  -1   5   2   31.58    1.42
  -1   5   2   31.64    1.39
  -1   5   2   30.07    1.32
   1  -5  -2   29.53    1.11
  -1   5   2   31.39    1.38
  -1   5   2   29.84    1.32
  -1   5   2   30.51    1.29
   1  -5  -2   31.45    1.03
  -1   5   2   31.16    1.13
  -1   5   1   35.72    1.37
  -1   5   1   39.50    1.59
  -1   5   1   37.32    1.60
  -1   5   1   37.28    1.49
  -1   5   1   37.64    1.45
  -1   5   1   35.31    1.46
  -1   5   0   96.11    3.00
  -1   5   0  105.06    3.09
  -1   5   0  107.69    3.06
  -1   5   0   94.89    2.82
  -1   5   0  111.09    2.94
  -1   5   0  105.85    2.90
  -1   5  -1  172.44    4.25
   1  -5   1  167.13    3.78
  -1   5  -1  165.31    4.39
  -1   5  -1  161.28    4.40
  -1   5  -1  173.81    4.20
  -1   5  -1  168.08    4.16
  -1   5  -1  181.66    4.36
  -1   5  -2  101.77    2.84
  -1   5  -2  103.62    3.07
  -1   5  -2   95.43    3.17
  -1   5  -2  101.95    2.86
  -1   5  -2  104.88    3.03
  -1   5  -2   96.71    2.97
  -1   5  -2  101.09    2.70
   1  -5   2   98.66    2.54
  -1   5  -2   96.98    2.68
  -1   5  -2  100.19    2.54
  -1   5  -2  101.94    2.85
  -1   5  -3    5.45    0.59
  -1   5  -3    6.21    0.62
  -1   5  -3    4.56    0.51
  -1   5  -3    3.92    0.52
  -1   5  -3    4.93    0.51
  -1   5  -3    4.72    0.64
  -1   5  -3    4.97    0.52
  -1   5  -3    4.10    0.53
  -1   5  -4    9.80    0.67
   1  -5   4   10.77    1.00
  -1   5  -4   11.09    0.84
  -1   5  -4   11.11    0.90
  -1   5  -4   10.66    0.71
  -1   5  -4   10.12    0.93
  -1   5  -4   10.37    0.88
  -1   5  -4   12.23    0.83
   1  -5   4    8.91    0.63
  -1   5  -5   94.46    2.85
   1  -5   5   98.91    2.82
  -1   5  -5   98.10    3.32
   1  -5   5   95.95    3.47
  -1   5  -5   95.92    3.33
  -1   5  -5   90.81    2.99
  -1   5  -6   92.87    2.83
  -1   5  -6   94.78    3.48
  -1   5  -6   95.10    3.28
   1  -5   6   99.51    2.93
  -1   5  -6   90.13    3.10
   1  -5   6   86.92    3.41
  -1   5  -7   21.22    1.09
  -1   5  -7   19.70    1.50
   1  -5   7   22.60    1.62
  -1   5  -7   21.28    1.36
   1  -5   7   21.07    1.20
  -1   5  -7   24.27    1.46
   1  -5   7   19.68    1.40
   1  -5   8    2.57    0.42
   1  -5   8    2.24    0.50
  -1   5  -8    2.34    0.56
   1  -5   8    2.35    0.51
  -1   5  -8    3.31    0.55
  -1   5  -8    3.45    0.55
  -1   5  -9   26.48    1.33
   1  -5   9   27.81    1.45
   1  -5   9   29.98    1.54
  -1   5  -9   29.50    1.42
   1  -5  10   21.78    1.09
  -1   5 -10   22.58    1.05
   1  -5  10   22.45    1.01
  -1   5 -10   23.40    1.03
  -1   4  10   19.77    1.25
  -1   4  10   21.35    1.17
   1  -4 -10   20.04    1.22
  -1   4  10   18.20    0.91
  -1   4   9   17.97    1.17
   1  -4  -9   13.85    1.08
  -1   4   9   16.34    1.06
  -1   4   9   16.04    0.86
  -1   4   9   15.74    1.28
  -1   4   8   13.50    1.07
  -1   4   8   13.25    1.05
  -1   4   8   13.68    1.22
  -1   4   8   15.13    0.91
   1  -4  -8   13.92    1.16
  -1   4   7   35.26    1.89
   1  -4  -7   33.53    1.83
  -1   4   7   35.49    1.45
  -1   4   7   32.69    1.63
  -1   4   6    1.38    0.37
  -1   4   6    1.91    0.47
  -1   4   6    1.99    0.43
  -1   4   6    1.38    0.27
  -1   4   6    1.31    0.36
  -1   4   5  131.90    3.79
  -1   4   5  128.03    3.62
  -1   4   5  134.42    3.54
  -1   4   5  127.27    3.49
  -1   4   4  351.26    7.26
   1  -4  -4  343.34    7.23
  -1   4   4  344.97    7.71
  -1   4   4  350.86    7.45
  -1   4   4  344.15    7.39
  -1   4   3   10.37    0.66
   1  -4  -3    9.35    0.66
   1  -4  -3    9.36    0.49
   1  -4  -3   10.63    0.54
  -1   4   3    9.16    0.63
  -1   4   3    8.42    0.67
   1  -4  -3    9.68    0.58
   1  -4  -2   33.96    1.07
   1  -4  -2   31.33    1.12
   1  -4  -2   33.78    1.34
  -1   4   2   32.17    1.29
   1  -4  -2   34.52    1.19
   1  -4  -2   33.51    1.01
   1  -4  -2   34.63    1.04
   1  -4  -1   54.15    1.49
   1  -4  -1   53.08    1.74
   1  -4  -1   53.95    1.49
   1  -4  -1   54.14    1.68
   1  -4  -1   54.27    1.50
   1  -4  -1   59.43    1.54
  -1   4   1   54.57    1.79
   1  -4  -1   53.73    1.78
   1  -4   0   83.12    2.33
  -1   4   0   89.62    2.44
   1  -4   0   84.98    1.94
   1  -4   0   78.51    2.10
  -1   4   0   85.80    2.43
   1  -4   0   89.63    2.16
   1  -4   0   84.64    2.14
   1  -4   0   83.97    2.37
   1  -4   0   83.49    1.98
   1  -4   0   83.51    1.93
   1  -4   0   85.99    2.35
   1  -4   0   89.35    2.38
  -1   4  -1  160.01    3.69
   1  -4   1  153.29    3.69
   1  -4   1  149.37    3.36
   1  -4   1  155.93    3.52
  -1   4  -1  147.39    3.75
   1  -4   1  151.64    3.72
   1  -4   1  144.61    3.06
   1  -4   1  158.58    3.47
   1  -4   1  151.32    3.03
  -1   4  -1  165.68    3.96
   1  -4   1  153.59    3.64
  -1   4  -1  161.09    3.68
   1  -4   1  156.94    3.69
   1  -4   1  154.65    3.54
  -1   4  -1  157.38    3.41
   1  -4   2   31.02    1.18
   1  -4   2   32.07    1.06
  -1   4  -2   33.43    1.18
   1  -4   2   32.43    1.24
   1  -4   2   32.16    1.17
  -1   4  -2   33.78    1.25
   1  -4   2   31.80    0.96
   1  -4   2   33.02    1.33
  -1   4  -2   32.20    1.32
  -1   4  -2   29.97    1.20
   1  -4   2   31.42    1.26
  -1   4  -2   31.84    1.42
   1  -4   2   31.98    1.13
   1  -4   3   41.18    1.56
  -1   4  -3   44.03    1.59
   1  -4   3   42.92    1.34
  -1   4  -3   38.91    1.71
  -1   4  -3   44.64    1.51
   1  -4   3   45.52    1.53
  -1   4  -3   44.83    1.51
   1  -4   3   42.85    1.44
  -1   4  -3   43.17    1.71
   1  -4   3   43.94    1.55
   1  -4   3   42.37    1.28
  -1   4  -3   42.86    1.56
   1  -4   3   44.61    1.40
   1  -4   4   24.61    1.01
  -1   4  -4   25.81    1.36
  -1   4  -4   25.76    1.38
  -1   4  -4   27.14    1.16
  -1   4  -4   24.68    1.26
  -1   4  -4   24.41    1.25
  -1   4  -4   22.90    1.15
   1  -4   4   23.71    1.13
  -1   4  -4   25.89    1.14
   1  -4   5   60.84    2.51
   1  -4   5   67.20    2.23
  -1   4  -5   64.13    2.40
  -1   4  -5   64.87    2.10
  -1   4  -5   60.60    2.18
  -1   4  -5   61.03    2.35
  -1   4  -5   62.20    2.46
  -1   4  -6  349.68    8.03
   1  -4   6  339.33    8.47
  -1   4  -6  351.38    8.17
   1  -4   6  350.58    7.96
  -1   4  -6  355.30    7.67
  -1   4  -6  335.61    8.30
  -1   4  -6  333.60    8.27
  -1   4  -7   13.37    1.15
  -1   4  -7   10.86    0.79
   1  -4   7   11.61    1.12
   1  -4   7    5.12    0.77
  -1   4  -7    4.24    0.76
   1  -4   7   10.29    0.93
  -1   4  -7   10.97    0.97
  -1   4  -8   21.40    1.43
  -1   4  -8   21.59    1.36
   1  -4   8   21.38    1.53
  -1   4  -8   20.03    1.04
  -1   4  -8   20.31    1.43
   1  -4   8   21.59    1.48
  -1   4  -8   19.64    1.45
   1  -4   8   20.71    1.35
   1  -4   9    1.27    0.37
   1  -4   9    0.41    0.31
   1  -4   9    0.77    0.36
  -1   4  -9    0.66    0.30
  -1   4  -9    0.48    0.29
  -1   4  -9    0.84    0.34
   1  -4  10   13.27    0.83
   1  -4  10   14.35    0.91
  -1   4 -10   13.52    0.92
   1  -4  10   13.29    0.95
  -1   4 -10   13.46    0.87
   1  -3 -11   -0.04    0.20
  -1   3  11    0.17    0.19
  -1   3  11    0.38    0.23
  -1   3  10   17.49    0.89
  -1   3  10   17.29    0.99
   1  -3 -10   18.35    0.99
  -1   3  10   19.30    1.32
   1  -3 -10   17.84    1.24
  -1   3  10   17.15    1.14
  -1   3   9   98.25    3.54
  -1   3   9   94.85    2.94
  -1   3   9  100.19    3.04
   1  -3  -9   93.10    3.20
  -1   3   9   98.58    3.29
  -1   3   8  120.64    3.85
  -1   3   8  127.29    3.67
  -1   3   8  126.00    4.14
  -1   3   8  129.70    3.76
  -1   3   8  126.00    3.85
   1  -3  -8  124.45    4.05
  -1   3   7   29.97    1.67
  -1   3   7   27.76    1.48
  -1   3   7   29.63    1.52
   1  -3  -7   29.97    1.69
  -1   3   7   27.61    1.39
  -1   3   7   28.16    1.47
  -1   3   6   16.17    0.98
  -1   3   6   16.72    1.07
  -1   3   6   14.35    0.97
  -1   3   6   17.27    1.13
  -1   3   6   17.18    0.97
  -1   3   5   68.61    2.13
  -1   3   5   70.20    2.30
  -1   3   5   65.81    1.99
  -1   3   5   64.47    2.09
  -1   3   5   65.19    2.19
  -1   3   4  369.83    7.54
   1  -3  -4  373.71    7.81
  -1   3   4  381.56    7.46
   1  -3  -4  381.35    7.44
   1  -3  -4  378.33    7.64
   1  -3  -4  375.93    7.68
  -1   3   4  372.90    7.26
   1  -3  -4  387.21    7.79
   1  -3  -4  373.27    7.54
  -1   3   3  303.90    6.19
   1  -3  -3  292.01    6.32
   1  -3  -3  300.73    6.01
   1  -3  -3  316.35    6.33
   1  -3  -3  296.89    6.26
   1  -3  -3  292.41    6.33
   1  -3  -3  304.99    6.10
   1  -3  -3  299.99    6.05
  -1   3   2    1.30    0.24
   1  -3  -2    0.95    0.16
   1  -3  -2    1.31    0.24
   1  -3  -2    1.66    0.22
   1  -3  -2    0.95    0.22
   1  -3  -2    1.39    0.20
   1  -3  -2    1.52    0.19
   1  -3  -2    1.22    0.22
   1  -3  -2    1.40    0.21
   1  -3  -1   14.80    0.66
   1  -3  -1   15.36    0.58
   1  -3  -1   15.53    0.76
   1  -3  -1   15.47    0.62
   1  -3  -1   14.70    0.71
   1  -3  -1   14.68    0.68
  -1   3   1   15.11    0.72
   1  -3  -1   14.90    0.73
   1  -3  -1   16.02    0.57
   1  -3   0   55.48    1.58
   1  -3   0   53.44    1.33
  -1   3   0   52.62    1.57
   1  -3   0   52.51    1.56
  -1   3   0   55.06    1.55
   1  -3   0   53.24    1.26
   1  -3   0   53.44    1.49
  -1   3   0   53.91    1.26
   1  -3   0   54.42    1.37
   1  -3   0   52.87    1.60
   1  -3   0   51.87    1.57
   1  -3   0   46.59    1.27
   1  -3   0   54.19    1.37
   1  -3   1  123.49    2.96
   1  -3   1  121.81    2.80
   1  -3   1  133.35    3.05
   1  -3   1  127.86    3.00
   1  -3   1  130.01    2.64
   1  -3   1  123.55    3.04
  -1   3  -1  125.54    3.02
   1  -3   1  129.52    2.65
  -1   3  -1  132.38    3.08
  -1   3  -1  133.85    3.11
   1  -3   1  124.66    2.87
  -1   3  -1  126.95    2.79
   1  -3   1  124.55    3.06
  -1   3  -2  269.03    5.93
   1  -3   2  287.95    6.00
  -1   3  -2  290.03    5.94
   1  -3   2  285.20    5.92
  -1   3  -2  263.21    5.99
  -1   3  -2  280.50    5.79
   1  -3   2  281.18    5.86
   1  -3   2  282.93    5.81
  -1   3  -2  280.40    5.76
   1  -3   2  278.91    5.65
   1  -3   2  280.49    5.88
   1  -3   2  287.00    5.95
  -1   3  -2  280.94    5.91
  -1   3  -3  139.51    3.42
  -1   3  -3  137.26    3.42
  -1   3  -3  137.19    3.22
   1  -3   3  134.89    3.34
   1  -3   3  137.89    3.32
   1  -3   3  146.32    3.38
   1  -3   3  135.49    3.37
  -1   3  -3  129.09    3.16
  -1   3  -3  139.29    3.30
   1  -3   3  139.55    3.23
   1  -3   3  135.84    3.19
  -1   3  -3  132.60    3.45
   1  -3   3  135.00    3.18
   1  -3   3  137.14    3.27
   1  -3   3  137.66    3.23
   1  -3   4   13.06    0.81
  -1   3  -4   12.19    0.71
  -1   3  -4   14.29    0.82
  -1   3  -4   12.54    0.85
   1  -3   4   12.87    0.79
   1  -3   4   14.17    0.73
   1  -3   4   14.08    0.78
   1  -3   4   14.19    0.71
   1  -3   4   13.60    0.67
  -1   3  -4   12.46    0.64
   1  -3   5    4.21    0.41
   1  -3   5    4.64    0.54
   1  -3   5    5.06    0.63
  -1   3  -5    5.00    0.61
   1  -3   5    5.21    0.43
  -1   3  -5    5.00    0.58
  -1   3  -5    5.84    0.60
  -1   3  -5    6.09    0.53
   1  -3   6  258.04    6.57
  -1   3  -6  264.71    6.36
   1  -3   6  259.77    6.29
  -1   3  -6  252.56    6.42
  -1   3  -6  263.91    5.92
  -1   3  -6  258.55    6.26
   1  -3   6  246.59    5.73
  -1   3  -7  132.24    4.18
   1  -3   7  131.86    4.30
   1  -3   7  133.08    4.10
  -1   3  -7  131.10    3.97
   1  -3   7  135.42    4.13
  -1   3  -7  135.48    3.66
  -1   3  -7  132.42    4.13
   1  -3   7  136.56    3.63
   1  -3   8    6.38    0.82
  -1   3  -8    6.22    0.78
  -1   3  -8    5.17    0.72
  -1   3  -8    5.36    0.57
   1  -3   8    6.43    0.81
  -1   3  -8    6.64    0.83
   1  -3   8    5.03    0.57
   1  -3   8    5.94    0.85
  -1   3  -8    5.87    0.79
  -1   3  -9    7.79    0.85
   1  -3   9    6.48    0.80
   1  -3   9    7.28    0.86
  -1   3  -9    8.20    0.82
   1  -3   9    6.96    0.85
   1  -3   9    7.32    0.64
  -1   3  -9    8.57    0.92
  -1   3 -10    6.22    0.69
  -1   3 -10    6.11    0.64
  -1   3 -10    7.21    0.74
   1  -3  10    5.86    0.65
   1  -3  10    6.77    0.74
   1  -3  10    6.46    0.72
  -1   3 -11   21.52    1.06
  -1   3 -11   20.16    0.98
   1  -3  11   21.03    1.07
   1  -3  11   17.69    0.96
  -1   2  11    3.64    0.50
  -1   2  11    2.82    0.46
   1  -2 -11    3.20    0.45
  -1   2  11    3.48    0.43
  -1   2  10   27.35    1.60
  -1   2  10   28.70    1.58
   1  -2 -10   27.51    1.59
  -1   2  10   28.16    1.11
  -1   2  10   28.95    1.47
   1  -2 -10   26.05    1.31
  -1   2   9   34.38    1.48
  -1   2   9   31.90    1.68
   1  -2  -9   31.03    1.67
  -1   2   9   34.74    1.90
  -1   2   9   30.32    1.73
  -1   2   8   82.95    3.03
   1  -2  -8   79.97    2.96
  -1   2   8   79.17    2.77
  -1   2   8   80.78    2.85
  -1   2   7  197.65    5.01
  -1   2   7  205.42    5.19
  -1   2   7  204.94    5.19
   1  -2  -7  202.21    5.48
  -1   2   7  199.03    5.32
  -1   2   7  202.74    4.85
  -1   2   7  197.78    5.11
  -1   2   6    0.58    0.25
  -1   2   6    0.64    0.23
  -1   2   6    0.80    0.27
   1  -2  -6    1.23    0.35
  -1   2   6    0.54    0.23
  -1   2   6    0.77    0.26
  -1   2   6    1.38    0.32
  -1   2   5    0.40    0.19
  -1   2   5    0.56    0.20
  -1   2   5    1.07    0.26
  -1   2   5    0.80    0.24
  -1   2   5    0.49    0.15
  -1   2   5    0.87    0.19
  -1   2   5    0.95    0.16
  -1   2   5    0.26    0.23
   1  -2  -5    0.77    0.19
  -1   2   4  172.13    3.90
   1  -2  -4  170.27    3.78
  -1   2   4  166.15    3.81
  -1   2   4  173.37    3.81
  -1   2   4  177.88    3.58
   1  -2  -4  179.01    3.77
   1  -2  -4  170.72    3.94
  -1   2   4  171.06    3.62
   1  -2  -4  169.49    3.79
  -1   2   4  168.85    3.86
   1  -2  -4  172.26    3.39
   1  -2  -3  291.79    5.72
  -1   2   3  284.32    5.51
   1  -2  -3  292.92    5.55
   1  -2  -3  295.84    5.74
   1  -2  -3  292.90    5.62
  -1   2   3  291.58    5.37
   1  -2  -3  291.65    5.33
  -1   2   3  297.11    5.33
   1  -2  -3  291.71    5.71
   1  -2  -2    3.41    0.31
   1  -2  -2    3.28    0.31
  -1   2   2    3.49    0.19
   1  -2  -2    3.36    0.30
   1  -2  -2    3.42    0.31
   1  -2  -2    3.27    0.25
  -1   2   2    3.28    0.22
   1  -2  -2    2.95    0.25
  -1   2   2    3.35    0.18
   1  -2  -1   88.42    1.88
   1  -2  -1   88.03    2.11
   1  -2  -1   86.56    2.13
   1  -2  -1   84.82    2.13
   1  -2  -1   87.12    1.71
   1  -2  -1   84.46    2.05
   1  -2  -1   88.80    1.81
   1  -2  -1   85.60    2.02
   1  -2  -1   84.58    2.00
   1  -2   0   27.84    0.72
   1  -2   0   28.11    0.96
   1  -2   0   28.20    0.95
   1  -2   0   29.59    0.70
  -1   2   0   28.64    0.70
   1  -2   0   28.63    0.76
   1  -2   0   28.57    0.80
   1  -2   0   27.47    0.79
   1  -2   1  319.29    6.34
  -1   2  -1  310.40    6.09
   1  -2   1  300.79    6.27
   1  -2   1  316.22    6.19
   1  -2   1  309.24    6.29
  -1   2  -1  307.44    6.35
   1  -2   1  302.77    6.30
  -1   2  -1  306.23    5.96
   1  -2   1  321.81    6.00
   1  -2   1  312.83    6.11
  -1   2  -2  142.37    3.31
   1  -2   2  144.03    3.20
   1  -2   2  147.46    3.30
   1  -2   2  142.17    3.14
  -1   2  -2  146.74    2.87
   1  -2   2  141.86    3.20
   1  -2   2  144.73    3.23
   1  -2   2  145.45    3.10
   1  -2   2  143.91    3.31
   1  -2   2  142.66    3.24
  -1   2  -2  144.62    3.20
   1  -2   3  401.09    7.95
   1  -2   3  399.34    8.06
  -1   2  -3  402.55    8.07
   1  -2   3  394.96    7.85
  -1   2  -3  397.29    8.07
   1  -2   3  403.40    8.05
   1  -2   3  385.21    7.90
   1  -2   3  389.43    8.07
  -1   2  -3  403.54    8.09
  -1   2  -3  394.54    8.02
   1  -2   3  413.19    8.00
   1  -2   3  407.57    7.99
  -1   2  -3  381.55    7.49
   1  -2   3  404.97    7.88
   1  -2   4    8.74    0.48
  -1   2  -4    8.74    0.55
   1  -2   4    9.63    0.62
   1  -2   4   10.02    0.57
   1  -2   4    9.34    0.50
  -1   2  -4    9.21    0.65
  -1   2  -4   10.30    0.38
  -1   2  -4    9.93    0.65
   1  -2   4    9.50    0.51
  -1   2  -4    8.61    0.65
   1  -2   4    9.79    0.62
   1  -2   4    9.56    0.63
   1  -2   4    9.20    0.63
  -1   2  -4    9.29    0.62
   1  -2   4    8.70    0.62
   1  -2   4    8.76    0.62
  -1   2  -5    0.70    0.26
  -1   2  -5    0.86    0.28
   1  -2   5    0.29    0.21
   1  -2   5    0.21    0.23
  -1   2  -5    0.63    0.22
   1  -2   5    0.43    0.12
   1  -2   5    0.57    0.16
   1  -2   5    0.20    0.21
  -1   2  -5    0.62    0.25
   1  -2   5    0.11    0.16
  -1   2  -5    0.55    0.17
   1  -2   6  106.03    2.69
  -1   2  -6  106.04    2.98
   1  -2   6  113.59    3.38
  -1   2  -6  106.26    2.66
   1  -2   6  108.41    2.94
   1  -2   6  105.59    3.03
  -1   2  -6  103.38    3.27
   1  -2   6  106.87    3.16
  -1   2  -6  106.40    3.19
   1  -2   6  110.92    3.29
  -1   2  -6  108.04    3.18
  -1   2  -7  244.32    6.21
  -1   2  -7  236.13    5.70
   1  -2   7  240.57    6.19
   1  -2   7  238.92    6.25
  -1   2  -7  240.13    5.34
  -1   2  -7  241.22    6.05
   1  -2   7  235.25    5.57
  -1   2  -7  245.02    6.04
   1  -2   7  245.39    5.70
   1  -2   7  240.19    6.03
   1  -2   7  236.54    5.83
  -1   2  -8   10.98    1.03
   1  -2   8   10.09    0.90
   1  -2   8   11.35    1.09
   1  -2   8   11.59    0.88
  -1   2  -8    9.74    0.94
   1  -2   8   10.36    0.84
   1  -2   8   10.47    0.97
  -1   2  -8    8.95    0.79
   1  -2   8    9.53    1.01
  -1   2  -8    9.72    0.93
  -1   2  -8   11.40    0.74
  -1   2  -9    6.24    0.74
   1  -2   9    4.72    0.76
   1  -2   9    6.27    0.81
   1  -2   9    5.44    0.67
  -1   2  -9    4.32    0.51
  -1   2  -9    7.12    0.86
   1  -2   9    5.50    0.74
  -1   2 -10    3.00    0.54
   1  -2  10    2.96    0.50
  -1   2 -10    2.71    0.49
   1  -2  10    2.61    0.56
   1  -2  10    2.72    0.52
   1  -2  10    3.17    0.48
  -1   2 -11   16.41    1.02
   1  -2  11   14.63    0.78
  -1   2 -11   15.53    0.92
   1  -2  11   14.03    0.99
  -1   2 -11   15.19    0.93
   1  -2  11   16.10    0.99
  -1   1  11    4.00    0.55
  -1   1  11    2.50    0.44
   1  -1 -11    2.45    0.43
  -1   1  11    4.08    0.51
   1  -1 -11    2.91    0.43
  -1   1  10   58.10    2.40
   1  -1 -10   54.43    2.03
  -1   1  10   58.15    2.33
   1  -1 -10   54.80    2.33
  -1   1  10   50.24    2.26
  -1   1   9   22.77    1.42
  -1   1   9   20.95    1.46
   1  -1  -9   19.58    1.46
  -1   1   9   21.94    1.46
  -1   1   9   20.79    1.41
   1  -1  -9   21.88    1.36
  -1   1   9   20.74    1.07
  -1   1   8   59.18    2.45
  -1   1   8   59.49    2.13
  -1   1   8   63.09    2.28
  -1   1   8   59.09    2.42
  -1   1   8   63.26    2.57
   1  -1  -8   65.04    2.59
  -1   1   8   63.38    2.54
   1  -1  -7  111.04    3.59
  -1   1   7  109.66    3.16
  -1   1   7  113.25    3.37
  -1   1   7  111.65    3.46
  -1   1   7  113.51    3.45
  -1   1   7  108.16    3.13
   1  -1  -6    7.93    0.78
  -1   1   6    8.26    0.65
  -1   1   6    8.77    0.74
  -1   1   6    8.64    0.66
  -1   1   6    7.71    0.65
  -1   1   6    8.20    0.63
   1  -1  -6    9.85    0.59
  -1   1   6    8.80    0.74
  -1   1   5   30.04    1.01
  -1   1   5   32.27    1.09
   1  -1  -5   32.60    1.22
  -1   1   5   27.92    1.04
   1  -1  -5   32.57    1.00
  -1   1   5   30.46    1.27
  -1   1   5   29.73    1.18
  -1   1   5   33.23    1.32
   1  -1  -5   34.18    1.41
  -1   1   5   30.05    1.25
   1  -1  -5   29.86    1.00
   1  -1  -5   30.82    1.10
  -1   1   4    1.64    0.20
  -1   1   4    1.71    0.25
  -1   1   4    1.56    0.25
  -1   1   4    1.56    0.19
   1  -1  -4    1.33    0.17
   1  -1  -4    1.70    0.25
  -1   1   4    1.79    0.23
  -1   1   4    1.77    0.29
  -1   1   4    1.56    0.25
   1  -1  -3  473.91    9.11
   1  -1  -3  472.59    9.18
   1  -1  -3  477.27    8.88
  -1   1   3  474.80    9.06
   1  -1  -3  470.47    9.19
  -1   1   3  479.13    9.26
   1  -1  -3  478.23    9.00
   1  -1  -3  465.59    8.88
  -1   1   3  479.98    9.33
   1  -1  -3  479.88    9.25
  -1   1   3  475.67    9.16
   1  -1  -3  488.04    9.34
  -1   1   3  474.07    9.00
  -1   1   2   55.53    1.32
   1  -1  -2   55.67    1.35
   1  -1  -2   57.46    1.38
   1  -1  -2   53.77    1.46
   1  -1  -2   56.56    1.16
   1  -1  -2   56.39    1.48
  -1   1   2   56.68    1.21
   1  -1  -2   57.60    1.47
   1  -1  -2   55.03    1.32
  -1   1   2   55.25    1.17
  -1   1   2   54.36    1.35
  -1   1   1    9.92    0.34
  -1   1   1    9.82    0.28
   1  -1  -1    9.90    0.43
   1  -1  -1    9.20    0.45
   1  -1  -1    9.56    0.34
  -1   1   1    9.60    0.30
  -1   1   1    9.33    0.44
   1  -1  -1    8.41    0.44
  -1   1   1   10.06    0.44
   1  -1  -1    8.85    0.29
   1  -1   0  562.01   10.63
   1  -1   0  575.05   10.44
  -1   1   0  572.69   10.66
   1  -1   0  549.60   10.48
  -1   1   0  544.98   10.65
  -1   1   0  553.18   10.35
   1  -1   0  561.17   10.51
  -1   1   0  555.31   10.52
  -1   1   0  548.30   10.46
   1  -1   1    4.26    0.30
   1  -1   1    4.38    0.34
  -1   1  -1    4.16    0.30
   1  -1   1    4.04    0.30
  -1   1  -1    4.72    0.30
   1  -1   1    4.66    0.27
   1  -1   1    4.48    0.30
  -1   1  -1    4.39    0.30
   1  -1   1    4.10    0.21
  -1   1  -1    4.40    0.26
  -1   1  -1    4.55    0.25
   1  -1   2  187.82    3.90
   1  -1   2  172.64    3.98
  -1   1  -2  185.46    3.95
   1  -1   2  184.22    3.95
   1  -1   2  188.19    3.86
   1  -1   2  185.13    3.97
  -1   1  -2  184.00    3.98
  -1   1  -2  188.31    3.88
   1  -1   2  189.27    3.89
  -1   1  -3  773.00   14.80
  -1   1  -3  819.91   14.82
  -1   1  -3  756.65   14.48
   1  -1   3  760.05   14.53
   1  -1   3  778.47   14.81
   1  -1   3  814.11   14.82
  -1   1  -3  779.98   14.81
   1  -1   3  782.71   14.71
   1  -1   3  764.46   14.55
   1  -1   4    1.91    0.23
   1  -1   4    2.16    0.31
  -1   1  -4    2.15    0.31
  -1   1  -4    2.08    0.22
   1  -1   4    1.83    0.29
  -1   1  -4    1.88    0.29
   1  -1   4    1.55    0.24
  -1   1  -4    2.03    0.28
   1  -1   4    1.78    0.28
   1  -1   4    1.74    0.19
  -1   1  -4    1.65    0.28
   1  -1   4    2.13    0.21
   1  -1   4    1.75    0.28
   1  -1   4    1.81    0.29
  -1   1  -5   35.78    1.45
  -1   1  -5   35.13    1.32
  -1   1  -5   38.11    1.14
   1  -1   5   38.93    1.45
   1  -1   5   34.56    1.28
  -1   1  -5   35.75    1.42
   1  -1   5   37.42    1.11
  -1   1  -5   37.02    1.45
   1  -1   5   37.47    1.40
   1  -1   5   35.73    1.38
   1  -1   5   38.87    1.45
   1  -1   5   35.30    1.38
   1  -1   6    1.87    0.35
   1  -1   6    1.43    0.32
   1  -1   6    1.23    0.32
   1  -1   6    1.37    0.30
  -1   1  -6    1.46    0.36
  -1   1  -6    1.68    0.36
  -1   1  -6    0.87    0.29
  -1   1  -7  108.31    3.36
   1  -1   7   99.92    2.95
   1  -1   7  102.76    2.70
   1  -1   7   98.14    3.20
  -1   1  -7   97.94    2.77
   1  -1   7  103.79    3.34
  -1   1  -7   99.56    3.07
   1  -1   7  107.44    3.27
   1  -1   7   99.58    3.11
  -1   1  -7   97.43    3.21
   1  -1   7  102.75    3.11
   1  -1   8   61.90    2.69
   1  -1   8   68.52    2.24
   1  -1   8   67.79    2.42
  -1   1  -8   65.61    2.65
   1  -1   8   62.00    2.44
   1  -1   8   65.15    2.55
  -1   1  -8   61.79    2.33
  -1   1  -8   67.26    2.43
   1  -1   8   68.64    2.67
  -1   1  -8   68.29    2.64
  -1   1  -8   67.05    2.19
   1  -1   8   60.77    2.55
   1  -1   9    7.94    0.87
   1  -1   9    7.83    0.98
  -1   1  -9    8.46    0.90
  -1   1  -9    8.27    0.87
  -1   1  -9    7.00    0.70
   1  -1   9    5.63    0.75
   1  -1   9    7.19    0.85
  -1   1  -9    8.92    0.71
   1  -1   9    7.13    0.79
   1  -1   9    6.63    0.66
   1  -1  10   34.21    1.48
   1  -1  10   31.79    1.71
  -1   1 -10   33.15    1.33
   1  -1  10   34.69    1.79
  -1   1 -10   32.77    1.73
   1  -1  10   33.00    1.94
   1  -1  10   39.08    1.74
  -1   1 -10   34.53    1.73
  -1   1 -11    7.31    0.68
   1  -1  11    8.63    0.74
   1  -1  11    8.51    0.57
   1  -1  11    7.79    0.72
   1  -1  11    7.61    0.80
  -1   1 -11    9.00    0.75
  -1   1 -12    7.57    0.56
   1  -1  12    7.54    0.61
   1  -1  12    7.08    0.51
  -1   0  11    2.88    0.45
  -1   0  11    2.21    0.41
   1   0 -11    2.75    0.45
   1   0 -11    2.71    0.39
  -1   0  10   80.33    2.94
  -1   0  10   82.97    2.99
   1   0 -10   81.35    2.61
  -1   0  10   81.20    3.00
   1   0 -10   82.62    2.90
  -1   0   9   22.93    1.53
  -1   0   9   23.69    1.50
  -1   0   9   23.76    1.41
   1   0  -9   22.58    1.53
  -1   0   9   23.87    1.52
  -1   0   9   23.64    1.53
   1   0  -9   24.96    1.43
  -1   0   8    5.80    0.63
  -1   0   8    5.02    0.72
   1   0  -8    5.04    0.53
  -1   0   8    5.93    0.75
  -1   0   8    5.98    0.68
  -1   0   8    6.25    0.58
  -1   0   8    5.62    0.71
   1   0  -8    5.92    0.72
   1   0  -8    5.15    0.75
  -1   0   7   72.23    2.26
   1   0  -7   70.52    2.24
  -1   0   7   74.02    2.49
  -1   0   7   73.58    2.26
  -1   0   7   70.88    2.60
   1   0  -7   76.32    2.72
  -1   0   7   73.46    2.67
  -1   0   7   73.97    2.56
  -1   0   6   45.86    1.72
  -1   0   6   47.40    1.71
   1   0  -6   46.10    1.59
  -1   0   6   47.06    1.75
  -1   0   6   47.73    1.86
   1   0  -6   45.63    1.40
  -1   0   6   49.98    1.90
   1   0  -6   48.69    1.97
  -1   0   6   44.45    1.60
  -1   0   5    9.32    0.68
   1   0  -5    9.26    0.56
  -1   0   5   10.02    0.69
  -1   0   5   10.07    0.72
   1   0  -5   10.33    0.57
   1   0  -5   10.22    0.60
  -1   0   5    8.92    0.55
  -1   0   5    9.66    0.68
   1   0  -5    9.61    0.74
  -1   0   5    9.99    0.66
  -1   0   4   86.14    2.23
  -1   0   4   84.35    2.24
   1   0  -4   83.44    2.12
   1   0  -4   85.04    2.06
  -1   0   4   81.82    2.07
  -1   0   4   85.46    2.38
  -1   0   4   83.88    2.14
  -1   0   4   85.07    2.17
  -1   0   4   86.32    2.22
   1   0  -4   81.55    2.29
   1   0  -4   84.10    2.18
   1   0  -3   40.32    1.22
   1   0  -3   41.33    1.10
  -1   0   3   41.28    1.12
  -1   0   3   39.42    0.92
  -1   0   3   40.58    1.14
  -1   0   3   39.00    1.15
   1   0  -3   38.10    0.87
  -1   0   3   41.16    1.31
   1   0  -3   39.81    1.16
  -1   0   2  281.30    5.31
   1   0  -2  269.30    5.19
   1   0  -2  265.16    5.42
  -1   0   2  271.35    5.40
   1   0  -2  271.99    5.28
  -1   0   2  280.30    5.31
  -1   0   2  267.77    5.31
   1   0  -2  272.23    5.21
  -1   0   2  270.93    5.46
   1   0  -2  275.39    5.41
   1   0  -1   45.44    1.01
  -1   0   1   46.20    1.07
  -1   0   1   45.47    1.19
  -1   0   1   45.83    1.18
   1   0  -1   46.19    1.13
  -1   0   1   45.83    1.11
   1   0  -1   47.34    1.13
  -1   0   1   47.73    1.03
   1   0  -1   45.93    1.16
   1   0  -1   47.89    1.17
  -1   0   0  501.45    9.55
  -1   0   0  499.53    9.83
   1   0   0  520.86    9.70
   1   0   0  533.81    9.55
  -1   0   0  520.46    9.68
  -1   0   0  497.51    9.83
   1   0   0  518.93    9.71
   1   0   1  611.55   11.56
  -1   0  -1  663.60   11.73
  -1   0  -1  596.15   11.63
  -1   0  -1  604.29   11.65
   1   0   1  610.52   11.66
  -1   0  -1  610.39   11.63
   1   0   1  682.62   11.75
   1   0   1  591.66   11.66
   1   0   1  596.95   11.65
   1   0   1  628.43   11.67
  -1   0  -1  610.34   11.50
   1   0   1  607.83   11.50
  -1   0  -2    1.22    0.19
   1   0   2    0.99    0.17
   1   0   2    0.95    0.19
  -1   0  -2    1.08    0.18
  -1   0  -2    1.00    0.19
  -1   0  -2    1.12    0.16
  -1   0  -2    1.31    0.16
   1   0   2    0.66    0.15
  -1   0  -2    1.19    0.21
   1   0   2    0.96    0.16
  -1   0  -2    1.11    0.16
  -1   0  -3   26.90    0.98
  -1   0  -3   28.05    0.94
  -1   0  -3   27.60    1.01
  -1   0  -3   28.21    0.77
  -1   0  -3   28.35    0.77
   1   0   3   29.08    0.94
  -1   0  -3   26.92    0.94
   1   0   3   29.12    1.02
   1   0   3   29.08    0.99
   1   0   4   82.11    2.07
   1   0   4   78.72    2.13
   1   0   4   83.48    2.19
   1   0   4   77.65    2.03
  -1   0  -4   82.51    2.08
  -1   0  -4   78.94    2.16
   1   0   4   78.19    2.15
   1   0   4   78.35    2.07
  -1   0  -4   80.38    2.16
  -1   0  -4   82.17    2.19
  -1   0  -4   75.11    2.15
   1   0   4   85.75    1.85
   1   0   4   76.59    2.18
  -1   0  -5    3.22    0.35
   1   0   5    2.71    0.19
  -1   0  -5    2.24    0.37
  -1   0  -5    2.97    0.40
   1   0   5    2.50    0.32
   1   0   5    2.58    0.32
  -1   0  -5    2.83    0.37
   1   0   5    2.26    0.33
   1   0   5    2.97    0.37
   1   0   5    2.97    0.36
   1   0   5    2.40    0.30
   1   0   5    2.02    0.33
   1   0   5    3.29    0.41
  -1   0  -5    3.03    0.33
   1   0   6   83.70    2.53
   1   0   6   82.64    2.56
   1   0   6   83.96    1.99
  -1   0  -6   81.81    2.61
   1   0   6   81.99    2.51
  -1   0  -6   83.61    2.67
   1   0   6   82.81    2.37
  -1   0  -6   83.66    2.50
   1   0   7   89.98    2.97
   1   0   7   97.57    3.10
   1   0   7   94.45    2.85
  -1   0  -7   92.39    2.66
   1   0   7   95.68    2.73
   1   0   7  101.12    2.89
  -1   0  -7   94.39    3.09
   1   0   7  103.07    3.04
  -1   0  -7   97.62    3.17
   1   0   8   32.30    1.68
   1   0   8   37.81    1.96
   1   0   8   36.80    1.75
   1   0   8   37.23    1.60
  -1   0  -8   33.82    1.77
   1   0   8   35.52    1.65
   1   0   8   35.57    1.79
   1   0   8   34.13    1.87
  -1   0  -8   34.78    1.83
   1   0   9    1.27    0.50
  -1   0  -9    1.38    0.42
   1   0   9    0.80    0.42
   1   0   9    1.54    0.40
   1   0   9    0.86    0.36
   1   0   9    0.85    0.30
  -1   0  -9    1.43    0.36
  -1   0  -9    1.42    0.45
   1   0   9    1.09    0.40
   1   0  10   87.50    3.09
   1   0  10   87.19    3.38
  -1   0 -10   76.96    2.59
  -1   0 -10   84.86    3.05
   1   0  10   84.09    2.80
   1   0  10   86.22    3.22
  -1   0 -10   83.48    2.61
  -1   0 -10   86.16    3.02
  -1   0 -11   55.89    2.06
   1   0  11   55.38    1.99
   1   0  11   56.99    2.25
   1   0  11   52.87    2.32
   1   0  11   58.31    2.20
  -1   0 -11   53.77    2.08
  -1   0 -11   53.73    1.68
   1   0  12    7.22    0.63
   1   0  12    7.24    0.58
  -1   0 -12    6.59    0.53
   1   0  12    7.18    0.53
  -1   0 -12    7.22    0.57
   1   1 -11    0.71    0.21
  -1  -1  11    0.44    0.24
  -1  -1  11    0.47    0.24
   1   1 -11    0.77    0.23
   1   1 -10   66.35    2.44
   1   1 -10   67.20    2.61
  -1  -1  10   64.46    2.58
  -1  -1  10   73.54    2.71
  -1  -1  10   62.66    2.43
   1   1 -10   64.58    2.24
  -1  -1  10   72.11    2.60
  -1  -1  10   67.41    2.63
   1   1  -9   98.93    2.85
  -1  -1   9   98.58    3.40
  -1  -1   9   95.12    3.37
  -1  -1   9   94.25    3.30
   1   1  -9   94.78    3.31
   1   1  -9   94.53    3.11
  -1  -1   9   98.70    3.47
  -1  -1   9  101.31    3.36
  -1  -1   8    1.16    0.39
   1   1  -8    0.86    0.28
  -1  -1   8    0.94    0.35
  -1  -1   8    1.62    0.49
  -1  -1   8    1.55    0.48
   1   1  -8    0.94    0.36
   1   1  -8    2.28    0.51
  -1  -1   8    0.51    0.30
  -1  -1   7    8.18    0.79
  -1  -1   7    9.44    0.85
   1   1  -7    8.27    0.81
  -1  -1   7    9.11    0.62
  -1  -1   7    7.62    0.75
  -1  -1   7    9.52    0.89
  -1  -1   7    9.51    0.87
   1   1  -7    8.64    0.88
   1   1  -7    8.96    0.73
  -1  -1   6   23.14    1.20
  -1  -1   6   23.81    1.14
   1   1  -6   21.38    0.86
   1   1  -6   22.10    1.09
   1   1  -6   22.71    1.25
  -1  -1   6   22.95    1.24
  -1  -1   6   22.41    1.23
   1   1  -6   21.20    1.25
  -1  -1   6   20.93    1.10
  -1  -1   5   79.04    2.22
  -1  -1   5   81.53    2.18
  -1  -1   5   79.58    2.39
   1   1  -5   79.23    2.21
   1   1  -5   76.11    2.15
  -1  -1   5   81.41    2.39
  -1  -1   5   80.00    2.36
   1   1  -5   76.82    2.41
   1   1  -5   78.67    2.03
   1   1  -4  115.60    2.94
   1   1  -4  112.46    2.75
  -1  -1   4  113.34    2.89
  -1  -1   4  116.17    2.92
   1   1  -4  119.99    2.83
   1   1  -4  118.47    2.90
  -1  -1   4  119.27    2.88
   1   1  -4  116.08    2.99
  -1  -1   4  122.49    2.96
  -1  -1   4  118.44    2.85
  -1  -1   4  121.11    2.90
   1   1  -4  125.04    2.45
  -1  -1   4  121.76    3.04
   1   1  -4  118.64    2.69
  -1  -1   3  393.82    7.78
  -1  -1   3  403.20    7.78
   1   1  -3  387.37    7.84
  -1  -1   3  378.90    7.49
  -1  -1   3  401.72    7.79
  -1  -1   3  387.93    7.75
  -1  -1   3  379.91    7.50
   1   1  -3  398.87    7.48
  -1  -1   3  392.40    7.76
   1   1  -3  400.82    7.73
  -1  -1   3  388.36    7.85
   1   1  -3  385.19    7.60
   1   1  -2  391.94    7.53
  -1  -1   2  406.09    7.69
  -1  -1   2  400.27    7.54
   1   1  -2  388.94    7.56
  -1  -1   2  389.80    7.69
   1   1  -2  387.34    7.63
  -1  -1   1    2.18    0.18
   1   1  -1    1.97    0.17
  -1  -1   1    1.58    0.15
   1   1  -1    1.79    0.16
  -1  -1   1    1.39    0.18
  -1  -1   1    1.81    0.18
   1   1  -1    1.81    0.18
  -1  -1   0  189.77    3.78
  -1  -1   0  190.62    3.78
  -1  -1   0  205.07    3.87
   1   1   0  193.71    3.91
   1   1   0  192.60    3.75
  -1  -1   0  187.75    3.79
  -1  -1   0  187.93    3.73
  -1  -1  -1  107.39    2.24
   1   1   1  103.31    2.16
  -1  -1  -1  106.81    2.21
  -1  -1  -1  108.40    2.21
   1   1   1  106.21    2.20
   1   1   1  103.56    2.21
   1   1   2    8.18    0.33
   1   1   2    7.60    0.34
  -1  -1  -2    8.19    0.44
  -1  -1  -2    8.47    0.43
  -1  -1  -2    7.74    0.36
   1   1   2    8.33    0.43
  -1  -1  -2    8.20    0.42
   1   1   3  118.64    2.56
   1   1   3  118.12    2.78
  -1  -1  -3  120.81    2.80
  -1  -1  -3  116.49    2.74
  -1  -1  -3  119.30    2.82
   1   1   3  120.28    2.45
  -1  -1  -3  122.73    2.60
  -1  -1  -4   26.02    0.68
  -1  -1  -4   26.75    1.00
  -1  -1  -4   27.55    1.06
  -1  -1  -4   26.78    0.89
   1   1   4   25.09    1.04
   1   1   4   26.38    0.94
  -1  -1  -4   25.72    1.03
   1   1   4   25.18    0.65
   1   1   4   25.09    0.89
  -1  -1  -4   26.51    0.68
   1   1   4   25.68    0.92
   1   1   4   26.34    1.01
   1   1   4   25.75    1.04
  -1  -1  -4   25.99    1.04
  -1  -1  -5  138.83    3.21
   1   1   5  145.05    3.39
  -1  -1  -5  139.06    3.44
   1   1   5  142.86    3.38
   1   1   5  138.18    3.31
  -1  -1  -5  142.60    3.54
   1   1   5  143.65    3.50
   1   1   5  134.36    3.36
  -1  -1  -5  148.15    3.56
  -1  -1  -5  140.88    3.35
   1   1   5  138.96    3.34
  -1  -1  -5  137.08    3.44
   1   1   5  132.98    3.10
   1   1   5  142.69    3.53
  -1  -1  -6   45.89    1.46
   1   1   6   51.50    1.76
   1   1   6   49.56    1.43
  -1  -1  -6   52.99    1.91
   1   1   6   45.55    1.57
  -1  -1  -6   47.16    1.70
   1   1   6   45.99    1.36
  -1  -1  -6   48.20    1.89
   1   1   6   49.95    1.80
   1   1   6   48.29    1.77
   1   1   7   80.37    2.54
   1   1   7   80.12    2.66
   1   1   7   84.69    2.29
   1   1   7   78.85    2.70
   1   1   7   78.84    2.66
  -1  -1  -7   80.79    2.87
   1   1   7   79.24    2.59
  -1  -1  -7   81.71    2.76
   1   1   8  107.49    3.48
   1   1   8   96.14    3.29
   1   1   8  107.24    3.49
   1   1   8  108.17    3.42
   1   1   8  104.43    3.61
  -1  -1  -8  104.26    3.57
  -1  -1  -8  106.18    3.43
   1   1   8  102.40    3.24
   1   1   9    3.79    0.70
   1   1   9    4.12    0.69
   1   1   9    4.66    0.65
  -1  -1  -9    3.99    0.64
   1   1   9    4.39    0.78
  -1  -1  -9    3.91    0.67
   1   1   9    4.35    0.69
   1   1  10   25.05    1.67
  -1  -1 -10   28.40    1.66
  -1  -1 -10   27.42    1.42
   1   1  10   29.63    1.68
  -1  -1 -10   26.64    1.51
   1   1  10   27.06    1.75
   1   1  10   23.01    1.44
   1   1  11  105.96    3.57
   1   1  11  112.03    3.40
  -1  -1 -11  111.41    3.20
   1   1  11  106.15    3.52
   1   1  11  107.31    3.31
  -1  -1 -11  109.16    3.01
  -1  -1 -11  110.48    3.35
   1   1  12    0.43    0.23
  -1  -1 -12    0.72    0.22
  -1  -2  11    0.05    0.19
  -1  -2  11    0.45    0.21
  -1  -2  10   15.83    1.11
   1   2 -10   15.64    0.95
  -1  -2  10   17.01    1.16
  -1  -2  10   16.01    1.15
   1   2 -10   15.28    1.07
   1   2 -10   16.04    1.01
  -1  -2  10   18.06    1.11
  -1  -2  10   12.78    1.02
  -1  -2  10   14.64    0.96
  -1  -2   9  111.01    3.73
  -1  -2   9  103.85    3.55
  -1  -2   9  103.64    3.48
  -1  -2   9  101.91    3.52
   1   2  -9  104.20    3.15
  -1  -2   9  110.06    3.42
   1   2  -9  101.95    3.26
   1   2  -9  100.46    3.35
   1   2  -9  102.19    3.62
  -1  -2   9  115.82    3.57
   1   2  -8   45.92    1.95
  -1  -2   8   47.30    2.21
  -1  -2   8   48.69    2.27
  -1  -2   8   48.21    2.19
  -1  -2   8   49.48    2.17
   1   2  -8   46.52    2.14
  -1  -2   8   48.77    2.13
   1   2  -8   44.63    2.31
   1   2  -8   46.29    2.05
  -1  -2   7   14.44    1.07
   1   2  -7   14.53    1.12
   1   2  -7   14.77    1.07
   1   2  -7   15.88    1.05
  -1  -2   7   14.84    1.12
  -1  -2   7   14.52    1.11
  -1  -2   7   15.49    1.13
  -1  -2   7   13.48    0.99
   1   2  -7   14.99    0.93
   1   2  -6   94.62    3.07
  -1  -2   6  100.32    2.82
  -1  -2   6   94.02    3.01
   1   2  -6   98.00    2.67
  -1  -2   6   99.87    3.04
   1   2  -6   94.15    2.98
  -1  -2   6  101.39    3.01
  -1  -2   6   98.04    3.02
   1   2  -6   96.31    2.89
  -1  -2   5  265.22    5.37
  -1  -2   5  269.33    5.97
   1   2  -5  253.06    5.92
   1   2  -5  251.51    5.77
   1   2  -5  275.37    5.72
   1   2  -5  253.87    6.00
  -1  -2   5  266.73    5.92
  -1  -2   5  251.98    5.86
   1   2  -5  251.93    5.25
   1   2  -4  247.06    5.42
  -1  -2   4  244.76    4.97
   1   2  -4  248.43    5.40
   1   2  -4  245.94    5.51
  -1  -2   4  259.06    5.50
  -1  -2   4  261.52    5.47
  -1  -2   4  256.01    5.54
  -1  -2   4  246.63    5.42
   1   2  -4  261.23    5.11
   1   2  -4  253.00    5.41
   1   2  -4  253.53    5.51
  -1  -2   4  249.03    5.44
  -1  -2   4  254.94    5.09
  -1  -2   4  246.99    4.97
   1   2  -4  242.78    5.57
  -1  -2   4  259.10    5.46
  -1  -2   4  255.45    5.53
   1   2  -4  243.47    5.03
   1   2  -3  249.34    5.36
  -1  -2   3  263.96    5.19
   1   2  -3  257.63    5.38
   1   2  -3  266.94    5.46
  -1  -2   3  262.40    5.41
  -1  -2   3  246.52    5.38
   1   2  -3  256.35    5.18
  -1  -2   3  238.69    5.25
   1   2  -3  256.79    5.30
   1   2  -3  257.63    5.47
   1   2  -3  253.81    5.03
  -1  -2   3  254.66    5.32
  -1  -2   3  266.80    5.39
   1   2  -2   16.52    0.67
   1   2  -2   16.89    0.69
   1   2  -2   16.16    0.69
  -1  -2   2   15.60    0.66
  -1  -2   2   15.59    0.69
  -1  -2   2   17.27    0.64
   1   2  -2   16.97    0.64
   1   2  -2   17.56    0.54
   1   2  -1  146.03    3.11
  -1  -2   1  148.21    3.11
   1   2  -1  142.04    3.12
  -1  -2   1  154.00    2.92
  -1  -2   1  148.92    3.10
   1   2  -1  146.88    3.12
   1   2  -1  152.70    2.91
   1   2   0   32.05    0.87
   1   2   0   32.97    0.85
  -1  -2   0   31.46    0.91
  -1  -2   0   33.39    0.89
  -1  -2   0   32.62    0.95
  -1  -2   0   34.78    0.93
   1   2   1  970.19   18.04
   1   2   1  956.70   18.04
   1   2   1  936.99   17.95
  -1  -2  -1  963.59   18.03
  -1  -2  -1  936.30   18.01
  -1  -2  -1  992.28   18.04
  -1  -2  -1  982.54   18.08
  -1  -2  -1  985.43   18.07
   1   2   2  232.37    4.48
  -1  -2  -2  244.35    4.71
   1   2   2  241.84    4.84
  -1  -2  -2  245.37    4.82
   1   2   2  245.87    4.73
  -1  -2  -2  237.46    4.88
  -1  -2  -2  240.91    4.85
  -1  -2  -3   12.54    0.45
  -1  -2  -3   14.94    0.66
   1   2   3   13.26    0.62
   1   2   3   13.13    0.59
   1   2   3   12.99    0.46
   1   2   3   12.85    0.57
   1   2   3   12.72    0.64
  -1  -2  -3   12.89    0.61
  -1  -2  -3   13.54    0.67
   1   2   4   21.56    0.83
  -1  -2  -4   22.63    0.72
   1   2   4   21.51    0.92
  -1  -2  -4   21.02    0.95
   1   2   4   20.73    0.93
  -1  -2  -4   21.30    0.93
  -1  -2  -4   21.48    0.84
   1   2   4   21.49    0.84
   1   2   4   20.35    0.83
   1   2   4   20.76    0.57
   1   2   4   21.82    0.87
  -1  -2  -5  106.62    2.49
  -1  -2  -5  105.79    2.81
   1   2   5  109.80    2.68
   1   2   5  100.69    2.81
   1   2   5  108.43    2.67
   1   2   5  104.08    2.58
   1   2   5  101.85    2.67
  -1  -2  -5  110.26    2.22
  -1  -2  -5  112.99    2.98
   1   2   5  106.41    2.80
   1   2   5  104.29    2.73
  -1  -2  -5  110.08    2.21
  -1  -2  -5  107.81    2.88
   1   2   5  102.06    2.85
  -1  -2  -5  107.88    2.64
  -1  -2  -6  209.98    4.36
   1   2   6  206.67    4.46
   1   2   6  206.34    4.84
   1   2   6  204.35    4.91
  -1  -2  -6  213.82    5.15
  -1  -2  -6  210.67    5.12
  -1  -2  -6  199.47    4.74
   1   2   6  195.35    4.53
   1   2   6  215.94    4.87
   1   2   6  214.04    4.79
   1   2   6  194.30    4.83
   1   2   7  235.41    5.80
  -1  -2  -7  242.81    6.00
   1   2   7  256.25    5.88
   1   2   7  232.92    5.82
  -1  -2  -7  241.28    6.14
   1   2   7  243.90    5.73
   1   2   7  240.53    5.92
   1   2   8   31.35    1.63
  -1  -2  -8   30.53    1.64
   1   2   8   31.40    1.70
   1   2   8   29.39    1.74
  -1  -2  -8   30.91    1.80
   1   2   8   30.25    1.62
   1   2   8   30.05    1.56
   1   2   9   14.46    1.17
   1   2   9   12.09    1.05
   1   2   9   12.96    1.16
  -1  -2  -9   13.53    1.20
   1   2   9   13.32    1.13
   1   2   9   13.27    1.21
  -1  -2  -9   13.87    1.10
  -1  -2 -10    2.48    0.47
   1   2  10    1.96    0.49
  -1  -2 -10    2.12    0.52
   1   2  10    1.20    0.41
   1   2  10    1.15    0.44
   1   2  10    2.06    0.51
   1   2  11   91.70    3.09
   1   2  11   93.57    3.10
  -1  -2 -11   92.94    2.73
  -1  -2 -11   97.15    3.06
  -1  -2 -11   89.93    2.74
   1   2  11   92.98    3.24
   1   2  11   88.06    2.90
   1   2  12   57.34    1.94
   1   2  12   56.57    1.98
   1   2  12   61.44    2.07
  -1  -2 -12   56.21    1.81
   1   3 -11   30.37    1.25
  -1  -3  10    5.99    0.59
  -1  -3  10    6.34    0.64
   1   3 -10    6.96    0.60
  -1  -3  10    6.35    0.55
   1   3 -10    4.99    0.51
  -1  -3  10    4.61    0.53
   1   3 -10    4.53    0.54
  -1  -3  10    4.58    0.62
  -1  -3   9  104.49    3.68
  -1  -3   9  100.50    3.42
  -1  -3   9  107.53    3.37
   1   3  -9  111.78    3.33
  -1  -3   9  107.48    3.43
  -1  -3   9  110.07    3.46
   1   3  -9  107.46    3.54
  -1  -3   9  111.82    3.21
   1   3  -9  106.79    3.06
   1   3  -9  107.63    3.29
   1   3  -8  242.77    6.13
  -1  -3   8  248.02    6.26
  -1  -3   8  249.97    6.63
  -1  -3   8  241.74    6.23
   1   3  -8  232.71    6.43
   1   3  -8  247.26    6.15
   1   3  -8  226.69    6.01
  -1  -3   8  243.42    6.03
  -1  -3   8  251.16    6.28
   1   3  -8  235.68    5.99
   1   3  -7   57.83    2.30
  -1  -3   7   57.17    2.32
  -1  -3   7   59.30    2.49
  -1  -3   7   55.55    2.11
  -1  -3   7   52.45    2.21
   1   3  -7   55.95    2.23
   1   3  -7   54.65    2.50
   1   3  -7   53.54    2.22
   1   3  -7   56.74    2.30
  -1  -3   7   54.17    2.26
   1   3  -7   58.94    1.99
   1   3  -6    2.07    0.49
  -1  -3   6    1.53    0.28
  -1  -3   6    1.73    0.41
   1   3  -6    1.84    0.42
   1   3  -6    2.14    0.43
   1   3  -6    2.04    0.42
  -1  -3   6    1.81    0.35
  -1  -3   6    1.71    0.39
   1   3  -6    1.93    0.41
  -1  -3   6    2.02    0.40
  -1  -3   5   12.64    0.83
   1   3  -5   12.66    1.01
   1   3  -5   12.53    0.90
   1   3  -5   11.72    0.84
   1   3  -5   12.03    0.84
  -1  -3   5   12.74    0.82
  -1  -3   5   13.51    0.93
   1   3  -5   12.23    0.83
  -1  -3   5   13.35    0.74
  -1  -3   4   25.98    0.96
   1   3  -4   24.73    0.70
   1   3  -4   23.36    1.10
  -1  -3   4   23.27    1.13
   1   3  -4   23.21    1.06
   1   3  -4   25.30    1.19
  -1  -3   4   26.07    1.07
   1   3  -4   25.74    1.33
   1   3  -4   24.82    0.92
  -1  -3   4   25.36    1.07
   1   3  -4   26.32    1.15
  -1  -3   3   86.19    2.19
   1   3  -3   88.96    2.33
   1   3  -3   96.03    2.32
   1   3  -3   88.72    2.39
   1   3  -3   92.31    2.32
  -1  -3   3   91.85    2.42
  -1  -3   3   94.28    2.37
   1   3  -3   89.88    2.38
  -1  -3   3   93.77    2.43
   1   3  -3   92.48    2.52
  -1  -3   3   90.96    2.28
   1   3  -3   89.77    2.37
   1   3  -3   94.05    2.42
   1   3  -3   87.11    1.87
  -1  -3   3   93.77    2.28
   1   3  -3   94.20    2.73
  -1  -3   3   90.27    2.40
   1   3  -2  377.18    7.55
  -1  -3   2  384.07    7.67
   1   3  -2  384.56    7.60
  -1  -3   2  379.58    7.57
   1   3  -2  381.74    7.78
   1   3  -2  371.45    7.62
  -1  -3   2  378.88    7.54
  -1  -3   2  376.16    7.56
   1   3  -2  368.42    7.52
   1   3  -2  383.64    7.99
   1   3  -2  368.42    7.58
   1   3  -2  384.69    7.62
   1   3  -1   80.72    1.93
   1   3  -1   79.33    2.01
  -1  -3   1   79.40    2.03
  -1  -3   1   81.34    2.01
   1   3  -1   81.18    1.95
  -1  -3   1   81.55    1.93
   1   3  -1   81.21    2.02
  -1  -3   1   80.04    2.02
  -1  -3   1   82.84    1.65
   1   3   0   13.94    0.48
   1   3   0   13.42    0.60
  -1  -3   0   11.50    0.53
  -1  -3   0   13.65    0.60
   1   3   0   13.51    0.55
  -1  -3   0   13.34    0.59
   1   3   0   13.29    0.51
  -1  -3   0   14.55    0.52
  -1  -3   0   13.51    0.59
   1   3   1  102.48    2.03
  -1  -3  -1  104.72    2.40
  -1  -3  -1  102.31    2.30
   1   3   1  105.70    2.21
   1   3   1  106.44    2.40
   1   3   1  104.88    2.41
  -1  -3  -1  104.41    2.38
   1   3   1  105.84    2.43
  -1  -3  -1  106.35    2.42
  -1  -3  -1  108.75    2.44
  -1  -3  -2 1000.00   18.36
   1   3   2  947.95   18.16
  -1  -3  -2  972.59   18.30
   1   3   2  990.41   18.46
   1   3   2  990.65   18.37
  -1  -3  -2  950.23   18.48
   1   3   2  960.06   18.44
  -1  -3  -2  992.80   18.45
   1   3   3   60.06    1.65
   1   3   3   57.87    1.46
  -1  -3  -3   56.96    1.57
  -1  -3  -3   57.83    1.63
   1   3   3   55.52    1.55
  -1  -3  -3   57.84    1.71
   1   3   3   53.64    1.59
   1   3   3   56.23    1.68
  -1  -3  -4   41.49    0.95
  -1  -3  -4   46.09    1.32
  -1  -3  -4   47.51    1.49
   1   3   4   45.66    1.36
   1   3   4   46.71    1.50
   1   3   4   44.53    1.12
   1   3   4   42.49    1.40
  -1  -3  -4   45.89    1.56
   1   3   4   47.22    1.44
   1   3   4   45.20    1.42
  -1  -3  -5   49.72    1.42
  -1  -3  -5   48.60    1.78
   1   3   5   49.00    1.61
   1   3   5   47.54    1.42
   1   3   5   47.96    1.42
  -1  -3  -5   47.24    1.63
   1   3   5   50.23    1.57
   1   3   5   48.56    1.38
   1   3   5   49.03    1.68
  -1  -3  -5   49.15    1.76
  -1  -3  -5   50.24    1.21
   1   3   5   49.37    1.63
  -1  -3  -6   21.26    1.21
   1   3   6   20.71    1.12
   1   3   6   19.72    1.06
  -1  -3  -6   19.54    0.93
   1   3   6   20.39    0.88
   1   3   6   22.18    1.03
   1   3   6   20.91    1.02
   1   3   6   22.03    0.99
   1   3   7  111.91    3.34
   1   3   7  111.85    3.06
   1   3   7  110.41    3.38
  -1  -3  -7  115.51    3.50
  -1  -3  -7  112.42    3.60
   1   3   7  111.11    3.23
   1   3   7  106.66    2.73
   1   3   8  127.26    3.74
   1   3   8  121.70    3.89
   1   3   8  125.82    3.99
  -1  -3  -8  127.00    4.16
   1   3   8  124.91    3.54
  -1  -3  -8  124.65    3.84
   1   3   8  124.12    3.86
   1   3   9    5.76    0.72
  -1  -3  -9    4.60    0.77
   1   3   9    6.62    0.71
   1   3   9    5.84    0.79
  -1  -3  -9    6.76    0.78
   1   3   9    5.20    0.78
   1   3  10    0.43    0.29
  -1  -3 -10    0.60    0.42
  -1  -3 -10    0.26    0.27
   1   3  10   -0.50    0.31
   1   3  10    0.43    0.33
   1   3  10    0.40    0.40
   1   3  11   55.34    2.23
  -1  -3 -11   54.33    2.11
   1   3  11   53.21    2.22
  -1  -3 -11   54.21    1.97
   1   3  11   56.49    2.33
   1   3  12  118.54    3.18
   1   3  12  115.29    3.09
  -1  -3 -12  113.31    2.88
   1   4 -10   10.73    0.69
   1   4 -10   10.86    0.81
  -1  -4  10   10.01    0.81
  -1  -4  10   10.38    0.70
   1   4 -10    9.76    0.63
   1   4  -9   63.29    2.33
   1   4  -9   62.25    2.47
   1   4  -9   63.04    2.25
  -1  -4   9   66.39    1.96
  -1  -4   9   62.35    2.61
  -1  -4   9   63.84    2.18
  -1  -4   9   60.45    2.12
  -1  -4   9   63.21    2.30
   1   4  -9   61.50    2.08
  -1  -4   9   65.47    2.39
   1   4  -9   65.22    2.28
  -1  -4   8  207.23    5.10
   1   4  -8  201.80    5.38
   1   4  -8  207.29    5.59
   1   4  -8  202.52    5.17
  -1  -4   8  205.35    5.33
  -1  -4   8  218.86    5.95
   1   4  -8  204.47    5.51
  -1  -4   8  198.13    5.46
  -1  -4   8  200.89    5.18
   1   4  -7    0.92    0.37
   1   4  -7    2.81    0.58
  -1  -4   7    2.66    0.58
  -1  -4   7    1.83    0.42
   1   4  -7    1.87    0.43
   1   4  -7    2.39    0.49
  -1  -4   7    1.00    0.31
  -1  -4   7    1.89    0.46
  -1  -4   7    2.29    0.42
   1   4  -6    3.46    0.61
  -1  -4   6    2.36    0.44
   1   4  -6    3.25    0.55
  -1  -4   6    2.66    0.53
   1   4  -6    2.62    0.50
  -1  -4   6    3.28    0.46
   1   4  -6    3.37    0.52
  -1  -4   6    3.17    0.43
  -1  -4   6    3.40    0.48
  -1  -4   5   39.89    1.41
   1   4  -5   41.80    1.83
   1   4  -5   43.82    1.83
  -1  -4   5   41.96    1.86
  -1  -4   5   42.04    1.61
   1   4  -5   48.04    1.89
  -1  -4   5   41.87    1.63
   1   4  -5   42.65    1.97
   1   4  -5   42.87    1.82
  -1  -4   4   14.40    0.74
   1   4  -4   15.07    0.75
   1   4  -4   15.45    0.96
   1   4  -4   14.45    1.05
   1   4  -4   16.40    1.01
  -1  -4   4   14.41    0.80
   1   4  -4   13.76    0.91
  -1  -4   4   14.14    0.77
   1   4  -4   14.05    0.90
  -1  -4   4   15.43    0.97
  -1  -4   3  193.15    4.29
  -1  -4   3  203.89    4.67
  -1  -4   3  200.90    4.20
   1   4  -3  205.03    4.50
   1   4  -3  199.00    4.76
   1   4  -3  197.67    4.64
  -1  -4   3  195.86    4.37
   1   4  -3  203.95    4.46
   1   4  -3  190.08    4.29
   1   4  -3  206.53    5.04
   1   4  -3  195.47    4.58
  -1  -4   3  202.28    4.49
  -1  -4   2  234.30    5.15
   1   4  -2  223.88    5.33
  -1  -4   2  234.39    5.20
   1   4  -2  247.90    5.24
   1   4  -2  238.28    5.09
   1   4  -2  258.26    5.68
   1   4  -2  232.38    4.95
   1   4  -2  236.23    5.17
   1   4  -2  244.56    5.21
   1   4  -2  244.94    5.09
  -1  -4   2  231.87    5.01
  -1  -4   2  238.57    5.16
   1   4  -1    7.20    0.42
  -1  -4   1    6.40    0.40
  -1  -4   1    6.17    0.46
   1   4  -1    6.81    0.41
   1   4  -1    7.78    0.52
  -1  -4   1    6.53    0.40
   1   4  -1    6.62    0.61
  -1  -4   1    7.13    0.49
   1   4  -1    6.54    0.57
  -1  -4   1    6.80    0.47
   1   4  -1    8.11    0.52
  -1  -4   1    6.40    0.42
   1   4   0   70.59    1.62
  -1  -4   0   70.84    1.79
  -1  -4   0   68.64    1.88
  -1  -4   0   69.13    1.63
  -1  -4   0   70.16    1.87
  -1  -4   0   66.34    1.82
  -1  -4   0   66.15    1.65
   1   4   0   69.87    1.64
   1   4   0   65.28    2.09
   1   4   0   68.11    2.12
   1   4   0   69.16    1.89
   1   4   1   89.13    1.85
  -1  -4  -1   93.63    2.15
   1   4   1   95.47    2.51
   1   4   1   91.52    1.97
  -1  -4  -1   87.08    2.21
   1   4   1   95.38    2.27
   1   4   1   95.89    2.30
  -1  -4  -1   96.49    2.33
  -1  -4  -1   93.68    2.34
   1   4   1   85.15    2.53
   1   4   1   89.37    2.30
  -1  -4  -1   98.81    2.34
   1   4   2  626.44   11.86
  -1  -4  -2  606.80   11.80
  -1  -4  -2  618.82   11.98
   1   4   2  618.39   12.04
  -1  -4  -2  587.14   11.74
   1   4   2  616.71   11.95
   1   4   2  628.83   11.92
   1   4   2  592.74   11.40
  -1  -4  -2  604.51   11.87
  -1  -4  -2  612.60   11.66
   1   4   2  618.08   11.88
   1   4   3  179.75    4.13
  -1  -4  -3  179.11    4.01
   1   4   3  176.53    3.55
  -1  -4  -3  178.65    4.13
  -1  -4  -3  173.82    3.83
  -1  -4  -3  180.96    3.82
   1   4   3  180.49    4.05
   1   4   3  172.85    3.89
   1   4   3  175.73    3.85
   1   4   3  179.31    3.97
  -1  -4  -4   18.92    0.88
   1   4   4   17.56    0.62
   1   4   4   16.31    0.75
   1   4   4   16.11    0.83
  -1  -4  -4   17.19    0.73
  -1  -4  -4   17.39    0.66
  -1  -4  -4   17.34    0.67
   1   4   4   17.41    0.68
  -1  -4  -4   17.28    0.94
   1   4   4   19.34    0.91
   1   4   4   17.73    0.84
   1   4   5   31.33    1.34
   1   4   5   32.59    1.25
  -1  -4  -5   30.33    1.20
   1   4   5   31.58    1.23
   1   4   5   32.20    1.29
   1   4   5   30.27    1.37
  -1  -4  -5   32.66    1.39
   1   4   5   30.83    1.20
  -1  -4  -6   15.22    1.07
   1   4   6   15.48    1.04
   1   4   6   14.71    0.85
   1   4   6   15.32    0.87
   1   4   6   13.97    0.88
   1   4   7   37.98    1.36
   1   4   7   34.60    1.46
  -1  -4  -7   39.71    1.86
   1   4   7   33.29    1.57
   1   4   7   33.29    1.50
   1   4   7   32.95    1.71
   1   4   8  264.26    6.06
   1   4   8  262.11    6.57
   1   4   8  258.98    6.86
  -1  -4  -8  273.11    6.72
   1   4   8  269.77    6.12
   1   4   8  278.83    6.79
   1   4   8  270.69    6.43
  -1  -4  -8  285.36    7.19
   1   4   9    6.27    0.77
  -1  -4  -9    6.46    0.73
   1   4   9    5.30    0.55
   1   4   9    5.49    0.79
   1   4   9    4.98    0.74
  -1  -4  -9    5.34    0.82
   1   4   9    3.88    0.58
   1   4  10    0.04    0.28
   1   4  10    0.65    0.40
  -1  -4 -10    0.29    0.27
   1   4  10    0.31    0.39
  -1  -4 -10    0.03    0.29
   1   4  10    0.43    0.26
   1   4  11   10.21    0.88
   1   4  11   10.37    0.91
  -1  -4 -11   10.50    0.84
   1   4  11   11.03    0.89
   1   5 -10    3.59    0.38
  -1  -5  10    3.32    0.35
   1   5  -9    4.48    0.54
  -1  -5   9    5.72    0.68
   1   5  -9    4.73    0.52
  -1  -5   9    6.06    0.63
   1   5  -9    4.80    0.59
   1   5  -9    4.34    0.50
   1   5  -8   48.25    2.05
  -1  -5   8   47.10    1.61
   1   5  -8   48.34    2.20
  -1  -5   8   45.11    1.75
  -1  -5   8   43.20    2.17
   1   5  -8   46.55    1.73
  -1  -5   8   47.83    2.11
   1   5  -8   47.66    2.01
  -1  -5   7  114.12    3.93
   1   5  -7  117.44    3.89
   1   5  -7  114.36    3.33
  -1  -5   7  115.36    3.24
   1   5  -7  109.81    3.66
   1   5  -7  108.84    3.58
   1   5  -7  112.42    3.64
  -1  -5   7  109.06    3.34
  -1  -5   7  115.74    3.06
   1   5  -6    1.90    0.47
   1   5  -6    2.91    0.55
  -1  -5   6    1.81    0.49
  -1  -5   6    1.60    0.40
  -1  -5   6    1.79    0.35
   1   5  -6    2.28    0.43
   1   5  -6    2.46    0.55
   1   5  -6    2.53    0.51
   1   5  -6    2.09    0.52
  -1  -5   6    2.14    0.37
  -1  -5   5   31.23    1.27
  -1  -5   5   31.35    1.67
   1   5  -5   29.54    1.65
   1   5  -5   30.59    1.62
   1   5  -5   31.17    1.50
   1   5  -5   31.84    1.53
  -1  -5   5   28.89    1.25
   1   5  -5   31.46    1.67
   1   5  -4   34.24    1.53
  -1  -5   4   37.70    1.69
   1   5  -4   34.19    1.61
   1   5  -4   36.33    1.61
   1   5  -4   38.49    1.82
   1   5  -4   35.67    1.67
   1   5  -3   27.35    1.21
   1   5  -3   28.82    1.50
   1   5  -3   27.04    1.33
  -1  -5   3   26.29    1.27
   1   5  -3   27.69    1.30
   1   5  -3   26.71    1.35
   1   5  -2  378.00    7.92
   1   5  -2  404.47    8.58
  -1  -5   2  383.49    8.21
   1   5  -2  397.77    8.19
  -1  -5   2  391.20    7.82
  -1  -5   2  399.68    8.24
   1   5  -2  406.31    8.46
   1   5  -2  392.78    8.29
   1   5  -2  420.86    8.87
   1   5  -1  138.73    3.12
  -1  -5   1  133.22    3.25
  -1  -5   1  138.19    3.44
   1   5  -1  132.22    3.03
   1   5  -1  141.56    3.72
   1   5  -1  139.63    3.87
   1   5  -1  144.28    3.54
  -1  -5   1  142.65    3.04
  -1  -5   0    2.59    0.32
   1   5   0    1.60    0.20
   1   5   0    1.98    0.19
  -1  -5   0    1.91    0.24
   1   5   0    1.70    0.24
  -1  -5   0    1.62    0.25
   1   5   0    2.02    0.41
  -1  -5   0    1.46    0.15
   1   5   0    2.10    0.41
  -1  -5   0    1.57    0.28
  -1  -5  -1   35.15    1.11
  -1  -5  -1   34.56    1.26
   1   5   1   31.88    1.16
   1   5   1   34.49    1.56
   1   5   1   33.54    0.83
  -1  -5  -1   34.84    1.24
  -1  -5  -1   35.06    1.18
   1   5   1   35.04    1.53
   1   5   1   35.66    1.30
  -1  -5  -1   34.88    1.29
   1   5   2  169.60    3.89
   1   5   2  161.14    3.49
   1   5   2  171.12    3.86
   1   5   2  162.94    3.84
  -1  -5  -2  176.29    4.02
  -1  -5  -2  152.84    3.61
  -1  -5  -2  168.52    3.80
   1   5   2  168.09    4.22
  -1  -5  -2  167.92    3.80
  -1  -5  -2  167.82    3.57
  -1  -5  -2  155.90    3.65
  -1  -5  -3   94.93    2.63
  -1  -5  -3   84.32    2.15
   1   5   3   87.63    2.30
  -1  -5  -3   88.07    2.29
  -1  -5  -3   91.89    2.19
   1   5   3   94.75    2.36
   1   5   3   89.65    2.50
   1   5   4   13.36    0.84
   1   5   4   13.77    0.84
   1   5   4   13.20    0.79
  -1  -5  -4   14.74    0.77
   1   5   4   14.50    0.63
   1   5   4   14.39    0.81
  -1  -5  -4   16.11    0.93
   1   5   4   14.67    0.75
   1   5   5   30.91    1.48
   1   5   5   28.78    1.33
   1   5   5   29.71    1.23
   1   5   5   29.67    1.17
   1   5   5   29.62    1.33
  -1  -5  -6   24.08    1.41
   1   5   6   23.58    1.22
   1   5   6   23.71    1.39
   1   5   6   25.12    1.33
   1   5   6   24.13    1.18
   1   5   7   31.32    1.44
   1   5   7   31.05    1.49
   1   5   7   33.48    1.80
  -1  -5  -7   36.85    1.81
   1   5   7   34.37    1.71
   1   5   8  100.53    2.99
   1   5   8   95.78    3.37
   1   5   8   98.91    2.97
   1   5   8   88.01    3.37
   1   5   8   96.77    3.06
  -1  -5  -8   96.16    3.53
  -1  -5  -8   98.47    3.24
   1   5   9   50.27    2.37
  -1  -5  -9   50.83    2.41
   1   5   9   49.88    2.36
   1   5   9   52.26    1.85
   1   5   9   51.37    2.05
   1   5   9   51.43    1.92
  -1  -5  -9   51.34    2.01
   1   5  10    2.59    0.52
   1   5  10    1.72    0.36
   1   5  10    2.18    0.50
  -1  -5 -10    1.50    0.40
   1   5  11    2.06    0.42
  -1  -5 -11    2.25    0.39
  -1  -6   9    2.96    0.44
   1   6  -9    3.44    0.45
  -1  -6   9    3.65    0.44
   1   6  -9    3.54    0.35
   1   6  -9    2.82    0.36
   1   6  -8   56.67    1.99
   1   6  -8   54.36    2.02
   1   6  -8   55.34    2.35
  -1  -6   8   52.31    2.26
  -1  -6   8   55.22    2.21
   1   6  -8   54.90    2.04
  -1  -6   7   14.46    1.19
   1   6  -7   13.40    1.02
   1   6  -7   12.71    0.80
   1   6  -7   11.53    0.97
   1   6  -7   13.22    1.00
  -1  -6   7   14.15    1.01
  -1  -6   7   13.17    1.13
   1   6  -7   12.24    1.13
   1   6  -6   17.56    1.35
   1   6  -6   19.31    1.22
  -1  -6   6   18.43    1.37
  -1  -6   6   19.36    1.31
   1   6  -6   19.81    1.32
   1   6  -6   17.55    1.06
   1   6  -6   16.84    1.26
   1   6  -6   18.66    1.43
   1   6  -5   64.23    2.38
  -1  -6   5   67.65    2.67
   1   6  -5   66.62    2.64
   1   6  -5   68.65    2.35
   1   6  -5   64.90    2.63
   1   6  -5   59.17    2.65
   1   6  -4   68.28    2.37
   1   6  -4   67.42    2.60
   1   6  -4   69.51    2.66
   1   6  -4   66.47    2.36
  -1  -6   4   65.93    2.51
   1   6  -4   66.70    2.61
   1   6  -3   36.34    1.60
   1   6  -3   38.61    1.45
   1   6  -3   38.74    1.75
   1   6  -3   38.94    1.90
  -1  -6   3   38.37    1.67
   1   6  -3   38.05    1.45
   1   6  -3   38.01    1.81
   1   6  -3   39.39    1.70
   1   6  -2   33.10    1.38
   1   6  -2   33.76    1.39
   1   6  -2   39.67    1.86
   1   6  -2   36.58    1.57
  -1  -6   2   35.32    1.46
   1   6  -2   34.97    1.42
   1   6  -2   36.11    1.62
   1   6  -2   35.92    1.57
   1   6  -2   37.94    1.71
   1   6  -1  112.07    3.06
   1   6  -1  113.85    3.07
   1   6  -1  106.77    3.21
  -1  -6   1  111.97    2.90
   1   6  -1  112.73    3.61
   1   6  -1  118.83    3.17
   1   6  -1  111.36    2.83
   1   6  -1  113.16    3.36
   1   6   0   39.61    1.54
   1   6   0   36.58    1.86
   1   6   0   38.33    1.25
   1   6   0   41.12    1.80
   1   6   0   41.73    1.63
   1   6   0   41.31    1.55
   1   6   1    0.89    0.23
   1   6   1    1.41    0.33
   1   6   1    2.11    0.30
   1   6   1    1.08    0.38
   1   6   1    0.91    0.28
   1   6   1    1.03    0.31
   1   6   2   98.22    3.29
   1   6   2   97.78    2.77
   1   6   2  100.24    2.73
  -1  -6  -2   99.60    2.68
   1   6   2   99.40    2.97
   1   6   2  101.36    2.86
   1   6   2  100.44    2.85
   1   6   3   89.39    2.32
   1   6   3   90.16    2.79
   1   6   3   89.03    2.62
   1   6   3   92.29    2.66
   1   6   3   88.04    2.62
   1   6   4    6.31    0.58
   1   6   4    5.67    0.58
  -1  -6  -4    5.66    0.53
   1   6   4    5.11    0.45
   1   6   4    5.97    0.56
   1   6   4    5.37    0.62
   1   6   5   41.73    1.55
   1   6   5   43.68    1.54
   1   6   5   43.24    1.57
   1   6   5   45.41    1.88
   1   6   5   42.62    1.79
  -1  -6  -6  102.26    3.41
   1   6   6  100.59    3.22
   1   6   6  101.55    3.23
  -1  -6  -7    0.87    0.37
   1   6   7    0.36    0.27
   1   6   7    1.32    0.41
  -1  -6  -8   95.20    3.07
   1   6   8   95.18    3.05
   1   6   8   96.69    3.36
   1   6   9   49.30    1.84
  -1  -6  -9   48.24    2.24
   1   6   9   46.84    2.17
   1   6  10   13.08    0.68
   1   6  10   12.51    0.99
  -1  -6 -10   11.69    0.93
   1   6  11    3.83    0.45
  -1  -7   8   51.93    1.93
   1   7  -8   54.21    1.72
   1   7  -8   55.04    2.10
  -1  -7   8   55.40    1.98
   1   7  -8   52.51    1.63
   1   7  -7   24.82    1.22
   1   7  -7   24.54    1.24
  -1  -7   7   25.02    1.30
  -1  -7   7   23.80    1.41
  -1  -7   7   25.28    1.48
   1   7  -7   25.77    1.57
   1   7  -6    3.15    0.63
   1   7  -6    4.11    0.62
   1   7  -6    3.22    0.49
  -1  -7   6    3.10    0.57
   1   7  -6    3.89    0.58
  -1  -7   6    3.34    0.59
   1   7  -5   41.65    2.15
   1   7  -5   44.37    1.88
   1   7  -5   44.04    2.03
   1   7  -5   42.20    1.66
   1   7  -5   45.20    2.27
   1   7  -5   44.05    2.13
  -1  -7   5   41.82    2.11
  -1  -7   5   46.73    2.11
   1   7  -4   96.90    3.34
   1   7  -4   99.73    3.10
  -1  -7   4   98.28    3.23
   1   7  -4   94.20    2.90
   1   7  -4   97.67    3.48
   1   7  -3   35.77    1.66
   1   7  -3   37.96    1.59
   1   7  -3   40.14    1.99
  -1  -7   3   37.21    1.68
   1   7  -3   38.66    1.90
   1   7  -3   34.60    1.60
   1   7  -3   39.52    1.62
   1   7  -2    2.08    0.51
   1   7  -2    2.46    0.47
   1   7  -2    2.75    0.46
   1   7  -2    2.75    0.47
   1   7  -2    1.94    0.38
  -1  -7   2    2.24    0.38
   1   7  -2    1.76    0.38
   1   7  -1   37.38    1.85
   1   7  -1   42.08    1.84
  -1  -7   1   41.62    1.49
   1   7  -1   40.60    1.74
   1   7  -1   45.14    1.81
   1   7  -1   42.92    2.14
   1   7  -1   40.97    1.75
   1   7  -1   42.25    1.81
   1   7  -1   42.17    1.61
   1   7   0   61.64    2.23
   1   7   0   61.71    2.24
   1   7   0   58.00    2.30
   1   7   0   59.43    2.66
   1   7   0   59.13    2.15
   1   7   0   61.32    1.89
  -1  -7  -1    8.90    0.75
   1   7   1    8.58    0.78
   1   7   1    8.78    1.02
   1   7   1    9.50    0.81
   1   7   1    7.31    0.54
   1   7   1    9.17    0.81
   1   7   1    8.34    0.72
   1   7   2  109.26    2.88
   1   7   2  113.71    3.36
   1   7   2  119.50    3.46
   1   7   2  117.02    3.42
  -1  -7  -2  113.42    3.10
   1   7   2  114.39    3.57
   1   7   2  113.26    3.21
   1   7   3   15.20    1.04
   1   7   3   15.96    1.05
   1   7   3   16.96    0.85
   1   7   3   17.33    1.20
   1   7   3   16.69    1.07
   1   7   3   16.03    0.98
   1   7   4   13.03    0.76
   1   7   4   11.37    0.99
   1   7   4   12.71    0.96
   1   7   4   11.79    0.85
   1   7   4   12.53    0.90
   1   7   4   12.34    0.90
  -1  -7  -4   14.30    0.89
   1   7   5   53.60    2.03
   1   7   5   56.02    2.37
   1   7   5   54.14    2.04
   1   7   5   55.39    2.02
   1   7   5   54.81    2.21
   1   7   6  103.56    3.47
  -1  -7  -6  110.46    3.62
   1   7   7   63.55    2.57
  -1  -7  -7   68.31    2.53
   1   7   7   69.93    2.62
   1   7   8    1.95    0.44
   1   7   8    1.68    0.47
   1   7   9   18.38    1.02
  -1  -7  -9   16.48    1.15
   1   7   9   16.84    1.15
   1   7  10   43.38    1.71
  -1  -7 -10   43.11    1.66
  -1  -8   7   35.55    1.29
   1   8  -7   35.08    1.24
  -1  -8   7   35.44    1.41
  -1  -8   7   35.24    1.54
   1   8  -7   35.35    1.62
   1   8  -7   34.95    1.23
   1   8  -6    3.39    0.57
   1   8  -6    2.77    0.42
  -1  -8   6    2.47    0.45
  -1  -8   6    2.96    0.47
   1   8  -6    2.37    0.36
   1   8  -5   17.21    1.04
  -1  -8   5   18.04    1.29
   1   8  -5   18.28    1.16
   1   8  -5   20.44    1.40
  -1  -8   5   18.50    1.16
   1   8  -4   77.60    2.98
  -1  -8   4   77.34    3.01
   1   8  -4   78.29    2.34
  -1  -8   4   77.32    2.62
   1   8  -4   78.04    2.83
   1   8  -4   80.95    2.36
   1   8  -4   78.16    3.03
   1   8  -4   72.51    2.56
   1   8  -3  109.35    3.64
   1   8  -3  107.71    3.22
  -1  -8   3  112.41    3.80
   1   8  -3  113.17    3.27
   1   8  -3  108.63    3.07
   1   8  -3  107.50    3.64
  -1  -8   3  114.31    3.23
   1   8  -3  105.25    3.27
   1   8  -2    2.05    0.43
  -1  -8   2    1.85    0.35
  -1  -8   2    1.69    0.48
   1   8  -2    2.54    0.47
   1   8  -2    1.95    0.51
   1   8  -2    2.52    0.43
   1   8  -2    2.11    0.48
   1   8  -1    2.46    0.48
   1   8  -1    2.78    0.43
   1   8  -1    2.81    0.52
   1   8  -1    2.92    0.63
  -1  -8   1    2.46    0.53
   1   8  -1    3.41    0.53
   1   8  -1    2.84    0.51
   1   8   0   26.96    1.54
   1   8   0   25.79    1.52
   1   8   0   25.56    1.59
   1   8   0   28.24    1.84
  -1  -8   0   25.01    1.45
   1   8   0   27.69    1.39
   1   8   0   26.99    1.47
   1   8   0   27.32    1.23
   1   8   1   36.31    1.83
  -1  -8  -1   35.27    1.64
   1   8   1   35.84    1.83
   1   8   1   34.29    1.51
   1   8   1   37.07    1.70
   1   8   1   35.15    1.85
   1   8   2  129.21    3.96
   1   8   2  124.35    3.92
   1   8   2  128.01    3.99
  -1  -8  -2  129.51    3.45
   1   8   2  127.37    3.66
   1   8   3  168.64    4.74
   1   8   3  162.95    4.84
   1   8   3  160.29    4.60
   1   8   3  159.27    4.59
   1   8   3  166.01    4.35
   1   8   4    3.10    0.52
   1   8   4    2.93    0.61
   1   8   4    3.14    0.55
   1   8   4    2.39    0.47
  -1  -8  -4    3.21    0.43
   1   8   4    3.03    0.46
   1   8   5    5.87    0.67
   1   8   5    6.95    0.79
   1   8   5    5.02    0.61
   1   8   5    7.15    0.87
   1   8   5    6.54    0.63
   1   8   6   56.45    2.36
   1   8   6   56.57    1.94
   1   8   6   60.39    2.51
   1   8   7   73.83    2.74
   1   8   7   77.64    2.80
   1   8   8   16.85    1.13
  -1  -8  -8   15.87    1.12
   1   8   8   17.18    1.07
  -1  -8  -9    0.41    0.30
   1   8   9    0.54    0.25
  -1  -9   6    0.57    0.25
   1   9  -6    1.15    0.29
   1   9  -5    0.77    0.30
  -1  -9   5    0.52    0.25
   1   9  -5    0.51    0.23
   1   9  -4   19.63    1.13
  -1  -9   4   19.46    1.28
   1   9  -4   18.50    0.97
   1   9  -4   19.28    1.24
   1   9  -3  109.93    3.45
   1   9  -3  115.16    3.17
   1   9  -3  106.41    3.10
  -1  -9   3  108.97    3.59
   1   9  -3  104.80    3.35
   1   9  -3  105.45    3.00
   1   9  -3  105.47    3.47
   1   9  -2    7.01    0.73
  -1  -9   2    7.24    0.82
   1   9  -2    7.07    0.81
   1   9  -2    7.25    0.75
   1   9  -2    6.63    0.74
   1   9  -2    5.96    0.60
   1   9  -2    7.97    0.78
   1   9  -1    0.29    0.25
   1   9  -1    0.61    0.32
   1   9  -1    0.76    0.25
   1   9  -1    0.90    0.37
  -1  -9   1    0.13    0.26
   1   9  -1    0.21    0.24
   1   9  -1    0.45    0.33
   1   9   0   77.95    2.95
   1   9   0   80.14    2.98
  -1  -9   0   77.03    2.73
   1   9   0   80.50    2.60
   1   9   1   37.91    2.03
   1   9   1   40.48    2.02
   1   9   1   40.82    1.84
   1   9   1   41.31    2.04
  -1  -9  -1   42.18    1.73
   1   9   2   59.61    2.63
   1   9   2   67.42    2.38
   1   9   2   63.81    2.62
   1   9   2   64.84    2.65
   1   9   3   93.54    3.24
   1   9   3   91.96    3.21
   1   9   3   93.29    3.34
  -1  -9  -3   93.86    2.90
   1   9   3   94.27    2.90
   1   9   4    2.96    0.59
   1   9   4    2.38    0.48
   1   9   4    2.65    0.42
   1   9   4    2.78    0.51
   1   9   5    0.58    0.28
   1   9   5    0.47    0.23
   1   9   5    0.72    0.38
   1   9   5    0.11    0.23
   1   9   6   24.37    1.42
   1   9   7  111.82    3.35
   1   9   8    7.62    0.66
  -1  -9  -8    6.80    0.62
   1  10  -4   20.73    0.97
  -1 -10   4   22.72    1.12
  -1 -10   3  133.28    3.63
   1  10  -3  130.48    3.23
   1  10  -3  130.58    3.36
   1  10  -2   91.16    2.74
  -1 -10   2   84.04    2.77
   1  10  -2   87.66    2.70
   1  10  -1   12.07    0.94
  -1 -10   1   11.36    0.86
   1  10  -1   10.82    0.90
   1  10   0    0.74    0.30
   1  10   0    1.14    0.34
  -1 -10   0    1.24    0.32
  -1 -10  -1   12.84    0.95
   1  10   1   12.79    1.05
   1  10   1   12.82    1.03
   1  10   2   30.71    1.61
   1  10   2   26.28    1.56
  -1 -10  -2   29.37    1.40
   1  10   2   28.97    1.57
   1  10   3   87.78    3.06
   1  10   3   93.77    3.01
   1  10   3   86.88    2.93
   1  10   4   28.27    1.53
   1  10   4   27.80    1.40
   1  10   4   28.54    1.41
   1  10   5   16.94    0.98
   1  10   5   17.03    1.13
   1  10   6    1.62    0.37
   1  11  -1    3.48    0.40
   1  11   0   19.49    1.04
   1  11   1    2.84    0.42
   1  11   2    5.67    0.56
   1  11   3   37.18    1.45
  -2   9   4   15.77    0.81
  -2   9   3   24.30    1.15
  -2   9   3   24.91    1.09
  -2   9   2   21.68    1.17
  -2   9   1    5.72    0.64
  -2   9   0    2.05    0.44
  -2   9  -1   75.91    2.54
  -2   9  -1   74.24    2.46
   2  -9   2   10.45    0.66
  -2   9  -2   10.02    0.76
  -2   9  -2   10.69    0.77
  -2   9  -3   15.29    0.82
   2  -9   3   15.65    0.83
  -2   9  -3   15.76    0.87
  -2   8   6    1.56    0.31
  -2   8   6    1.77    0.29
  -2   8   5    9.50    0.74
  -2   8   5   11.01    0.78
  -2   8   4   32.55    1.54
  -2   8   4   31.11    1.43
  -2   8   4   33.78    1.41
  -2   8   3   23.46    1.33
  -2   8   3   23.11    1.35
  -2   8   3   22.45    1.18
  -2   8   2   80.66    2.82
  -2   8   2   75.01    2.86
  -2   8   1    5.14    0.71
  -2   8   1    4.90    0.76
  -2   8   1    5.56    0.77
  -2   8   0    9.80    1.00
  -2   8   0   10.52    1.02
  -2   8  -1   85.37    3.08
  -2   8  -1   82.07    3.02
   2  -8   2   83.62    2.60
  -2   8  -2   89.15    3.02
  -2   8  -2   82.27    2.94
  -2   8  -3    4.68    0.61
  -2   8  -3    4.45    0.58
   2  -8   3    4.73    0.55
  -2   8  -4    9.25    0.68
   2  -8   4    8.51    0.69
  -2   8  -4    8.76    0.76
  -2   8  -5    2.81    0.42
   2  -8   5    2.34    0.36
  -2   8  -6   16.48    0.87
  -2   7   7   18.57    1.13
  -2   7   7   19.52    0.94
  -2   7   6   13.84    0.91
  -2   7   6   13.89    1.04
  -2   7   5    1.19    0.36
  -2   7   5    1.28    0.40
  -2   7   4   15.44    0.99
  -2   7   4   14.96    1.05
  -2   7   4   16.02    1.15
  -2   7   4   16.40    1.12
  -2   7   3   37.69    1.61
  -2   7   3   37.43    1.76
  -2   7   3   42.00    1.91
  -2   7   3   37.82    1.87
  -2   7   2  117.16    3.32
  -2   7   2  123.77    4.01
  -2   7   2  122.39    3.53
  -2   7   2  126.76    3.84
  -2   7   1   22.49    1.17
  -2   7   1   23.46    1.45
  -2   7   1   22.70    1.13
  -2   7   1   22.12    1.53
  -2   7   1   21.25    1.63
  -2   7   0    6.83    0.92
  -2   7   0    7.44    0.89
  -2   7   0    7.22    0.83
  -2   7  -1    1.48    0.45
  -2   7  -1    2.80    0.58
  -2   7  -1    2.40    0.60
  -2   7  -2  152.26    4.55
  -2   7  -2  147.60    4.50
  -2   7  -3   85.20    3.02
  -2   7  -3   81.56    2.97
   2  -7   3   83.30    2.96
   2  -7   4    9.02    0.89
  -2   7  -4    9.71    0.83
  -2   7  -4    9.81    0.82
   2  -7   4   10.75    0.78
  -2   7  -4    9.23    0.88
  -2   7  -5    7.04    0.57
   2  -7   5    7.14    0.77
   2  -7   5    7.06    0.64
  -2   7  -5    7.42    0.75
   2  -7   6   10.31    0.84
   2  -7   6    9.66    0.73
  -2   7  -6    9.21    0.79
   2  -7   7   11.29    0.78
   2  -7   7   10.87    0.70
  -2   7  -7   12.84    0.83
  -2   6   8   88.02    2.86
  -2   6   8   86.22    2.40
  -2   6   7   92.24    3.21
  -2   6   7   87.84    2.68
  -2   6   6    2.27    0.54
  -2   6   6    2.28    0.42
  -2   6   5    4.42    0.60
  -2   6   5    4.57    0.59
  -2   6   5    3.70    0.65
  -2   6   4    5.80    0.66
  -2   6   4    6.25    0.69
  -2   6   4    5.43    0.66
  -2   6   4    6.23    0.77
  -2   6   3    9.72    0.88
  -2   6   3    8.66    0.81
  -2   6   3   10.35    0.84
  -2   6   3    8.20    0.84
  -2   6   2  177.60    4.53
  -2   6   2  165.90    4.86
  -2   6   2  178.31    4.63
  -2   6   2  165.10    4.80
  -2   6   2  164.12    4.37
  -2   6   2  175.82    5.18
  -2   6   1   74.75    2.47
  -2   6   1   84.07    3.08
  -2   6   1   81.07    2.73
  -2   6   1   76.20    2.44
  -2   6   1   74.42    3.07
  -2   6   1   77.10    2.88
  -2   6   0    0.65    0.27
  -2   6   0    0.42    0.49
  -2   6   0    0.47    0.28
  -2   6   0    0.64    0.34
  -2   6   0    0.39    0.29
  -2   6   0    0.37    0.30
  -2   6  -1    0.11    0.22
  -2   6  -1    0.32    0.30
  -2   6  -1    0.26    0.28
  -2   6  -1    1.07    0.43
  -2   6  -1    0.53    0.38
  -2   6  -2  116.60    3.71
  -2   6  -2  115.09    3.86
  -2   6  -2  119.18    3.79
  -2   6  -3  139.95    4.31
  -2   6  -3  140.16    4.01
  -2   6  -3  146.26    4.29
  -2   6  -4   39.31    1.78
   2  -6   4   37.96    2.00
  -2   6  -4   39.52    1.88
  -2   6  -4   38.30    1.83
  -2   6  -5    7.15    0.77
   2  -6   5    8.14    0.90
  -2   6  -5    7.63    0.65
  -2   6  -5    7.11    0.81
   2  -6   5    6.53    0.71
  -2   6  -6    0.53    0.36
   2  -6   6    0.35    0.31
  -2   6  -6    0.89    0.35
  -2   6  -6    1.04    0.33
   2  -6   6    0.02    0.27
  -2   6  -7    4.94    0.62
   2  -6   7    4.40    0.58
   2  -6   7    4.47    0.61
  -2   6  -7    4.45    0.55
   2  -6   8   38.88    1.63
  -2   6  -8   41.11    1.64
   2  -6   8   38.01    1.57
  -2   6  -9   91.48    2.46
   2  -6   9   91.39    2.43
  -2   5   9    0.94    0.22
  -2   5   9    1.03    0.32
  -2   5   8   17.04    1.23
   2  -5  -8   15.72    0.94
  -2   5   8   16.43    0.96
  -2   5   7  106.51    3.08
  -2   5   7  116.94    3.90
  -2   5   7  110.96    3.26
  -2   5   6   12.44    1.01
  -2   5   6   11.36    0.90
  -2   5   6   10.90    1.10
  -2   5   5    2.71    0.49
  -2   5   5    2.38    0.47
  -2   5   5    2.52    0.57
  -2   5   4   41.22    1.78
  -2   5   4   38.46    1.72
  -2   5   4   40.32    1.96
  -2   5   4   40.88    1.69
  -2   5   3    0.98    0.31
  -2   5   3    1.97    0.41
  -2   5   3    0.88    0.28
  -2   5   3    0.87    0.30
  -2   5   3    1.72    0.42
  -2   5   2  183.24    4.59
  -2   5   2  181.81    4.63
  -2   5   2  189.28    4.56
  -2   5   2  178.79    4.79
  -2   5   2  183.50    4.89
  -2   5   2  193.38    5.10
  -2   5   1  194.82    4.76
  -2   5   1  196.63    5.04
  -2   5   1  203.26    4.78
  -2   5   1  188.96    5.20
  -2   5   1  193.77    4.65
  -2   5   1  196.85    5.27
  -2   5   0   15.87    1.06
  -2   5   0   14.50    1.11
  -2   5   0   14.04    0.74
  -2   5   0   15.84    1.05
  -2   5   0   16.50    0.99
  -2   5   0   14.75    0.89
  -2   5   0   14.36    1.10
  -2   5  -1    2.72    0.46
  -2   5  -1    2.65    0.51
  -2   5  -1    2.19    0.35
  -2   5  -1    2.12    0.40
  -2   5  -1    2.40    0.48
  -2   5  -2   23.98    1.12
  -2   5  -2   22.06    1.25
  -2   5  -2   21.92    1.26
  -2   5  -2   20.55    1.35
  -2   5  -2   22.17    1.08
  -2   5  -2   24.42    1.36
  -2   5  -3  207.33    5.45
  -2   5  -3  199.79    4.82
   2  -5   3  209.69    4.79
  -2   5  -3  215.59    4.83
  -2   5  -3  207.51    5.23
  -2   5  -3  203.91    5.25
  -2   5  -3  215.56    5.43
  -2   5  -3  201.10    5.15
  -2   5  -4   11.57    0.92
  -2   5  -4   11.93    0.78
  -2   5  -4   13.18    0.98
  -2   5  -4   12.40    1.00
  -2   5  -4   12.14    0.74
  -2   5  -4   15.70    1.10
   2  -5   4   11.71    0.81
  -2   5  -4   13.38    0.94
   2  -5   5    4.24    0.52
  -2   5  -5    4.46    0.49
   2  -5   5    4.52    0.73
  -2   5  -5    5.20    0.71
  -2   5  -5    5.34    0.66
  -2   5  -5    4.73    0.62
  -2   5  -6   25.61    1.46
   2  -5   6   23.99    1.58
  -2   5  -6   24.76    1.44
   2  -5   6   24.83    1.28
   2  -5   6   25.95    1.50
  -2   5  -6   25.09    1.65
  -2   5  -7    0.68    0.42
   2  -5   7    0.36    0.30
   2  -5   7    0.47    0.33
   2  -5   7    0.43    0.23
  -2   5  -7    1.22    0.39
  -2   5  -7    0.83    0.32
  -2   5  -8   89.68    2.87
   2  -5   8   89.51    2.61
   2  -5   8   95.77    3.07
   2  -5   8   92.90    3.11
  -2   5  -8   89.48    2.94
  -2   5  -9   81.99    2.52
   2  -5   9   81.35    2.53
  -2   5  -9   79.33    2.41
   2  -5   9   77.02    2.54
  -2   4  10    9.30    0.64
  -2   4  10    8.48    0.55
  -2   4  10    7.94    0.49
  -2   4   9    0.70    0.28
  -2   4   9    1.00    0.28
  -2   4   9    0.72    0.31
   2  -4  -9    0.51    0.26
  -2   4   8    6.39    0.77
  -2   4   8    7.31    0.68
  -2   4   8    7.71    0.85
  -2   4   7   63.12    2.54
  -2   4   7   59.86    2.66
  -2   4   7   59.76    2.23
  -2   4   6   68.06    2.86
  -2   4   6   62.93    2.46
   2  -4  -6   68.18    2.43
  -2   4   6   70.15    2.60
  -2   4   6   66.59    2.36
  -2   4   5   21.49    1.46
  -2   4   5   24.60    1.22
  -2   4   5   22.23    1.30
  -2   4   5   22.91    1.20
  -2   4   4   94.24    2.66
  -2   4   4   91.93    3.10
  -2   4   4   90.52    2.66
  -2   4   4   91.28    2.84
  -2   4   4   91.88    2.64
  -2   4   3    8.86    0.71
  -2   4   3    9.12    0.71
  -2   4   3    8.41    0.63
  -2   4   3    8.59    0.69
  -2   4   3    7.75    0.73
  -2   4   2   72.24    2.06
  -2   4   2   70.95    2.35
  -2   4   2   70.83    2.20
  -2   4   2   71.51    2.29
  -2   4   2   67.99    2.22
   2  -4  -2   69.98    1.95
  -2   4   2   72.88    2.40
   2  -4  -1  147.75    3.39
  -2   4   1  148.80    3.98
  -2   4   1  145.88    3.60
   2  -4  -1  143.48    3.55
  -2   4   1  150.30    3.82
  -2   4   1  148.60    3.46
   2  -4  -1  144.59    3.28
  -2   4   1  148.32    3.94
   2  -4   0  167.50    3.87
  -2   4   0  167.72    4.43
   2  -4   0  174.90    3.65
  -2   4   0  171.63    4.22
  -2   4   0  167.27    4.20
  -2   4   0  158.70    4.32
   2  -4   1    6.31    0.51
  -2   4  -1    6.27    0.66
  -2   4  -1    6.94    0.62
  -2   4  -1    7.26    0.63
  -2   4  -1    7.18    0.69
  -2   4  -2    2.35    0.40
  -2   4  -2    2.76    0.42
  -2   4  -2    2.08    0.41
  -2   4  -2    2.36    0.31
  -2   4  -2    1.85    0.41
   2  -4   2    2.92    0.38
  -2   4  -2    2.23    0.39
  -2   4  -3   63.59    2.11
  -2   4  -3   60.03    2.22
  -2   4  -3   59.69    2.07
  -2   4  -3   64.77    1.82
  -2   4  -3   63.62    2.23
   2  -4   3   62.70    2.05
  -2   4  -3   61.51    2.06
  -2   4  -4   91.07    2.75
  -2   4  -4   92.05    2.94
  -2   4  -4   93.52    2.84
   2  -4   4   90.46    2.78
  -2   4  -4   95.68    2.94
  -2   4  -4   88.96    2.60
  -2   4  -4   90.33    2.91
  -2   4  -5   24.19    1.31
  -2   4  -5   25.73    1.43
  -2   4  -5   26.00    1.22
   2  -4   5   26.55    1.38
  -2   4  -5   27.55    1.44
  -2   4  -5   25.25    1.49
  -2   4  -6  126.63    3.69
   2  -4   6  120.46    4.03
  -2   4  -6  124.91    3.82
  -2   4  -6  121.76    3.99
  -2   4  -6  108.87    3.55
   2  -4   6  118.85    3.67
   2  -4   6  122.65    3.68
   2  -4   7    1.76    0.44
  -2   4  -7    2.89    0.54
   2  -4   7    1.58    0.44
   2  -4   7    1.94    0.51
  -2   4  -7    1.83    0.43
  -2   4  -7    1.78    0.51
  -2   4  -7    2.09    0.48
  -2   4  -8    8.27    0.82
  -2   4  -8    6.86    0.78
   2  -4   8    7.25    0.83
   2  -4   8    7.88    0.80
  -2   4  -8    7.60    0.77
   2  -4   8    6.80    0.80
   2  -4   9   54.87    2.25
   2  -4   9   60.15    2.27
   2  -4   9   58.89    2.15
  -2   4  -9   58.59    2.19
  -2   4  -9   57.11    2.15
   2  -4  10   31.61    1.25
  -2   4 -10   33.06    1.38
   2  -4  10   33.51    1.33
  -2   4 -10   32.72    1.34
   2  -4  10   34.14    1.50
  -2   3  10   32.00    1.19
  -2   3  10   29.76    1.49
   2  -3 -10   30.36    1.37
  -2   3  10   29.56    1.16
  -2   3   9   15.62    1.06
  -2   3   9   14.76    1.20
  -2   3   9   15.69    0.96
  -2   3   9   14.61    0.78
   2  -3  -9   16.04    1.13
  -2   3   8   28.35    1.65
  -2   3   8   29.04    1.81
  -2   3   8   28.81    1.44
  -2   3   8   30.62    1.35
  -2   3   7  106.34    3.41
  -2   3   7  111.18    3.81
  -2   3   7  109.53    3.28
  -2   3   7  112.82    3.13
  -2   3   7  108.14    3.74
  -2   3   6   19.38    1.24
  -2   3   6   20.81    1.35
  -2   3   6   20.15    1.04
  -2   3   6   21.48    1.17
  -2   3   6   21.63    1.46
   2  -3  -6   19.27    1.19
  -2   3   6   20.79    1.17
  -2   3   5    2.04    0.40
  -2   3   5    1.93    0.48
  -2   3   5    1.95    0.35
  -2   3   5    1.92    0.27
  -2   3   5    1.99    0.45
  -2   3   4  275.50    5.70
  -2   3   4  263.05    6.36
  -2   3   4  256.06    5.79
  -2   3   4  260.90    5.79
  -2   3   4  268.25    6.06
   2  -3  -3   64.41    1.80
   2  -3  -3   62.34    2.05
  -2   3   3   66.97    2.01
  -2   3   3   65.58    2.19
  -2   3   3   65.78    2.06
   2  -3  -2   25.52    1.05
   2  -3  -2   25.15    1.20
   2  -3  -2   26.83    1.04
  -2   3   2   27.88    1.19
   2  -3  -2   27.70    1.06
   2  -3  -1   16.99    0.83
   2  -3  -1   14.87    0.89
   2  -3  -1   16.22    0.73
   2  -3  -1   16.68    0.84
  -2   3   1   17.98    0.95
   2  -3   0    1.69    0.31
   2  -3   0    1.76    0.29
   2  -3   0    1.96    0.20
  -2   3   0    2.55    0.37
   2  -3   0    1.98    0.13
   2  -3   0    2.38    0.36
   2  -3   0    1.98    0.32
   2  -3   0    1.73    0.22
   2  -3   0    1.66    0.28
   2  -3   0    2.07    0.18
   2  -3   1   84.32    2.40
   2  -3   1   83.49    1.92
   2  -3   1   82.41    1.75
   2  -3   1   86.79    2.10
  -2   3  -1   87.15    1.96
   2  -3   1   83.59    2.43
   2  -3   1   82.78    2.10
   2  -3   1   75.87    1.95
   2  -3   1   84.40    2.44
   2  -3   1   83.45    2.31
  -2   3  -1   82.83    2.33
  -2   3  -1   85.06    2.50
   2  -3   1   82.87    1.73
   2  -3   2   70.50    2.17
   2  -3   2   68.22    2.19
   2  -3   2   67.40    1.79
  -2   3  -2   67.72    1.95
  -2   3  -2   68.88    2.13
  -2   3  -2   71.14    2.09
   2  -3   2   73.38    2.15
   2  -3   2   67.65    1.99
  -2   3  -2   70.24    1.76
  -2   3  -2   72.31    1.91
   2  -3   2   71.51    1.68
  -2   3  -2   63.32    2.15
   2  -3   2   74.15    1.71
   2  -3   3  155.21    3.94
   2  -3   3  156.19    3.59
   2  -3   3  165.88    3.96
   2  -3   3  156.97    3.99
   2  -3   3  151.56    3.87
  -2   3  -3  157.25    3.75
  -2   3  -3  156.01    3.91
  -2   3  -3  158.10    3.42
  -2   3  -3  170.61    4.00
   2  -3   3  165.29    3.49
  -2   3  -3  162.68    4.02
   2  -3   4  116.75    3.25
   2  -3   4  115.49    2.96
  -2   3  -4  112.34    3.08
  -2   3  -4  112.56    3.03
  -2   3  -4  121.68    3.28
  -2   3  -4  107.68    2.94
  -2   3  -4  116.36    3.17
  -2   3  -4  115.07    3.24
   2  -3   5    4.99    0.62
  -2   3  -5    6.48    0.62
  -2   3  -5    5.74    0.66
  -2   3  -5    5.71    0.63
  -2   3  -5    4.67    0.46
  -2   3  -5    5.27    0.58
   2  -3   6  107.92    3.50
  -2   3  -6  114.32    3.52
   2  -3   6  113.59    3.70
  -2   3  -6  107.83    3.30
  -2   3  -6  113.94    3.34
   2  -3   6  107.99    3.36
  -2   3  -6  111.64    3.61
  -2   3  -7   44.93    1.96
  -2   3  -7   43.00    2.04
  -2   3  -7   44.49    1.94
   2  -3   7   42.49    2.07
   2  -3   7   41.81    2.11
   2  -3   7   41.16    1.96
  -2   3  -7   42.66    2.15
   2  -3   8    5.51    0.73
   2  -3   8    6.30    0.80
  -2   3  -8    6.04    0.75
   2  -3   8    6.26    0.80
  -2   3  -8    6.70    0.75
  -2   3  -8    5.39    0.69
  -2   3  -8    5.45    0.78
   2  -3   9   22.72    1.45
  -2   3  -9   21.77    1.31
  -2   3  -9   22.39    1.40
   2  -3   9   23.35    1.40
  -2   3  -9   20.76    1.29
   2  -3   9   22.60    1.43
  -2   3 -10   49.50    1.90
  -2   3 -10   49.18    1.98
   2  -3  10   48.33    1.82
   2  -3  10   50.76    2.01
  -2   3 -10   47.40    1.86
   2  -3  10   49.20    2.05
   2  -3  11   16.23    0.84
   2  -3  11   17.55    0.97
  -2   3 -11   15.99    0.83
  -2   3 -11   16.96    0.85
  -2   2  10   26.17    1.46
  -2   2  10   26.16    1.15
   2  -2 -10   25.09    1.33
  -2   2  10   24.39    1.08
  -2   2  10   24.05    1.03
  -2   2   9   24.34    1.32
  -2   2   9   25.54    1.30
  -2   2   9   25.81    1.28
  -2   2   9   23.36    1.44
  -2   2   9   24.59    1.59
   2  -2  -9   24.55    1.51
  -2   2   8   30.61    1.66
  -2   2   8   28.27    1.62
  -2   2   8   29.29    1.47
  -2   2   8   28.54    1.79
   2  -2  -8   28.62    1.72
  -2   2   8   28.42    1.47
  -2   2   7  140.71    4.11
  -2   2   7  137.33    4.40
   2  -2  -7  135.87    3.89
  -2   2   7  136.83    3.94
  -2   2   7  141.49    3.90
  -2   2   6   38.13    1.70
  -2   2   6   37.78    1.59
   2  -2  -6   36.35    1.66
  -2   2   6   38.88    1.91
  -2   2   6   34.73    1.56
  -2   2   6   36.19    1.61
  -2   2   5   13.52    0.88
  -2   2   5   12.90    0.74
  -2   2   5   13.03    0.87
  -2   2   5   13.60    0.81
  -2   2   5   12.04    0.98
   2  -2  -5   13.55    0.88
  -2   2   5   12.92    0.80
  -2   2   4    1.35    0.34
  -2   2   4    1.69    0.32
  -2   2   4    1.52    0.31
  -2   2   4    1.58    0.28
   2  -2  -3  204.58    4.66
   2  -2  -3  199.74    4.55
   2  -2  -3  205.81    4.23
  -2   2   3  203.09    4.31
  -2   2   3  202.69    4.14
   2  -2  -3  201.49    4.71
   2  -2  -3  203.21    4.43
   2  -2  -3  207.02    4.26
  -2   2   3  202.33    4.45
   2  -2  -2   19.45    0.85
   2  -2  -2   19.95    0.99
   2  -2  -2   20.38    0.87
   2  -2  -2   19.43    0.66
   2  -2  -2   20.44    0.83
  -2   2   2   21.04    0.92
   2  -2  -2   20.82    1.00
  -2   2   2   20.86    0.91
   2  -2  -2   20.97    0.87
   2  -2  -1    3.94    0.37
  -2   2   1    5.76    0.49
   2  -2  -1    4.06    0.42
   2  -2  -1    4.54    0.40
   2  -2  -1    4.74    0.41
   2  -2  -1    4.02    0.25
   2  -2  -1    3.83    0.41
  -2   2   1    5.51    0.46
   2  -2  -1    4.44    0.36
   2  -2   0  336.94    7.02
   2  -2   0  327.43    6.50
  -2   2   0  331.20    6.96
  -2   2   0  315.91    6.18
  -2   2   0  336.33    6.96
   2  -2   0  332.24    6.62
  -2   2   0  334.68    6.97
   2  -2   0  335.03    6.88
   2  -2   0  335.61    6.98
  -2   2   0  327.55    6.47
   2  -2   0  343.41    6.26
   2  -2   1   19.07    0.93
   2  -2   1   19.30    0.49
   2  -2   1   22.63    0.95
  -2   2  -1   20.82    0.70
  -2   2  -1   21.08    0.78
  -2   2  -1   19.47    0.92
  -2   2  -1   19.35    0.92
  -2   2  -1   21.08    0.95
   2  -2   1   21.85    0.96
   2  -2   1   19.29    0.79
  -2   2  -1   20.70    0.78
   2  -2   1   19.90    0.94
   2  -2   1   22.75    0.81
  -2   2  -2  100.88    2.57
   2  -2   2   95.25    2.55
   2  -2   2   96.82    2.57
   2  -2   2   99.18    2.62
   2  -2   2   97.20    2.50
   2  -2   2   97.36    2.62
  -2   2  -2   97.60    2.37
   2  -2   2   99.12    2.27
  -2   2  -2   99.21    2.59
  -2   2  -2   88.27    2.36
  -2   2  -2   93.48    2.56
  -2   2  -2   96.05    2.44
   2  -2   2   94.23    2.14
  -2   2  -2  100.76    2.28
  -2   2  -3  329.54    7.10
   2  -2   3  347.82    7.10
   2  -2   3  338.46    7.05
  -2   2  -3  332.99    6.96
  -2   2  -3  323.02    7.02
   2  -2   3  330.27    7.13
   2  -2   3  332.41    6.76
  -2   2  -3  331.57    6.99
  -2   2  -3  350.11    7.00
   2  -2   3  333.03    7.13
   2  -2   3  330.68    7.13
  -2   2  -3  345.13    7.08
  -2   2  -3  334.75    7.05
   2  -2   3  334.19    6.75
  -2   2  -3  331.04    6.61
   2  -2   4    2.24    0.38
  -2   2  -4    2.79    0.35
   2  -2   4    2.30    0.34
  -2   2  -4    1.70    0.30
   2  -2   4    2.18    0.31
  -2   2  -4    3.02    0.39
  -2   2  -4    2.71    0.22
  -2   2  -4    1.68    0.27
   2  -2   4    2.40    0.33
   2  -2   4    1.81    0.35
   2  -2   4    2.52    0.34
   2  -2   4    2.04    0.31
   2  -2   4    1.72    0.26
   2  -2   5    9.54    0.64
   2  -2   5   10.43    0.85
  -2   2  -5    9.89    0.70
   2  -2   5   12.05    0.75
  -2   2  -5   10.44    0.74
  -2   2  -5   11.14    0.81
   2  -2   5   10.84    0.58
   2  -2   5    9.07    0.70
  -2   2  -5    9.30    0.76
  -2   2  -6    7.81    0.69
   2  -2   6    6.59    0.61
  -2   2  -6    8.06    0.76
  -2   2  -6    7.37    0.68
   2  -2   6    7.85    0.80
   2  -2   6    7.23    0.79
   2  -2   6    5.66    0.55
   2  -2   6    7.40    0.70
  -2   2  -6    8.31    0.79
  -2   2  -7  177.92    4.65
  -2   2  -7  169.41    4.80
   2  -2   7  176.68    4.46
   2  -2   7  167.84    4.88
   2  -2   7  162.78    4.92
   2  -2   7  175.17    4.38
   2  -2   7  173.60    4.73
  -2   2  -7  171.15    4.63
  -2   2  -7  169.84    4.84
  -2   2  -8   99.69    3.19
   2  -2   8   86.09    3.18
   2  -2   8   88.88    2.82
  -2   2  -8   87.88    3.04
  -2   2  -8   85.07    3.15
   2  -2   8   82.07    3.26
   2  -2   8  102.72    3.35
   2  -2   8   87.78    2.78
   2  -2   9   11.52    0.84
  -2   2  -9   13.62    1.05
  -2   2  -9   12.78    1.08
   2  -2   9   12.45    1.16
   2  -2   9   13.74    1.09
   2  -2   9   12.39    0.88
  -2   2  -9   13.58    1.05
   2  -2   9   13.52    1.12
  -2   2 -10   14.58    1.02
   2  -2  10   14.58    1.15
   2  -2  10   15.62    0.99
  -2   2 -10   14.26    1.07
   2  -2  10   14.90    0.84
  -2   2 -10   13.08    0.98
   2  -2  10   14.25    1.11
  -2   2 -11    3.84    0.45
   2  -2  11    3.57    0.50
   2  -2  11    3.25    0.46
  -2   2 -11    2.72    0.39
  -2   2 -11    3.00    0.43
  -2   1  10    8.56    0.83
  -2   1  10    9.21    0.70
   2  -1 -10    6.95    0.74
  -2   1  10    8.27    0.55
  -2   1  10    8.69    0.70
  -2   1   9   37.96    1.67
  -2   1   9   37.31    1.97
   2  -1  -9   41.10    2.06
  -2   1   9   35.75    1.59
  -2   1   9   36.42    1.74
  -2   1   9   35.79    1.84
  -2   1   8   41.36    2.01
  -2   1   8   41.67    1.84
  -2   1   8   45.32    2.01
  -2   1   8   39.82    1.87
  -2   1   8   41.37    2.13
   2  -1  -8   40.78    2.14
  -2   1   7  177.48    4.86
  -2   1   7  166.04    4.60
  -2   1   7  169.60    4.76
   2  -1  -7  183.37    4.57
  -2   1   7  182.41    4.85
  -2   1   6    7.55    0.78
  -2   1   6    7.34    0.67
  -2   1   6    7.00    0.64
  -2   1   6    6.90    0.69
  -2   1   6    6.74    0.66
   2  -1  -6    5.65    0.61
  -2   1   6    6.08    0.64
  -2   1   5   26.27    1.17
  -2   1   5   24.97    1.12
  -2   1   5   25.51    1.24
  -2   1   5   24.52    1.19
  -2   1   5   24.99    1.33
   2  -1  -5   24.49    1.17
  -2   1   4   22.35    1.00
   2  -1  -4   22.84    0.96
  -2   1   4   22.13    1.07
  -2   1   4   22.17    0.84
   2  -1  -4   23.28    0.95
   2  -1  -4   24.09    0.78
  -2   1   4   22.93    0.84
   2  -1  -4   24.95    1.03
   2  -1  -3  225.23    4.75
   2  -1  -3  223.78    4.53
  -2   1   3  221.41    4.58
   2  -1  -3  225.24    4.85
  -2   1   3  225.00    4.96
  -2   1   3  224.83    4.65
  -2   1   3  220.54    4.77
  -2   1   3  222.04    4.36
  -2   1   3  223.07    4.38
  -2   1   3  221.31    4.53
   2  -1  -3  225.62    4.65
  -2   1   2  601.11   11.49
   2  -1  -2  551.74   11.61
  -2   1   2  593.60   11.57
  -2   1   2  600.37   11.52
   2  -1  -2  596.77   11.36
  -2   1   2  588.27   11.08
  -2   1   2  592.58   11.26
  -2   1   2  584.15   11.04
   2  -1  -2  593.42   11.69
   2  -1  -2  585.56   11.49
   2  -1  -2  595.52   11.40
   2  -1  -1   13.05    0.54
   2  -1  -1   13.31    0.71
  -2   1   1   13.88    0.71
  -2   1   1   13.55    0.68
  -2   1   1   12.26    0.48
   2  -1  -1   12.89    0.60
   2  -1  -1   13.29    0.72
  -2   1   0    0.84    0.19
   2  -1   0    0.84    0.22
  -2   1   0    0.87    0.23
  -2   1   0    1.01    0.12
  -2   1   0    0.67    0.20
  -2   1   0    1.28    0.18
   2  -1   0    0.89    0.23
   2  -1   0    0.95    0.17
   2  -1   0    0.83    0.17
   2  -1   1  165.93    3.65
   2  -1   1  155.27    3.66
   2  -1   1  158.36    3.64
  -2   1  -1  153.97    3.62
  -2   1  -1  156.93    3.33
   2  -1   1  155.62    3.48
  -2   1  -1  158.58    3.61
  -2   1  -1  165.81    3.49
   2  -1   1  154.47    3.01
  -2   1  -1  165.03    3.50
   2  -1   1  167.57    3.50
   2  -1   1  165.60    3.28
   2  -1   2    3.87    0.38
  -2   1  -2    4.96    0.42
   2  -1   2    3.90    0.37
   2  -1   2    3.94    0.39
   2  -1   2    4.58    0.40
  -2   1  -2    4.30    0.35
  -2   1  -2    4.51    0.39
  -2   1  -2    4.58    0.39
  -2   1  -2    4.66    0.40
  -2   1  -2    4.84    0.42
   2  -1   2    4.23    0.27
  -2   1  -2    4.56    0.34
   2  -1   2    4.13    0.33
  -2   1  -3  409.79    8.36
  -2   1  -3  405.95    8.34
   2  -1   3  406.96    8.37
  -2   1  -3  415.05    8.27
   2  -1   3  414.19    8.23
   2  -1   3  402.55    8.14
  -2   1  -3  412.83    8.15
  -2   1  -3  415.07    8.21
  -2   1  -3  404.27    8.37
  -2   1  -3  398.89    8.15
   2  -1   3  404.66    8.36
   2  -1   3  400.16    8.05
   2  -1   3  399.04    8.22
  -2   1  -3  413.95    7.99
   2  -1   4  171.05    4.13
   2  -1   4  177.19    4.24
  -2   1  -4  183.09    4.15
  -2   1  -4  184.94    4.32
   2  -1   4  184.60    3.96
   2  -1   4  189.83    3.98
   2  -1   4  178.49    4.29
  -2   1  -4  171.30    4.15
   2  -1   4  181.40    4.27
   2  -1   4  182.15    4.10
  -2   1  -4  173.48    4.21
  -2   1  -4  183.13    4.07
  -2   1  -4  176.06    4.22
   2  -1   4  175.55    4.02
  -2   1  -4  178.22    3.81
   2  -1   4  166.51    4.09
   2  -1   5    5.84    0.58
   2  -1   5    5.72    0.53
  -2   1  -5    6.88    0.60
   2  -1   5    5.77    0.54
  -2   1  -5    5.67    0.54
  -2   1  -5    7.24    0.65
   2  -1   5    5.53    0.48
  -2   1  -5    6.69    0.57
   2  -1   5    6.60    0.64
  -2   1  -5    6.09    0.58
  -2   1  -5    6.49    0.43
  -2   1  -6   19.07    1.13
  -2   1  -6   19.69    1.10
   2  -1   6   19.09    1.09
   2  -1   6   20.05    1.18
   2  -1   6   17.87    1.19
   2  -1   6   19.67    1.09
  -2   1  -6   20.43    1.17
  -2   1  -7  113.45    3.58
   2  -1   7  117.58    3.52
  -2   1  -7  117.84    3.54
   2  -1   7  112.61    3.76
   2  -1   7  112.12    3.58
  -2   1  -7  115.93    3.54
   2  -1   7  128.08    3.59
   2  -1   8  115.58    3.70
  -2   1  -8  125.03    3.89
  -2   1  -8  121.26    3.75
   2  -1   8  122.31    3.78
   2  -1   8  121.04    3.80
   2  -1   8  118.51    3.67
   2  -1   8  118.16    4.08
   2  -1   9    3.61    0.64
   2  -1   9    3.95    0.72
   2  -1   9    4.05    0.59
   2  -1   9    4.41    0.61
  -2   1  -9    4.20    0.65
   2  -1   9    3.18    0.54
  -2   1  -9    3.90    0.59
  -2   1 -10    9.00    0.84
  -2   1 -10    9.17    0.86
  -2   1 -10   10.94    0.96
   2  -1  10    9.63    1.03
   2  -1  10   10.97    0.86
   2  -1  10   10.50    0.86
   2  -1  10    8.92    0.91
   2  -1  11    3.05    0.49
  -2   1 -11    3.59    0.47
   2  -1  11    1.85    0.42
  -2   1 -11    2.43    0.41
   2  -1  11    3.06    0.42
  -2   1 -11    2.92    0.46
  -2   1 -12   10.78    0.58
  -2   1 -12   10.56    0.50
   2  -1  12   10.60    0.68
   2  -1  12   10.83    0.69
  -2   1 -12   10.74    0.64
  -2   0  11    8.59    0.65
  -2   0  10    3.11    0.51
  -2   0  10    3.86    0.56
  -2   0  10    4.22    0.50
   2   0 -10    4.54    0.60
  -2   0  10    3.97    0.52
  -2   0   9    4.37    0.52
  -2   0   9    4.12    0.58
  -2   0   9    3.90    0.64
   2   0  -9    4.14    0.66
  -2   0   9    3.70    0.57
  -2   0   9    3.91    0.63
  -2   0   8    0.73    0.32
  -2   0   8    0.77    0.33
  -2   0   8    1.19    0.38
   2   0  -8    0.95    0.44
   2   0  -8    0.45    0.27
  -2   0   8    1.17    0.40
  -2   0   7  177.64    4.91
  -2   0   7  185.82    4.98
   2   0  -7  190.83    5.36
  -2   0   7  187.60    5.12
   2   0  -7  185.30    4.67
  -2   0   7  183.24    5.01
  -2   0   7  195.84    4.98
   2   0  -6  117.28    3.71
  -2   0   6  121.39    3.52
  -2   0   6  122.42    3.58
   2   0  -6  118.17    3.30
  -2   0   6  121.02    3.62
  -2   0   6  119.96    3.40
  -2   0   5   10.77    0.67
  -2   0   5   10.41    0.79
  -2   0   5   11.23    0.74
  -2   0   5   10.34    0.77
  -2   0   5   11.12    0.81
   2   0  -5   12.30    0.75
  -2   0   4    5.84    0.36
   2   0  -4    5.60    0.50
  -2   0   4    5.26    0.51
   2   0  -4    5.79    0.25
  -2   0   4    6.31    0.43
  -2   0   4    5.42    0.42
  -2   0   4    6.72    0.56
   2   0  -4    5.83    0.35
   2   0  -4    5.50    0.45
  -2   0   4    5.93    0.52
   2   0  -4    6.44    0.48
  -2   0   4    6.31    0.41
  -2   0   4    6.26    0.52
  -2   0   3  121.91    2.60
   2   0  -3  122.10    2.65
  -2   0   3  127.19    3.05
  -2   0   3  122.12    2.73
  -2   0   3  128.44    2.80
   2   0  -3  127.12    3.00
  -2   0   3  125.12    2.77
  -2   0   3  120.80    2.85
  -2   0   3  121.03    2.94
   2   0  -3  122.63    2.59
  -2   0   3  122.08    2.93
   2   0  -3  124.61    2.92
  -2   0   2  713.93   13.51
   2   0  -2  692.38   13.43
   2   0  -2  726.37   13.62
  -2   0   2  710.57   13.65
  -2   0   2  702.16   13.67
  -2   0   2  722.48   13.32
  -2   0   2  732.57   13.53
  -2   0   2  691.66   13.62
  -2   0   2  699.72   13.46
   2   0  -2  691.05   13.57
  -2   0   2  700.58   13.09
  -2   0   1   49.45    1.33
  -2   0   1   52.98    1.54
  -2   0   1   53.49    1.57
  -2   0   1   51.88    1.20
   2   0  -1   52.78    1.41
  -2   0   1   50.77    1.28
  -2   0   1   51.59    1.20
  -2   0   1   50.50    1.43
   2   0  -1   50.92    1.39
  -2   0   0   28.39    1.01
   2   0   0   27.30    0.89
   2   0   0   28.12    0.63
  -2   0   0   26.59    1.00
  -2   0   0   27.62    0.85
   2   0   0   27.57    1.01
   2   0   0   27.75    1.01
  -2   0   0   26.96    0.60
   2   0   0   25.67    0.88
   2   0   1    0.90    0.14
   2   0   1    0.99    0.21
   2   0   1    0.96    0.19
  -2   0  -1    0.57    0.21
  -2   0  -1    0.58    0.10
  -2   0  -1    0.60    0.19
  -2   0  -1    0.73    0.21
   2   0   1    0.75    0.19
  -2   0  -1    0.60    0.18
   2   0   2    8.63    0.47
  -2   0  -2    8.91    0.54
   2   0   2    8.69    0.53
  -2   0  -2    8.98    0.51
   2   0   2    8.32    0.52
  -2   0  -2    8.62    0.51
  -2   0  -2    9.59    0.51
  -2   0  -2    9.12    0.54
   2   0   2    8.33    0.52
   2   0   2    8.92    0.42
  -2   0  -2    8.30    0.40
   2   0   2    8.45    0.53
   2   0   2    9.31    0.52
   2   0   3  596.05   12.08
  -2   0  -3  636.93   12.18
   2   0   3  623.39   12.17
  -2   0  -3  624.92   11.96
  -2   0  -3  627.49   12.16
  -2   0  -3  617.89   12.13
   2   0   3  618.53   12.20
  -2   0  -3  619.25   12.20
  -2   0  -3  613.97   11.99
   2   0   3  614.82   11.96
  -2   0  -3  630.37   11.94
  -2   0  -3  620.16   12.04
   2   0   4  322.88    6.62
  -2   0  -4  308.35    6.58
   2   0   4  313.42    6.62
  -2   0  -4  320.59    6.57
   2   0   4  311.71    6.67
  -2   0  -4  312.02    6.29
   2   0   4  299.52    6.59
  -2   0  -4  321.63    6.64
  -2   0  -4  314.79    6.27
  -2   0  -4  302.48    6.57
  -2   0  -4  311.98    6.48
   2   0   4  311.60    6.66
  -2   0  -4  305.72    6.64
   2   0   4  317.85    6.48
  -2   0  -4  321.94    6.44
  -2   0  -4  290.98    6.41
   2   0   5    9.64    0.67
  -2   0  -5    9.10    0.65
   2   0   5   10.40    0.70
   2   0   5    9.65    0.56
  -2   0  -5    9.26    0.68
  -2   0  -5   10.01    0.48
  -2   0  -5    9.77    0.68
  -2   0  -5    9.59    0.67
  -2   0  -5   10.65    0.71
  -2   0  -5    9.78    0.70
   2   0   5    8.52    0.57
   2   0   5    9.63    0.71
   2   0   5    9.62    0.63
  -2   0  -5    8.98    0.60
   2   0   5    9.71    0.74
   2   0   6   19.83    1.03
  -2   0  -6   20.54    1.13
  -2   0  -6   19.30    1.03
   2   0   6   19.51    1.19
   2   0   6   18.30    1.02
   2   0   6   19.12    1.11
  -2   0  -6   19.51    1.10
  -2   0  -6   17.10    0.82
   2   0   6   18.18    0.95
   2   0   6   17.22    0.98
   2   0   7    4.04    0.54
  -2   0  -7    4.71    0.63
   2   0   7    4.92    0.47
   2   0   7    4.95    0.59
   2   0   7    4.51    0.61
   2   0   7    4.50    0.64
  -2   0  -7    5.61    0.66
   2   0   8  272.24    7.18
   2   0   8  255.53    6.49
  -2   0  -8  266.50    6.82
   2   0   8  271.48    6.19
  -2   0  -8  278.02    5.98
  -2   0  -8  292.39    6.93
   2   0   8  277.82    6.74
   2   0   8  278.54    6.98
   2   0   9   43.45    2.17
  -2   0  -9   43.64    2.11
   2   0   9   47.37    1.84
   2   0   9   45.70    2.39
   2   0   9   46.60    2.21
  -2   0  -9   45.16    2.12
   2   0   9   44.88    2.11
  -2   0 -10   12.40    1.05
   2   0  10   10.89    1.13
   2   0  10   12.17    0.84
   2   0  10   13.22    1.09
   2   0  10   12.40    1.06
  -2   0 -10   12.02    1.02
   2   0  10   12.16    1.06
  -2   0 -11   20.30    1.13
  -2   0 -11   21.92    1.24
   2   0  11   21.31    1.38
   2   0  11   20.51    1.19
   2   0  11   19.41    1.23
  -2   0 -11   20.28    1.19
   2   0  12    0.37    0.20
  -2   0 -12    0.42    0.17
   2   0  12    0.04    0.15
  -2   0 -12    0.38    0.21
   2   0  12   -0.07    0.17
  -2   0 -12    0.60    0.20
  -2  -1  10    0.54    0.30
   2   1 -10    0.65    0.33
   2   1 -10    0.10    0.29
  -2  -1  10    0.42    0.27
   2   1 -10    0.83    0.30
  -2  -1  10    0.64    0.31
  -2  -1  10    0.52    0.31
  -2  -1   9   16.90    1.23
  -2  -1   9   18.25    0.96
   2   1  -9   15.55    1.24
  -2  -1   9   17.67    1.23
  -2  -1   9   16.08    1.22
  -2  -1   8    8.84    0.93
   2   1  -8   10.49    0.77
   2   1  -8    9.98    1.03
  -2  -1   8   10.21    0.81
  -2  -1   8    8.79    0.92
  -2  -1   8    9.30    0.91
  -2  -1   7   52.57    2.20
  -2  -1   7   53.12    2.27
  -2  -1   7   53.10    2.22
   2   1  -7   53.11    2.41
  -2  -1   7   54.18    2.29
   2   1  -7   48.07    1.87
  -2  -1   7   49.90    2.16
  -2  -1   6  235.01    5.63
  -2  -1   6  226.59    5.76
  -2  -1   6  237.32    5.79
   2   1  -6  224.56    5.92
  -2  -1   6  230.47    5.79
   2   1  -6  229.02    5.37
  -2  -1   5   68.17    2.16
  -2  -1   5   70.75    2.34
  -2  -1   5   65.54    2.24
   2   1  -5   66.49    1.79
   2   1  -5   66.06    2.35
   2   1  -5   66.82    2.02
  -2  -1   5   71.39    2.32
   2   1  -5   64.47    1.83
  -2  -1   4   14.02    0.84
  -2  -1   4   12.76    0.78
   2   1  -4   13.42    0.65
   2   1  -4   14.26    0.50
  -2  -1   4   14.06    0.51
   2   1  -4   13.98    0.81
  -2  -1   4   14.26    0.72
  -2  -1   4   14.22    0.50
   2   1  -4   13.49    0.65
   2   1  -4   12.84    0.82
  -2  -1   4   12.54    0.78
  -2  -1   4   12.56    0.68
  -2  -1   4   13.00    0.80
   2   1  -4   14.04    0.69
   2   1  -3   74.93    1.87
  -2  -1   3   74.52    1.93
  -2  -1   3   75.42    2.05
  -2  -1   3   75.37    2.09
  -2  -1   3   74.54    1.92
  -2  -1   3   78.53    2.11
   2   1  -3   77.78    2.12
   2   1  -3   75.34    2.09
  -2  -1   3   75.71    2.06
  -2  -1   3   74.91    2.00
   2   1  -3   74.63    1.77
   2   1  -3   77.28    1.93
  -2  -1   2  203.86    4.38
  -2  -1   2  205.39    4.41
  -2  -1   2  201.36    4.32
   2   1  -2  198.99    4.23
  -2  -1   2  203.02    4.20
   2   1  -2  199.27    4.37
   2   1  -2  203.02    4.17
   2   1  -2  192.09    4.26
  -2  -1   2  201.96    4.29
  -2  -1   2  205.44    4.30
  -2  -1   2  200.41    4.02
  -2  -1   1  445.05    8.48
  -2  -1   1  425.25    8.24
  -2  -1   1  430.02    8.43
   2   1  -1  418.51    8.40
  -2  -1   1  422.69    8.34
  -2  -1   1  423.15    8.32
   2   1  -1  419.11    8.31
   2   1  -1  417.07    8.31
  -2  -1   1  430.70    8.09
   2   1   0    1.15    0.20
  -2  -1   0    2.15    0.26
  -2  -1   0    1.80    0.24
  -2  -1   0    1.98    0.25
  -2  -1   0    1.90    0.22
   2   1   0    1.28    0.22
  -2  -1   0    1.88    0.16
   2   1   1  270.38    5.43
  -2  -1  -1  247.45    5.48
  -2  -1  -1  270.47    5.48
  -2  -1  -1  257.97    5.47
  -2  -1  -1  275.07    5.28
   2   1   1  280.82    5.63
   2   1   1  266.16    5.32
  -2  -1  -1  282.15    5.33
   2   1   2   36.51    1.14
  -2  -1  -2   39.28    1.18
  -2  -1  -2   37.08    1.07
  -2  -1  -2   37.75    1.21
   2   1   2   36.11    1.08
  -2  -1  -2   37.35    1.11
  -2  -1  -2   38.66    1.16
  -2  -1  -2   38.76    1.24
   2   1   2   39.49    1.26
   2   1   2   34.80    1.12
  -2  -1  -3  131.01    2.94
  -2  -1  -3  132.97    2.99
   2   1   3  128.66    3.02
   2   1   3  129.74    3.11
  -2  -1  -3  126.02    2.94
  -2  -1  -3  138.03    3.16
   2   1   3  127.92    2.98
  -2  -1  -3  130.32    2.97
  -2  -1  -3  130.48    3.05
   2   1   3  127.13    3.05
  -2  -1  -4  309.27    6.51
   2   1   4  318.52    6.55
  -2  -1  -4  313.24    6.33
  -2  -1  -4  304.30    6.30
  -2  -1  -4  321.67    6.64
   2   1   4  320.70    6.58
   2   1   4  329.87    6.70
   2   1   4  305.25    6.65
   2   1   4  312.97    6.67
  -2  -1  -4  320.08    6.70
  -2  -1  -4  308.36    6.58
   2   1   4  327.24    6.70
  -2  -1  -4  323.02    6.53
  -2  -1  -4  316.82    6.68
   2   1   4  312.39    6.58
  -2  -1  -4  320.52    6.57
  -2  -1  -4  309.08    6.53
  -2  -1  -5   79.12    2.25
   2   1   5   89.89    2.33
  -2  -1  -5   84.59    2.42
   2   1   5   83.18    2.46
   2   1   5   82.60    2.37
  -2  -1  -5   83.29    1.93
  -2  -1  -5   82.60    2.43
   2   1   5   81.68    2.06
   2   1   5   89.09    2.50
  -2  -1  -5   80.89    2.31
  -2  -1  -5   82.91    1.92
  -2  -1  -5   83.58    2.40
  -2  -1  -5   77.95    2.35
   2   1   5   79.02    2.33
   2   1   5   82.40    2.32
  -2  -1  -5   79.85    2.28
  -2  -1  -5   83.98    2.24
   2   1   5   82.47    2.38
   2   1   6    2.27    0.38
  -2  -1  -6    2.72    0.40
  -2  -1  -6    2.50    0.42
   2   1   6    2.34    0.43
   2   1   6    2.16    0.28
   2   1   6    2.54    0.44
  -2  -1  -6    2.73    0.38
  -2  -1  -6    2.62    0.43
   2   1   6    2.32    0.40
   2   1   7   16.35    1.04
  -2  -1  -7   15.62    0.88
   2   1   7   15.41    1.12
  -2  -1  -7   15.73    1.12
   2   1   7   13.31    0.95
   2   1   7   15.23    1.12
  -2  -1  -7   16.23    1.11
   2   1   7   15.45    0.92
  -2  -1  -8  118.10    3.81
   2   1   8  123.86    3.52
   2   1   8  127.03    4.11
   2   1   8  125.13    4.03
  -2  -1  -8  124.69    3.93
   2   1   8  120.98    3.72
  -2  -1  -9  143.14    4.19
   2   1   9  140.41    4.54
  -2  -1  -9  142.74    4.28
   2   1   9  144.25    4.43
   2   1   9  141.13    4.17
   2   1   9  136.20    4.37
  -2  -1 -10   20.17    1.34
  -2  -1 -10   18.94    1.34
   2   1  10   17.26    1.43
   2   1  10   16.19    1.32
   2   1  10   18.09    1.15
   2   1  10   19.83    1.44
  -2  -1 -10   19.78    1.02
   2   1  10   18.64    1.32
   2   1  11   17.37    1.01
   2   1  11   15.91    1.22
   2   1  11   18.51    1.22
   2   1  11   16.84    1.16
  -2  -1 -11   15.80    1.10
  -2  -1 -11   17.83    1.13
   2   1  12    1.22    0.29
  -2  -1 -12    1.35    0.30
   2   1  12    1.16    0.29
   2   1  12    0.95    0.27
  -2  -1 -12    1.46    0.30
  -2  -1 -12    1.46    0.24
  -2  -2  10   18.15    1.09
  -2  -2  10   17.94    1.11
   2   2 -10   16.03    1.07
   2   2 -10   19.58    1.12
  -2  -2  10   18.80    1.10
  -2  -2  10   17.13    1.11
   2   2  -9   17.04    1.11
  -2  -2   9   16.68    1.23
   2   2  -9   15.67    1.29
   2   2  -9   15.86    1.20
  -2  -2   9   17.93    1.26
  -2  -2   9   17.51    1.24
  -2  -2   8    6.39    0.78
  -2  -2   8    6.25    0.61
   2   2  -8    4.97    0.75
  -2  -2   8    5.91    0.79
   2   2  -8    7.20    0.64
   2   2  -8    6.65    0.94
  -2  -2   8    6.56    0.79
  -2  -2   7   60.86    2.44
  -2  -2   7   64.84    2.58
   2   2  -7   60.90    2.65
  -2  -2   7   65.26    2.59
   2   2  -7   63.56    2.18
  -2  -2   7   68.57    2.63
  -2  -2   7   64.96    2.52
  -2  -2   6   70.32    2.42
   2   2  -6   68.61    2.11
  -2  -2   6   69.96    2.53
  -2  -2   6   68.63    2.55
   2   2  -6   67.36    2.64
  -2  -2   6   69.02    2.53
   2   2  -6   66.81    2.18
  -2  -2   5  225.98    5.21
   2   2  -5  218.39    5.01
  -2  -2   5  212.78    5.29
   2   2  -5  220.53    4.93
  -2  -2   5  224.96    5.46
   2   2  -5  225.38    5.57
  -2  -2   5  226.53    5.41
   2   2  -4    0.85    0.20
   2   2  -4    1.08    0.23
  -2  -2   4    0.52    0.21
  -2  -2   4    0.47    0.22
  -2  -2   4    0.26    0.14
  -2  -2   4    0.96    0.22
  -2  -2   4    0.69    0.17
   2   2  -4    1.04    0.32
   2   2  -4    0.96    0.24
   2   2  -4    0.79    0.15
  -2  -2   4    0.62    0.25
   2   2  -4    1.02    0.20
   2   2  -4    1.33    0.22
   2   2  -3    6.69    0.42
  -2  -2   3    7.27    0.54
  -2  -2   3    8.10    0.51
   2   2  -3    6.39    0.40
  -2  -2   3    6.72    0.45
  -2  -2   3    6.66    0.48
  -2  -2   3    6.84    0.53
  -2  -2   3    6.22    0.48
  -2  -2   3    7.05    0.47
   2   2  -3    6.86    0.55
   2   2  -3    6.37    0.51
   2   2  -3    7.11    0.48
  -2  -2   3    7.44    0.51
  -2  -2   2  245.78    4.91
  -2  -2   2  227.09    4.77
  -2  -2   2  222.60    4.85
   2   2  -2  228.00    4.77
   2   2  -2  239.26    4.85
   2   2  -2  238.31    4.76
   2   2  -2  237.77    4.98
   2   2  -2  232.14    4.94
  -2  -2   2  230.88    4.88
   2   2  -2  222.54    4.29
  -2  -2   2  237.89    4.90
  -2  -2   2  235.40    4.75
  -2  -2   2  234.50    4.79
  -2  -2   2  234.53    4.70
   2   2  -1  162.07    3.56
  -2  -2   1  169.63    3.60
  -2  -2   1  165.38    3.58
   2   2  -1  161.30    3.64
  -2  -2   1  159.83    3.48
   2   2  -1  173.97    3.64
  -2  -2   1  164.54    3.44
   2   2   0   15.27    0.66
  -2  -2   0   17.19    0.68
   2   2   0   16.15    0.68
  -2  -2   0   15.90    0.64
  -2  -2   0   17.35    0.71
   2   2   0   13.93    0.71
  -2  -2   0   16.00    0.59
   2   2   1  111.39    2.62
   2   2   1  112.13    2.63
  -2  -2  -1  114.66    2.65
  -2  -2  -1  126.84    2.61
  -2  -2  -1  126.38    2.87
   2   2   1  111.27    2.78
   2   2   1  113.72    2.58
  -2  -2  -1  113.32    2.55
   2   2   2   11.20    0.54
  -2  -2  -2   12.00    0.61
   2   2   2   11.07    0.50
  -2  -2  -2   12.20    0.57
  -2  -2  -2   10.42    0.59
   2   2   2   10.94    0.56
  -2  -2  -2   12.18    0.56
  -2  -2  -3   40.75    1.28
   2   2   3   38.13    1.15
   2   2   3   39.18    1.16
   2   2   3   39.10    1.29
  -2  -2  -3   40.35    1.34
   2   2   3   36.27    1.27
   2   2   3   38.57    1.27
  -2  -2  -3   39.26    1.27
  -2  -2  -3   42.12    1.31
   2   2   3   38.14    1.29
  -2  -2  -4  143.79    3.20
   2   2   4  142.23    3.42
   2   2   4  151.54    3.22
  -2  -2  -4  149.56    3.21
   2   2   4  143.52    3.15
   2   2   4  145.91    3.29
   2   2   4  154.95    3.50
  -2  -2  -4  142.35    3.39
   2   2   4  138.46    3.42
  -2  -2  -4  151.12    3.51
  -2  -2  -4  145.92    3.18
   2   2   4  137.73    3.47
   2   2   4  136.92    3.42
  -2  -2  -4  141.71    3.45
  -2  -2  -4  147.78    3.39
   2   2   4  138.31    3.48
   2   2   5  350.70    7.15
   2   2   5  339.72    6.90
  -2  -2  -5  352.69    7.45
   2   2   5  366.97    7.44
  -2  -2  -5  321.62    7.29
  -2  -2  -5  331.82    7.16
   2   2   5  341.64    7.15
   2   2   5  342.32    6.72
  -2  -2  -5  342.35    6.80
  -2  -2  -5  346.68    6.95
   2   2   5  347.56    7.23
  -2  -2  -5  344.26    7.26
   2   2   5  334.69    7.37
   2   2   5  335.23    7.24
  -2  -2  -5  340.64    7.25
  -2  -2  -5  342.42    7.12
  -2  -2  -5  336.68    6.78
   2   2   5  333.01    7.30
  -2  -2  -6    6.98    0.48
  -2  -2  -6    6.81    0.61
   2   2   6    7.27    0.69
   2   2   6    7.44    0.63
  -2  -2  -6    6.48    0.67
   2   2   6    7.13    0.54
  -2  -2  -6    7.24    0.57
  -2  -2  -6    6.14    0.55
  -2  -2  -6    7.55    0.69
   2   2   6    9.71    0.73
   2   2   6    7.63    0.70
   2   2   7   29.85    1.55
   2   2   7   27.82    1.37
   2   2   7   28.51    1.44
   2   2   7   30.15    1.59
  -2  -2  -7   30.65    1.58
  -2  -2  -7   30.04    1.59
   2   2   7   26.64    1.42
  -2  -2  -8   69.85    2.70
   2   2   8   65.52    2.47
   2   2   8   71.03    2.71
   2   2   8   66.34    2.79
   2   2   8   72.50    2.68
  -2  -2  -8   69.47    2.78
  -2  -2  -9   44.31    2.12
   2   2   9   50.01    2.16
   2   2   9   46.84    2.38
  -2  -2  -9   42.16    2.18
   2   2   9   46.42    2.19
   2   2   9   46.90    2.30
   2   2  10    5.41    0.82
   2   2  10    6.42    0.77
   2   2  10    7.28    0.92
   2   2  10    6.07    0.82
  -2  -2 -10    7.36    0.81
   2   2  10    7.68    0.87
  -2  -2 -10    6.19    0.80
  -2  -2 -11   36.97    1.65
   2   2  11   38.20    1.69
  -2  -2 -11   35.79    1.35
   2   2  11   35.40    1.82
   2   2  11   37.55    1.78
  -2  -2 -11   35.52    1.72
   2   2  11   31.32    1.71
  -2  -2 -12   10.32    0.64
   2   2  12   10.89    0.71
   2   2  12   10.90    0.75
   2   2  12   11.01    0.74
   2   2  12   10.75    0.78
  -2  -2 -12   10.35    0.72
  -2  -3  10    9.74    0.77
   2   3 -10   10.77    0.73
   2   3 -10    9.55    0.74
  -2  -3  10   10.55    0.73
  -2  -3  10    9.90    0.79
   2   3  -9   24.27    1.39
  -2  -3   9   22.52    1.44
  -2  -3   9   22.45    1.37
   2   3  -9   21.31    1.41
  -2  -3   9   22.29    1.33
   2   3  -8  116.74    3.43
  -2  -3   8  107.89    3.73
   2   3  -8  100.06    3.81
   2   3  -8  114.03    3.78
  -2  -3   8  109.41    3.61
   2   3  -8  110.99    3.15
  -2  -3   8  108.58    3.45
  -2  -3   8  117.08    3.65
   2   3  -7    3.02    0.45
  -2  -3   7    6.49    0.79
  -2  -3   7    2.53    0.51
   2   3  -7    4.25    0.61
  -2  -3   7    4.19    0.60
  -2  -3   7    5.12    0.72
  -2  -3   7    1.72    0.48
   2   3  -7    4.49    0.79
   2   3  -7    4.18    0.68
  -2  -3   7    4.88    0.67
   2   3  -7    4.42    0.53
  -2  -3   6   47.06    2.10
  -2  -3   6   48.95    1.93
   2   3  -6   45.26    1.82
   2   3  -6   47.86    2.19
   2   3  -6   43.99    2.33
  -2  -3   6   47.80    2.04
  -2  -3   6   45.59    1.94
   2   3  -6   48.77    1.80
   2   3  -5  123.98    3.33
  -2  -3   5  133.06    3.49
  -2  -3   5  133.02    3.58
  -2  -3   5  134.87    3.82
  -2  -3   5  134.60    3.33
   2   3  -5  128.73    3.37
   2   3  -5  129.76    3.89
  -2  -3   5  135.94    3.71
   2   3  -4    2.56    0.28
  -2  -3   4    2.15    0.33
   2   3  -4    2.73    0.44
  -2  -3   4    1.85    0.36
  -2  -3   4    2.28    0.33
  -2  -3   4    2.39    0.33
   2   3  -4    2.35    0.32
  -2  -3   4    2.93    0.41
   2   3  -3   20.04    0.84
  -2  -3   3   20.25    0.93
   2   3  -3   21.64    0.96
  -2  -3   3   21.17    1.01
   2   3  -3   20.14    1.22
  -2  -3   3   19.18    0.87
  -2  -3   3   22.74    1.00
   2   3  -3   22.42    1.07
   2   3  -3   20.38    0.97
  -2  -3   3   22.57    0.89
   2   3  -3   20.68    1.07
  -2  -3   3   19.13    0.94
   2   3  -3   20.51    0.82
   2   3  -3   21.22    0.85
  -2  -3   2  153.45    3.42
   2   3  -2  155.23    3.60
   2   3  -2  135.59    3.71
  -2  -3   2  138.19    3.30
  -2  -3   2  146.75    3.29
  -2  -3   2  136.48    3.08
  -2  -3   2  140.13    3.32
   2   3  -2  141.91    3.27
   2   3  -2  143.91    3.39
   2   3  -2  142.12    3.48
  -2  -3   2  144.49    3.33
  -2  -3   2  145.59    3.33
   2   3  -2  133.88    3.23
  -2  -3   2  143.84    3.23
  -2  -3   1   24.75    0.95
   2   3  -1   26.26    1.09
  -2  -3   1   25.64    0.93
   2   3  -1   24.08    1.09
  -2  -3   1   28.27    1.02
   2   3  -1   26.64    0.99
   2   3  -1   27.22    1.05
   2   3  -1   28.07    0.77
  -2  -3   1   26.02    0.96
   2   3  -1   26.15    0.97
  -2  -3   1   25.90    0.81
   2   3  -1   22.38    0.91
  -2  -3   1   26.02    0.91
  -2  -3   0  132.50    3.07
   2   3   0  138.24    2.91
   2   3   0  129.97    3.07
  -2  -3   0  133.63    3.10
  -2  -3   0  131.80    3.05
   2   3   0  131.36    3.11
   2   3   0  134.66    3.06
  -2  -3   0  139.21    3.03
  -2  -3   0  141.31    3.04
   2   3   0  141.92    3.06
  -2  -3   0  131.03    2.99
  -2  -3  -1   21.59    0.84
   2   3   1   23.01    0.82
   2   3   1   22.28    0.86
  -2  -3  -1   23.10    0.89
   2   3   1   23.60    0.84
  -2  -3  -1   23.66    0.88
  -2  -3  -1   23.14    0.87
  -2  -3  -1   24.02    0.98
   2   3   1   22.53    0.87
  -2  -3  -1   22.88    0.84
   2   3   2  187.58    3.71
   2   3   2  184.75    3.99
   2   3   2  182.86    3.96
   2   3   2  182.62    4.19
  -2  -3  -2  182.42    3.97
   2   3   2  179.60    3.92
  -2  -3  -2  184.47    4.01
  -2  -3  -2  186.68    4.03
  -2  -3  -2  182.46    4.08
   2   3   2  173.74    4.00
  -2  -3  -2  187.49    4.00
  -2  -3  -3  191.43    4.24
   2   3   3  196.80    3.78
   2   3   3  182.55    4.38
   2   3   3  198.59    4.36
  -2  -3  -3  187.47    4.18
   2   3   3  188.47    4.22
   2   3   3  189.17    4.08
  -2  -3  -3  188.66    4.25
  -2  -3  -3  193.52    4.29
  -2  -3  -3  199.29    4.27
   2   3   3  189.01    4.27
  -2  -3  -4   27.81    1.13
   2   3   4   28.08    1.07
   2   3   4   26.27    1.04
  -2  -3  -4   27.95    1.08
   2   3   4   27.58    0.91
  -2  -3  -4   28.89    1.13
   2   3   4   26.70    1.20
   2   3   4   30.17    1.22
   2   3   4   25.87    1.11
  -2  -3  -4   27.93    1.15
  -2  -3  -4   27.32    1.08
   2   3   4   27.08    1.12
   2   3   5  292.20    5.75
   2   3   5  299.51    6.33
  -2  -3  -5  287.54    6.25
   2   3   5  279.34    6.14
  -2  -3  -5  295.48    6.30
   2   3   5  280.13    5.95
   2   3   5  299.34    6.56
   2   3   5  289.65    6.19
  -2  -3  -5  287.52    6.41
   2   3   5  285.78    6.37
  -2  -3  -6   15.80    0.85
  -2  -3  -6   17.48    1.14
   2   3   6   17.45    1.02
   2   3   6   17.57    0.88
   2   3   6   18.09    1.06
  -2  -3  -6   17.42    0.90
   2   3   6   16.27    1.00
   2   3   6   17.75    1.13
   2   3   7    5.19    0.65
   2   3   7    5.76    0.58
   2   3   7    4.61    0.59
  -2  -3  -7    5.63    0.69
   2   3   7    5.15    0.65
  -2  -3  -7    5.46    0.68
   2   3   7    5.09    0.70
   2   3   8  105.37    3.49
   2   3   8  108.71    3.32
  -2  -3  -8  109.12    3.60
   2   3   8  112.79    3.79
   2   3   8  107.81    3.56
  -2  -3  -8  105.78    3.69
   2   3   9   26.17    1.62
   2   3   9   28.17    1.83
  -2  -3  -9   30.51    1.69
   2   3   9   26.08    1.64
  -2  -3  -9   30.25    1.83
   2   3   9   30.49    1.63
   2   3  10   21.41    1.57
  -2  -3 -10   22.58    1.39
   2   3  10   20.71    1.41
   2   3  10   22.22    1.40
   2   3  10   24.95    1.56
   2   3  10   22.77    1.61
  -2  -3 -10   22.63    1.53
   2   3  11   33.72    1.77
   2   3  11   28.59    1.46
   2   3  11   35.21    1.66
  -2  -3 -11   32.38    1.49
   2   3  11   33.04    1.65
  -2  -3 -11   34.87    1.69
   2   3  11   31.54    1.60
   2   3  12   27.50    1.19
   2   3  12   26.51    1.14
   2   3  12   25.87    1.24
  -2  -3 -12   25.53    1.16
   2   4 -10    8.88    0.62
   2   4 -10    8.74    0.61
  -2  -4  10    8.91    0.68
  -2  -4  10    9.31    0.50
  -2  -4  10    9.06    0.61
  -2  -4   9   22.66    1.38
  -2  -4   9   21.86    1.13
   2   4  -9   23.39    1.32
   2   4  -9   23.35    1.21
  -2  -4   9   22.94    1.24
  -2  -4   8   63.91    2.66
   2   4  -8   66.79    2.54
   2   4  -8   58.79    2.59
  -2  -4   8   61.45    2.38
   2   4  -8   64.90    2.16
  -2  -4   8   63.69    2.39
  -2  -4   8   68.26    2.51
   2   4  -8   61.55    2.24
   2   4  -7   68.27    2.53
   2   4  -7   69.59    2.38
  -2  -4   7   70.20    2.49
  -2  -4   7   71.24    2.83
  -2  -4   7   69.87    2.53
   2   4  -7   73.06    2.84
   2   4  -7   65.79    2.90
  -2  -4   7   64.00    2.53
   2   4  -7   67.67    2.34
  -2  -4   7   71.63    2.72
  -2  -4   6   10.55    0.83
   2   4  -6   10.18    1.10
  -2  -4   6   10.52    0.83
  -2  -4   6   10.59    0.99
   2   4  -6   11.50    1.07
   2   4  -6   11.20    0.84
   2   4  -6    9.72    0.87
   2   4  -6    9.83    0.85
  -2  -4   6    9.97    0.76
  -2  -4   6   10.65    0.91
  -2  -4   5   40.58    1.58
  -2  -4   5   40.02    1.59
  -2  -4   5   38.28    1.82
  -2  -4   5   37.05    1.56
   2   4  -5   38.44    1.71
   2   4  -5   37.13    1.88
   2   4  -5   35.32    1.99
  -2  -4   5   36.80    1.64
   2   4  -5   37.85    1.55
   2   4  -5   38.33    1.70
   2   4  -4   98.76    3.41
  -2  -4   4   94.32    2.60
  -2  -4   4   97.56    2.66
  -2  -4   4   98.92    3.02
   2   4  -4  104.35    3.27
  -2  -4   4  103.24    2.90
   2   4  -4   97.82    3.00
  -2  -4   4   93.53    2.79
   2   4  -4   98.29    2.73
   2   4  -4  100.71    2.91
  -2  -4   3    0.91    0.22
   2   4  -3    1.12    0.43
  -2  -4   3    0.89    0.20
  -2  -4   3    0.80    0.27
   2   4  -3    0.99    0.23
  -2  -4   3    0.87    0.25
  -2  -4   3    1.26    0.27
   2   4  -3    0.86    0.31
   2   4  -3    1.30    0.26
   2   4  -3    1.34    0.32
   2   4  -2  357.93    7.25
  -2  -4   2  358.45    7.35
   2   4  -2  359.31    7.33
  -2  -4   2  356.43    7.47
   2   4  -2  336.24    7.87
   2   4  -2  359.91    7.72
   2   4  -2  350.23    7.34
   2   4  -2  336.07    7.62
  -2  -4   2  358.26    7.26
   2   4  -2  355.84    7.22
  -2  -4   2  342.80    7.30
  -2  -4   2  347.42    7.25
   2   4  -1   40.89    1.26
   2   4  -1   41.34    1.13
   2   4  -1   41.41    1.39
  -2  -4   1   39.18    1.23
   2   4  -1   40.09    1.25
  -2  -4   1   40.15    1.29
   2   4  -1   37.57    1.55
  -2  -4   1   40.95    1.40
  -2  -4   1   40.78    1.36
  -2  -4   1   39.30    1.40
   2   4  -1   39.67    1.31
   2   4  -1   38.00    1.52
   2   4  -1   43.10    1.55
  -2  -4   1   41.04    1.05
  -2  -4   1   40.37    1.33
   2   4   0    5.42    0.34
  -2  -4   0    4.72    0.42
   2   4   0    4.71    0.41
   2   4   0    4.49    0.36
   2   4   0    5.21    0.36
  -2  -4   0    5.02    0.42
   2   4   0    4.28    0.45
   2   4   0    5.27    0.49
   2   4   0    5.15    0.53
  -2  -4   0    4.96    0.37
  -2  -4   0    5.15    0.42
  -2  -4   0    4.94    0.34
  -2  -4   0    5.22    0.41
   2   4   1  232.92    4.54
   2   4   1  233.23    5.00
  -2  -4  -1  235.39    4.99
  -2  -4  -1  240.02    4.98
   2   4   1  209.62    5.22
  -2  -4  -1  226.37    4.95
   2   4   1  222.78    4.78
   2   4   1  234.53    5.21
   2   4   1  244.67    4.90
   2   4   1  227.57    4.97
  -2  -4  -1  226.62    4.97
  -2  -4  -1  226.53    5.02
  -2  -4  -1  230.72    4.95
  -2  -4  -2  235.71    4.98
   2   4   2  214.64    5.28
   2   4   2  236.08    5.00
  -2  -4  -2  230.51    5.02
  -2  -4  -2  232.84    4.92
   2   4   2  229.94    4.92
   2   4   2  235.24    5.00
   2   4   2  239.60    5.30
  -2  -4  -2  232.99    4.98
   2   4   2  230.51    4.82
   2   4   2  229.56    4.96
  -2  -4  -2  233.74    5.06
  -2  -4  -2  240.57    5.10
   2   4   2  231.73    5.05
  -2  -4  -2  234.66    5.03
   2   4   3  164.42    4.31
  -2  -4  -3  175.15    3.77
   2   4   3  179.72    3.94
   2   4   3  171.31    3.69
  -2  -4  -3  178.41    3.91
   2   4   3  179.45    3.83
   2   4   3  181.71    4.06
  -2  -4  -3  178.45    4.00
  -2  -4  -3  178.92    4.05
   2   4   3  181.15    4.09
  -2  -4  -3  183.60    4.13
  -2  -4  -3  176.64    4.05
   2   4   3  172.36    4.04
  -2  -4  -3  184.22    4.10
   2   4   4    2.73    0.37
   2   4   4    3.06    0.31
   2   4   4    3.31    0.34
   2   4   4    2.99    0.45
  -2  -4  -4    3.57    0.40
   2   4   4    2.55    0.29
   2   4   4    2.99    0.36
  -2  -4  -4    2.75    0.35
   2   4   4    3.29    0.42
  -2  -4  -4    3.32    0.41
   2   4   5   18.45    1.04
   2   4   5   19.26    0.99
   2   4   5   18.81    0.92
  -2  -4  -5   20.35    0.99
  -2  -4  -5   19.70    0.92
   2   4   5   20.01    1.12
  -2  -4  -6   30.64    1.60
   2   4   6   29.42    1.07
   2   4   6   29.93    1.36
   2   4   6   27.78    1.42
   2   4   6   29.28    1.39
  -2  -4  -6   29.63    1.24
   2   4   6   32.83    1.61
  -2  -4  -7   45.93    2.12
   2   4   7   46.50    2.03
   2   4   7   45.53    1.56
   2   4   7   42.55    1.89
   2   4   7   46.62    1.98
   2   4   7   47.68    2.19
   2   4   8   95.81    3.37
  -2  -4  -8   95.30    3.38
   2   4   8  100.22    2.84
   2   4   8  105.58    3.44
   2   4   8   95.27    3.33
  -2  -4  -8   89.08    3.41
  -2  -4  -9   85.95    3.13
   2   4   9   86.23    3.25
   2   4   9   91.60    2.77
   2   4   9   88.67    3.30
   2   4   9   79.65    3.12
  -2  -4  -9   93.96    3.48
   2   4  10    0.82    0.41
   2   4  10    0.39    0.36
  -2  -4 -10    0.94    0.35
   2   4  10    0.63    0.37
   2   4  10    0.18    0.29
  -2  -4 -10    0.81    0.37
   2   4  11    4.96    0.59
   2   4  11    6.06    0.66
  -2  -4 -11    4.87    0.54
  -2  -4 -11    5.52    0.66
   2   4  11    4.31    0.62
   2   4  12   33.70    1.27
  -2  -4 -12   32.10    1.28
   2   5  -9    3.24    0.37
   2   5  -9    2.79    0.39
   2   5  -9    3.12    0.43
  -2  -5   9    2.72    0.48
   2   5  -9    2.49    0.34
  -2  -5   9    3.27    0.38
   2   5  -8   58.85    2.22
  -2  -5   8   57.95    2.02
  -2  -5   8   56.97    2.42
   2   5  -8   54.08    1.89
   2   5  -8   56.09    2.30
   2   5  -8   59.02    2.14
  -2  -5   8   59.47    2.24
   2   5  -8   59.97    2.24
   2   5  -7   93.00    3.23
   2   5  -7   89.76    3.05
  -2  -5   7   91.86    3.35
   2   5  -7   90.14    3.33
   2   5  -7   93.03    3.15
   2   5  -7   91.30    2.85
  -2  -5   7   93.31    2.85
  -2  -5   7   91.46    3.19
  -2  -5   6   20.81    1.23
   2   5  -6   21.28    1.53
  -2  -5   6   22.04    1.46
   2   5  -6   22.86    1.47
   2   5  -6   22.97    1.27
   2   5  -6   23.84    1.49
   2   5  -5    6.24    0.76
   2   5  -5    6.06    0.72
  -2  -5   5    5.22    0.53
  -2  -5   5    4.83    0.49
   2   5  -5    6.41    0.85
  -2  -5   5    4.80    0.67
   2   5  -5    5.30    0.57
  -2  -5   5    5.04    0.62
   2   5  -5    5.25    0.60
  -2  -5   4   11.67    0.69
   2   5  -4   12.44    0.87
  -2  -5   4   12.41    0.96
   2   5  -4   14.32    1.18
  -2  -5   4   10.91    0.89
   2   5  -4   13.64    1.08
   2   5  -4   11.89    0.83
   2   5  -4   12.93    0.96
   2   5  -3   48.21    1.61
   2   5  -3   47.38    2.06
  -2  -5   3   49.22    1.85
   2   5  -3   49.73    2.23
  -2  -5   3   47.27    1.91
   2   5  -3   49.03    1.76
   2   5  -3   51.87    1.92
   2   5  -3   49.40    1.85
  -2  -5   2  234.50    5.44
   2   5  -2  245.23    5.67
   2   5  -2  238.78    6.09
  -2  -5   2  243.65    5.73
   2   5  -2  241.31    5.31
   2   5  -2  247.95    5.99
   2   5  -2  244.34    5.47
   2   5  -2  252.60    5.55
   2   5  -1  319.46    6.46
  -2  -5   1  316.21    6.84
   2   5  -1  329.85    7.08
  -2  -5   1  312.07    6.59
   2   5  -1  318.84    7.34
  -2  -5   1  328.69    7.04
   2   5  -1  322.24    6.65
   2   5  -1  298.07    7.20
  -2  -5   1  322.09    6.52
   2   5   0   11.55    0.51
   2   5   0   11.95    0.80
  -2  -5   0   11.34    0.71
  -2  -5   0   12.63    0.78
   2   5   0   12.44    0.63
   2   5   0   12.93    0.89
   2   5   0   11.03    0.59
   2   5   0   10.48    0.84
  -2  -5   0   12.02    0.48
   2   5   1   16.26    0.51
   2   5   1   15.46    0.77
  -2  -5  -1   17.22    0.86
   2   5   1   18.04    1.11
   2   5   1   19.67    1.04
   2   5   1   16.86    0.69
  -2  -5  -1   16.83    0.82
  -2  -5  -1   17.33    0.87
  -2  -5  -1   15.98    0.79
   2   5   1   16.58    0.66
   2   5   1   17.34    0.94
  -2  -5  -1   17.15    0.86
   2   5   2   30.66    1.26
   2   5   2   31.45    1.41
   2   5   2   32.11    1.21
   2   5   2   32.66    1.22
   2   5   2   30.67    0.97
  -2  -5  -2   30.77    1.17
  -2  -5  -2   31.61    1.20
   2   5   2   32.28    1.54
  -2  -5  -2   30.69    1.14
  -2  -5  -2   32.37    1.21
   2   5   2   31.71    1.11
  -2  -5  -2   30.78    1.24
  -2  -5  -2   30.01    1.20
  -2  -5  -3  322.45    6.71
   2   5   3  340.56    7.02
   2   5   3  324.72    6.77
  -2  -5  -3  326.58    6.80
   2   5   3  331.71    7.46
  -2  -5  -3  321.43    7.02
  -2  -5  -3  317.10    6.83
   2   5   3  329.48    6.50
  -2  -5  -3  334.14    6.82
   2   5   3  318.57    6.86
  -2  -5  -3  334.43    7.05
   2   5   3  323.53    6.96
   2   5   4    7.14    0.58
   2   5   4    8.50    0.51
  -2  -5  -4    8.73    0.59
   2   5   4    9.35    0.64
  -2  -5  -4    9.04    0.67
   2   5   4    9.19    0.51
   2   5   4    8.79    0.82
   2   5   4    9.48    0.68
   2   5   5   47.43    1.58
  -2  -5  -5   48.06    1.70
   2   5   5   48.50    1.68
   2   5   5   47.37    1.76
   2   5   5   46.11    1.67
   2   5   5   47.00    1.84
   2   5   6   46.42    1.97
   2   5   6   40.82    1.60
   2   5   6   44.11    1.65
   2   5   6   40.76    1.70
  -2  -5  -6   42.49    1.56
   2   5   6   46.33    1.82
   2   5   6   41.98    1.90
   2   5   7    1.47    0.40
  -2  -5  -7    1.86    0.51
   2   5   7    1.81    0.36
   2   5   7    1.96    0.47
   2   5   7    1.55    0.34
   2   5   7    1.10    0.37
   2   5   8  148.76    4.63
   2   5   8  156.57    3.91
   2   5   8  160.07    4.57
   2   5   8  153.79    4.36
   2   5   8  162.25    4.58
  -2  -5  -8  163.92    4.90
  -2  -5  -8  155.31    4.69
  -2  -5  -9   91.38    3.19
   2   5   9   95.98    3.29
   2   5   9   90.72    3.35
   2   5   9   91.71    3.24
   2   5   9   95.63    3.43
  -2  -5  -9   93.46    3.48
   2   5  10    1.05    0.36
  -2  -5 -10    0.90    0.31
   2   5  10    0.68    0.36
  -2  -5 -10    0.85    0.42
   2   5  10    0.60    0.33
   2   5  11    0.64    0.29
   2   5  11    0.28    0.28
  -2  -5 -11    0.42    0.26
  -2  -5 -11    0.11    0.24
   2   5  11    0.31    0.18
   2   6  -9    6.10    0.43
  -2  -6   9    6.13    0.57
   2   6  -8   42.18    1.58
  -2  -6   8   44.02    1.90
   2   6  -8   41.15    1.50
   2   6  -8   41.89    1.71
  -2  -6   8   41.56    1.70
   2   6  -8   42.41    1.80
   2   6  -7   94.13    3.27
   2   6  -7   94.64    2.90
  -2  -6   7   87.41    3.20
   2   6  -7   86.99    3.09
   2   6  -7   92.09    2.86
  -2  -6   7   93.32    2.73
   2   6  -7   90.28    2.79
  -2  -6   7   95.46    2.53
  -2  -6   7   88.04    3.08
   2   6  -6   39.44    1.76
  -2  -6   6   39.05    1.98
   2   6  -6   39.89    2.05
  -2  -6   6   38.64    1.80
   2   6  -6   40.64    1.88
   2   6  -6   40.11    1.77
   2   6  -6   39.09    2.07
  -2  -6   6   41.37    1.51
   2   6  -5   12.86    0.94
  -2  -6   5   12.98    1.08
   2   6  -5   13.54    1.19
  -2  -6   5   13.90    1.08
   2   6  -5   14.56    1.14
   2   6  -5   11.91    0.93
   2   6  -5   14.86    1.21
   2   6  -4   43.31    1.76
   2   6  -4   46.31    2.26
  -2  -6   4   44.77    1.97
  -2  -6   4   45.28    2.06
   2   6  -4   45.60    2.13
   2   6  -4   43.85    1.86
   2   6  -4   48.18    2.15
   2   6  -3   24.14    1.11
   2   6  -3   24.79    1.07
  -2  -6   3   24.66    1.29
   2   6  -3   26.94    1.65
   2   6  -3   23.25    1.04
  -2  -6   3   25.82    1.47
   2   6  -3   24.53    1.51
   2   6  -3   22.11    1.24
   2   6  -3   23.86    1.39
   2   6  -3   24.33    1.09
   2   6  -2  110.50    3.70
  -2  -6   2  115.75    3.10
   2   6  -2  109.59    3.00
  -2  -6   2  115.54    3.48
   2   6  -2  112.35    3.02
   2   6  -2  110.48    3.62
   2   6  -2  113.17    3.28
   2   6  -1  120.69    3.18
   2   6  -1  122.32    3.22
  -2  -6   1  121.83    3.00
   2   6  -1  111.93    3.69
   2   6  -1  120.04    3.77
  -2  -6   1  119.64    3.49
   2   6  -1  117.83    3.31
   2   6   0   18.26    0.98
   2   6   0   19.73    1.03
   2   6   0   18.64    1.00
  -2  -6   0   20.14    1.13
   2   6   0   19.37    1.24
   2   6   0   17.41    1.26
   2   6   0   20.44    1.08
   2   6   1   45.03    1.55
   2   6   1   45.25    1.60
   2   6   1   45.12    1.69
   2   6   1   48.17    1.96
  -2  -6  -1   43.52    1.69
   2   6   1   47.58    1.76
   2   6   1   47.05    2.21
  -2  -6  -1   46.37    1.48
   2   6   1   46.26    1.70
  -2  -6  -2   80.51    2.36
   2   6   2   75.49    2.19
   2   6   2   83.09    2.45
   2   6   2   80.55    2.32
   2   6   2   79.26    2.60
  -2  -6  -2   78.58    2.08
   2   6   2   78.95    2.56
   2   6   2   77.87    2.03
  -2  -6  -3  183.50    4.59
   2   6   3  185.61    4.83
   2   6   3  189.75    4.60
   2   6   3  178.42    4.28
   2   6   3  182.47    4.45
   2   6   3  191.68    4.41
   2   6   3  176.13    4.20
  -2  -6  -3  184.87    4.24
   2   6   4  186.59    4.76
   2   6   4  190.62    4.61
  -2  -6  -4  196.54    4.79
   2   6   4  197.63    4.63
   2   6   4  192.57    4.62
   2   6   4  191.41    4.58
   2   6   5   12.67    0.82
   2   6   5   12.58    0.90
  -2  -6  -5   13.17    0.87
   2   6   5   13.93    0.92
   2   6   5   12.21    0.87
   2   6   6    8.16    0.77
   2   6   6    9.36    0.64
   2   6   6    8.69    0.77
   2   6   6    8.62    0.77
   2   6   7    5.02    0.63
  -2  -6  -7    4.70    0.72
   2   6   7    5.80    0.71
   2   6   7    4.68    0.59
   2   6   7    5.12    0.52
  -2  -6  -8   15.08    1.19
   2   6   8   16.18    1.01
   2   6   8   15.42    1.16
   2   6   8   15.72    1.13
   2   6   9  170.70    3.91
   2   6   9  161.97    4.35
  -2  -6  -9  163.24    4.80
   2   6   9  158.93    4.52
  -2  -6 -10   63.93    2.08
   2   6  10   64.15    2.34
   2   6  10   63.86    2.17
  -2  -6 -10   61.49    2.44
   2   6  11    5.39    0.52
  -2  -6 -11    5.66    0.56
  -2  -7   8    8.17    0.67
   2   7  -8    8.16    0.58
  -2  -7   8    8.29    0.62
   2   7  -8    8.55    0.69
   2   7  -7  114.95    3.01
   2   7  -7  123.85    3.39
  -2  -7   7  119.08    3.48
   2   7  -7  117.94    2.96
  -2  -7   7  117.47    3.46
   2   7  -7  117.48    3.67
   2   7  -6  110.13    3.64
   2   7  -6   95.38    2.86
  -2  -7   6  101.96    3.30
  -2  -7   6  106.16    3.25
   2   7  -6   93.33    3.22
   2   7  -6   99.85    3.00
   2   7  -5   16.17    1.01
  -2  -7   5   18.58    1.24
  -2  -7   5   18.10    1.27
   2   7  -5   17.63    1.31
   2   7  -5   17.57    1.17
   2   7  -5   19.81    1.45
   2   7  -4    3.11    0.45
   2   7  -4    3.27    0.57
  -2  -7   4    3.76    0.56
   2   7  -4    2.75    0.59
  -2  -7   4    2.77    0.54
   2   7  -4    4.30    0.70
   2   7  -3    1.47    0.51
  -2  -7   3    0.90    0.30
   2   7  -3    0.84    0.29
   2   7  -3    1.28    0.31
  -2  -7   3    0.74    0.36
   2   7  -3    0.72    0.35
   2   7  -3    1.09    0.39
   2   7  -2   33.49    1.71
  -2  -7   2   30.96    1.36
   2   7  -2   31.35    1.87
  -2  -7   2   34.38    1.78
   2   7  -2   31.97    1.46
   2   7  -2   34.95    1.89
   2   7  -2   33.22    1.49
   2   7  -2   33.74    1.70
  -2  -7   1  138.49    4.08
   2   7  -1  127.96    4.28
   2   7  -1  137.84    3.75
   2   7  -1  131.46    3.32
   2   7  -1  132.10    4.28
   2   7  -1  134.66    3.89
   2   7   0  174.04    5.22
   2   7   0  178.84    4.37
   2   7   0  187.46    4.75
   2   7   0  181.15    4.83
  -2  -7   0  189.23    4.93
   2   7   0  176.35    5.36
   2   7   0  190.75    4.81
   2   7   1   11.31    0.79
   2   7   1   11.95    0.81
   2   7   1   11.49    1.05
  -2  -7  -1   10.88    0.87
   2   7   1   10.49    1.13
   2   7   1   10.89    0.87
   2   7   1   11.97    0.91
   2   7   1   10.44    0.84
   2   7   2    5.24    0.61
   2   7   2    4.28    0.50
   2   7   2    4.96    0.58
   2   7   2    5.39    0.71
  -2  -7  -2    5.43    0.56
   2   7   2    4.48    0.54
   2   7   2    5.10    0.60
  -2  -7  -3  168.47    4.06
   2   7   3  163.98    4.37
   2   7   3  159.92    4.26
   2   7   3  166.29    4.18
  -2  -7  -3  170.74    4.51
   2   7   3  167.26    4.41
   2   7   4   77.77    2.61
   2   7   4   77.60    2.62
   2   7   4   82.79    2.56
   2   7   4   81.32    2.65
   2   7   4   83.80    2.87
   2   7   5   35.11    1.65
   2   7   5   36.65    1.76
   2   7   5   32.84    1.54
   2   7   5   35.98    1.60
   2   7   5   34.20    1.53
  -2  -7  -5   38.80    1.61
   2   7   6   19.35    1.12
   2   7   6   18.05    1.22
   2   7   6   18.23    1.21
   2   7   6   17.63    1.09
   2   7   6   20.25    1.14
  -2  -7  -7    0.60    0.37
   2   7   7    1.66    0.43
   2   7   7    0.68    0.29
   2   7   7    1.02    0.37
  -2  -7  -8   53.93    2.26
   2   7   8   55.35    2.07
   2   7   8   53.81    2.04
   2   7   8   50.74    2.18
  -2  -7  -9   69.98    2.33
   2   7   9   68.35    2.48
   2   7   9   67.84    2.21
  -2  -7  -9   67.73    2.62
   2   7  10   91.03    2.68
  -2  -7 -10   85.71    2.75
   2   8  -7   36.06    1.35
  -2  -8   7   37.90    1.50
   2   8  -7   40.20    1.67
   2   8  -6   25.80    1.50
  -2  -8   6   24.67    1.24
   2   8  -6   24.81    1.27
  -2  -8   6   23.66    1.26
   2   8  -5   28.43    1.20
   2   8  -5   32.23    1.79
  -2  -8   5   29.75    1.43
   2   8  -5   34.28    1.68
  -2  -8   5   32.41    1.67
   2   8  -5   30.98    1.39
   2   8  -5   32.16    1.80
   2   8  -4    6.21    0.79
  -2  -8   4    4.97    0.58
  -2  -8   4    4.93    0.71
   2   8  -4    4.91    0.61
   2   8  -4    5.09    0.75
   2   8  -3   22.37    1.54
   2   8  -3   21.99    1.16
  -2  -8   3   20.54    1.11
  -2  -8   3   21.65    1.47
   2   8  -3   21.69    1.35
   2   8  -3   22.01    1.49
   2   8  -3   22.66    1.18
   2   8  -2   11.56    1.05
   2   8  -2    9.82    0.84
   2   8  -2   10.74    0.87
   2   8  -2   12.40    1.20
  -2  -8   2   10.82    1.04
   2   8  -2   11.44    1.03
   2   8  -1   38.95    2.14
   2   8  -1   40.02    2.03
  -2  -8   1   36.35    1.87
   2   8  -1   39.60    1.88
   2   8  -1   39.41    1.89
   2   8   0  261.63    6.45
  -2  -8   0  265.48    6.55
   2   8   0  252.59    6.52
   2   8   0  240.12    6.94
   2   8   0  259.60    6.45
   2   8   0  257.04    6.44
   2   8   1    2.96    0.54
   2   8   1    3.37    0.57
   2   8   1    2.63    0.48
   2   8   1    2.72    0.67
  -2  -8  -1    2.11    0.45
   2   8   1    2.20    0.50
   2   8   2    1.18    0.42
   2   8   2    1.19    0.40
   2   8   2    1.47    0.43
  -2  -8  -2    1.10    0.31
   2   8   2    1.29    0.41
   2   8   3   70.03    2.64
   2   8   3   73.22    2.40
   2   8   3   75.57    2.70
   2   8   3   67.84    2.62
  -2  -8  -3   74.92    2.70
   2   8   3   70.86    2.61
   2   8   4   57.16    2.03
   2   8   4   53.38    2.20
   2   8   4   52.52    2.21
  -2  -8  -4   55.40    2.15
   2   8   4   53.30    2.20
   2   8   4   55.59    2.23
   2   8   5   78.09    2.72
   2   8   5   74.11    2.74
   2   8   5   75.16    2.46
   2   8   5   79.46    2.73
   2   8   5   77.16    2.74
  -2  -8  -5   81.01    2.52
   2   8   6   31.09    1.64
   2   8   6   28.72    1.35
   2   8   6   27.87    1.47
   2   8   6   32.21    1.56
   2   8   6   31.45    1.57
  -2  -8  -7   17.65    1.25
   2   8   7   16.33    1.17
   2   8   7   16.03    0.93
   2   8   7   18.08    1.12
   2   8   8    2.19    0.44
  -2  -8  -8    2.75    0.47
   2   8   8    2.83    0.43
   2   8   9   17.35    1.02
  -2  -8  -9   15.09    1.00
  -2  -9   6   24.73    1.15
   2   9  -6   22.60    1.18
   2   9  -5    4.51    0.59
  -2  -9   5    5.48    0.49
  -2  -9   5    4.45    0.55
   2   9  -5    5.92    0.58
   2   9  -4   33.48    1.73
   2   9  -4   34.64    1.64
  -2  -9   4   33.98    1.70
   2   9  -4   31.34    1.71
   2   9  -3   23.84    1.17
   2   9  -3   23.96    1.18
   2   9  -3   26.98    1.56
  -2  -9   3   24.76    1.50
   2   9  -3   25.51    1.54
   2   9  -2   24.20    1.32
   2   9  -2   20.77    1.23
   2   9  -2   24.23    1.58
  -2  -9   2   21.60    1.43
   2   9  -2   21.01    1.40
   2   9  -1   12.96    1.03
   2   9  -1   12.45    1.19
   2   9  -1   12.25    1.00
  -2  -9   1   13.71    1.11
   2   9  -1   11.67    1.01
   2   9   0   50.26    2.22
   2   9   0   43.74    2.39
   2   9   0   51.54    2.26
  -2  -9   0   51.37    2.19
   2   9   0   53.32    2.19
   2   9   0   50.30    2.24
   2   9   1   66.64    2.67
   2   9   1   69.60    2.71
  -2  -9  -1   66.82    2.44
   2   9   1   61.65    2.62
   2   9   1   67.02    2.45
   2   9   1   64.87    2.57
   2   9   2    1.50    0.44
   2   9   2    2.16    0.52
  -2  -9  -2    1.78    0.47
  -2  -9  -2    1.62    0.37
   2   9   2    2.50    0.57
   2   9   2    1.90    0.40
   2   9   2    1.23    0.38
   2   9   3   42.13    2.02
   2   9   3   44.94    2.12
  -2  -9  -3   43.54    1.93
   2   9   3   41.77    2.00
   2   9   3   41.62    1.62
   2   9   3   42.54    1.93
   2   9   4   72.62    2.73
   2   9   4   72.85    2.72
  -2  -9  -4   76.39    2.54
   2   9   4   80.62    2.91
   2   9   4   73.16    2.64
   2   9   5    4.42    0.61
   2   9   5    3.99    0.58
   2   9   5    4.50    0.65
   2   9   5    3.64    0.54
   2   9   6   33.94    1.57
   2   9   6   33.15    1.67
   2   9   6   32.64    1.54
  -2  -9  -6   33.38    1.71
   2   9   6   32.79    1.47
   2   9   7   17.78    1.13
  -2  -9  -7   16.13    0.98
   2   9   7   16.71    0.91
   2   9   8   12.28    0.85
  -2  -9  -8   12.98    0.88
   2  10  -4    1.88    0.36
  -2 -10   4    1.23    0.29
   2  10  -4    1.46    0.26
   2  10  -3   67.98    2.29
  -2 -10   3   68.52    2.26
   2  10  -3   66.48    2.25
  -2 -10   3   64.26    2.29
   2  10  -3   66.91    1.87
   2  10  -3   67.13    2.36
   2  10  -2   39.68    1.68
  -2 -10   2   42.58    1.82
   2  10  -2   40.42    1.84
   2  10  -2   43.80    1.84
   2  10  -2   41.63    1.63
   2  10  -2   42.77    1.65
   2  10  -1    2.99    0.43
   2  10  -1    2.71    0.47
   2  10  -1    2.91    0.48
  -2 -10   1    2.48    0.46
   2  10  -1    2.76    0.47
   2  10   0   58.42    2.31
   2  10   0   56.51    2.29
  -2 -10   0   54.32    2.24
  -2 -10   0   57.73    2.12
   2  10   0   59.14    2.13
  -2 -10  -1    7.59    0.67
   2  10   1    9.17    0.88
  -2 -10  -1    8.20    0.80
   2  10   1    8.45    0.86
   2  10   1    9.08    0.71
   2  10   1    9.23    0.85
   2  10   2   17.67    1.22
  -2 -10  -2   17.96    1.14
   2  10   2   16.60    1.21
   2  10   2   18.17    1.24
   2  10   2   17.81    1.15
   2  10   3   34.09    1.71
  -2 -10  -3   35.35    1.55
   2  10   3   33.87    1.75
   2  10   3   34.64    1.59
   2  10   3   34.13    1.70
   2  10   4   39.40    1.79
   2  10   4   36.65    1.81
  -2 -10  -4   39.86    1.45
   2  10   4   40.53    1.80
   2  10   4   39.29    1.63
   2  10   5    5.47    0.61
   2  10   5    5.01    0.63
   2  10   5    5.93    0.63
   2  10   5    5.79    0.53
   2  10   6    0.20    0.26
   2  10   7   31.43    1.33
   2  11  -1   20.98    1.00
   2  11  -1   20.61    1.00
  -2 -11   1   19.54    1.02
   2  11   0    1.95    0.36
   2  11   0    1.25    0.30
  -2 -11   0    1.14    0.31
   2  11   1   20.21    1.13
  -2 -11  -1   18.98    1.03
   2  11   1   20.12    1.12
   2  11   2    3.88    0.50
   2  11   2    4.64    0.55
  -2 -11  -2    3.85    0.45
   2  11   3   12.05    0.84
   2  11   3   12.88    0.87
   2  11   4   71.33    2.23
   2  11   4   70.04    2.21
  -3   8   3    0.51    0.19
  -3   8   2    2.67    0.41
  -3   8   1   91.57    2.91
  -3   8   0   26.34    1.41
  -3   8  -1   29.78    1.49
  -3   8  -1   30.80    1.48
  -3   8  -2   16.78    1.03
   3  -8   2   15.46    0.76
  -3   8  -2   16.96    1.03
  -3   8  -3    0.28    0.19
  -3   8  -3    0.71    0.26
   3  -8   3    0.31    0.21
  -3   8  -4    3.04    0.39
  -3   8  -4    2.94    0.33
  -3   7   5   47.39    1.68
  -3   7   4   45.15    1.75
  -3   7   4   45.12    1.67
  -3   7   4   43.18    1.60
  -3   7   3    4.27    0.54
  -3   7   3    4.31    0.53
  -3   7   3    4.42    0.49
  -3   7   3    4.13    0.49
  -3   7   2   13.04    0.92
  -3   7   2   14.72    0.83
  -3   7   2   12.76    1.02
  -3   7   2   12.78    0.90
  -3   7   1   44.58    1.78
  -3   7   1   48.33    2.19
  -3   7   1   43.08    1.82
  -3   7   0   18.35    1.05
  -3   7   0   17.91    1.31
  -3   7   0   21.64    1.45
  -3   7  -1   10.10    0.98
  -3   7  -1    9.95    0.97
  -3   7  -2   27.99    1.57
  -3   7  -2   23.83    1.43
  -3   7  -3    4.78    0.63
   3  -7   3    4.48    0.59
  -3   7  -3    5.26    0.64
   3  -7   4   12.99    0.93
  -3   7  -4   11.63    0.85
  -3   7  -4   13.84    1.00
  -3   7  -5   54.64    1.66
   3  -7   5   57.51    2.03
  -3   7  -5   58.65    2.10
   3  -7   6   47.13    1.69
  -3   7  -6   49.45    1.77
  -3   6   7   64.47    2.14
  -3   6   6    4.08    0.56
  -3   6   5   17.36    1.16
  -3   6   5   15.62    1.08
  -3   6   5   15.80    0.92
  -3   6   4   62.41    2.43
  -3   6   4   59.37    2.11
  -3   6   4   59.88    2.28
  -3   6   4   61.74    2.13
  -3   6   3    6.58    0.75
  -3   6   3    6.25    0.71
  -3   6   3    6.98    0.70
  -3   6   3    6.05    0.64
  -3   6   2   19.38    1.29
  -3   6   2   19.51    1.35
  -3   6   2   19.48    1.10
  -3   6   2   21.28    1.22
  -3   6   2   18.40    1.37
  -3   6   1   67.59    2.55
  -3   6   1   60.27    2.73
  -3   6   1   65.01    2.08
  -3   6   1   62.75    2.33
  -3   6   1   62.24    2.67
  -3   6   1   64.21    2.88
  -3   6   0    2.28    0.56
  -3   6   0    2.61    0.49
  -3   6   0    2.13    0.56
  -3   6   0    1.53    0.48
  -3   6   0    1.86    0.40
  -3   6  -1   17.38    1.32
  -3   6  -1   21.72    1.29
  -3   6  -1   17.81    1.39
  -3   6  -1   19.30    1.40
  -3   6  -2   32.56    1.84
  -3   6  -2   32.66    1.56
  -3   6  -2   31.35    1.78
  -3   6  -2   29.26    1.69
  -3   6  -3  135.21    3.68
  -3   6  -3  136.49    4.15
  -3   6  -3  136.83    4.14
  -3   6  -3  132.42    4.06
  -3   6  -4    3.20    0.54
  -3   6  -4    3.06    0.41
  -3   6  -4    3.86    0.56
  -3   6  -5   16.86    0.92
  -3   6  -5   14.72    0.90
  -3   6  -5   16.85    1.15
   3  -6   6   32.28    1.22
   3  -6   6   30.44    1.56
  -3   6  -6   31.38    1.55
   3  -6   7    4.42    0.52
  -3   6  -7    5.21    0.49
   3  -6   7    4.78    0.42
  -3   6  -7    5.17    0.57
   3  -6   8   14.81    0.82
  -3   6  -8   15.38    0.74
   3  -6   8   14.62    0.62
  -3   6  -8   15.25    0.82
  -3   5   8    3.33    0.48
  -3   5   7   80.31    2.84
  -3   5   6   52.13    2.17
  -3   5   6   50.30    2.28
  -3   5   6   51.06    1.77
  -3   5   5    7.33    0.82
  -3   5   5    7.44    0.85
  -3   5   5    8.33    0.69
  -3   5   4   11.72    1.02
  -3   5   4   10.14    0.82
  -3   5   4   10.61    0.97
  -3   5   4   11.45    0.82
  -3   5   3    4.19    0.63
  -3   5   3    2.44    0.47
  -3   5   3    2.27    0.45
  -3   5   3    3.20    0.44
  -3   5   3    4.21    0.60
  -3   5   2   21.46    1.37
  -3   5   2   18.66    1.29
  -3   5   2   17.36    1.30
  -3   5   2   19.34    1.10
  -3   5   2   17.30    1.07
  -3   5   1  207.35    5.35
  -3   5   1  193.94    5.55
  -3   5   1  185.10    4.60
  -3   5   1  198.10    4.84
  -3   5   1  185.02    5.50
  -3   5   1  191.39    5.35
  -3   5   0   83.65    2.95
  -3   5   0   86.43    3.29
  -3   5   0   84.24    2.70
  -3   5   0   83.52    3.07
  -3   5   0   88.65    3.26
  -3   5  -1    0.82    0.39
  -3   5  -1    0.31    0.33
  -3   5  -1    0.49    0.37
  -3   5  -1    0.39    0.25
  -3   5  -1    0.14    0.32
  -3   5  -2    1.57    0.48
  -3   5  -2    1.72    0.44
  -3   5  -2    1.85    0.41
   3  -5   2    1.38    0.30
  -3   5  -2    2.01    0.52
  -3   5  -3  101.29    3.14
  -3   5  -3  102.76    3.40
   3  -5   3  103.98    2.91
  -3   5  -3  101.29    3.46
  -3   5  -3  103.18    3.33
  -3   5  -4   60.40    2.17
  -3   5  -4   59.67    2.31
  -3   5  -4   59.60    2.36
   3  -5   4   60.84    2.08
  -3   5  -4   62.34    2.40
  -3   5  -5   14.27    0.91
  -3   5  -5   13.80    0.92
   3  -5   5   14.70    0.92
  -3   5  -5   13.45    0.93
   3  -5   5   14.46    0.90
  -3   5  -5   13.46    1.04
  -3   5  -6   18.36    0.99
   3  -5   6   17.14    1.01
   3  -5   6   20.88    1.38
  -3   5  -6   18.56    1.09
   3  -5   6   19.63    1.10
  -3   5  -6   19.82    1.26
   3  -5   7    1.38    0.34
  -3   5  -7    1.93    0.42
  -3   5  -7    1.46    0.26
   3  -5   7    1.10    0.28
   3  -5   7    1.44    0.38
  -3   5  -7    1.84    0.35
   3  -5   8    1.49    0.30
  -3   5  -8    2.66    0.43
   3  -5   8    1.76    0.37
  -3   5  -8    1.78    0.31
   3  -5   9  100.98    2.71
   3  -5   9  101.52    2.64
  -3   5  -9  102.36    2.71
  -3   4   8    0.64    0.32
  -3   4   7   53.51    2.43
  -3   4   7   49.87    1.70
   3  -4  -7   51.88    1.72
  -3   4   6   88.22    3.09
  -3   4   6   89.25    2.64
  -3   4   6   93.62    3.47
   3  -4  -6   91.89    2.63
  -3   4   5    4.13    0.62
  -3   4   5    5.70    0.80
  -3   4   5    4.82    0.52
  -3   4   4   73.41    2.73
  -3   4   4   75.70    2.45
  -3   4   4   73.52    2.31
  -3   4   4   79.56    2.48
  -3   4   4   76.14    2.86
  -3   4   3    0.71    0.30
  -3   4   3    0.48    0.26
  -3   4   3    0.94    0.35
  -3   4   3    0.62    0.22
  -3   4   3    0.32    0.26
  -3   4   2   36.51    1.83
  -3   4   2   37.51    1.75
  -3   4   2   38.12    1.74
  -3   4   2   35.15    1.53
  -3   4   2   37.05    1.41
  -3   4   2   35.45    1.84
  -3   4   1  196.46    5.41
  -3   4   1  187.99    4.58
  -3   4   1  191.69    5.13
  -3   4   1  202.51    4.57
  -3   4   1  186.48    5.22
  -3   4   0   76.32    2.95
  -3   4   0   86.19    2.84
  -3   4   0   83.80    2.38
  -3   4   0   80.84    2.80
  -3   4   0   80.47    2.86
  -3   4  -1   12.62    0.97
  -3   4  -1   12.86    0.81
  -3   4  -1   13.86    1.02
  -3   4  -1   14.23    1.03
  -3   4  -1   14.97    1.17
  -3   4  -2   15.66    1.18
  -3   4  -2   14.65    1.02
  -3   4  -2   13.03    1.00
  -3   4  -2   15.62    1.04
  -3   4  -3   33.21    1.72
  -3   4  -3   32.21    1.61
  -3   4  -3   35.63    1.61
   3  -4   3   35.12    1.51
  -3   4  -3   33.28    1.55
  -3   4  -4  209.56    5.31
  -3   4  -4  217.80    5.52
  -3   4  -4  213.79    5.32
   3  -4   4  217.62    5.34
  -3   4  -4  213.72    5.15
  -3   4  -5   10.29    0.86
  -3   4  -5   11.41    0.82
  -3   4  -5   10.43    0.81
   3  -4   5   10.91    0.90
  -3   4  -5   10.11    0.81
   3  -4   5   10.29    0.80
  -3   4  -6   59.85    2.32
   3  -4   6   63.46    2.38
   3  -4   6   60.86    2.59
  -3   4  -6   60.45    2.21
   3  -4   6   63.67    2.28
   3  -4   7    0.24    0.24
  -3   4  -7    0.92    0.34
   3  -4   7    0.96    0.34
   3  -4   7    0.55    0.33
  -3   4  -7    0.96    0.32
   3  -4   8    0.35    0.26
  -3   4  -8    1.00    0.31
   3  -4   8    0.29    0.25
   3  -4   8    0.07    0.25
  -3   4  -8    0.77    0.30
  -3   4  -9   73.02    2.33
   3  -4   9   74.37    2.30
   3  -4   9   73.65    2.36
  -3   4  -9   72.38    2.24
   3  -4   9   75.10    2.42
   3  -4  10   83.77    2.35
  -3   4 -10   83.42    2.25
  -3   3   9    2.66    0.43
  -3   3   9    2.79    0.40
   3  -3  -9    2.39    0.34
  -3   3   8    9.10    0.82
  -3   3   8    8.69    0.90
  -3   3   8    7.93    0.56
   3  -3  -8    7.88    0.67
  -3   3   7   15.81    0.90
  -3   3   7   16.92    1.40
  -3   3   7   16.74    1.18
   3  -3  -7   15.23    1.02
  -3   3   6  182.35    5.00
  -3   3   6  186.38    4.89
  -3   3   6  178.94    5.48
   3  -3  -6  180.94    4.66
  -3   3   6  177.17    4.39
  -3   3   5   98.63    3.22
  -3   3   5  101.29    2.95
  -3   3   5   91.79    2.65
  -3   3   4   19.25    1.21
  -3   3   4   22.41    1.08
  -3   3   4   19.93    1.34
  -3   3   4   19.09    0.94
  -3   3   3   17.83    1.08
  -3   3   3   17.51    1.12
  -3   3   3   18.83    1.07
  -3   3   3   19.38    1.18
  -3   3   3   17.93    0.82
  -3   3   2    2.66    0.47
  -3   3   2    3.11    0.47
  -3   3   2    3.03    0.46
  -3   3   2    2.42    0.40
  -3   3   2    4.04    0.56
  -3   3   1   61.57    2.11
  -3   3   1   56.00    2.06
  -3   3   1   58.55    1.79
  -3   3   1   55.17    2.09
  -3   3   1   59.21    2.30
  -3   3   0  381.74    8.47
  -3   3   0  382.45    8.81
  -3   3   0  388.35    8.83
  -3   3   0  391.59    8.49
   3  -3   0  379.20    7.86
  -3   3  -1    3.47    0.47
  -3   3  -1    3.03    0.48
  -3   3  -1    2.76    0.50
  -3   3  -1    2.54    0.49
  -3   3  -1    2.29    0.42
   3  -3   1    2.68    0.34
  -3   3  -2    0.06    0.19
  -3   3  -2    0.44    0.27
  -3   3  -2    0.69    0.31
   3  -3   2    0.33    0.18
  -3   3  -3   16.73    0.95
  -3   3  -3   15.84    1.00
  -3   3  -3   18.15    0.87
   3  -3   3   16.70    0.79
  -3   3  -3   16.84    0.89
  -3   3  -3   17.21    1.12
  -3   3  -4  127.48    3.45
  -3   3  -4  129.04    3.50
  -3   3  -4  133.25    3.47
   3  -3   4  133.31    3.71
   3  -3   4  136.16    3.23
  -3   3  -4  132.53    3.41
   3  -3   4  130.14    3.21
  -3   3  -4  131.89    3.73
  -3   3  -5  121.67    3.38
  -3   3  -5  121.52    3.36
  -3   3  -5  120.61    3.14
  -3   3  -5  122.24    3.41
   3  -3   5  121.01    3.64
  -3   3  -5  117.41    3.28
   3  -3   5  119.94    3.33
  -3   3  -6   32.17    1.52
  -3   3  -6   29.34    1.51
   3  -3   6   32.63    1.69
  -3   3  -6   31.79    1.47
   3  -3   6   31.59    1.52
  -3   3  -7   10.68    0.87
  -3   3  -7    9.60    0.87
   3  -3   7   10.51    0.98
   3  -3   7   10.74    0.97
  -3   3  -7    9.11    0.81
   3  -3   7    9.75    0.86
   3  -3   8    0.64    0.33
  -3   3  -8    0.56    0.30
  -3   3  -8    0.83    0.32
   3  -3   8    0.80    0.34
   3  -3   8    0.41    0.27
  -3   3  -8    0.64    0.28
  -3   3  -9   28.05    1.36
  -3   3  -9   27.30    1.43
   3  -3   9   29.66    1.43
  -3   3  -9   28.30    1.37
   3  -3   9   29.41    1.52
   3  -3   9   30.77    1.55
  -3   3 -10  127.21    3.29
   3  -3  10  131.71    3.47
   3  -3  10  122.15    3.13
  -3   3 -10  132.26    3.44
  -3   3 -10  127.81    3.28
   3  -3  10  128.16    3.51
  -3   2   9   55.03    2.04
  -3   2   9   52.74    2.19
   3  -2  -9   51.77    1.88
   3  -2  -8    0.99    0.33
  -3   2   8    0.89    0.41
  -3   2   8    0.90    0.43
  -3   2   8    1.04    0.25
  -3   2   8    0.84    0.33
  -3   2   7   11.56    0.78
  -3   2   7   11.85    1.20
  -3   2   7   11.78    1.11
   3  -2  -7   11.03    0.94
  -3   2   7   11.49    0.81
  -3   2   7   11.34    0.97
  -3   2   6   81.14    2.83
  -3   2   6   79.93    3.26
  -3   2   6   80.76    2.41
   3  -2  -6   77.67    2.73
  -3   2   6   76.98    2.45
  -3   2   6   81.75    2.78
  -3   2   5   67.36    2.47
  -3   2   5   74.26    2.31
  -3   2   5   72.85    2.94
  -3   2   5   67.42    2.06
  -3   2   5   68.05    2.16
  -3   2   5   75.69    2.39
  -3   2   4   77.86    2.40
  -3   2   4   76.39    2.56
  -3   2   4   83.82    2.94
  -3   2   4   80.83    2.26
  -3   2   3    1.25    0.26
  -3   2   3    1.11    0.31
  -3   2   3    0.48    0.22
  -3   2   3    0.95    0.33
  -3   2   3    0.56    0.24
   3  -2  -2    5.00    0.48
  -3   2   2    5.45    0.54
  -3   2   2    6.55    0.66
  -3   2   2    6.06    0.52
  -3   2   2    6.10    0.56
   3  -2  -2    6.02    0.51
  -3   2   2    5.96    0.62
   3  -2  -1    9.75    0.67
  -3   2   1    9.19    0.67
  -3   2   1   11.70    0.87
  -3   2   1   11.31    0.87
   3  -2  -1   10.95    0.52
   3  -2  -1   10.37    0.76
   3  -2  -1   10.04    0.62
   3  -2   0  246.20    5.58
  -3   2   0  239.34    5.03
  -3   2   0  240.12    5.72
  -3   2   0  242.92    5.88
   3  -2   0  266.23    5.22
  -3   2   0  241.11    5.87
   3  -2   0  250.40    5.37
   3  -2   0  247.54    5.77
   3  -2   1  431.77    8.72
  -3   2  -1  429.74    8.87
  -3   2  -1  405.89    8.00
  -3   2  -1  421.15    9.01
   3  -2   1  395.23    8.39
   3  -2   1  417.36    8.32
  -3   2  -1  416.54    9.00
   3  -2   1  407.69    8.24
  -3   2  -1  422.17    8.33
  -3   2  -1  409.19    8.50
   3  -2   1  425.91    8.57
   3  -2   1  436.56    8.95
   3  -2   2   23.41    0.79
   3  -2   2   21.84    1.05
   3  -2   2   21.96    1.12
  -3   2  -2   22.21    1.10
  -3   2  -2   22.32    1.19
   3  -2   2   21.48    0.95
   3  -2   2   20.31    0.90
  -3   2  -2   23.81    1.22
  -3   2  -2   22.76    0.97
  -3   2  -2   22.93    0.87
  -3   2  -2   22.80    0.94
   3  -2   2   23.39    1.17
   3  -2   2   21.17    0.91
   3  -2   3    4.29    0.37
   3  -2   3    3.64    0.39
  -3   2  -3    3.89    0.37
  -3   2  -3    4.21    0.52
  -3   2  -3    3.45    0.36
  -3   2  -3    3.53    0.49
  -3   2  -3    4.84    0.41
  -3   2  -3    4.06    0.43
   3  -2   3    5.00    0.52
  -3   2  -3    3.62    0.34
   3  -2   4  101.37    2.60
  -3   2  -4   94.70    2.60
  -3   2  -4  100.82    2.92
  -3   2  -4  102.49    2.65
  -3   2  -4  102.67    2.76
   3  -2   4   99.31    2.72
   3  -2   4  102.60    3.01
  -3   2  -4   98.21    2.61
  -3   2  -4  100.93    2.65
  -3   2  -4  104.25    2.95
  -3   2  -5   58.91    1.95
   3  -2   5   58.51    2.00
  -3   2  -5   58.44    2.04
   3  -2   5   59.92    2.27
  -3   2  -5   58.95    1.92
   3  -2   5   60.49    1.99
  -3   2  -5   62.67    2.02
  -3   2  -6  115.27    3.23
  -3   2  -6  118.25    3.43
   3  -2   6  120.09    3.27
   3  -2   6  116.87    3.69
  -3   2  -6  108.91    3.19
   3  -2   6  115.62    3.34
   3  -2   7   38.55    2.02
  -3   2  -7   48.35    1.86
  -3   2  -7   46.07    2.00
   3  -2   7   44.58    2.03
  -3   2  -7   44.19    1.84
   3  -2   7   45.24    1.78
   3  -2   7   43.63    1.92
   3  -2   8    1.01    0.38
  -3   2  -8    0.83    0.31
  -3   2  -8    0.99    0.34
   3  -2   8    1.48    0.46
   3  -2   8    1.02    0.32
   3  -2   8    1.21    0.38
  -3   2  -8    1.12    0.34
  -3   2  -9    7.78    0.70
  -3   2  -9    7.02    0.77
   3  -2   9    6.33    0.77
   3  -2   9    5.85    0.65
   3  -2   9    6.25    0.56
  -3   2  -9    7.59    0.73
   3  -2   9    7.44    0.80
  -3   2 -10   84.77    2.50
  -3   2 -10   82.19    2.70
   3  -2  10   81.41    2.80
   3  -2  10   80.31    2.29
  -3   2 -10   79.83    2.52
   3  -2  10   82.59    2.79
  -3   2 -11   53.47    1.58
  -3   2 -11   50.42    1.75
   3  -2  11   50.33    1.78
   3  -2  11   51.42    1.86
  -3   2 -11   52.78    1.67
  -3   1  10   53.31    1.93
  -3   1  10   44.47    1.34
  -3   1   9   81.80    2.63
   3  -1  -9   80.64    2.67
  -3   1   9   78.67    2.94
  -3   1   9   82.31    2.81
  -3   1   8    2.08    0.54
  -3   1   8    1.67    0.55
  -3   1   8    1.92    0.33
   3  -1  -8    1.85    0.46
  -3   1   8    1.34    0.34
  -3   1   8    1.76    0.46
  -3   1   7    8.34    0.66
  -3   1   7    8.51    1.00
   3  -1  -7    8.55    0.88
  -3   1   7    8.80    0.80
  -3   1   7    8.24    0.86
  -3   1   6   30.71    1.54
  -3   1   6   30.40    1.52
  -3   1   6   31.98    1.31
  -3   1   6   29.81    1.59
  -3   1   6   30.34    1.86
   3  -1  -6   32.68    1.67
  -3   1   6   33.24    1.56
  -3   1   6   30.34    1.59
  -3   1   5   17.81    1.07
  -3   1   5   17.09    1.02
  -3   1   5   17.70    1.35
  -3   1   5   18.83    1.21
   3  -1  -5   18.63    1.15
  -3   1   5   18.23    1.04
  -3   1   4   67.72    2.19
  -3   1   4   70.23    2.23
  -3   1   4   66.09    2.09
  -3   1   4   68.79    2.57
  -3   1   4   68.83    2.44
  -3   1   4   66.48    2.11
  -3   1   3   38.96    1.44
  -3   1   3   39.11    1.48
  -3   1   3   39.10    1.64
   3  -1  -3   37.92    1.27
  -3   1   3   41.92    1.52
  -3   1   3   39.17    1.39
  -3   1   3   40.93    1.51
   3  -1  -2  194.27    4.50
   3  -1  -2  192.29    4.29
  -3   1   2  198.60    4.64
   3  -1  -2  198.13    4.30
  -3   1   2  200.24    4.75
   3  -1  -2  197.14    4.21
  -3   1   2  192.41    4.71
  -3   1   2  194.01    3.97
   3  -1  -2  198.79    4.46
   3  -1  -1    2.06    0.31
   3  -1  -1    2.14    0.27
   3  -1  -1    1.84    0.31
  -3   1   1    2.46    0.36
  -3   1   1    2.23    0.38
  -3   1   1    2.52    0.35
  -3   1   1    3.04    0.44
  -3   1   1    2.85    0.26
   3  -1  -1    2.16    0.35
   3  -1  -1    2.22    0.30
  -3   1   1    2.94    0.39
   3  -1   0  181.37    4.20
   3  -1   0  179.64    4.28
  -3   1   0  180.39    4.29
  -3   1   0  168.19    3.52
   3  -1   0  188.39    4.05
  -3   1   0  180.89    3.53
  -3   1   0  165.67    3.98
  -3   1   0  185.03    4.39
  -3   1   0  182.27    4.23
  -3   1   0  180.09    4.26
  -3   1   0  180.92    4.35
  -3   1   0  178.73    3.85
   3  -1   0  190.88    4.36
  -3   1   0  177.35    4.20
   3  -1   0  184.05    4.07
   3  -1   1  138.06    3.49
  -3   1  -1  147.71    3.63
   3  -1   1  146.97    3.57
  -3   1  -1  141.63    3.49
  -3   1  -1  142.72    3.52
  -3   1  -1  146.53    3.06
  -3   1  -1  143.85    3.48
  -3   1  -1  143.29    3.59
   3  -1   1  132.56    3.34
   3  -1   1  133.95    3.29
  -3   1  -1  140.81    3.22
   3  -1   1  138.59    3.53
  -3   1  -1  141.22    3.44
   3  -1   1  144.93    3.43
   3  -1   1  134.87    2.83
   3  -1   2   23.67    1.07
   3  -1   2   22.33    1.06
  -3   1  -2   23.17    1.05
  -3   1  -2   21.38    0.85
  -3   1  -2   20.35    1.02
  -3   1  -2   21.16    1.06
  -3   1  -2   21.86    1.06
  -3   1  -2   21.52    0.99
   3  -1   2   21.95    0.97
   3  -1   2   22.35    0.84
  -3   1  -2   22.24    0.94
   3  -1   2   25.10    1.12
  -3   1  -2   22.45    0.97
   3  -1   2   23.12    0.95
   3  -1   2   22.92    0.80
   3  -1   3   15.49    0.73
   3  -1   3   15.55    0.85
   3  -1   3   14.32    0.81
  -3   1  -3   15.85    0.71
   3  -1   3   15.46    0.81
  -3   1  -3   15.19    0.76
  -3   1  -3   16.03    0.84
  -3   1  -3   15.20    0.92
  -3   1  -3   17.51    0.91
  -3   1  -3   15.36    0.87
  -3   1  -3   15.23    0.79
   3  -1   3   13.69    0.79
  -3   1  -3   16.01    0.65
   3  -1   3   15.02    0.63
  -3   1  -3   15.34    0.82
   3  -1   3   15.04    0.84
   3  -1   3   16.54    0.59
  -3   1  -3   16.39    0.75
   3  -1   3   14.41    0.69
   3  -1   4   82.75    2.32
   3  -1   4   84.67    2.48
  -3   1  -4   87.38    2.69
  -3   1  -4   88.33    2.36
  -3   1  -4   85.31    2.33
   3  -1   4   81.27    2.41
  -3   1  -4   83.42    2.35
  -3   1  -4   84.17    2.42
  -3   1  -4   84.82    2.44
  -3   1  -4   84.71    2.20
  -3   1  -4   81.43    2.43
   3  -1   4   85.37    2.03
   3  -1   4   87.14    2.06
  -3   1  -4   79.98    2.05
   3  -1   5   80.59    2.67
  -3   1  -5   77.96    2.12
  -3   1  -5   79.48    2.42
   3  -1   5   81.73    2.50
  -3   1  -5   83.40    2.74
  -3   1  -5   81.08    2.28
  -3   1  -5   78.49    2.26
  -3   1  -5   80.29    2.28
   3  -1   5   78.26    2.27
  -3   1  -6  112.76    2.98
  -3   1  -6  107.53    3.23
   3  -1   6  110.61    3.27
   3  -1   6  113.36    3.56
  -3   1  -6  107.74    3.06
   3  -1   6  112.51    3.19
  -3   1  -7   33.90    1.46
  -3   1  -7   31.10    1.61
   3  -1   7   32.64    1.80
   3  -1   7   34.24    1.65
   3  -1   7   33.55    1.63
  -3   1  -7   32.58    1.53
   3  -1   7   33.23    1.60
  -3   1  -8   51.05    1.91
   3  -1   8   45.22    2.00
   3  -1   8   49.00    2.34
  -3   1  -8   49.97    2.18
   3  -1   8   51.59    2.09
   3  -1   8   47.29    1.91
  -3   1  -8   47.41    2.00
   3  -1   8   51.55    2.19
  -3   1  -9   11.70    0.85
  -3   1  -9   13.18    1.07
   3  -1   9   11.27    1.09
   3  -1   9   11.80    0.87
   3  -1   9   10.94    0.90
   3  -1   9   12.42    0.89
  -3   1  -9   12.68    0.97
   3  -1   9   11.91    1.04
  -3   1 -10   16.29    0.95
  -3   1 -10   17.26    1.17
   3  -1  10   13.52    0.90
   3  -1  10   15.34    0.91
   3  -1  10   15.77    1.20
  -3   1 -10   14.51    0.99
   3  -1  10   14.38    1.11
  -3   1 -11   97.61    2.52
  -3   1 -11   96.90    2.86
   3  -1  11   93.79    2.93
   3  -1  11   98.30    3.00
  -3   1 -11   94.30    2.68
  -3   0  10    4.48    0.54
  -3   0  10    4.12    0.31
   3   0 -10    4.06    0.56
   3   0 -10    3.72    0.48
   3   0 -10    4.99    0.53
  -3   0  10    4.44    0.51
  -3   0   9   43.90    1.73
  -3   0   9   43.29    2.05
   3   0  -9   44.28    1.94
  -3   0   9   43.33    1.94
  -3   0   8    5.26    0.70
  -3   0   8    5.51    0.67
  -3   0   8    5.00    0.51
   3   0  -8    4.69    0.68
  -3   0   8    5.13    0.65
  -3   0   8    5.49    0.73
  -3   0   7    0.59    0.33
  -3   0   7    1.33    0.45
  -3   0   7    1.86    0.47
   3   0  -7    0.64    0.38
  -3   0   7    0.61    0.31
  -3   0   7    0.92    0.40
  -3   0   6  151.73    3.97
  -3   0   6  147.39    4.14
  -3   0   6  146.77    4.32
  -3   0   6  146.00    4.61
   3   0  -6  146.55    4.35
  -3   0   6  146.48    4.20
  -3   0   5   47.66    1.75
  -3   0   5   46.01    1.82
   3   0  -5   46.54    1.94
  -3   0   5   47.41    2.04
  -3   0   5   45.40    1.85
  -3   0   4   71.13    2.26
  -3   0   4   69.63    2.09
  -3   0   4   69.48    2.18
  -3   0   4   70.63    2.46
   3   0  -4   68.07    2.27
  -3   0   4   66.98    2.21
  -3   0   3   21.49    1.03
  -3   0   3   24.92    1.02
  -3   0   3   22.64    1.17
   3   0  -3   21.88    1.00
  -3   0   3   22.23    1.00
  -3   0   3   21.76    0.99
   3   0  -3   22.69    1.04
  -3   0   3   23.79    0.96
  -3   0   3   22.26    0.79
  -3   0   3   23.77    1.06
   3   0  -2  130.18    3.06
  -3   0   2  126.89    3.29
  -3   0   2  132.97    2.75
  -3   0   2  119.78    3.31
  -3   0   2  123.18    3.32
   3   0  -2  129.97    3.16
  -3   0   2  124.54    3.23
   3   0  -2  136.28    3.08
  -3   0   2  129.43    3.00
  -3   0   2  132.61    2.91
  -3   0   2  127.28    3.09
  -3   0   2  125.19    3.09
  -3   0   2  127.50    2.63
   3   0  -2  128.97    3.15
  -3   0   2  130.16    3.35
  -3   0   1   39.40    1.40
  -3   0   1   38.23    1.36
  -3   0   1   27.67    1.17
  -3   0   1   40.06    1.43
  -3   0   1   38.24    1.40
  -3   0   1   30.58    1.19
  -3   0   1   29.33    0.87
   3   0  -1   28.25    1.10
  -3   0   1   28.22    1.00
  -3   0   1   34.60    1.28
   3   0  -1   31.73    1.16
   3   0   0   15.41    0.78
  -3   0   0   15.61    0.84
  -3   0   0   14.89    0.81
  -3   0   0   14.84    0.80
  -3   0   0   14.37    0.57
  -3   0   0   15.96    0.85
  -3   0   0   14.91    0.80
   3   0   0   14.07    0.73
  -3   0   0   14.30    0.68
  -3   0   0   15.69    0.83
   3   0   0   14.91    0.76
   3   0   1  246.59    5.41
  -3   0  -1  243.15    5.41
  -3   0  -1  248.06    5.39
  -3   0  -1  257.30    5.32
  -3   0  -1  257.75    5.44
  -3   0  -1  251.53    5.45
   3   0   1  253.11    5.38
  -3   0  -1  253.44    5.29
  -3   0  -1  229.47    5.38
   3   0   1  226.29    5.33
   3   0   1  244.96    4.87
   3   0   2   48.77    1.60
  -3   0  -2   46.05    1.54
  -3   0  -2   47.25    1.54
  -3   0  -2   47.43    1.43
  -3   0  -2   45.62    1.57
  -3   0  -2   47.42    1.57
  -3   0  -2   47.14    1.55
  -3   0  -2   45.76    1.61
   3   0   2   46.05    1.55
   3   0   2   46.74    1.56
  -3   0  -2   49.76    1.55
   3   0   2   45.19    1.44
  -3   0  -2   46.76    1.15
  -3   0  -2   50.71    1.53
   3   0   2   46.25    1.47
   3   0   2   48.50    1.35
   3   0   3   30.69    1.19
  -3   0  -3   29.78    1.00
  -3   0  -3   29.86    1.15
  -3   0  -3   28.79    1.12
   3   0   3   27.96    1.14
  -3   0  -3   28.39    1.09
  -3   0  -3   28.00    1.15
  -3   0  -3   29.04    1.23
  -3   0  -3   29.95    1.17
  -3   0  -3   29.39    1.24
   3   0   3   27.98    1.17
  -3   0  -3   29.94    1.18
   3   0   3   28.66    1.04
   3   0   3   28.27    0.92
  -3   0  -3   28.51    1.04
   3   0   3   28.79    1.05
   3   0   3   28.07    1.05
   3   0   4  351.16    7.33
  -3   0  -4  344.20    7.07
   3   0   4  322.80    7.28
  -3   0  -4  350.61    7.26
  -3   0  -4  356.87    7.50
  -3   0  -4  340.62    7.18
  -3   0  -4  340.68    7.12
  -3   0  -4  336.50    7.16
  -3   0  -4  343.57    6.93
  -3   0  -4  349.82    7.19
  -3   0  -4  350.46    7.35
   3   0   4  350.51    7.07
   3   0   4  339.76    6.96
  -3   0  -4  337.18    7.01
   3   0   4  341.28    7.20
   3   0   5    9.74    0.70
   3   0   5    9.31    0.78
  -3   0  -5    9.73    0.70
  -3   0  -5    9.02    0.54
   3   0   5    8.97    0.74
  -3   0  -5    9.51    0.77
  -3   0  -5   10.17    0.70
  -3   0  -5    8.78    0.56
  -3   0  -5    9.06    0.56
  -3   0  -5   10.53    0.66
  -3   0  -5    9.37    0.52
   3   0   5    9.06    0.62
   3   0   5    8.63    0.63
  -3   0  -6   22.46    0.94
   3   0   6   23.56    1.39
  -3   0  -6   22.75    1.22
   3   0   6   22.87    1.30
  -3   0  -6   21.72    1.23
  -3   0  -6   21.42    1.12
   3   0   6   22.50    1.15
   3   0   6   24.28    1.09
   3   0   7    1.16    0.32
  -3   0  -7    0.72    0.24
  -3   0  -7    1.50    0.37
   3   0   7    1.16    0.42
   3   0   7    0.53    0.25
   3   0   7    1.13    0.39
  -3   0  -7    1.64    0.41
  -3   0  -7    1.34    0.34
   3   0   7    0.69    0.21
  -3   0  -8   68.45    2.26
  -3   0  -8   62.30    2.57
   3   0   8   61.35    2.77
   3   0   8   74.17    2.46
   3   0   8   72.37    2.75
  -3   0  -8   68.59    2.56
   3   0   8   69.92    2.61
  -3   0  -9   34.19    1.51
   3   0   9   33.43    1.97
  -3   0  -9   33.66    1.80
   3   0   9   35.26    1.84
   3   0   9   34.35    1.73
  -3   0  -9   36.50    1.76
   3   0   9   36.12    1.86
  -3   0 -10   20.28    1.07
  -3   0 -10   19.71    1.31
   3   0  10   18.31    1.37
   3   0  10   19.86    1.25
   3   0  10   19.93    1.21
  -3   0 -10   19.30    1.20
   3   0  10   21.40    1.39
  -3   0 -11   48.00    1.54
  -3   0 -11   47.54    1.75
  -3   0 -11   46.66    1.89
   3   0  11   48.00    2.00
   3   0  11   47.25    1.73
   3   0  11   47.81    1.98
  -3   0 -11   45.39    1.74
   3   0  11   44.82    1.72
  -3   0 -12   15.47    0.82
   3   0  12   14.76    0.81
   3   0  12   15.30    0.87
  -3   0 -12   13.74    0.71
  -3  -1  10    1.93    0.36
   3   1 -10    1.84    0.39
   3   1 -10    2.03    0.38
  -3  -1  10    2.24    0.39
   3   1  -9   17.29    1.18
  -3  -1   9   18.44    0.99
  -3  -1   9   18.27    1.23
   3   1  -9   17.43    1.33
  -3  -1   9   17.90    1.11
   3   1  -9   17.09    1.18
  -3  -1   9   16.77    1.16
  -3  -1   8   13.97    1.04
  -3  -1   8   11.50    0.99
   3   1  -8   11.92    1.09
  -3  -1   8   14.45    1.09
  -3  -1   8   12.02    1.06
  -3  -1   7   75.93    2.82
  -3  -1   7   77.24    2.94
  -3  -1   7   73.30    2.82
   3   1  -7   74.26    2.95
  -3  -1   7   73.96    2.81
  -3  -1   7   70.74    2.78
  -3  -1   6   62.12    2.43
  -3  -1   6   62.15    2.52
   3   1  -6   63.58    2.56
  -3  -1   6   62.63    2.47
  -3  -1   5  124.30    3.13
  -3  -1   5  120.51    3.47
  -3  -1   5  121.46    3.73
   3   1  -5  119.43    3.64
  -3  -1   5  121.25    3.57
  -3  -1   4    0.89    0.27
  -3  -1   4    1.20    0.25
  -3  -1   4    1.27    0.29
  -3  -1   4    1.29    0.35
   3   1  -4    1.20    0.32
  -3  -1   4    1.54    0.33
   3   1  -3    1.01    0.20
  -3  -1   3    0.52    0.22
  -3  -1   3    0.92    0.22
  -3  -1   3    0.67    0.25
  -3  -1   3    0.59    0.15
  -3  -1   3    1.08    0.22
  -3  -1   3    0.54    0.21
   3   1  -3    0.72    0.24
   3   1  -3    0.58    0.20
  -3  -1   3    0.91    0.25
  -3  -1   3    0.68    0.22
  -3  -1   3    1.14    0.23
   3   1  -3    0.43    0.18
   3   1  -2  213.96    4.66
  -3  -1   2  226.36    4.97
  -3  -1   2  217.25    4.92
   3   1  -2  218.43    4.76
  -3  -1   2  215.65    4.54
  -3  -1   2  222.99    4.97
  -3  -1   2  212.08    4.71
   3   1  -2  205.34    4.80
  -3  -1   2  230.33    4.97
  -3  -1   2  212.09    4.69
  -3  -1   2  209.57    4.59
  -3  -1   2  219.70    4.78
  -3  -1   2  214.52    4.60
   3   1  -2  216.34    4.74
  -3  -1   2  212.05    4.19
  -3  -1   1  166.71    3.93
  -3  -1   1  168.97    3.91
   3   1  -1  157.75    3.73
  -3  -1   1  167.65    3.93
  -3  -1   1  163.90    3.54
  -3  -1   1  156.84    3.77
  -3  -1   1  164.41    3.79
   3   1  -1  163.34    3.80
   3   1  -1  163.81    3.58
  -3  -1   1  162.51    3.68
  -3  -1   1  165.98    3.65
  -3  -1   1  170.72    3.85
   3   1  -1  174.95    3.82
  -3  -1   1  163.23    3.27
  -3  -1   0   41.42    1.11
  -3  -1   0   45.12    1.51
  -3  -1   0   44.72    1.51
  -3  -1   0   45.11    1.54
   3   1   0   45.99    1.48
   3   1   0   48.87    1.48
  -3  -1   0   46.47    1.32
  -3  -1   0   44.67    1.42
  -3  -1   0   46.95    1.50
   3   1   0   46.01    1.48
  -3  -1   0   47.08    1.40
  -3  -1   0   47.26    1.13
  -3  -1   0   53.18    1.65
   3   1   0   47.58    1.54
  -3  -1  -1  214.55    4.31
   3   1   1  226.50    4.67
  -3  -1  -1  205.44    4.68
  -3  -1  -1  207.79    4.59
  -3  -1  -1  208.08    4.68
  -3  -1  -1  214.45    4.71
  -3  -1  -1  201.54    4.70
   3   1   1  213.82    4.71
  -3  -1  -1  212.20    4.61
   3   1   1  193.76    4.61
  -3  -1  -1  218.00    4.24
  -3  -1  -1  210.79    4.76
   3   1   1  197.90    4.66
   3   1   1  214.77    4.33
   3   1   2   49.11    1.52
  -3  -1  -2   45.43    1.50
  -3  -1  -2   45.41    1.50
  -3  -1  -2   45.10    1.51
  -3  -1  -2   43.98    1.53
  -3  -1  -2   46.32    1.53
   3   1   2   44.81    1.52
  -3  -1  -2   44.87    1.50
   3   1   2   44.36    1.43
  -3  -1  -2   40.43    1.20
  -3  -1  -2   49.84    1.51
   3   1   2   49.70    1.50
   3   1   2   45.62    1.36
   3   1   3    2.37    0.30
   3   1   3    2.17    0.30
  -3  -1  -3    2.59    0.33
   3   1   3    2.57    0.36
  -3  -1  -3    2.97    0.39
  -3  -1  -3    2.59    0.32
  -3  -1  -3    2.61    0.36
  -3  -1  -3    2.39    0.34
   3   1   3    2.29    0.34
  -3  -1  -3    2.44    0.33
   3   1   3    2.26    0.32
  -3  -1  -3    3.05    0.35
  -3  -1  -3    2.96    0.29
   3   1   3    1.99    0.25
  -3  -1  -3    2.28    0.30
   3   1   4   86.13    2.28
  -3  -1  -4   83.16    2.19
   3   1   4   79.32    1.95
  -3  -1  -4   78.68    2.26
  -3  -1  -4   82.92    2.21
  -3  -1  -4   79.12    2.31
   3   1   4   85.92    2.45
  -3  -1  -4   80.81    2.44
  -3  -1  -4   76.93    2.18
  -3  -1  -4   78.02    2.32
  -3  -1  -4   81.60    2.08
   3   1   4   76.78    2.30
  -3  -1  -4   80.62    2.35
   3   1   4   83.09    2.29
   3   1   4   81.42    2.16
  -3  -1  -4   79.44    2.12
  -3  -1  -4   84.38    2.30
   3   1   4   81.03    2.28
   3   1   5  106.20    2.80
  -3  -1  -5  103.28    2.89
   3   1   5  108.78    3.07
  -3  -1  -5  101.00    2.43
   3   1   5  106.00    3.07
  -3  -1  -5   99.46    2.79
  -3  -1  -5  101.06    2.49
  -3  -1  -5   92.25    2.45
  -3  -1  -5   99.80    2.92
  -3  -1  -5   98.14    2.45
  -3  -1  -5  102.47    2.74
  -3  -1  -5  103.99    2.86
   3   1   5  103.96    2.82
  -3  -1  -5   99.86    2.63
   3   1   5  101.76    2.80
   3   1   6    5.51    0.55
   3   1   6    5.89    0.51
  -3  -1  -6    4.90    0.58
   3   1   6    6.19    0.73
   3   1   6    6.11    0.70
  -3  -1  -6    5.87    0.62
  -3  -1  -6    4.88    0.55
   3   1   6    5.62    0.59
  -3  -1  -7   18.55    1.21
  -3  -1  -7   18.99    1.13
   3   1   7   18.04    0.90
   3   1   7   19.07    1.32
  -3  -1  -7   18.38    1.16
   3   1   7   18.16    1.12
   3   1   7   17.07    1.28
   3   1   7   18.92    1.11
  -3  -1  -8   75.66    2.82
   3   1   8   70.81    2.30
   3   1   8   68.47    2.94
   3   1   8   76.41    2.98
  -3  -1  -8   77.47    2.52
  -3  -1  -8   79.17    2.79
   3   1   8   72.07    2.68
   3   1   8   76.77    2.54
  -3  -1  -9   82.91    3.08
   3   1   9   84.34    3.35
  -3  -1  -9   84.82    3.01
   3   1   9   87.69    3.11
   3   1   9   85.28    3.26
  -3  -1 -10   12.43    0.80
  -3  -1 -10   12.73    1.05
   3   1  10   15.70    1.28
   3   1  10   13.27    1.12
   3   1  10   12.15    1.04
   3   1  10   11.15    1.02
  -3  -1 -10   12.24    0.99
  -3  -1 -11   44.91    1.90
   3   1  11   47.40    2.03
   3   1  11   43.09    1.85
   3   1  11   43.42    1.81
   3   1  11   46.90    1.98
  -3  -1 -11   43.80    1.77
  -3  -1 -11   42.12    1.52
  -3  -1 -12   15.31    0.85
   3   1  12   13.43    0.78
   3   1  12   15.61    0.90
   3   1  12   15.45    0.80
  -3  -1 -12   14.03    0.77
  -3  -2  10   22.89    1.10
   3   2 -10   20.32    1.05
   3   2 -10   20.69    1.03
  -3  -2  10   22.72    1.10
   3   2  -9   17.48    1.11
  -3  -2   9   17.52    0.88
  -3  -2   9   18.88    1.16
   3   2  -9   17.63    1.27
   3   2  -9   18.31    1.21
  -3  -2   9   18.15    1.16
   3   2  -8    9.11    0.94
  -3  -2   8    8.34    0.76
   3   2  -8    8.13    1.02
  -3  -2   8    8.97    0.89
   3   2  -8    7.85    0.91
  -3  -2   8    8.80    0.87
  -3  -2   8    8.98    0.88
  -3  -2   7    1.85    0.45
  -3  -2   7    2.24    0.51
   3   2  -7    1.41    0.48
  -3  -2   7    1.39    0.43
  -3  -2   6   86.64    3.01
  -3  -2   6   81.94    3.08
   3   2  -6   85.79    3.17
  -3  -2   6   86.56    3.05
  -3  -2   5  213.75    5.34
  -3  -2   5  217.88    5.62
   3   2  -5  205.49    5.53
  -3  -2   5  216.98    5.49
  -3  -2   4    0.61    0.27
  -3  -2   4    0.64    0.24
  -3  -2   4    0.67    0.27
  -3  -2   4    0.79    0.21
   3   2  -4    0.91    0.30
  -3  -2   4    0.59    0.24
  -3  -2   3    0.57    0.13
  -3  -2   3    0.59    0.23
   3   2  -3    0.61    0.17
  -3  -2   3    0.52    0.22
  -3  -2   3    1.06    0.26
  -3  -2   3    0.91    0.21
  -3  -2   3    0.81    0.22
  -3  -2   3    0.79    0.24
   3   2  -3    0.95    0.28
  -3  -2   3    0.80    0.25
  -3  -2   3    0.97    0.25
  -3  -2   3    0.21    0.18
   3   2  -3    0.39    0.17
  -3  -2   2  100.38    2.67
   3   2  -2   97.66    2.52
  -3  -2   2  105.68    2.73
  -3  -2   2   96.57    2.69
  -3  -2   2   99.68    2.53
  -3  -2   2  101.20    2.70
  -3  -2   2  102.08    2.64
   3   2  -2  102.39    2.73
   3   2  -2  102.32    2.70
  -3  -2   2  102.49    2.57
   3   2  -2  101.99    2.60
  -3  -2   2  102.81    2.32
   3   2  -1  354.15    7.42
  -3  -2   1  359.14    7.52
   3   2  -1  383.86    7.68
   3   2  -1  363.54    7.44
  -3  -2   1  367.23    7.47
  -3  -2   1  348.45    7.48
  -3  -2   1  363.70    7.47
   3   2  -1  354.58    7.51
  -3  -2   1  346.54    7.36
  -3  -2   1  362.32    7.33
  -3  -2   1  372.84    7.46
  -3  -2   1  361.28    7.50
   3   2  -1  370.76    7.55
  -3  -2   1  368.35    7.11
  -3  -2   0  188.73    4.34
   3   2   0  194.03    4.36
  -3  -2   0  194.23    4.15
  -3  -2   0  197.07    4.14
  -3  -2   0  189.33    4.17
  -3  -2   0  195.39    4.33
   3   2   0  186.36    4.26
   3   2   0  195.40    4.33
   3   2   0  187.29    4.08
  -3  -2   0  193.36    4.24
  -3  -2   0  188.78    4.31
  -3  -2   0  202.41    4.40
  -3  -2   0  196.41    4.29
  -3  -2   0  197.33    3.98
   3   2   1    0.93    0.17
  -3  -2  -1    1.54    0.20
   3   2   1    1.08    0.20
   3   2   1    0.72    0.20
  -3  -2  -1    0.98    0.23
  -3  -2  -1    1.66    0.30
   3   2   1    1.19    0.26
  -3  -2  -1    1.17    0.25
  -3  -2  -1    0.94    0.23
   3   2   1    1.33    0.25
  -3  -2  -1    0.85    0.21
  -3  -2  -1    0.91    0.20
   3   2   1    1.14    0.27
  -3  -2  -1    1.42    0.20
  -3  -2  -1    1.48    0.28
   3   2   1    1.24    0.26
  -3  -2  -2    2.57    0.28
   3   2   2    2.96    0.32
   3   2   2    2.91    0.34
   3   2   2    2.28    0.30
  -3  -2  -2    2.81    0.35
  -3  -2  -2    2.29    0.31
  -3  -2  -2    3.49    0.38
  -3  -2  -2    2.82    0.34
   3   2   2    2.88    0.35
  -3  -2  -2    2.83    0.34
  -3  -2  -2    2.57    0.33
   3   2   2    2.35    0.32
  -3  -2  -2    3.05    0.29
  -3  -2  -2    2.74    0.34
   3   2   2    2.47    0.33
   3   2   2    2.72    0.31
  -3  -2  -3   13.57    0.70
   3   2   3   14.67    0.70
   3   2   3   13.77    0.71
   3   2   3   14.49    0.77
  -3  -2  -3   14.76    0.77
  -3  -2  -3   13.20    0.78
   3   2   3   14.73    0.82
  -3  -2  -3   13.80    0.75
  -3  -2  -3   12.76    0.75
  -3  -2  -3   13.40    0.78
   3   2   3   15.65    0.83
  -3  -2  -3   13.92    0.68
  -3  -2  -3   15.22    0.77
  -3  -2  -3   13.18    0.75
   3   2   3   13.11    0.73
   3   2   4  108.72    2.63
   3   2   4   99.02    2.66
  -3  -2  -4   98.87    2.73
  -3  -2  -4  100.32    2.64
   3   2   4  105.86    2.79
  -3  -2  -4  103.49    2.76
   3   2   4  110.34    2.96
  -3  -2  -4   98.47    2.84
  -3  -2  -4   99.90    2.64
   3   2   4  104.43    2.63
  -3  -2  -4  103.52    2.52
   3   2   4  100.96    2.79
  -3  -2  -4   99.47    2.78
   3   2   4  106.32    2.86
   3   2   4  101.00    2.64
  -3  -2  -4  105.09    2.66
  -3  -2  -4   97.49    2.76
   3   2   4   99.30    2.74
  -3  -2  -4   99.02    2.61
   3   2   5  488.59    9.83
  -3  -2  -5  488.61    9.58
   3   2   5  469.16    9.69
  -3  -2  -5  470.15    9.60
   3   2   5  491.71    9.84
  -3  -2  -5  506.59    9.69
  -3  -2  -5  478.95   10.05
   3   2   5  463.08   10.33
  -3  -2  -5  493.70   10.20
   3   2   5  452.02   10.11
  -3  -2  -5  480.14    9.82
  -3  -2  -5  483.38    9.91
  -3  -2  -5  488.27   10.18
  -3  -2  -5  488.54   10.01
   3   2   5  507.32   10.26
  -3  -2  -5  480.05    9.86
   3   2   5  484.04   10.03
   3   2   6   40.30    1.44
  -3  -2  -6   43.19    1.82
   3   2   6   41.51    1.49
   3   2   6   38.93    1.79
   3   2   6   37.52    1.84
  -3  -2  -6   40.30    1.67
  -3  -2  -6   42.66    1.70
   3   2   6   38.45    1.61
   3   2   6   40.52    1.77
   3   2   7   24.52    1.49
   3   2   7   22.67    1.20
  -3  -2  -7   24.96    1.45
   3   2   7   22.66    1.51
  -3  -2  -7   25.34    1.28
  -3  -2  -7   27.98    1.47
   3   2   7   25.76    1.37
   3   2   7   25.33    1.42
  -3  -2  -8   65.63    2.63
   3   2   8   64.11    2.30
   3   2   8   61.19    2.69
   3   2   8   59.18    2.73
  -3  -2  -8   71.97    2.30
  -3  -2  -8   63.49    2.56
   3   2   8   66.61    2.57
   3   2   8   70.04    2.59
   3   2   9   86.07    2.84
  -3  -2  -9   86.84    3.16
   3   2   9   81.23    3.31
   3   2   9   90.69    3.50
   3   2   9   83.41    3.10
  -3  -2  -9   88.24    3.15
  -3  -2 -10   74.98    2.87
   3   2  10   77.93    3.14
   3   2  10   80.18    3.05
   3   2  10   76.77    2.91
  -3  -2 -10   79.60    2.88
   3   2  10   80.52    3.13
  -3  -2 -11   20.18    1.22
   3   2  11   19.87    1.26
   3   2  11   22.28    1.35
   3   2  11   21.33    1.30
   3   2  11   19.62    1.25
  -3  -2 -11   20.93    1.21
   3   2  12    1.74    0.33
  -3  -2 -12    1.48    0.30
   3   2  12    1.92    0.32
   3   2  12    1.65    0.28
   3   2  12    1.47    0.29
  -3  -2 -12    1.37    0.26
   3   3  -9   16.67    0.90
  -3  -3   9   16.88    1.09
   3   3  -9   15.59    1.11
   3   3  -9   16.97    1.11
  -3  -3   9   16.64    1.07
   3   3  -8    0.36    0.30
  -3  -3   8    0.74    0.29
  -3  -3   8    0.84    0.39
   3   3  -8    1.22    0.50
   3   3  -8    0.12    0.31
  -3  -3   8    0.51    0.30
  -3  -3   7   15.47    1.16
  -3  -3   7   14.53    1.19
   3   3  -7   13.82    1.34
   3   3  -7   12.28    1.15
  -3  -3   7   13.76    1.11
   3   3  -7   14.51    1.21
  -3  -3   6    4.66    0.65
  -3  -3   6    4.67    0.68
   3   3  -6    4.33    0.83
   3   3  -6    3.45    0.65
  -3  -3   6    4.45    0.66
   3   3  -6    4.44    0.70
  -3  -3   5  342.16    7.71
  -3  -3   5  342.53    8.00
   3   3  -5  354.27    8.15
   3   3  -5  339.15    8.07
   3   3  -5  306.50    8.37
  -3  -3   5  320.31    7.76
  -3  -3   4  198.78    4.88
   3   3  -4  208.85    5.31
  -3  -3   4  198.17    5.12
  -3  -3   4  201.54    4.74
   3   3  -4  201.64    5.22
  -3  -3   4  197.75    5.06
  -3  -3   3   66.59    2.01
  -3  -3   3   70.79    2.15
  -3  -3   3   68.89    2.01
  -3  -3   3   64.64    2.20
   3   3  -3   64.40    2.49
   3   3  -3   69.72    2.40
  -3  -3   3   69.11    2.06
   3   3  -3   66.55    2.30
  -3  -3   3   63.10    2.18
   3   3  -3   65.22    1.96
  -3  -3   2   46.72    1.58
  -3  -3   2   47.02    1.53
   3   3  -2   47.44    1.77
  -3  -3   2   42.99    1.54
  -3  -3   2   46.50    1.32
  -3  -3   2   46.78    1.48
   3   3  -2   46.97    1.45
   3   3  -2   44.42    1.64
   3   3  -2   47.79    1.62
  -3  -3   2   46.89    1.54
   3   3  -2   47.72    1.83
  -3  -3   2   45.98    1.46
  -3  -3   2   44.94    1.35
   3   3  -2   42.90    1.52
  -3  -3   2   45.22    1.32
   3   3  -1   43.66    1.16
   3   3  -1   43.73    1.45
  -3  -3   1   42.74    1.49
  -3  -3   1   45.21    1.44
   3   3  -1   39.82    1.50
  -3  -3   1   45.48    1.46
   3   3  -1   42.27    1.62
   3   3  -1   43.34    1.50
   3   3  -1   43.90    1.52
  -3  -3   1   40.56    1.39
  -3  -3   1   42.12    1.34
  -3  -3   1   44.11    1.37
   3   3  -1   44.77    1.52
  -3  -3   1   43.11    1.30
  -3  -3   0  122.83    3.08
  -3  -3   0  122.96    2.85
   3   3   0  125.41    3.07
  -3  -3   0  126.14    2.99
   3   3   0  115.22    3.17
  -3  -3   0  124.61    3.03
   3   3   0  116.15    3.04
   3   3   0  123.01    3.01
  -3  -3   0  131.44    3.08
   3   3   0  116.26    3.13
  -3  -3   0  132.98    3.08
   3   3   0  139.03    3.19
  -3  -3   0  127.02    2.87
   3   3   1  242.93    5.22
  -3  -3  -1  231.04    5.16
   3   3   1  241.27    5.35
  -3  -3  -1  247.67    5.23
  -3  -3  -1  240.59    5.23
   3   3   1  241.50    5.23
   3   3   1  231.30    5.12
  -3  -3  -1  243.32    5.23
   3   3   1  254.94    5.41
  -3  -3  -1  242.04    5.07
  -3  -3  -1  241.48    5.28
   3   3   1  241.79    5.27
   3   3   1  237.05    5.13
  -3  -3  -1  239.88    5.05
   3   3   2   12.62    0.60
   3   3   2   13.15    0.74
  -3  -3  -2   12.06    0.69
  -3  -3  -2   13.13    0.71
   3   3   2   12.67    0.71
   3   3   2   11.94    0.64
  -3  -3  -2   14.33    0.76
   3   3   2   12.98    0.78
   3   3   2   10.83    0.65
   3   3   2   12.79    0.75
  -3  -3  -2   12.38    0.65
  -3  -3  -2   13.07    0.75
   3   3   2   12.01    0.67
  -3  -3  -2   12.18    0.63
  -3  -3  -3    4.28    0.40
   3   3   3    3.64    0.33
   3   3   3    3.55    0.37
   3   3   3    3.62    0.43
   3   3   3    3.91    0.45
  -3  -3  -3    3.68    0.41
   3   3   3    3.58    0.41
  -3  -3  -3    3.41    0.40
   3   3   3    3.96    0.49
  -3  -3  -3    3.95    0.39
  -3  -3  -3    3.90    0.41
  -3  -3  -3    2.89    0.39
   3   3   3    3.79    0.40
   3   3   4   55.12    1.59
  -3  -3  -4   56.12    1.71
   3   3   4   53.14    1.66
   3   3   4   59.22    1.89
   3   3   4   52.16    1.67
   3   3   4   52.06    1.92
  -3  -3  -4   54.98    1.88
  -3  -3  -4   53.34    1.74
  -3  -3  -4   54.52    1.85
  -3  -3  -4   53.47    1.64
   3   3   4   53.70    1.98
  -3  -3  -4   56.66    1.80
   3   3   4   55.04    1.85
   3   3   5  266.95    5.85
   3   3   5  263.84    5.38
  -3  -3  -5  265.82    5.50
   3   3   5  260.25    5.87
  -3  -3  -5  249.49    6.00
   3   3   5  251.79    5.73
  -3  -3  -5  251.09    5.93
   3   3   5  247.21    6.10
  -3  -3  -5  247.22    5.49
  -3  -3  -5  253.86    5.50
   3   3   5  253.54    5.39
   3   3   5  251.18    5.77
  -3  -3  -5  267.88    5.79
   3   3   5  240.58    6.09
  -3  -3  -5  251.53    5.73
  -3  -3  -5  249.74    5.37
  -3  -3  -6  257.15    6.28
   3   3   6  262.24    5.95
   3   3   6  263.86    5.95
   3   3   6  245.91    6.33
  -3  -3  -6  251.99    6.02
   3   3   6  249.64    5.98
  -3  -3  -6  258.10    5.97
   3   3   6  237.04    6.27
   3   3   7    5.46    0.67
   3   3   7    6.43    0.68
   3   3   7    5.76    0.66
  -3  -3  -7    7.42    0.68
  -3  -3  -7    6.47    0.78
  -3  -3  -7    6.96    0.74
   3   3   7    6.37    0.82
   3   3   7    6.28    0.78
   3   3   8    0.20    0.27
   3   3   8    0.79    0.33
   3   3   8    0.28    0.33
   3   3   8    0.81    0.41
  -3  -3  -8    0.66    0.27
  -3  -3  -8    0.35    0.36
   3   3   8    0.49    0.36
  -3  -3  -8    0.50    0.34
  -3  -3  -9   54.97    2.41
   3   3   9   47.34    2.27
   3   3   9   47.45    2.53
   3   3   9   53.73    2.35
  -3  -3  -9   55.70    2.44
  -3  -3 -10   60.50    2.48
   3   3  10   56.06    2.42
   3   3  10   55.20    2.66
   3   3  10   62.21    2.55
  -3  -3 -10   60.71    2.49
  -3  -3 -11   38.11    1.68
   3   3  11   35.29    1.55
   3   3  11   35.41    1.48
   3   3  11   35.83    1.82
   3   3  11   36.94    1.74
   3   3  11   34.18    1.72
  -3  -3 -11   33.68    1.61
  -3  -3 -12   15.27    0.83
   3   3  12   16.55    0.78
   3   3  12   18.45    0.96
   3   3  12   16.56    0.93
  -3  -3 -12   16.40    0.86
   3   4  -9   29.82    1.26
  -3  -4   9   30.07    1.42
   3   4  -9   30.10    1.42
   3   4  -9   29.55    1.35
  -3  -4   9   30.94    1.38
  -3  -4   8   10.68    0.69
  -3  -4   8   10.32    0.93
   3   4  -8    9.06    0.94
   3   4  -8   10.33    0.93
   3   4  -8    8.58    0.71
  -3  -4   8    9.80    0.86
   3   4  -7   10.83    0.80
  -3  -4   7    9.35    0.88
   3   4  -7    8.65    0.97
   3   4  -7   10.72    0.95
  -3  -4   7    8.58    0.91
   3   4  -7    9.01    1.04
  -3  -4   7   10.96    0.96
  -3  -4   6   11.18    0.96
   3   4  -6   10.10    0.99
  -3  -4   6   10.76    1.02
   3   4  -6    9.59    1.14
   3   4  -6   10.42    1.07
   3   4  -6   11.52    0.90
  -3  -4   5  127.54    3.65
  -3  -4   5  124.34    3.90
   3   4  -5  122.40    4.31
   3   4  -5  130.68    4.06
  -3  -4   5  123.65    3.42
   3   4  -5  124.83    4.08
   3   4  -5  122.06    3.51
  -3  -4   4  133.14    3.58
   3   4  -4  133.75    4.05
  -3  -4   4  127.40    3.81
   3   4  -4  126.97    4.23
  -3  -4   4  132.44    3.60
   3   4  -4  128.39    3.99
   3   4  -4  132.40    3.56
   3   4  -3    1.89    0.42
  -3  -4   3    1.65    0.35
  -3  -4   3    1.49    0.26
  -3  -4   3    1.30    0.32
   3   4  -3    1.52    0.39
   3   4  -2    4.83    0.61
  -3  -4   2    3.79    0.44
  -3  -4   2    4.07    0.40
   3   4  -2    4.10    0.57
  -3  -4   2    4.44    0.50
   3   4  -2    3.98    0.36
   3   4  -1  172.21    3.52
   3   4  -1  164.96    4.35
  -3  -4   1  162.63    3.87
   3   4  -1  163.62    4.15
  -3  -4   1  171.14    3.93
  -3  -4   1  168.70    4.12
   3   4  -1  174.99    4.05
   3   4  -1  172.18    4.20
   3   4  -1  161.67    4.10
  -3  -4   1  165.84    3.64
   3   4  -1  169.31    3.85
  -3  -4   1  164.52    3.75
  -3  -4   0  167.31    4.05
  -3  -4   0  168.19    3.64
  -3  -4   0  168.43    3.94
   3   4   0  155.97    3.88
   3   4   0  177.13    3.68
   3   4   0  163.64    4.26
   3   4   0  168.48    3.94
   3   4   0  172.56    4.10
   3   4   0  175.66    4.15
  -3  -4   0  166.79    3.78
  -3  -4   0  168.94    3.80
  -3  -4  -1  211.62    4.72
  -3  -4  -1  213.13    4.69
   3   4   1  204.63    4.62
   3   4   1  213.01    4.45
   3   4   1  193.69    4.36
   3   4   1  196.71    4.34
  -3  -4  -1  206.50    4.64
   3   4   1  216.88    4.99
   3   4   1  204.75    4.55
   3   4   1  203.19    4.68
  -3  -4  -1  204.83    4.62
   3   4   1  200.61    4.77
  -3  -4  -1  210.92    4.57
  -3  -4  -1  194.44    4.57
  -3  -4  -1  202.68    4.49
   3   4   2   23.59    0.81
   3   4   2   24.56    0.99
   3   4   2   24.37    1.03
  -3  -4  -2   26.46    1.10
   3   4   2   21.52    0.93
  -3  -4  -2   24.21    1.09
   3   4   2   22.76    0.80
   3   4   2   25.14    1.24
   3   4   2   25.40    1.03
   3   4   2   23.54    1.07
  -3  -4  -2   24.74    1.06
   3   4   2   22.89    1.16
  -3  -4  -2   25.95    1.06
  -3  -4  -2   24.56    1.06
  -3  -4  -2   27.55    1.15
   3   4   2   24.08    1.04
  -3  -4  -2   24.07    1.00
   3   4   3   73.37    1.75
   3   4   3   68.63    2.01
   3   4   3   72.24    2.09
   3   4   3   78.40    2.46
  -3  -4  -3   71.47    2.20
   3   4   3   69.89    2.08
  -3  -4  -3   70.99    2.07
   3   4   3   68.50    2.04
  -3  -4  -3   77.36    2.21
   3   4   3   64.82    2.29
  -3  -4  -3   72.90    2.13
   3   4   3   69.11    2.12
   3   4   4   15.29    1.01
   3   4   4   13.17    0.70
   3   4   4   14.97    0.87
  -3  -4  -4   13.98    0.88
  -3  -4  -4   15.21    0.81
   3   4   4   15.56    0.86
   3   4   4   13.39    0.78
  -3  -4  -4   13.56    0.82
   3   4   4   13.93    1.00
  -3  -4  -4   13.86    0.84
   3   4   4   12.52    0.81
   3   4   5  198.92    4.94
   3   4   5  204.94    4.78
  -3  -4  -5  188.30    4.70
   3   4   5  191.77    4.68
   3   4   5  171.99    4.27
  -3  -4  -5  186.63    4.39
   3   4   5  186.69    5.06
   3   4   6  272.41    5.78
  -3  -4  -6  271.38    6.72
   3   4   6  280.90    6.57
  -3  -4  -6  264.20    6.36
   3   4   6  262.72    6.41
   3   4   6  263.02    6.83
   3   4   7    1.14    0.37
  -3  -4  -7    0.50    0.37
   3   4   7    1.19    0.28
   3   4   7    1.14    0.40
  -3  -4  -7    0.32    0.23
  -3  -4  -7    0.93    0.38
   3   4   7    1.27    0.49
   3   4   8    3.90    0.65
  -3  -4  -8    4.46    0.72
   3   4   8    4.38    0.58
   3   4   8    3.20    0.63
  -3  -4  -8    3.40    0.62
   3   4   8    3.87    0.71
  -3  -4  -9   23.62    1.53
   3   4   9   20.38    1.21
   3   4   9   19.28    1.17
   3   4   9   18.15    1.51
   3   4   9   19.99    1.45
  -3  -4  -9   19.31    1.43
  -3  -4 -10   30.77    1.64
   3   4  10   31.24    1.45
   3   4  10   24.66    1.69
   3   4  10   29.27    1.70
  -3  -4 -10   29.44    1.69
  -3  -4 -11   89.81    2.76
   3   4  11   84.27    2.53
   3   4  11   87.23    2.89
   3   4  11   93.91    3.05
  -3  -4 -11   86.13    2.82
   3   4  12    8.84    0.52
   3   4  12    9.47    0.65
   3   4  12   10.61    0.70
  -3  -4 -12    9.64    0.63
  -3  -5   9   31.48    1.09
   3   5  -9   31.96    1.28
  -3  -5   9   28.39    1.28
  -3  -5   9   31.25    1.17
   3   5  -8   15.82    0.90
  -3  -5   8   15.91    1.09
   3   5  -8   17.00    1.13
   3   5  -8   16.26    1.05
  -3  -5   8   15.45    0.97
   3   5  -7   18.87    1.14
   3   5  -7   16.08    1.06
   3   5  -7   16.22    1.24
  -3  -5   7   18.67    1.30
   3   5  -7   19.79    1.42
  -3  -5   7   17.76    1.14
  -3  -5   7   17.13    1.09
  -3  -5   6    4.19    0.56
  -3  -5   6    4.32    0.66
   3   5  -6    4.18    0.74
   3   5  -6    3.73    0.56
  -3  -5   6    4.94    0.55
   3   5  -6    3.85    0.64
   3   5  -6    3.94    0.59
  -3  -5   5   53.26    2.08
  -3  -5   5   52.74    2.02
   3   5  -5   48.16    2.19
  -3  -5   5   55.85    2.36
   3   5  -5   53.68    2.59
   3   5  -5   52.86    2.46
   3   5  -5   53.43    2.16
  -3  -5   4  168.40    4.28
   3   5  -4  157.90    4.74
  -3  -5   4  170.84    4.67
   3   5  -4  166.91    5.12
  -3  -5   4  164.67    4.55
   3   5  -4  168.86    4.93
   3   5  -4  175.52    4.02
   3   5  -4  170.92    4.56
  -3  -5   3   56.60    1.89
  -3  -5   3   55.21    2.07
   3   5  -3   52.99    2.39
  -3  -5   3   53.16    2.13
   3   5  -3   53.97    2.31
   3   5  -3   58.53    1.76
   3   5  -3   51.20    2.25
  -3  -5   2    1.48    0.32
   3   5  -2    1.16    0.26
   3   5  -2    1.01    0.36
   3   5  -2    0.96    0.37
  -3  -5   2    0.76    0.29
   3   5  -2    0.64    0.29
   3   5  -2    0.51    0.21
   3   5  -2    0.27    0.24
   3   5  -1   97.69    3.16
  -3  -5   1  100.69    2.62
   3   5  -1   98.27    2.61
   3   5  -1   93.13    2.95
  -3  -5   1   95.75    2.93
   3   5  -1   99.90    3.07
   3   5  -1   97.34    2.69
   3   5  -1   96.73    2.64
   3   5   0   68.58    1.75
   3   5   0   69.83    2.47
  -3  -5   0   68.65    1.75
   3   5   0   68.65    2.09
   3   5   0   68.98    2.19
   3   5   0   70.49    1.83
  -3  -5   0   72.54    2.32
   3   5   0   68.67    2.01
   3   5   0   65.97    2.31
   3   5   0   64.74    2.07
  -3  -5   0   67.86    1.73
  -3  -5  -1  124.20    3.19
  -3  -5  -1  133.31    3.42
   3   5   1  126.28    3.68
  -3  -5  -1  130.49    3.40
   3   5   1  124.19    3.06
   3   5   1  123.71    3.15
   3   5   1  116.31    3.42
  -3  -5  -1  123.69    3.18
   3   5   1  121.79    3.25
  -3  -5  -1  128.24    3.22
   3   5   1  133.87    3.07
  -3  -5  -1  119.46    2.95
   3   5   2   41.55    1.86
  -3  -5  -2   38.91    1.58
   3   5   2   37.34    1.35
  -3  -5  -2   40.91    1.54
   3   5   2   39.30    1.33
   3   5   2   36.24    1.59
   3   5   2   40.58    1.40
  -3  -5  -2   40.67    1.46
   3   5   2   39.39    1.54
  -3  -5  -2   37.65    1.44
   3   5   3   36.90    1.78
  -3  -5  -3   35.80    1.37
   3   5   3   34.83    1.39
   3   5   3   34.06    1.10
  -3  -5  -3   33.85    1.47
   3   5   3   32.56    1.21
   3   5   3   35.81    1.40
   3   5   3   32.04    1.19
  -3  -5  -3   32.78    1.30
   3   5   3   35.76    1.54
   3   5   4    6.63    0.53
   3   5   4    6.62    0.77
  -3  -5  -4    6.03    0.61
   3   5   4    6.88    0.63
   3   5   4    6.72    0.51
  -3  -5  -4    6.61    0.54
   3   5   4    5.37    0.45
   3   5   4    6.16    0.68
  -3  -5  -4    5.76    0.52
   3   5   5   33.13    1.78
   3   5   5   30.83    1.26
   3   5   5   33.84    1.37
  -3  -5  -5   32.63    1.52
   3   5   5   33.17    1.52
   3   5   5   34.35    1.76
   3   5   6  174.50    4.28
   3   5   6  188.26    4.66
  -3  -5  -6  188.39    4.78
   3   5   6  180.45    4.86
   3   5   6  182.26    5.26
  -3  -5  -7   76.43    2.99
   3   5   7   72.07    2.39
   3   5   7   76.93    2.73
  -3  -5  -7   78.16    2.52
   3   5   7   69.09    2.74
   3   5   7   69.72    3.03
   3   5   8   11.38    0.87
   3   5   8   12.57    1.09
   3   5   8   11.25    1.07
  -3  -5  -8   13.19    1.19
  -3  -5  -8   13.14    1.14
   3   5   8   11.75    1.22
  -3  -5  -9   63.33    2.59
   3   5   9   59.90    2.19
   3   5   9   55.83    2.53
   3   5   9   58.81    2.59
  -3  -5  -9   57.27    2.56
  -3  -5 -10   24.04    1.38
   3   5  10   25.06    1.24
   3   5  10   21.21    1.43
   3   5  10   23.77    1.49
   3   5  10   24.28    1.58
  -3  -5 -10   25.30    1.52
  -3  -5 -11   21.01    1.08
   3   5  11   20.45    0.99
   3   5  11   22.68    1.25
   3   5  11   24.98    1.33
  -3  -5 -11   21.05    1.18
  -3  -6   8   15.81    0.98
   3   6  -8   16.64    0.97
   3   6  -8   17.62    0.93
  -3  -6   8   16.57    0.78
   3   6  -8   15.68    0.82
   3   6  -7   52.71    2.06
  -3  -6   7   50.04    2.09
   3   6  -7   51.40    2.17
   3   6  -7   50.85    2.06
  -3  -6   7   51.26    1.80
  -3  -6   7   49.10    1.91
   3   6  -6   10.01    0.74
  -3  -6   6    9.89    0.81
  -3  -6   6   11.21    0.98
   3   6  -6   11.37    1.08
   3   6  -6    9.98    0.97
   3   6  -6   10.70    0.96
  -3  -6   5   17.01    0.98
   3   6  -5   16.73    1.05
  -3  -6   5   17.29    1.23
   3   6  -5   17.48    1.40
  -3  -6   5   16.27    1.14
   3   6  -5   18.07    1.37
   3   6  -5   16.80    1.23
  -3  -6   4  104.84    2.92
   3   6  -4  104.96    3.28
  -3  -6   4  106.50    3.37
   3   6  -4   98.80    3.72
  -3  -6   4  100.20    3.40
   3   6  -4  106.10    3.74
   3   6  -4  110.64    3.55
  -3  -6   3   59.44    1.89
   3   6  -3   60.44    2.36
   3   6  -3   62.37    1.92
  -3  -6   3   64.29    2.28
   3   6  -3   66.34    2.77
  -3  -6   3   62.53    2.48
   3   6  -3   61.68    2.66
   3   6  -3   61.23    2.45
  -3  -6   2   14.04    0.88
   3   6  -2   15.41    0.91
   3   6  -2   14.77    1.18
   3   6  -2   15.97    1.12
  -3  -6   2   15.73    1.13
   3   6  -2   14.84    1.20
   3   6  -2   14.82    0.99
  -3  -6   1   25.67    1.06
   3   6  -1   24.33    1.19
   3   6  -1   25.12    1.45
   3   6  -1   23.78    1.39
  -3  -6   1   24.41    1.37
   3   6  -1   22.37    1.44
   3   6  -1   24.71    1.26
   3   6   0   63.74    2.51
   3   6   0   70.06    2.27
   3   6   0   71.58    2.44
  -3  -6   0   69.01    2.45
   3   6   0   69.65    2.65
   3   6   0   71.72    2.31
   3   6   1   10.83    0.97
   3   6   1   12.29    0.83
   3   6   1   12.47    0.85
  -3  -6  -1   13.16    0.93
   3   6   1   13.22    1.03
   3   6   1   14.21    0.75
   3   6   1   13.05    0.85
   3   6   1   13.13    0.87
   3   6   2   44.01    1.65
   3   6   2   38.50    1.57
  -3  -6  -2   41.37    1.76
   3   6   2   38.85    1.54
  -3  -6  -2   40.38    1.64
   3   6   2   36.92    1.90
   3   6   2   39.45    1.89
   3   6   2   41.79    1.52
   3   6   3  172.27    4.29
   3   6   3  168.73    4.22
  -3  -6  -3  165.88    4.42
  -3  -6  -3  169.02    4.18
   3   6   3  172.80    4.25
   3   6   4    9.87    1.04
   3   6   4   10.00    0.76
   3   6   4   11.99    0.88
  -3  -6  -4   10.62    0.85
  -3  -6  -4   11.35    0.72
   3   6   4   10.95    0.87
   3   6   5   15.64    1.35
   3   6   5   16.80    0.89
   3   6   5   17.12    1.03
  -3  -6  -5   17.06    1.11
   3   6   5   17.06    1.12
   3   6   5   17.56    1.19
   3   6   6   77.34    2.46
   3   6   6   80.29    2.40
  -3  -6  -6   80.35    2.70
   3   6   6   79.90    2.87
   3   6   6   78.66    2.46
   3   6   6   78.99    3.02
   3   6   7   32.85    1.49
   3   6   7   28.79    1.42
  -3  -6  -7   32.44    1.48
  -3  -6  -7   31.01    1.85
   3   6   7   33.18    1.80
   3   6   7   33.70    1.95
   3   6   8   16.74    1.06
   3   6   8   16.55    1.10
   3   6   8   16.48    1.29
  -3  -6  -8   18.10    1.37
  -3  -6  -8   18.85    1.36
  -3  -6  -9   13.12    1.09
   3   6   9   13.75    0.93
   3   6   9   13.12    0.99
   3   6   9   11.05    1.05
  -3  -6  -9   14.02    1.17
  -3  -6 -10   62.93    2.20
   3   6  10   54.34    1.93
   3   6  10   58.55    2.34
   3   6  10   59.83    2.35
  -3  -6 -10   65.09    2.45
  -3  -6 -11   27.08    1.07
   3   6  11   26.74    1.04
   3   6  11   29.41    1.26
   3   6  11   30.59    1.25
  -3  -6 -11   28.58    1.29
  -3  -7   7   53.96    1.94
   3   7  -7   56.06    1.89
  -3  -7   7   51.40    1.82
   3   7  -7   53.55    2.03
   3   7  -6   58.07    2.38
  -3  -7   6   58.97    2.20
   3   7  -6   58.82    2.37
  -3  -7   6   57.06    2.08
   3   7  -6   61.85    2.30
   3   7  -5   32.44    1.82
  -3  -7   5   30.51    1.55
  -3  -7   5   28.13    1.54
   3   7  -5   29.06    1.68
   3   7  -5   30.03    1.73
   3   7  -4    9.94    1.06
  -3  -7   4   11.23    0.90
  -3  -7   4   10.42    0.82
  -3  -7   4   12.07    1.04
   3   7  -4    9.95    1.03
   3   7  -4    9.90    0.98
   3   7  -3   13.76    0.91
   3   7  -3   14.42    0.89
  -3  -7   3   14.67    0.96
   3   7  -3   12.51    0.84
   3   7  -3   13.19    1.22
  -3  -7   3   14.16    1.17
   3   7  -3   14.35    1.27
   3   7  -3   12.83    1.12
   3   7  -2   11.09    0.83
  -3  -7   2   10.72    0.74
   3   7  -2    9.29    0.99
   3   7  -2    8.88    0.77
  -3  -7   2    8.40    0.90
   3   7  -2    8.31    1.01
   3   7  -2   10.61    0.94
   3   7  -1   23.16    1.31
   3   7  -1   22.22    1.23
   3   7  -1   21.63    1.45
  -3  -7   1   21.80    1.39
   3   7  -1   21.52    1.57
   3   7  -1   20.88    1.29
   3   7   0  268.72    6.39
   3   7   0  270.17    6.70
  -3  -7   0  264.27    6.64
   3   7   0  273.09    6.60
   3   7   0  266.71    7.09
   3   7   0  266.25    6.46
   3   7   1    9.42    0.79
   3   7   1    9.66    0.82
   3   7   1   10.33    0.88
   3   7   1    9.56    0.90
  -3  -7  -1    8.28    0.80
   3   7   1    8.41    0.97
   3   7   1    9.65    0.84
   3   7   2    0.91    0.38
   3   7   2    0.43    0.26
   3   7   2    0.95    0.29
  -3  -7  -2    0.34    0.28
   3   7   2    0.73    0.31
  -3  -7  -2    0.90    0.30
   3   7   2    0.50    0.28
   3   7   3  103.28    2.87
   3   7   3  107.82    3.23
   3   7   3  104.55    3.18
   3   7   3   98.97    3.60
  -3  -7  -3  106.68    3.37
  -3  -7  -3  107.49    3.06
   3   7   3  106.08    2.89
   3   7   4   34.70    2.03
   3   7   4   35.97    1.65
   3   7   4   37.22    1.50
   3   7   4   37.08    1.71
  -3  -7  -4   35.86    1.75
  -3  -7  -4   38.73    1.45
   3   7   4   37.49    1.58
   3   7   5   44.49    1.77
   3   7   5   48.65    2.04
  -3  -7  -5   48.58    2.04
   3   7   5   46.30    1.93
   3   7   5   46.01    1.92
   3   7   6   13.17    1.00
   3   7   6   11.70    0.88
  -3  -7  -6   16.71    1.10
   3   7   6   16.04    1.08
   3   7   6   14.50    1.11
   3   7   6   16.89    1.19
  -3  -7  -7   42.69    2.15
   3   7   7   40.26    1.70
   3   7   7   40.91    1.96
  -3  -7  -8   14.25    1.16
   3   7   8   13.94    0.93
   3   7   8   12.80    1.05
  -3  -7  -8   13.89    1.14
   3   7   9   47.03    1.74
   3   7   9   46.80    2.00
  -3  -7  -9   47.89    1.97
   3   7   9   43.92    1.80
  -3  -7  -9   46.85    2.10
   3   7  10   68.01    2.03
   3   7  10   71.46    2.30
  -3  -7 -10   70.35    2.17
  -3  -7 -10   74.42    2.47
  -3  -8   6   22.26    1.05
   3   8  -6   25.44    1.27
   3   8  -6   24.62    1.11
  -3  -8   6   25.81    1.12
  -3  -8   6   24.86    1.24
  -3  -8   5   20.58    1.07
   3   8  -5   16.64    1.08
   3   8  -5   18.22    1.28
   3   8  -5   17.46    1.20
  -3  -8   5   17.65    1.13
  -3  -8   4   27.27    1.28
  -3  -8   4   26.03    1.31
  -3  -8   4   26.30    1.54
   3   8  -4   29.98    1.64
   3   8  -4   26.71    1.67
   3   8  -3    6.36    0.60
   3   8  -3    6.14    0.59
  -3  -8   3    6.12    0.57
   3   8  -3    6.65    0.86
  -3  -8   3    6.22    0.79
   3   8  -3    5.15    0.76
   3   8  -3    6.22    0.83
   3   8  -2   25.76    1.34
   3   8  -2   23.18    1.29
   3   8  -2   23.56    1.63
  -3  -8   2   24.32    1.55
   3   8  -2   22.72    1.64
   3   8  -2   23.44    1.55
   3   8  -1   36.99    2.03
   3   8  -1   37.01    1.55
   3   8  -1   37.40    1.77
  -3  -8   1   37.50    1.95
   3   8  -1   36.70    2.16
   3   8  -1   42.10    2.00
   3   8   0  104.25    3.12
   3   8   0  106.58    3.40
   3   8   0  106.28    3.63
  -3  -8   0  100.77    3.45
   3   8   0   99.67    3.88
   3   8   0   93.03    3.33
   3   8   1  120.87    3.71
   3   8   1  108.89    3.36
  -3  -8  -1  116.86    3.78
   3   8   1  112.34    3.71
  -3  -8  -1  112.63    3.58
   3   8   1  104.73    4.09
   3   8   1  119.34    3.54
   3   8   1  114.27    3.66
   3   8   2   39.03    1.87
   3   8   2   36.01    1.81
   3   8   2   35.76    1.68
   3   8   2   36.51    1.72
  -3  -8  -2   37.68    1.91
   3   8   2   33.82    1.75
  -3  -8  -2   38.39    1.75
   3   8   2   37.32    1.84
  -3  -8  -3   28.26    1.33
   3   8   3   25.90    1.49
   3   8   3   27.19    1.42
   3   8   3   23.85    1.37
  -3  -8  -3   25.04    1.50
   3   8   3   24.20    1.54
   3   8   3   23.56    1.48
   3   8   4   79.92    2.89
   3   8   4   82.51    2.72
   3   8   4   84.12    2.83
  -3  -8  -4   82.66    2.94
   3   8   4   83.40    3.00
   3   8   5   67.91    2.57
   3   8   5   71.66    2.42
   3   8   5   65.41    2.48
   3   8   5   70.08    2.61
  -3  -8  -5   66.76    2.50
   3   8   5   66.89    2.67
   3   8   6   78.31    2.61
   3   8   6   78.08    2.79
   3   8   6   83.88    2.86
  -3  -8  -6   81.66    2.64
   3   8   6   80.39    2.82
   3   8   7   20.06    1.13
   3   8   7   18.82    1.21
  -3  -8  -7   17.95    1.29
  -3  -8  -8    0.51    0.29
   3   8   8    0.93    0.33
   3   8   8    1.04    0.32
  -3  -8  -8    0.79    0.33
  -3  -8  -9    2.16    0.37
   3   8   9    2.03    0.35
   3   8   9    2.70    0.36
  -3  -8  -9    2.18    0.43
   3   8   9    2.76    0.45
   3   8  10   48.79    1.35
   3   8  10   51.84    1.62
   3   9  -5   59.88    2.21
   3   9  -5   57.46    1.99
  -3  -9   5   58.20    1.98
  -3  -9   4   28.35    1.23
   3   9  -4   30.23    1.52
  -3  -9   4   28.06    1.45
   3   9  -4   27.83    1.33
   3   9  -4   28.72    1.58
   3   9  -3   18.38    0.94
  -3  -9   3   18.97    1.13
   3   9  -3   18.73    1.30
  -3  -9   3   19.54    1.27
   3   9  -3   17.14    1.15
   3   9  -3   18.66    1.32
   3   9  -3   17.12    0.92
   3   9  -2    1.68    0.37
  -3  -9   2    1.73    0.43
   3   9  -2    1.67    0.39
   3   9  -2    2.05    0.56
  -3  -9   2    1.73    0.44
   3   9  -2    2.21    0.52
   3   9  -2    2.01    0.50
   3   9  -1    1.17    0.38
   3   9  -1    1.35    0.40
  -3  -9   1    1.20    0.39
   3   9  -1    0.84    0.42
  -3  -9   1    0.71    0.34
   3   9  -1    0.93    0.44
   3   9  -1    0.84    0.42
   3   9   0  169.35    4.74
  -3  -9   0  170.29    4.90
   3   9   0  163.46    4.96
   3   9   0  160.45    4.67
  -3  -9   0  168.36    4.76
   3   9   0  160.61    4.77
   3   9   0  162.58    4.79
   3   9   1   58.94    2.45
   3   9   1   53.57    2.36
   3   9   1   56.83    1.99
  -3  -9  -1   57.32    2.47
   3   9   1   56.25    2.47
  -3  -9  -1   59.89    2.35
   3   9   1   57.72    2.46
   3   9   2    1.88    0.47
   3   9   2    2.23    0.49
   3   9   2    2.70    0.55
  -3  -9  -2    2.58    0.52
  -3  -9  -2    2.82    0.47
   3   9   2    2.09    0.49
   3   9   3    2.89    0.54
   3   9   3    3.61    0.60
   3   9   3    3.16    0.56
  -3  -9  -3    3.21    0.56
  -3  -9  -3    4.67    0.53
   3   9   3    3.04    0.57
   3   9   4   62.38    2.50
   3   9   4   56.82    2.22
   3   9   4   62.65    2.33
  -3  -9  -4   62.85    2.41
   3   9   4   61.58    2.50
   3   9   4   63.45    2.53
   3   9   5   89.31    3.08
   3   9   5   93.98    3.12
   3   9   5   82.97    2.75
   3   9   5   83.12    2.78
  -3  -9  -5   89.08    2.83
   3   9   5   87.00    3.04
   3   9   6   23.22    1.35
   3   9   6   25.27    1.41
   3   9   6   24.01    1.26
   3   9   6   26.43    1.32
   3   9   6   25.11    1.44
  -3  -9  -7    5.40    0.63
   3   9   7    4.96    0.52
   3   9   7    5.31    0.55
   3   9   7    4.86    0.59
  -3  -9  -8    3.74    0.47
   3   9   8    4.54    0.46
  -3  -9  -8    4.23    0.53
   3   9   8    4.02    0.49
   3   9   9    1.00    0.22
   3  10  -4   36.40    1.48
   3  10  -3    8.86    0.75
  -3 -10   3    7.90    0.63
   3  10  -3    9.57    0.75
  -3 -10   3    8.58    0.72
   3  10  -3    8.62    0.78
   3  10  -2    3.90    0.45
   3  10  -2    3.39    0.42
  -3 -10   2    3.31    0.48
   3  10  -2    3.78    0.55
  -3 -10   2    3.31    0.50
   3  10  -2    3.89    0.57
   3  10  -1    0.84    0.30
   3  10  -1    1.00    0.33
  -3 -10   1    0.61    0.29
   3  10  -1    0.83    0.37
  -3 -10   1    0.74    0.31
   3  10  -1    1.02    0.36
   3  10   0   65.36    2.42
   3  10   0   64.64    2.41
  -3 -10   0   62.50    2.30
  -3 -10   0   63.55    2.43
   3  10   0   63.63    2.42
   3  10   1  185.04    5.10
   3  10   1  181.46    5.08
  -3 -10  -1  194.06    5.16
  -3 -10  -1  190.38    4.79
   3  10   1  201.77    5.06
   3  10   1  193.69    5.19
   3  10   2   22.50    1.39
   3  10   2   22.26    1.38
  -3 -10  -2   22.87    1.36
  -3 -10  -2   23.94    1.12
   3  10   2   22.35    1.24
   3  10   2   23.18    1.40
   3  10   3   15.11    1.13
   3  10   3   13.46    0.95
  -3 -10  -3   14.35    1.02
   3  10   3   15.98    1.16
   3  10   3   15.37    0.93
   3  10   3   14.73    1.09
   3  10   4   19.36    1.12
   3  10   4   22.06    1.32
   3  10   4   21.10    1.29
  -3 -10  -4   19.03    1.10
   3  10   4   19.27    1.21
   3  10   5   23.88    1.33
   3  10   5   22.75    1.30
   3  10   5   20.36    1.10
  -3 -10  -5   20.75    0.98
   3  10   5   21.07    1.20
  -3 -10  -6   54.55    2.04
   3  10   6   58.16    1.88
   3  10   6   57.85    2.02
   3  10   7   29.82    1.06
   3  10   7   30.22    1.22
   3  11  -1    0.29    0.19
  -3 -11   1    0.16    0.15
   3  11  -1    0.43    0.20
   3  11  -1    0.40    0.21
   3  11   0   23.53    1.15
   3  11   0   22.18    1.12
  -3 -11   0   23.07    1.14
  -3 -11   0   22.04    0.95
   3  11   0   21.75    1.04
   3  11   1   35.13    1.52
  -3 -11  -1   30.78    1.38
   3  11   1   33.72    1.29
   3  11   1   34.94    1.51
   3  11   2   39.77    1.66
  -3 -11  -2   35.02    1.46
   3  11   2   39.00    1.65
   3  11   3    1.54    0.34
   3  11   3    2.01    0.39
  -3 -11  -3    1.44    0.31
   3  11   3    1.48    0.33
   3  11   4    0.33    0.24
   3  11   4    0.67    0.26
   3  11   4    0.87    0.25
   3  11   5   55.05    1.82
   3  11   5   58.62    1.86
   3  11   5   56.54    1.73
  -4   7   3    5.21    0.44
  -4   7   2    0.66    0.22
  -4   7   2    0.77    0.23
  -4   7   1    9.24    0.63
  -4   7   1   10.68    0.79
  -4   7   0   32.28    1.51
  -4   7  -1   33.94    1.55
  -4   7  -2   22.28    1.19
   4  -7   2   22.03    1.05
  -4   7  -2   23.81    1.21
  -4   7  -3    1.76    0.35
  -4   7  -3    1.54    0.32
   4  -7   3    1.20    0.28
  -4   7  -4    1.42    0.31
   4  -7   4    0.69    0.22
  -4   7  -5   37.59    1.34
  -4   6   5   15.23    0.74
  -4   6   4   99.54    3.10
  -4   6   4  102.92    2.67
  -4   6   3   48.02    2.05
  -4   6   3   52.23    1.66
  -4   6   2   12.11    0.99
  -4   6   2   13.17    0.95
  -4   6   1    2.05    0.46
  -4   6   1    1.83    0.42
  -4   6   1    1.96    0.47
  -4   6   0   21.32    1.33
  -4   6   0   23.19    1.43
  -4   6   0   21.59    1.41
  -4   6   0   22.71    1.40
  -4   6  -1   58.34    2.41
  -4   6  -1   57.36    2.22
  -4   6  -1   56.34    2.37
  -4   6  -1   55.41    2.26
  -4   6  -2   66.21    2.32
  -4   6  -2   68.27    2.58
  -4   6  -2   68.82    2.56
  -4   6  -2   64.96    2.44
  -4   6  -3   33.95    1.45
  -4   6  -3   36.66    1.71
  -4   6  -3   35.88    1.66
  -4   6  -3   34.23    1.65
  -4   6  -4    1.03    0.34
  -4   6  -4    1.32    0.28
  -4   6  -4    1.11    0.32
   4  -6   4    1.01    0.32
  -4   6  -5    1.70    0.35
   4  -6   5    1.81    0.37
   4  -6   6   88.77    2.61
  -4   6  -6   91.71    2.61
  -4   6  -7   57.18    1.70
  -4   5   6    0.40    0.19
  -4   5   5    2.76    0.53
  -4   5   5    2.36    0.40
  -4   5   4   89.32    3.18
  -4   5   4   79.75    2.60
  -4   5   3   61.40    2.64
  -4   5   3   58.28    2.13
  -4   5   3   57.05    2.05
  -4   5   3   55.83    2.23
  -4   5   2    1.86    0.55
  -4   5   2    1.23    0.37
  -4   5   2    1.31    0.31
  -4   5   2    1.37    0.45
  -4   5   1   11.37    1.12
  -4   5   1   11.78    1.05
  -4   5   1   11.44    1.12
  -4   5   0    9.46    1.00
  -4   5   0   11.02    1.11
  -4   5   0   11.16    1.05
  -4   5   0   10.46    1.01
  -4   5  -1  123.82    4.02
  -4   5  -1  126.66    4.13
  -4   5  -1  128.23    4.06
  -4   5  -1  123.68    3.88
  -4   5  -2   33.08    1.72
  -4   5  -2   31.70    1.78
  -4   5  -2   29.62    1.70
   4  -5   2   30.19    1.28
  -4   5  -2   31.26    1.64
  -4   5  -3   43.61    1.89
  -4   5  -3   45.39    2.07
   4  -5   3   44.15    1.62
  -4   5  -3   41.17    2.00
  -4   5  -3   40.92    1.88
  -4   5  -4    8.05    0.72
  -4   5  -4    7.56    0.77
  -4   5  -4    7.94    0.78
   4  -5   4    9.74    0.70
  -4   5  -4    7.98    0.79
  -4   5  -5    6.01    0.59
  -4   5  -5    5.34    0.57
  -4   5  -5    7.21    0.61
   4  -5   5    5.14    0.51
  -4   5  -5    6.27    0.61
  -4   5  -5    6.35    0.68
  -4   5  -6   68.54    2.13
  -4   5  -6   74.16    2.31
   4  -5   6   71.78    2.57
  -4   5  -6   73.54    2.45
  -4   5  -7   57.00    1.90
   4  -5   7   57.70    2.07
  -4   5  -7   58.82    1.97
  -4   5  -8    1.19    0.24
   4  -5   8    1.03    0.25
  -4   5  -8    1.28    0.25
  -4   4   7   21.23    1.15
  -4   4   6   17.66    1.21
  -4   4   6   19.16    1.20
  -4   4   5    0.98    0.42
  -4   4   5    1.29    0.39
  -4   4   4   17.11    1.32
  -4   4   4   15.26    1.11
  -4   4   3  189.07    5.41
  -4   4   3  176.41    4.67
  -4   4   3  175.29    4.90
  -4   4   3  178.24    4.69
  -4   4   2   13.73    1.20
  -4   4   2   14.95    1.30
  -4   4   2   14.72    1.08
  -4   4   2   13.47    0.91
  -4   4   1   15.82    1.31
  -4   4   1   17.74    1.42
  -4   4   1   16.97    1.22
  -4   4   1   14.47    0.86
  -4   4   0   43.65    2.24
  -4   4   0   42.23    2.22
  -4   4   0   42.28    2.06
  -4   4   0   47.31    2.12
  -4   4  -1    5.77    0.82
  -4   4  -1    6.12    0.76
  -4   4  -1    5.84    0.80
  -4   4  -1    7.91    0.81
  -4   4  -2   63.26    2.66
  -4   4  -2   65.19    2.61
  -4   4  -2   58.70    2.55
  -4   4  -2   66.79    2.44
  -4   4  -3   53.55    2.34
  -4   4  -3   48.18    2.12
  -4   4  -3   54.55    2.28
  -4   4  -3   53.71    1.87
   4  -4   3   50.61    1.98
  -4   4  -3   52.67    2.10
  -4   4  -4   22.09    1.36
  -4   4  -4   23.55    1.34
  -4   4  -4   21.96    1.32
   4  -4   4   24.31    1.32
  -4   4  -4   22.72    1.23
  -4   4  -4   22.97    1.31
  -4   4  -5    2.13    0.44
  -4   4  -5    2.02    0.42
  -4   4  -5    2.36    0.42
  -4   4  -5    3.40    0.52
   4  -4   5    2.57    0.45
  -4   4  -5    2.58    0.43
  -4   4  -6    2.26    0.42
  -4   4  -6    2.05    0.40
   4  -4   6    1.49    0.35
   4  -4   6    1.55    0.42
  -4   4  -6    2.35    0.46
  -4   4  -7  100.70    3.23
  -4   4  -7  103.18    3.02
   4  -4   7  106.28    3.10
   4  -4   7  110.40    3.37
   4  -4   7  108.07    2.77
  -4   4  -7  109.97    3.14
  -4   4  -8   35.46    1.58
  -4   4  -8   34.22    1.33
   4  -4   8   34.50    1.41
   4  -4   8   38.07    1.55
   4  -4   8   36.71    1.31
  -4   4  -8   35.24    1.42
   4  -4   9   15.15    0.76
  -4   4  -9   16.41    0.92
   4  -4   9   16.28    0.71
  -4   4  -9   14.83    0.74
  -4   3   8    1.46    0.36
  -4   3   7   15.91    1.17
  -4   3   6   61.13    2.46
  -4   3   6   65.30    2.65
  -4   3   5   39.91    1.99
  -4   3   5   42.00    2.06
  -4   3   4   29.84    1.72
  -4   3   4   31.39    1.69
  -4   3   3   42.96    1.68
  -4   3   3   40.49    1.90
  -4   3   3   45.51    2.19
  -4   3   3   39.84    1.81
  -4   3   2   14.73    0.93
  -4   3   2   15.69    1.24
  -4   3   2   13.07    0.99
  -4   3   2   16.01    1.00
  -4   3   2   13.53    1.15
  -4   3   1   20.57    1.10
  -4   3   1   24.34    1.57
  -4   3   1   20.51    1.27
  -4   3   1   20.61    1.06
  -4   3   1   21.29    1.33
  -4   3   1   20.32    1.45
  -4   3   0   45.11    1.73
  -4   3   0   40.90    2.12
  -4   3   0   42.54    1.93
  -4   3   0   47.41    1.96
  -4   3   0   44.44    2.18
  -4   3  -1  149.25    4.58
  -4   3  -1  157.78    4.41
  -4   3  -1  161.52    4.71
  -4   3  -1  154.64    4.18
  -4   3  -2   15.67    1.16
  -4   3  -2   13.77    1.06
  -4   3  -2   15.20    0.91
   4  -3   2   14.21    0.86
  -4   3  -2   14.32    1.15
  -4   3  -2   14.35    0.96
  -4   3  -3   12.79    0.88
  -4   3  -3   11.35    0.94
  -4   3  -3   12.05    0.96
   4  -3   3   12.40    0.77
  -4   3  -3   11.90    1.02
  -4   3  -3   12.51    0.87
  -4   3  -4   71.57    2.49
   4  -3   4   67.31    2.52
  -4   3  -4   67.70    2.41
   4  -3   4   74.89    2.18
  -4   3  -4   73.17    2.64
  -4   3  -4   69.24    2.35
  -4   3  -5   30.65    1.51
  -4   3  -5   30.32    1.44
   4  -3   5   31.78    1.64
  -4   3  -6   48.06    1.72
  -4   3  -6   45.90    1.70
   4  -3   6   47.82    2.11
  -4   3  -6   44.40    1.65
   4  -3   6   47.88    1.68
  -4   3  -6   48.27    1.90
  -4   3  -7   79.54    2.53
  -4   3  -7   73.90    2.40
   4  -3   7   79.20    2.80
   4  -3   7   78.66    2.81
  -4   3  -7   76.08    2.35
   4  -3   7   77.57    2.42
   4  -3   8    4.35    0.51
  -4   3  -8    4.41    0.50
   4  -3   8    5.34    0.63
   4  -3   8    4.55    0.57
  -4   3  -8    4.94    0.49
  -4   3  -8    5.22    0.54
  -4   3  -9    6.22    0.67
   4  -3   9    4.45    0.53
   4  -3   9    5.57    0.53
   4  -3   9    4.73    0.50
  -4   3  -9    5.28    0.43
  -4   3  -9    5.91    0.50
  -4   3 -10   22.05    1.10
   4  -3  10   20.90    0.93
   4  -3  10   21.18    0.92
  -4   3 -10   21.88    0.79
  -4   2   8    1.17    0.39
   4  -2  -8    1.73    0.35
  -4   2   7   13.66    1.19
  -4   2   7   12.68    0.88
   4  -2  -7   12.52    0.75
  -4   2   6   27.60    1.55
  -4   2   6   29.00    1.43
   4  -2  -6   29.03    1.27
  -4   2   6   31.14    1.89
  -4   2   5   55.82    2.56
  -4   2   5   54.44    2.32
  -4   2   5   58.81    2.09
   4  -2  -5   56.84    1.89
  -4   2   4   21.07    1.38
  -4   2   4   27.97    1.61
  -4   2   3   50.02    1.97
  -4   2   3   51.57    2.19
  -4   2   3   50.28    2.08
  -4   2   3   50.20    2.10
  -4   2   2   19.59    1.15
  -4   2   2   19.41    1.27
  -4   2   2   17.80    1.09
  -4   2   2   19.25    1.10
  -4   2   2   17.76    1.28
  -4   2   2   18.23    1.28
  -4   2   1    1.35    0.37
  -4   2   1    0.95    0.39
  -4   2   1    1.58    0.32
  -4   2   1    1.02    0.31
  -4   2   1    0.83    0.37
  -4   2   1    1.07    0.40
  -4   2   0   41.13    1.72
  -4   2   0   44.24    1.97
  -4   2   0   39.49    1.72
  -4   2   0   44.01    2.03
  -4   2   0   43.94    2.03
  -4   2   0   40.34    1.67
  -4   2  -1  157.18    3.95
  -4   2  -1  154.07    4.47
  -4   2  -1  169.55    4.36
  -4   2  -1  163.92    4.01
  -4   2  -1  171.08    4.68
  -4   2  -1  164.20    4.64
   4  -2   1  163.97    3.91
  -4   2  -1  162.08    4.07
  -4   2  -2   11.20    0.92
  -4   2  -2   11.27    0.86
  -4   2  -2   12.17    0.82
  -4   2  -2   10.81    0.94
  -4   2  -2   10.36    0.92
  -4   2  -2   10.42    0.72
  -4   2  -3   17.27    1.07
   4  -2   3   18.12    1.01
  -4   2  -3   17.77    1.05
  -4   2  -3   16.09    1.13
  -4   2  -3   17.49    1.18
  -4   2  -3   19.22    0.98
  -4   2  -4   47.41    1.83
   4  -2   4   45.13    1.73
  -4   2  -4   47.35    1.97
  -4   2  -4   44.22    1.93
  -4   2  -4   46.68    1.68
  -4   2  -5  115.15    3.10
  -4   2  -5  103.68    2.92
   4  -2   5  112.39    3.53
   4  -2   5  114.20    3.18
  -4   2  -5  111.89    3.28
  -4   2  -6   29.18    1.32
  -4   2  -6   27.40    1.30
   4  -2   6   26.01    1.54
   4  -2   6   24.93    1.27
  -4   2  -6   25.93    1.18
   4  -2   6   29.38    1.31
  -4   2  -6   28.61    1.27
  -4   2  -7   45.40    1.75
  -4   2  -7   47.16    1.90
   4  -2   7   47.22    2.17
   4  -2   7   48.30    2.05
   4  -2   7   49.37    1.81
  -4   2  -7   49.13    1.78
   4  -2   7   49.59    1.90
  -4   2  -8   10.26    0.74
   4  -2   8   10.38    0.94
  -4   2  -8    9.07    0.79
   4  -2   8    9.88    0.82
   4  -2   8    9.58    0.71
  -4   2  -8    9.75    0.73
   4  -2   8    9.65    0.81
   4  -2   9    0.51    0.26
  -4   2  -9    0.24    0.19
  -4   2  -9    0.34    0.23
   4  -2   9    0.21    0.24
   4  -2   9    0.20    0.18
  -4   2  -9    0.28    0.19
  -4   2 -10   13.83    0.96
  -4   2 -10   13.09    0.80
   4  -2  10   13.95    0.90
   4  -2  10   13.12    0.85
  -4   2 -10   12.99    0.67
  -4   2 -10   13.51    0.66
   4  -1  -8   15.75    1.04
  -4   1   8   15.71    1.18
  -4   1   8   14.67    1.07
   4  -1  -8   14.13    0.83
  -4   1   8   14.24    0.93
  -4   1   7   22.54    1.61
  -4   1   7   22.66    1.46
   4  -1  -7   20.42    1.14
  -4   1   7   18.50    1.22
  -4   1   6   38.05    1.76
  -4   1   6   37.93    1.81
  -4   1   6   39.82    2.23
   4  -1  -6   39.89    1.69
  -4   1   6   35.83    1.79
  -4   1   5   41.37    1.86
  -4   1   5   42.15    1.89
  -4   1   5   47.65    2.37
   4  -1  -5   41.39    1.70
  -4   1   5   40.42    1.86
  -4   1   4  126.67    3.69
  -4   1   4  124.48    3.68
  -4   1   4  125.86    3.64
  -4   1   4  129.14    4.07
   4  -1  -4  128.76    3.37
  -4   1   3   22.56    1.25
  -4   1   3   21.49    1.24
  -4   1   3   21.54    1.16
  -4   1   3   24.31    1.37
  -4   1   3   22.49    1.29
   4  -1  -3   23.25    1.00
  -4   1   3   22.91    1.29
  -4   1   2    6.40    0.65
  -4   1   2    6.78    0.66
  -4   1   2    6.04    0.61
  -4   1   2    4.84    0.65
  -4   1   2    6.70    0.74
  -4   1   1    0.97    0.26
  -4   1   1    1.22    0.35
  -4   1   1    1.11    0.33
  -4   1   1    1.11    0.30
  -4   1   1    1.07    0.27
  -4   1   1    1.62    0.42
  -4   1   1    1.74    0.43
  -4   1   0   28.97    1.20
  -4   1   0   27.68    1.37
  -4   1   0   27.73    1.29
  -4   1   0   23.44    1.10
   4  -1   0   27.01    1.02
  -4   1   0   28.28    1.47
   4  -1   0   25.98    1.11
  -4   1   0   28.01    1.48
  -4   1   0   26.53    1.09
  -4   1  -1  473.28   10.30
  -4   1  -1  485.17   10.09
  -4   1  -1  491.11    9.94
  -4   1  -1  509.65   10.15
  -4   1  -1  508.40   10.49
  -4   1  -1  486.20   10.45
   4  -1   1  446.66    9.74
   4  -1   1  463.97    9.98
  -4   1  -1  484.82    9.52
  -4   1  -2   76.36    2.36
  -4   1  -2   72.79    2.30
  -4   1  -2   73.56    2.43
  -4   1  -2   72.21    2.50
  -4   1  -2   76.23    2.57
   4  -1   2   69.80    2.12
   4  -1   2   76.56    2.21
  -4   1  -2   70.62    2.01
  -4   1  -3    5.97    0.58
   4  -1   3    5.94    0.60
  -4   1  -3    6.22    0.67
  -4   1  -3    7.61    0.72
  -4   1  -3    7.98    0.74
  -4   1  -3    6.57    0.62
   4  -1   3    6.85    0.50
  -4   1  -4   39.48    1.57
  -4   1  -4   41.62    1.34
   4  -1   4   42.35    1.68
  -4   1  -4   39.95    1.82
  -4   1  -4   38.03    1.67
  -4   1  -4   40.02    1.72
  -4   1  -4   39.11    1.29
  -4   1  -5   21.54    0.94
  -4   1  -5   20.43    1.02
   4  -1   5   20.03    1.26
   4  -1   5   22.60    1.23
  -4   1  -5   25.01    1.46
  -4   1  -5   23.52    1.21
  -4   1  -5   22.63    1.19
   4  -1   5   23.14    0.99
  -4   1  -6  138.67    3.49
  -4   1  -6  148.16    3.87
   4  -1   6  139.26    4.26
   4  -1   6  148.24    4.03
  -4   1  -6  148.42    3.68
  -4   1  -6  143.10    3.58
   4  -1   6  140.27    3.76
  -4   1  -6  146.83    3.68
  -4   1  -7   49.57    1.70
   4  -1   7   48.34    2.21
  -4   1  -7   45.83    1.93
   4  -1   7   47.81    1.94
   4  -1   7   49.07    2.01
  -4   1  -7   47.67    1.76
   4  -1   7   49.79    1.95
  -4   1  -8   10.72    0.72
  -4   1  -8   10.83    0.90
   4  -1   8    9.33    0.77
   4  -1   8   10.06    0.83
   4  -1   8   10.06    0.99
  -4   1  -8   10.28    0.78
   4  -1   8   10.25    0.88
   4  -1   9    1.37    0.36
  -4   1  -9    1.58    0.30
  -4   1  -9    1.78    0.40
   4  -1   9    1.33    0.39
   4  -1   9    1.98    0.39
  -4   1  -9    2.28    0.38
   4  -1  10    0.39    0.25
  -4   1 -10    0.78    0.27
   4  -1  10    0.69    0.30
   4  -1  10    0.24    0.19
  -4   1 -10    0.73    0.33
  -4   1 -10    0.94    0.24
  -4   1 -11  107.27    2.92
  -4   1 -11  107.64    2.83
   4  -1  11  109.88    2.94
   4  -1  11  105.00    2.91
  -4   0   9   77.61    2.28
  -4   0   9   74.48    2.49
   4   0  -9   76.93    2.37
  -4   0   9   71.74    2.29
   4   0  -8   75.24    2.68
  -4   0   8   75.61    2.82
   4   0  -8   73.18    2.40
  -4   0   8   70.72    2.82
  -4   0   8   73.74    2.68
  -4   0   7    0.15    0.42
   4   0  -7    0.53    0.28
  -4   0   7    0.50    0.40
  -4   0   6    2.65    0.52
  -4   0   6    2.81    0.71
   4   0  -6    2.37    0.47
  -4   0   6    2.87    0.58
  -4   0   5   37.88    1.64
  -4   0   5   31.16    1.65
  -4   0   5   32.88    1.99
  -4   0   5   35.24    1.87
   4   0  -5   35.64    1.64
  -4   0   4  128.64    3.81
  -4   0   4  133.86    3.62
  -4   0   4  131.19    3.76
  -4   0   4  139.01    4.16
   4   0  -4  132.93    3.63
  -4   0   3   72.17    2.42
  -4   0   3   72.56    2.29
  -4   0   3   70.82    2.62
  -4   0   3   64.74    2.35
   4   0  -3   70.48    2.17
  -4   0   3   66.02    2.39
  -4   0   2   92.63    2.75
  -4   0   2   87.79    2.59
  -4   0   2   87.26    2.88
  -4   0   2   86.34    2.62
  -4   0   2   83.97    2.84
   4   0  -2   88.72    2.32
  -4   0   1    0.13    0.21
  -4   0   1    0.50    0.26
  -4   0   1    0.36    0.25
   4   0  -1    0.80    0.28
  -4   0   1    0.25    0.25
  -4   0   1    0.19    0.19
  -4   0   1    0.44    0.29
   4   0  -1    0.16    0.18
   4   0   0    0.33    0.18
  -4   0   0    0.74    0.30
  -4   0   0    1.05    0.32
  -4   0   0    1.26    0.26
  -4   0   0    1.42    0.34
  -4   0   0    1.48    0.35
   4   0   0    0.52    0.22
  -4   0   0    0.98    0.21
  -4   0  -1  336.03    6.58
  -4   0  -1  338.14    7.43
  -4   0  -1  334.55    7.07
   4   0   1  316.28    6.71
  -4   0  -1  331.41    7.36
  -4   0  -1  336.73    7.41
   4   0   1  319.66    7.12
  -4   0  -1  332.77    6.91
   4   0   1  317.11    7.19
   4   0   1  307.79    7.06
  -4   0  -2  320.59    6.66
  -4   0  -2  327.18    7.35
  -4   0  -2  330.81    7.19
  -4   0  -2  321.78    7.29
  -4   0  -2  324.85    7.42
   4   0   2  314.98    7.06
  -4   0  -2  326.65    6.92
   4   0   2  340.24    7.12
   4   0   2  327.40    6.96
   4   0   3    1.11    0.21
  -4   0  -3    1.40    0.33
  -4   0  -3    0.76    0.28
   4   0   3    1.52    0.34
  -4   0  -3    1.40    0.34
  -4   0  -3    1.04    0.21
  -4   0  -3    2.17    0.39
  -4   0  -3    0.82    0.24
   4   0   3    1.53    0.29
   4   0   3    1.38    0.27
  -4   0  -4    7.45    0.67
  -4   0  -4    8.07    0.54
   4   0   4    8.07    0.69
  -4   0  -4    7.85    0.75
  -4   0  -4    7.67    0.68
  -4   0  -4    7.39    0.66
   4   0   4    6.44    0.54
   4   0   4    7.19    0.50
  -4   0  -5    7.06    0.59
   4   0   5    7.79    0.75
   4   0   5    6.99    0.69
  -4   0  -5    7.06    0.75
  -4   0  -5    7.06    0.62
  -4   0  -5    7.41    0.65
   4   0   5    7.55    0.55
   4   0   5    6.00    0.52
  -4   0  -6   63.57    2.24
   4   0   6   66.09    2.54
   4   0   6   65.49    2.43
  -4   0  -6   65.89    2.56
  -4   0  -6   71.20    2.09
  -4   0  -6   65.33    2.05
  -4   0  -6   67.88    2.04
   4   0   6   64.38    2.18
   4   0   6   66.18    2.05
  -4   0  -7   88.35    2.90
   4   0   7   85.35    3.14
   4   0   7   86.18    2.64
   4   0   7   88.14    3.00
  -4   0  -7   86.69    3.10
  -4   0  -7   85.51    2.59
   4   0   7   89.13    2.83
  -4   0  -8   31.40    1.62
   4   0   8   30.55    1.76
   4   0   8   28.18    1.57
  -4   0  -8   28.47    1.37
   4   0   8   31.60    1.62
   4   0   9    1.67    0.46
  -4   0  -9    2.15    0.45
   4   0   9    1.46    0.44
   4   0   9    1.46    0.40
  -4   0  -9    1.75    0.36
   4   0  10    1.68    0.40
  -4   0 -10    2.64    0.48
  -4   0 -10    1.30    0.34
   4   0  10    1.01    0.33
   4   0  10    1.35    0.34
   4   0  10    1.79    0.36
  -4   0 -10    1.63    0.33
  -4   0 -11   96.19    2.71
  -4   0 -11   93.37    2.70
   4   0  11  101.90    2.85
   4   0  11   91.49    2.52
   4   0  11   96.06    2.84
  -4   0 -11   89.66    2.42
   4   1  -9   41.69    1.65
  -4  -1   9   43.34    1.51
  -4  -1   9   44.13    1.81
   4   1  -9   44.94    1.73
   4   1  -9   41.02    1.51
  -4  -1   9   44.83    1.74
   4   1  -8  121.26    3.74
  -4  -1   8  124.52    3.78
   4   1  -8  113.58    3.79
   4   1  -8  118.76    3.49
  -4  -1   8  122.48    3.73
  -4  -1   7    2.61    0.54
   4   1  -7    3.45    0.63
  -4  -1   7    1.92    0.62
  -4  -1   7    2.00    0.47
   4   1  -7    2.40    0.49
  -4  -1   7    2.32    0.54
  -4  -1   6    5.13    0.70
  -4  -1   6    4.96    0.71
   4   1  -6    5.67    0.72
  -4  -1   5   18.42    1.02
  -4  -1   5   15.87    1.15
  -4  -1   5   19.30    1.37
   4   1  -5   19.37    1.24
  -4  -1   4   54.84    2.17
  -4  -1   4   57.01    1.89
  -4  -1   4   54.97    2.15
  -4  -1   4   56.30    2.36
   4   1  -4   56.60    2.14
  -4  -1   3  124.74    3.48
  -4  -1   3  123.62    3.07
  -4  -1   3  120.91    3.64
  -4  -1   3  111.37    3.40
  -4  -1   3  120.15    3.22
  -4  -1   3  117.05    3.41
   4   1  -3  125.55    3.36
  -4  -1   2   68.19    2.32
  -4  -1   2   72.45    2.01
  -4  -1   2   71.86    2.47
  -4  -1   2   76.73    2.54
  -4  -1   2   70.18    2.29
  -4  -1   2   77.42    2.53
   4   1  -2   75.21    2.19
  -4  -1   1   35.06    1.39
  -4  -1   1   33.60    1.40
   4   1  -1   34.61    1.50
  -4  -1   1   34.11    1.39
  -4  -1   1   37.09    1.57
  -4  -1   1   30.34    1.41
   4   1  -1   35.37    1.20
  -4  -1   1   33.89    1.22
  -4  -1   1   32.72    1.47
   4   1   0    0.37    0.23
  -4  -1   0    0.04    0.18
   4   1   0    0.00    0.21
  -4  -1   0    0.55    0.19
  -4  -1   0    0.63    0.19
  -4  -1   0    0.51    0.29
  -4  -1   0    0.17    0.20
   4   1   0    0.45    0.22
  -4  -1   0    0.22    0.17
   4   1   0    0.12    0.22
   4   1   1   86.64    2.50
   4   1   1   82.28    2.38
  -4  -1  -1   85.60    2.53
  -4  -1  -1   84.85    2.44
  -4  -1  -1   86.14    2.62
  -4  -1  -1   87.71    2.70
   4   1   1   86.74    2.56
  -4  -1  -1   91.03    2.45
   4   1   1   80.22    2.57
  -4  -1  -1   81.89    1.80
   4   1   1   85.64    2.50
   4   1   2  338.87    7.39
   4   1   2  336.86    7.04
  -4  -1  -2  357.84    7.44
  -4  -1  -2  356.86    7.50
  -4  -1  -2  346.88    7.53
  -4  -1  -2  330.02    7.62
   4   1   2  325.09    7.40
  -4  -1  -2  334.64    7.31
   4   1   2  348.17    7.43
  -4  -1  -2  340.17    6.64
   4   1   2  345.79    7.25
   4   1   2  337.50    6.88
   4   1   3   33.79    1.36
  -4  -1  -3   31.99    1.39
  -4  -1  -3   32.98    1.09
  -4  -1  -3   32.21    1.34
   4   1   3   32.85    1.42
   4   1   3   35.60    1.12
  -4  -1  -3   33.46    1.50
  -4  -1  -3   35.45    1.49
  -4  -1  -3   35.30    1.58
   4   1   3   30.80    1.35
  -4  -1  -3   35.65    1.41
   4   1   3   34.02    1.36
  -4  -1  -3   32.77    1.01
   4   1   3   33.39    1.24
   4   1   3   33.02    1.19
  -4  -1  -4   21.13    1.12
  -4  -1  -4   20.08    0.96
  -4  -1  -4   22.39    1.01
   4   1   4   18.64    1.07
  -4  -1  -4   21.05    1.13
  -4  -1  -4   21.80    1.23
  -4  -1  -4   20.89    1.10
  -4  -1  -4   21.48    1.21
   4   1   4   19.57    1.00
  -4  -1  -4   20.14    0.78
   4   1   4   18.82    0.89
  -4  -1  -5   16.03    1.00
   4   1   5   16.58    1.07
  -4  -1  -5   16.69    0.97
  -4  -1  -5   16.63    1.12
  -4  -1  -5   15.37    0.91
   4   1   5   15.73    0.84
   4   1   5   16.14    0.94
   4   1   5   16.05    1.03
  -4  -1  -5   17.14    0.96
  -4  -1  -6   36.55    1.62
   4   1   6   37.46    1.79
   4   1   6   34.94    1.73
  -4  -1  -6   37.17    1.78
  -4  -1  -6   35.01    1.36
  -4  -1  -6   36.21    1.36
  -4  -1  -6   38.34    1.43
   4   1   6   34.02    1.48
   4   1   6   35.96    1.52
  -4  -1  -7  103.12    3.26
   4   1   7  110.20    3.51
  -4  -1  -7   97.26    3.30
   4   1   7  100.94    3.45
  -4  -1  -7  102.59    2.97
   4   1   7  101.70    3.13
   4   1   7  103.15    3.01
  -4  -1  -8  152.62    4.34
   4   1   8  156.84    4.60
   4   1   8  148.45    4.43
  -4  -1  -8  151.08    4.28
  -4  -1  -8  145.97    3.97
   4   1   8  153.05    3.89
  -4  -1  -9   16.00    1.14
   4   1   9   16.39    1.23
  -4  -1  -9   15.76    1.17
   4   1   9   16.75    1.28
   4   1   9   15.04    1.14
  -4  -1  -9   14.69    0.99
  -4  -1 -10    6.05    0.66
  -4  -1 -10    5.54    0.68
   4   1  10    5.78    0.72
   4   1  10    5.41    0.67
   4   1  10    5.82    0.65
   4   1  10    6.74    0.76
  -4  -1 -10    5.08    0.55
  -4  -1 -11   28.94    1.22
  -4  -1 -11   30.64    1.40
   4   1  11   29.26    1.36
   4   1  11   28.36    1.31
   4   1  11   29.57    1.45
   4   1  11   30.02    1.30
  -4  -1 -11   25.11    1.13
   4   1  12  106.37    2.81
  -4  -2   9   14.80    0.74
  -4  -2   9   15.41    0.98
   4   2  -9   14.79    0.92
   4   2  -9   14.96    0.87
  -4  -2   9   16.20    0.96
   4   2  -8   69.39    2.57
  -4  -2   8   73.73    2.54
  -4  -2   8   65.18    2.36
   4   2  -8   63.38    2.59
   4   2  -8   65.73    2.42
  -4  -2   8   67.14    2.51
  -4  -2   7   55.60    2.33
   4   2  -7   57.08    2.55
  -4  -2   7   60.12    2.68
   4   2  -7   64.04    2.81
  -4  -2   7   56.37    2.39
   4   2  -7   61.77    2.48
  -4  -2   7   55.98    2.42
   4   2  -6    3.92    0.70
  -4  -2   6    4.07    0.65
  -4  -2   6    4.06    0.66
   4   2  -6    4.63    0.68
  -4  -2   5   26.56    1.53
   4   2  -5   28.34    1.71
  -4  -2   5   26.07    1.60
   4   2  -5   28.56    1.60
  -4  -2   4  111.57    3.43
  -4  -2   4  107.53    3.38
   4   2  -4  117.08    3.74
  -4  -2   4  111.21    3.58
   4   2  -4  114.43    3.45
  -4  -2   3    5.05    0.57
   4   2  -3    4.47    0.64
  -4  -2   3    4.55    0.59
  -4  -2   3    4.56    0.57
  -4  -2   3    4.79    0.52
   4   2  -3    5.15    0.60
  -4  -2   3    5.57    0.60
  -4  -2   2  300.53    6.72
   4   2  -2  306.02    7.12
  -4  -2   2  282.15    6.80
  -4  -2   2  309.46    6.87
  -4  -2   2  299.36    6.78
   4   2  -2  302.64    6.68
  -4  -2   1   39.39    1.50
  -4  -2   1   37.49    1.45
  -4  -2   1   36.22    1.44
  -4  -2   1   36.19    1.51
  -4  -2   1   36.74    1.23
  -4  -2   1   36.14    1.24
  -4  -2   1   37.14    1.57
  -4  -2   1   34.52    1.52
   4   2  -1   36.74    1.36
  -4  -2   1   34.97    1.30
   4   2  -1   39.59    1.66
  -4  -2   0    0.37    0.11
   4   2   0    0.63    0.22
   4   2   0    0.34    0.24
  -4  -2   0    0.49    0.23
  -4  -2   0    0.51    0.22
  -4  -2   0    0.68    0.24
  -4  -2   0    0.63    0.19
  -4  -2   0    0.26    0.23
  -4  -2   0    0.42    0.23
   4   2   0    0.49    0.16
   4   2   0    0.31    0.16
  -4  -2   0    0.59    0.18
  -4  -2   0    0.39    0.12
   4   2   0    0.42    0.24
  -4  -2  -1   18.33    0.72
   4   2   1   19.32    0.95
  -4  -2  -1   19.39    1.05
  -4  -2  -1   18.91    0.99
  -4  -2  -1   18.65    0.88
  -4  -2  -1   18.56    1.07
  -4  -2  -1   18.07    1.06
   4   2   1   18.03    0.98
   4   2   1   18.25    0.73
  -4  -2  -1   18.85    0.95
   4   2   1   18.62    1.05
   4   2   1   15.49    0.92
  -4  -2  -1   18.76    0.71
   4   2   1   18.78    0.96
   4   2   2   65.75    2.03
  -4  -2  -2   66.67    2.18
   4   2   2   66.08    2.00
  -4  -2  -2   65.63    2.19
  -4  -2  -2   62.19    2.20
  -4  -2  -2   65.25    2.26
   4   2   2   62.02    2.11
  -4  -2  -2   65.96    2.10
   4   2   2   61.02    2.08
  -4  -2  -2   68.16    1.75
   4   2   2   65.97    2.00
   4   2   2   63.79    1.85
   4   2   3   66.41    2.01
   4   2   3   67.83    1.98
  -4  -2  -3   67.22    1.95
  -4  -2  -3   67.62    2.16
   4   2   3   68.39    2.15
  -4  -2  -3   67.17    2.31
  -4  -2  -3   64.60    2.22
  -4  -2  -3   61.48    2.24
   4   2   3   65.11    2.15
  -4  -2  -3   64.73    2.15
   4   2   3   63.85    2.09
  -4  -2  -3   66.66    1.82
   4   2   3   62.08    1.94
   4   2   4   39.96    1.41
  -4  -2  -4   42.32    1.57
   4   2   4   39.23    1.43
  -4  -2  -4   43.94    1.67
  -4  -2  -4   43.53    1.56
   4   2   4   43.33    1.70
  -4  -2  -4   41.20    1.80
  -4  -2  -4   43.62    1.70
  -4  -2  -4   42.91    1.76
   4   2   4   42.21    1.63
  -4  -2  -4   42.81    1.39
   4   2   4   41.04    1.48
   4   2   5   24.90    1.07
  -4  -2  -5   23.10    1.21
  -4  -2  -5   25.02    1.26
   4   2   5   25.47    1.29
  -4  -2  -5   26.57    1.45
  -4  -2  -5   24.02    1.18
  -4  -2  -5   25.78    1.32
   4   2   5   26.88    1.41
   4   2   5   25.31    1.15
  -4  -2  -5   26.00    1.02
   4   2   5   24.45    1.26
  -4  -2  -6  118.52    3.54
   4   2   6  131.51    3.76
   4   2   6  128.29    3.84
  -4  -2  -6  118.46    3.11
  -4  -2  -6  112.93    3.60
  -4  -2  -6  116.24    3.38
  -4  -2  -6  117.44    3.07
   4   2   6  119.22    3.35
  -4  -2  -6  120.50    3.20
   4   2   6  124.19    3.54
  -4  -2  -7   14.89    1.02
   4   2   7   17.71    1.28
  -4  -2  -7   15.27    1.12
   4   2   7   16.66    1.27
  -4  -2  -7   14.54    1.09
   4   2   7   15.61    1.07
  -4  -2  -7   15.74    0.99
   4   2   7   15.15    1.06
   4   2   8   77.32    2.98
   4   2   8   73.70    2.94
  -4  -2  -8   70.62    2.59
   4   2   8   74.02    2.75
  -4  -2  -8   74.02    2.55
  -4  -2  -8   75.96    2.59
   4   2   8   72.19    2.58
  -4  -2  -8   70.72    2.75
  -4  -2  -9   86.08    3.16
   4   2   9  100.17    3.44
   4   2   9   99.34    3.49
  -4  -2  -9   95.11    2.96
   4   2   9   85.50    3.13
  -4  -2  -9   91.59    2.96
   4   2  10    3.81    0.62
  -4  -2 -10    6.23    0.60
  -4  -2 -10    5.10    0.66
   4   2  10    4.97    0.66
   4   2  10    4.99    0.69
  -4  -2 -10    4.71    0.57
   4   2  11    1.53    0.39
  -4  -2 -11    1.67    0.36
   4   2  11    2.00    0.36
   4   2  11    2.35    0.43
   4   2  11    1.44    0.33
  -4  -2 -11    1.75    0.31
  -4  -2 -12   29.51    1.18
   4   2  12   30.56    1.25
  -4  -3   9    4.14    0.47
  -4  -3   9    3.43    0.43
  -4  -3   8   28.38    1.34
  -4  -3   8   27.64    1.40
   4   3  -8   26.64    1.50
   4   3  -8   26.17    1.40
   4   3  -8   29.07    1.47
  -4  -3   8   27.88    1.45
  -4  -3   7   25.16    1.47
   4   3  -7   25.03    1.58
  -4  -3   7   23.47    1.46
   4   3  -7   25.34    1.65
   4   3  -7   25.98    1.56
  -4  -3   7   26.89    1.54
  -4  -3   6   26.30    1.54
   4   3  -6   26.44    1.70
   4   3  -6   25.01    1.74
   4   3  -6   23.57    1.54
  -4  -3   6   24.58    1.57
  -4  -3   5   15.57    1.18
  -4  -3   5   16.72    1.28
   4   3  -5   17.82    1.41
   4   3  -5   18.75    1.34
   4   3  -4  178.02    5.13
  -4  -3   4  172.12    4.71
  -4  -3   4  175.22    4.90
   4   3  -4  175.24    5.07
  -4  -3   4  172.62    4.39
   4   3  -4  178.48    4.91
  -4  -3   3    4.18    0.53
   4   3  -3    4.45    0.65
  -4  -3   3    3.96    0.56
   4   3  -3    3.88    0.59
  -4  -3   3    3.43    0.48
  -4  -3   3    4.96    0.57
   4   3  -3    3.52    0.54
  -4  -3   2   25.77    1.22
   4   3  -2   25.20    1.42
  -4  -3   2   24.33    1.26
   4   3  -2   22.99    1.23
  -4  -3   2   23.20    1.24
  -4  -3   2   25.03    1.26
   4   3  -2   24.30    1.26
  -4  -3   1   46.08    1.71
  -4  -3   1   46.04    1.62
   4   3  -1   45.27    1.89
  -4  -3   1   48.06    1.73
   4   3  -1   39.65    1.49
  -4  -3   1   46.08    1.56
  -4  -3   1   44.34    1.78
  -4  -3   1   46.70    1.79
   4   3  -1   45.58    1.68
  -4  -3   0   14.21    0.83
  -4  -3   0   13.08    0.84
   4   3   0   13.84    0.93
  -4  -3   0   13.69    0.79
  -4  -3   0   13.33    0.80
  -4  -3   0   12.86    0.89
  -4  -3   0   13.05    0.87
   4   3   0   12.22    0.75
  -4  -3   0   13.78    0.80
   4   3   0   11.77    0.87
  -4  -3   0   11.88    0.61
   4   3   0   13.41    0.80
  -4  -3   0   12.48    0.59
   4   3   1   19.91    0.92
  -4  -3  -1   20.88    1.09
  -4  -3  -1   21.33    1.06
  -4  -3  -1   22.14    1.18
  -4  -3  -1   19.30    1.07
   4   3   1   18.68    1.00
   4   3   1   20.35    0.94
  -4  -3  -1   17.86    0.95
   4   3   1   17.57    1.04
   4   3   1   17.09    1.01
  -4  -3  -1   19.30    0.82
   4   3   1   21.47    1.01
  -4  -3  -1   18.80    0.79
  -4  -3  -2  146.33    3.42
   4   3   2  151.60    3.61
  -4  -3  -2  152.47    3.88
  -4  -3  -2  149.92    3.89
  -4  -3  -2  159.48    4.03
  -4  -3  -2  146.24    3.91
   4   3   2  149.72    3.78
   4   3   2  152.33    3.84
   4   3   2  150.05    3.52
  -4  -3  -2  152.76    3.80
   4   3   2  148.48    3.85
  -4  -3  -2  148.59    3.46
   4   3   2  142.50    3.57
   4   3   3  143.04    3.46
  -4  -3  -3  149.07    3.78
   4   3   3  147.81    3.71
   4   3   3  147.37    3.76
  -4  -3  -3  156.41    4.01
  -4  -3  -3  148.71    3.94
  -4  -3  -3  147.33    3.93
   4   3   3  147.68    3.83
  -4  -3  -3  146.15    3.47
   4   3   3  141.93    3.61
   4   3   4   10.18    0.58
  -4  -3  -4    9.97    0.73
   4   3   4   10.02    0.71
   4   3   4    9.77    0.78
  -4  -3  -4    9.48    0.83
  -4  -3  -4    9.40    0.76
  -4  -3  -4    9.62    0.79
   4   3   4    9.88    0.80
  -4  -3  -4    9.98    0.64
  -4  -3  -5   27.10    1.29
   4   3   5   28.53    1.29
  -4  -3  -5   29.54    1.45
   4   3   5   30.74    1.43
   4   3   5   33.22    1.63
  -4  -3  -5   29.45    1.55
  -4  -3  -5   27.87    1.33
  -4  -3  -5   29.20    1.40
   4   3   5   26.85    1.29
  -4  -3  -5   28.22    1.15
   4   3   5   29.67    1.52
  -4  -3  -6  226.29    5.85
   4   3   6  245.53    5.89
   4   3   6  251.40    6.25
  -4  -3  -6  223.15    5.89
  -4  -3  -6  232.23    5.31
   4   3   6  240.45    5.67
  -4  -3  -6  216.50    5.35
  -4  -3  -6  227.26    5.53
   4   3   6  235.46    5.94
   4   3   7    3.04    0.53
  -4  -3  -7    2.37    0.43
  -4  -3  -7    2.68    0.54
   4   3   7    2.77    0.55
   4   3   7    3.04    0.63
  -4  -3  -7    3.56    0.55
  -4  -3  -7    2.79    0.46
   4   3   7    3.88    0.60
  -4  -3  -8   88.99    3.23
   4   3   8   92.37    3.26
   4   3   8   92.43    3.51
  -4  -3  -8   90.97    2.97
  -4  -3  -8   89.26    2.80
   4   3   8  101.68    3.30
  -4  -3  -8   86.32    2.98
   4   3   8   91.87    3.18
  -4  -3  -9   12.40    0.82
  -4  -3  -9   11.73    1.05
   4   3   9   11.98    1.04
   4   3   9   11.54    1.14
  -4  -3  -9   12.37    0.85
   4   3   9   11.64    1.03
  -4  -3  -9   11.45    0.95
   4   3   9   13.03    1.05
   4   3  10    1.76    0.45
  -4  -3 -10    1.89    0.44
   4   3  10    1.68    0.42
   4   3  10    1.84    0.51
  -4  -3 -10    1.26    0.34
   4   3  11    1.95    0.41
  -4  -3 -11    1.60    0.35
   4   3  11    1.50    0.32
   4   3  11    2.17    0.42
   4   3  11    1.95    0.40
  -4  -3 -11    1.68    0.34
  -4  -3 -12   19.60    0.93
   4   3  12   20.08    1.00
   4   3  12   22.17    0.97
   4   4  -8   14.54    0.87
  -4  -4   8   15.79    0.85
  -4  -4   8   13.80    0.94
   4   4  -8   15.86    1.04
   4   4  -8   15.61    1.01
  -4  -4   8   15.63    1.00
  -4  -4   7   39.96    1.80
   4   4  -7   36.72    1.81
  -4  -4   7   37.69    1.82
   4   4  -7   38.44    1.97
   4   4  -7   34.88    1.81
  -4  -4   7   38.18    1.82
  -4  -4   6    7.06    0.78
   4   4  -6    5.55    0.77
  -4  -4   6    4.84    0.70
   4   4  -6    6.08    0.86
   4   4  -6    6.25    0.80
  -4  -4   5   30.11    1.63
  -4  -4   5   29.39    1.71
   4   4  -5   32.11    1.91
   4   4  -5   30.11    1.74
   4   4  -5   28.12    1.78
  -4  -4   4  117.33    3.60
  -4  -4   4  120.28    3.76
   4   4  -4  111.90    3.85
  -4  -4   4  114.92    3.39
   4   4  -4  120.43    4.01
   4   4  -4  122.05    3.82
  -4  -4   3    2.65    0.42
   4   4  -3    2.23    0.54
  -4  -4   3    1.89    0.41
   4   4  -3    2.19    0.48
  -4  -4   3    2.18    0.42
  -4  -4   3    2.76    0.46
   4   4  -3    2.22    0.46
  -4  -4   2    0.60    0.25
  -4  -4   2    0.62    0.26
   4   4  -2    0.25    0.27
   4   4  -2    0.78    0.28
  -4  -4   2    1.26    0.27
  -4  -4   2    0.74    0.29
  -4  -4   2    1.31    0.35
   4   4  -2    0.69    0.28
   4   4  -2    0.43    0.28
  -4  -4   1   99.97    2.60
   4   4  -1   87.63    3.03
  -4  -4   1   94.63    2.72
   4   4  -1   89.60    2.66
  -4  -4   1   95.73    2.67
  -4  -4   1   96.91    2.91
  -4  -4   1   94.92    2.93
   4   4  -1   95.11    2.89
   4   4  -1   87.40    2.87
  -4  -4   0  105.28    2.81
   4   4   0   93.76    3.04
   4   4   0  101.65    2.38
   4   4   0   96.12    2.63
  -4  -4   0   95.69    2.62
   4   4   0   97.41    2.51
  -4  -4   0   96.26    2.78
  -4  -4   0   99.08    2.98
   4   4   0   99.57    2.86
   4   4   0   98.47    2.99
  -4  -4   0  100.90    2.51
   4   4   0   98.94    2.64
   4   4   1  118.04    2.85
  -4  -4  -1  116.41    2.98
   4   4   1  113.06    2.83
  -4  -4  -1  120.28    2.72
  -4  -4  -1  118.21    3.21
  -4  -4  -1  117.10    3.33
   4   4   1  115.23    3.15
   4   4   1  117.92    3.31
   4   4   1  112.65    3.34
  -4  -4  -1  113.62    2.86
   4   4   2   46.56    1.45
   4   4   2   44.93    1.78
   4   4   2   48.58    1.68
  -4  -4  -2   47.08    1.79
  -4  -4  -2   44.43    1.79
   4   4   2   46.52    1.69
   4   4   2   48.30    1.84
  -4  -4  -2   44.90    1.50
   4   4   3   40.72    1.66
   4   4   3   40.50    1.51
   4   4   3   39.12    1.57
  -4  -4  -3   39.18    1.68
   4   4   3   36.81    1.38
  -4  -4  -3   42.27    1.70
   4   4   3   35.68    1.46
   4   4   3   38.36    1.68
  -4  -4  -3   39.13    1.40
   4   4   4   68.92    2.33
   4   4   4   64.37    1.94
   4   4   4   71.50    2.44
  -4  -4  -4   68.30    2.45
  -4  -4  -4   65.51    2.05
  -4  -4  -4   66.87    2.30
  -4  -4  -4   66.05    2.30
   4   4   4   66.38    2.19
   4   4   4   72.93    2.55
  -4  -4  -5   19.88    1.02
   4   4   5   20.63    1.20
   4   4   5   18.54    0.99
   4   4   5   20.66    1.34
  -4  -4  -5   20.47    1.30
  -4  -4  -5   19.90    1.14
  -4  -4  -5   21.28    1.16
   4   4   5   21.13    1.17
  -4  -4  -5   21.00    1.00
   4   4   5   21.70    1.39
  -4  -4  -6  197.82    4.74
   4   4   6  207.43    5.20
   4   4   6  187.92    4.84
   4   4   6  200.33    5.62
  -4  -4  -6  198.04    5.39
  -4  -4  -6  205.20    4.89
  -4  -4  -6  210.11    4.77
  -4  -4  -6  203.96    5.48
   4   4   6  210.79    5.27
  -4  -4  -6  195.46    4.92
   4   4   6  211.81    5.70
  -4  -4  -7   13.66    1.17
   4   4   7   14.04    0.97
   4   4   7   16.25    1.36
  -4  -4  -7   15.80    1.16
   4   4   7   16.45    1.18
  -4  -4  -7   15.28    1.05
   4   4   7   17.28    1.33
  -4  -4  -8   36.76    1.96
   4   4   8   32.80    1.60
   4   4   8   36.32    2.10
  -4  -4  -8   37.59    1.68
   4   4   8   34.99    1.84
  -4  -4  -8   34.70    1.75
   4   4   8   36.44    1.98
  -4  -4  -9   45.87    2.20
   4   4   9   45.89    1.87
   4   4   9   50.63    2.49
   4   4   9   48.72    2.23
  -4  -4  -9   47.53    2.08
   4   4   9   50.06    2.26
  -4  -4 -10   35.91    1.79
   4   4  10   38.15    1.99
   4   4  10   35.72    1.79
  -4  -4 -10   36.17    1.65
  -4  -4 -11   40.40    1.69
   4   4  11   41.19    1.76
   4   4  11   42.95    1.78
  -4  -4 -11   39.74    1.54
   4   4  12   60.26    1.87
  -4  -5   8   26.08    1.22
   4   5  -8   28.50    1.28
   4   5  -8   26.10    1.23
  -4  -5   8   27.07    1.20
   4   5  -7   14.82    0.95
  -4  -5   7   16.85    1.11
   4   5  -7   17.21    1.17
   4   5  -7   15.93    1.13
  -4  -5   7   16.71    1.07
  -4  -5   6    8.51    0.81
   4   5  -6   10.16    0.94
  -4  -5   6   11.19    0.99
   4   5  -6   10.05    1.02
   4   5  -6    8.71    0.91
  -4  -5   5    3.74    0.57
   4   5  -5    4.85    0.74
  -4  -5   5    3.24    0.58
   4   5  -5    3.40    0.64
  -4  -5   5    3.26    0.47
   4   5  -5    5.16    0.74
   4   5  -5    4.17    0.58
  -4  -5   4  171.53    4.59
  -4  -5   4  164.71    4.69
   4   5  -4  159.77    4.96
   4   5  -4  160.87    4.91
  -4  -5   4  168.04    4.55
   4   5  -4  167.60    4.91
   4   5  -4  161.04    4.41
   4   5  -4  171.80    4.52
   4   5  -3  132.77    4.37
  -4  -5   3  146.49    4.06
   4   5  -3  137.97    4.21
  -4  -5   3  149.08    4.00
  -4  -5   3  145.68    4.16
   4   5  -3  137.45    4.25
   4   5  -3  136.02    3.95
   4   5  -3  144.58    3.99
  -4  -5   2    0.50    0.23
  -4  -5   2    0.19    0.20
   4   5  -2    0.23    0.25
   4   5  -2    0.46    0.22
  -4  -5   2    0.19    0.17
   4   5  -2    0.48    0.33
  -4  -5   2    0.16    0.24
  -4  -5   2    0.11    0.22
   4   5  -2    0.36    0.26
   4   5  -2    0.55    0.28
  -4  -5   1    8.26    0.56
  -4  -5   1    8.31    0.64
   4   5  -1    7.78    0.68
  -4  -5   1    7.38    0.66
  -4  -5   1    8.34    0.80
   4   5  -1    7.14    0.82
   4   5  -1    6.87    0.73
   4   5  -1    7.43    0.72
   4   5  -1    6.88    0.57
  -4  -5   0   57.63    1.70
   4   5   0   54.15    1.83
  -4  -5   0   56.51    2.04
   4   5   0   53.93    2.24
  -4  -5   0   59.25    2.22
   4   5   0   55.39    2.13
   4   5   0   56.51    2.11
   4   5   0   56.21    1.81
  -4  -5  -1  159.77    3.87
   4   5   1  165.56    4.15
   4   5   1  159.17    3.78
   4   5   1  162.10    4.52
   4   5   1  161.82    3.76
  -4  -5  -1  168.12    4.30
  -4  -5  -1  165.43    4.40
   4   5   1  170.90    3.66
   4   5   1  151.24    4.22
   4   5   1  164.14    4.31
   4   5   1  164.07    3.96
  -4  -5  -2  131.94    3.19
   4   5   2  136.26    3.89
   4   5   2  139.87    3.62
   4   5   2  123.90    3.30
  -4  -5  -2  131.99    3.74
  -4  -5  -2  140.01    3.79
   4   5   2  133.44    3.69
   4   5   2  132.78    3.77
  -4  -5  -3   76.60    2.08
   4   5   3   81.58    2.76
   4   5   3   77.53    2.49
   4   5   3   72.79    2.34
  -4  -5  -3   81.53    2.70
  -4  -5  -3   79.19    2.55
   4   5   3   73.82    2.52
   4   5   3   74.33    2.68
   4   5   4    6.30    0.74
   4   5   4    6.47    0.65
  -4  -5  -4    6.10    0.70
   4   5   4    6.08    0.63
  -4  -5  -4    5.75    0.62
   4   5   4    6.32    0.76
   4   5   5    3.88    0.56
   4   5   5    4.63    0.64
   4   5   5    3.75    0.58
  -4  -5  -5    4.40    0.63
  -4  -5  -5    5.46    0.61
  -4  -5  -5    4.96    0.57
   4   5   5    5.03    0.76
  -4  -5  -6  146.51    4.47
   4   5   6  133.09    3.84
   4   5   6  136.49    4.21
  -4  -5  -6  146.46    4.33
  -4  -5  -6  151.04    3.89
   4   5   6  143.95    4.22
   4   5   6  151.69    4.75
  -4  -5  -7   94.37    3.48
   4   5   7   91.34    3.38
  -4  -5  -7   97.49    3.25
   4   5   7  101.26    3.41
  -4  -5  -7   87.70    3.03
   4   5   7  100.96    3.72
  -4  -5  -8   17.65    1.37
   4   5   8   14.74    1.29
  -4  -5  -8   19.31    1.15
   4   5   8   17.30    1.32
  -4  -5  -8   16.32    1.18
   4   5   8   20.66    1.55
   4   5   9    1.52    0.46
  -4  -5  -9    1.66    0.49
   4   5   9    0.95    0.40
  -4  -5  -9    2.23    0.49
  -4  -5 -10   42.65    1.90
   4   5  10   44.53    2.05
   4   5  10   37.90    1.87
  -4  -5 -10   38.82    1.72
  -4  -5 -11   40.77    1.61
   4   5  11   44.18    1.69
   4   5  11   39.80    1.68
   4   5  11   41.71    1.68
  -4  -5 -11   40.10    1.50
  -4  -6   7   25.05    1.23
   4   6  -7   24.76    1.27
   4   6  -7   25.76    1.31
  -4  -6   7   24.73    1.15
  -4  -6   6    1.71    0.35
  -4  -6   6    1.57    0.39
   4   6  -6    1.60    0.43
   4   6  -6    2.26    0.39
   4   6  -6    1.73    0.45
  -4  -6   5    3.02    0.47
  -4  -6   5    2.92    0.54
   4   6  -5    1.97    0.53
   4   6  -5    3.12    0.55
  -4  -6   5    3.08    0.50
   4   6  -5    2.65    0.56
   4   6  -5    2.11    0.46
  -4  -6   4   85.91    2.74
   4   6  -4   90.05    3.20
  -4  -6   4   79.35    2.83
   4   6  -4   83.45    3.16
  -4  -6   4   83.92    2.95
   4   6  -4   85.80    3.25
   4   6  -4   85.84    2.96
  -4  -6   3  173.59    4.44
   4   6  -3  180.77    5.17
  -4  -6   3  179.39    4.60
   4   6  -3  170.30    4.92
  -4  -6   3  172.52    4.32
  -4  -6   3  180.05    4.62
  -4  -6   3  174.88    4.92
   4   6  -3  171.83    5.07
  -4  -6   2   14.56    0.98
   4   6  -2   15.78    1.27
  -4  -6   2   15.54    0.96
   4   6  -2   15.91    0.98
   4   6  -2   16.47    1.15
  -4  -6   2   15.37    1.17
   4   6  -2   16.35    1.26
   4   6  -1    1.93    0.50
  -4  -6   1    2.29    0.35
   4   6  -1    1.75    0.38
   4   6  -1    1.83    0.38
  -4  -6   1    2.45    0.43
  -4  -6   1    2.58    0.51
   4   6  -1    2.50    0.51
   4   6  -1    2.11    0.39
   4   6  -1    2.41    0.44
   4   6   0  100.34    3.03
  -4  -6   0  101.11    3.16
   4   6   0  104.65    2.97
  -4  -6   0   98.12    3.27
   4   6   0  100.38    3.35
   4   6   0   94.94    2.93
   4   6   0  102.62    3.51
   4   6   0  102.96    3.03
   4   6   1   48.80    2.17
   4   6   1   41.36    1.77
   4   6   1   45.13    1.82
  -4  -6  -1   41.57    1.88
   4   6   1   40.72    1.55
  -4  -6  -1   41.79    1.91
   4   6   1   42.63    1.95
   4   6   1   41.52    1.75
   4   6   1   42.24    1.73
   4   6   2   73.27    2.50
   4   6   2   68.26    2.44
   4   6   2   73.95    2.83
  -4  -6  -2   73.29    2.65
   4   6   2   74.24    2.13
  -4  -6  -2   73.25    2.59
   4   6   2   72.26    2.63
   4   6   2   65.50    2.45
   4   6   2   69.62    2.40
   4   6   3   59.22    2.50
   4   6   3   58.41    2.22
   4   6   3   57.09    2.17
  -4  -6  -3   58.24    2.32
  -4  -6  -3   57.04    2.14
   4   6   3   50.74    2.23
   4   6   4    0.40    0.33
   4   6   4    0.38    0.27
   4   6   4    0.31    0.25
  -4  -6  -4    0.87    0.35
  -4  -6  -4    0.43    0.23
   4   6   4    0.42    0.30
   4   6   5    1.83    0.51
   4   6   5    1.16    0.35
   4   6   5    1.66    0.33
   4   6   5    2.10    0.46
  -4  -6  -5    2.16    0.50
  -4  -6  -5    1.81    0.39
   4   6   5    1.54    0.49
   4   6   5    1.70    0.43
   4   6   6  104.60    3.37
   4   6   6  114.75    3.33
  -4  -6  -6  111.13    3.63
  -4  -6  -6  112.70    3.25
   4   6   6  112.52    3.68
   4   6   6  100.29    3.87
  -4  -6  -7  207.10    5.88
   4   6   7  203.79    5.37
  -4  -6  -7  210.51    5.46
   4   6   7  196.88    5.64
  -4  -6  -7  205.77    5.34
   4   6   7  200.90    6.08
  -4  -6  -8   37.58    2.04
   4   6   8   37.11    1.82
  -4  -6  -8   36.29    1.58
   4   6   8   36.23    1.97
  -4  -6  -8   35.93    1.78
   4   6   8   36.01    2.15
   4   6   9    1.42    0.46
  -4  -6  -9    0.95    0.40
   4   6   9    1.03    0.39
  -4  -6  -9    1.18    0.38
  -4  -6 -10   15.01    1.02
   4   6  10   13.47    0.94
   4   6  10   14.40    1.05
  -4  -6 -10   15.26    0.97
  -4  -6 -11   16.79    0.88
   4   6  11   17.68    0.95
   4   6  11   16.37    0.88
  -4  -6 -11   16.18    0.81
   4   7  -7   68.26    1.82
   4   7  -6    0.89    0.30
  -4  -7   6    0.90    0.29
   4   7  -6    1.28    0.36
   4   7  -6    1.36    0.35
  -4  -7   6    0.67    0.25
  -4  -7   5    1.81    0.32
  -4  -7   5    1.33    0.34
   4   7  -5    2.19    0.47
  -4  -7   5    1.78    0.39
   4   7  -5    1.70    0.44
   4   7  -5    1.70    0.40
  -4  -7   4   57.95    1.90
  -4  -7   4   58.96    2.14
   4   7  -4   58.00    2.47
  -4  -7   4   58.00    2.34
   4   7  -4   57.32    2.17
   4   7  -4   61.67    2.63
   4   7  -4   57.13    2.40
  -4  -7   3  132.99    3.39
   4   7  -3  127.06    3.91
   4   7  -3  135.37    3.40
  -4  -7   3  129.49    3.56
   4   7  -3  127.15    4.05
  -4  -7   3  128.65    3.59
  -4  -7   3  130.64    3.71
  -4  -7   3  123.11    4.03
   4   7  -3  131.39    4.33
   4   7  -3  129.15    4.09
  -4  -7   2   95.10    2.62
   4   7  -2   91.16    3.28
   4   7  -2   90.53    2.83
  -4  -7   2   96.66    2.68
   4   7  -2   93.60    3.22
  -4  -7   2   88.88    2.97
  -4  -7   2   94.22    3.35
   4   7  -2   92.61    3.48
   4   7  -1    4.49    0.70
   4   7  -1    4.30    0.57
  -4  -7   1    4.40    0.60
   4   7  -1    3.98    0.57
  -4  -7   1    3.58    0.59
   4   7  -1    3.74    0.67
   4   7  -1    3.96    0.59
   4   7   0    4.14    0.67
   4   7   0    2.87    0.50
  -4  -7   0    3.10    0.55
   4   7   0    2.69    0.44
  -4  -7   0    2.73    0.54
   4   7   0    3.07    0.64
   4   7   0    2.85    0.51
   4   7   1  124.41    3.74
   4   7   1  124.79    4.13
  -4  -7  -1  127.50    3.91
   4   7   1  125.08    3.46
  -4  -7  -1  119.54    3.83
   4   7   1  118.11    4.00
   4   7   1  128.64    3.36
   4   7   1  125.14    3.72
   4   7   2   12.28    1.15
   4   7   2   12.61    1.01
   4   7   2   13.18    1.03
  -4  -7  -2   12.96    1.08
   4   7   2   11.89    0.81
  -4  -7  -2   13.42    1.04
   4   7   2   12.25    1.10
   4   7   2   13.59    0.92
   4   7   2   12.22    0.98
   4   7   3  178.66    5.44
   4   7   3  183.18    4.97
   4   7   3  178.96    4.94
  -4  -7  -3  183.86    4.81
  -4  -7  -3  182.14    5.09
   4   7   3  190.25    4.89
   4   7   3  184.91    5.03
   4   7   4   33.54    1.76
   4   7   4   34.44    1.75
  -4  -7  -4   33.90    1.80
  -4  -7  -4   35.31    1.57
   4   7   4   31.26    1.98
   4   7   4   36.58    1.81
   4   7   5    8.00    0.83
   4   7   5    9.72    0.96
   4   7   5    8.15    1.02
  -4  -7  -5    8.35    0.88
   4   7   5    8.38    0.93
   4   7   6   39.01    1.86
   4   7   6   38.17    1.98
  -4  -7  -6   39.02    1.92
   4   7   6   36.36    2.04
  -4  -7  -7  121.63    4.10
   4   7   7  115.67    3.86
  -4  -7  -7  122.36    3.64
   4   7   7  112.40    4.05
  -4  -7  -8   85.36    3.19
   4   7   8   85.66    3.08
  -4  -7  -8   83.94    2.87
  -4  -7  -9    1.08    0.34
   4   7   9    0.83    0.35
  -4  -7  -9    1.92    0.40
  -4  -7 -10    1.52    0.34
   4   7  10    1.98    0.38
   4   7  10    1.39    0.28
  -4  -7 -10    1.68    0.33
   4   8  -6   31.09    1.32
   4   8  -6   32.54    1.29
  -4  -8   5    0.52    0.27
   4   8  -5    1.39    0.36
  -4  -8   5    0.85    0.31
   4   8  -5    1.55    0.36
   4   8  -5    1.62    0.38
   4   8  -4    0.37    0.26
  -4  -8   4    0.38    0.27
   4   8  -4    0.83    0.40
   4   8  -4    0.48    0.31
   4   8  -3   87.57    2.67
   4   8  -3   98.35    2.64
   4   8  -3   99.78    2.65
  -4  -8   3   94.91    2.87
   4   8  -3  100.44    3.31
  -4  -8   3   93.69    3.25
   4   8  -3   90.00    3.42
   4   8  -3   95.95    3.37
   4   8  -2   49.05    1.97
   4   8  -2   52.33    1.97
  -4  -8   2   50.88    2.08
   4   8  -2   46.43    2.13
  -4  -8   2   50.20    2.29
   4   8  -2   46.08    2.39
   4   8  -2   50.45    2.33
   4   8  -1    9.56    0.89
   4   8  -1    8.30    0.80
  -4  -8   1    9.08    0.89
   4   8  -1    8.33    0.84
  -4  -8   1    8.38    0.91
   4   8  -1    8.07    0.99
   4   8  -1    9.44    0.92
   4   8   0    6.64    0.80
   4   8   0    8.54    0.85
  -4  -8   0    7.02    0.80
   4   8   0    8.00    0.79
  -4  -8   0    7.51    0.86
   4   8   0    6.70    0.91
   4   8   0    7.33    0.81
   4   8   1   40.46    2.10
   4   8   1   40.92    1.97
  -4  -8  -1   39.25    2.00
   4   8   1   42.21    1.80
  -4  -8  -1   45.30    2.09
   4   8   1   43.48    2.28
   4   8   1   41.29    1.99
   4   8   2   16.27    1.37
   4   8   2   17.57    1.26
   4   8   2   17.25    1.26
  -4  -8  -2   20.25    1.39
   4   8   2   19.66    1.12
  -4  -8  -2   19.02    1.25
   4   8   2   18.71    1.32
   4   8   3   97.54    3.75
   4   8   3  101.77    3.47
   4   8   3  103.58    3.52
  -4  -8  -3  108.45    3.60
  -4  -8  -3  108.11    3.27
   4   8   3  108.15    2.99
   4   8   3  105.18    3.56
   4   8   4   39.76    2.26
   4   8   4   44.58    2.13
   4   8   4   43.93    2.09
  -4  -8  -4   42.39    2.06
  -4  -8  -4   46.36    1.78
   4   8   4   46.19    1.83
   4   8   4   44.50    2.16
   4   8   5   14.40    1.16
   4   8   5   12.13    1.07
  -4  -8  -5   11.53    1.03
   4   8   5   13.87    1.01
   4   8   5   12.24    1.12
   4   8   6    1.27    0.44
   4   8   6    0.80    0.40
  -4  -8  -6    1.11    0.37
   4   8   6    0.76    0.31
  -4  -8  -7   71.00    2.89
   4   8   7   72.38    2.77
  -4  -8  -7   76.34    2.50
  -4  -8  -8   68.89    2.59
   4   8   8   69.13    2.54
  -4  -8  -8   68.08    2.35
  -4  -8  -9    3.79    0.49
   4   8   9    3.28    0.49
  -4  -8  -9    3.22    0.44
   4   8  10    0.27    0.17
   4   8  10    0.56    0.23
   4   9  -5   12.69    0.82
   4   9  -4    6.40    0.61
  -4  -9   4    6.52    0.61
   4   9  -4    6.58    0.65
   4   9  -4    6.91    0.70
  -4  -9   3   21.45    1.06
   4   9  -3   23.46    1.29
  -4  -9   3   22.17    1.29
   4   9  -3   23.04    1.37
   4   9  -3   22.42    1.38
   4   9  -2   56.27    1.95
   4   9  -2   53.05    1.90
  -4  -9   2   50.89    2.00
   4   9  -2   53.76    2.16
  -4  -9   2   54.04    2.25
   4   9  -2   57.14    2.48
   4   9  -2   49.43    2.26
   4   9  -1   11.49    0.77
   4   9  -1   12.15    0.95
   4   9  -1   12.32    0.95
  -4  -9   1   13.18    1.02
   4   9  -1   12.23    0.99
  -4  -9   1    9.95    0.95
   4   9  -1   11.35    1.13
   4   9  -1   10.92    1.03
   4   9   0    3.56    0.51
   4   9   0    2.62    0.51
  -4  -9   0    3.31    0.56
   4   9   0    3.55    0.54
  -4  -9   0    3.09    0.56
   4   9   0    2.73    0.66
   4   9   0    3.23    0.59
   4   9   1  101.57    3.24
   4   9   1  101.68    3.41
  -4  -9  -1   97.94    3.41
   4   9   1   98.73    3.11
  -4  -9  -1   98.95    3.32
   4   9   1   99.17    3.43
   4   9   2    9.90    0.94
   4   9   2    9.39    0.96
  -4  -9  -2    8.79    0.91
  -4  -9  -2    8.94    0.83
   4   9   2    8.75    0.92
   4   9   3   17.08    1.28
  -4  -9  -3   17.11    1.25
  -4  -9  -3   18.54    1.09
   4   9   3   16.17    1.28
   4   9   3   16.85    1.29
   4   9   4  109.19    3.66
   4   9   4  104.48    3.47
  -4  -9  -4  109.12    3.53
   4   9   4  110.26    3.67
   4   9   5   13.21    1.11
   4   9   5   11.42    1.02
   4   9   5   11.44    0.98
  -4  -9  -5   14.00    1.05
   4   9   5   12.02    1.07
   4   9   6    3.43    0.55
   4   9   6    4.30    0.60
   4   9   6    3.67    0.58
  -4  -9  -6    4.22    0.55
   4   9   6    3.85    0.65
  -4  -9  -7   13.59    1.02
   4   9   7   14.45    1.00
   4   9   7   13.90    1.07
   4   9   8   24.22    1.20
  -4  -9  -8   25.47    1.24
  -4  -9  -8   22.27    1.09
   4   9   8   24.43    1.32
   4   9   9   18.06    0.85
   4   9   9   20.24    1.00
   4  10  -3   13.88    0.79
  -4 -10   3   13.79    0.83
   4  10  -3   14.17    0.93
   4  10  -2   34.65    1.27
   4  10  -2   34.69    1.26
  -4 -10   2   34.40    1.38
   4  10  -2   36.53    1.50
  -4 -10   2   35.51    1.53
   4  10  -2   37.90    1.69
   4  10  -1    0.90    0.27
   4  10  -1    1.55    0.34
  -4 -10   1    0.70    0.27
   4  10  -1    0.99    0.35
  -4 -10   1    0.93    0.31
   4  10  -1    1.14    0.38
   4  10   0   29.44    1.48
   4  10   0   29.70    1.49
  -4 -10   0   32.30    1.55
  -4 -10   0   29.65    1.48
   4  10   0   28.94    1.58
   4  10   1   65.81    2.44
   4  10   1   61.38    2.37
  -4 -10  -1   62.03    2.37
  -4 -10  -1   60.03    2.19
   4  10   1   60.04    2.37
   4  10   1   59.64    2.40
   4  10   2   61.90    2.41
   4  10   2   60.55    2.40
  -4 -10  -2   59.03    2.33
  -4 -10  -2   60.16    2.08
   4  10   2   60.38    2.42
   4  10   3    2.91    0.52
   4  10   3    2.31    0.51
  -4 -10  -3    2.86    0.49
   4  10   3    2.74    0.52
   4  10   4    0.77    0.37
   4  10   4    0.37    0.28
  -4 -10  -4    1.13    0.34
   4  10   4    0.95    0.38
   4  10   5   51.70    2.12
  -4 -10  -5   54.49    1.95
   4  10   5   53.89    2.16
   4  10   5   52.86    2.14
   4  10   6    5.73    0.58
  -4 -10  -6    6.87    0.67
   4  10   6    6.70    0.62
  -4 -10  -6    7.23    0.53
   4  10   6    6.72    0.68
  -4 -10  -7   24.31    1.14
   4  10   7   23.60    1.19
   4  11   0    0.32    0.20
   4  11   0    0.65    0.23
  -4 -11   0    0.27    0.16
   4  11   0    0.67    0.24
   4  11   1   56.64    1.96
   4  11   1   56.60    1.97
  -4 -11  -1   55.53    1.90
   4  11   1   54.36    1.88
   4  11   2   27.34    1.31
   4  11   2   27.08    1.31
  -4 -11  -2   25.73    1.21
   4  11   2   24.87    1.13
   4  11   3   10.17    0.79
   4  11   3   11.65    0.84
  -4 -11  -3   10.34    0.72
   4  11   3   10.25    0.65
   4  11   3   10.33    0.79
   4  11   4    0.41    0.24
   4  11   4    0.42    0.23
   4  11   4   -0.05    0.22
   4  11   5   24.32    1.10
   4  11   5   23.82    1.09
   4  11   5   25.29    1.15
  -5   6   2    1.87    0.30
  -5   6   1    6.98    0.56
  -5   6   0   13.34    0.78
  -5   6  -1   35.44    1.33
  -5   6  -2   10.20    0.63
  -5   6  -3   32.63    1.14
   5  -6   4   21.31    0.97
  -5   6  -4   20.46    0.91
  -5   5   4   10.97    0.81
  -5   5   3  109.29    3.29
  -5   5   2    6.83    0.74
  -5   5   2    7.55    0.68
  -5   5   1    3.32    0.55
  -5   5   1    2.06    0.41
  -5   5   0   26.57    1.49
  -5   5   0   28.68    1.50
  -5   5  -1    9.82    0.87
  -5   5  -1    9.02    0.84
  -5   5  -1   10.87    0.91
  -5   5  -2   85.16    2.77
  -5   5  -2   84.60    2.85
  -5   5  -2   85.60    2.85
  -5   5  -2   82.46    2.65
  -5   5  -3   20.95    1.15
  -5   5  -3   23.82    1.27
  -5   5  -3   20.29    1.13
  -5   5  -4   15.39    0.92
  -5   5  -4   16.18    0.95
  -5   5  -4   16.89    0.97
  -5   5  -5    2.94    0.37
  -5   5  -5    3.76    0.40
   5  -5   5    2.40    0.39
  -5   5  -6    3.68    0.35
  -5   5  -6    2.96    0.33
   5  -5   6    3.87    0.43
  -5   4   5    5.07    0.61
  -5   4   5    5.80    0.48
  -5   4   4    7.04    0.80
  -5   4   4    7.17    0.57
  -5   4   3  106.58    3.64
  -5   4   3  110.57    2.89
  -5   4   3  101.20    2.94
  -5   4   2  101.39    3.68
  -5   4   2  104.76    3.32
  -5   4   2  103.74    2.73
  -5   4   1    1.29    0.48
  -5   4   1    1.37    0.41
  -5   4   0    0.76    0.36
  -5   4   0    1.03    0.36
  -5   4   0    1.51    0.46
  -5   4  -1   24.21    1.51
  -5   4  -1   24.42    1.55
  -5   4  -1   22.51    1.43
  -5   4  -1   24.60    1.34
  -5   4  -2   32.65    1.75
  -5   4  -2   30.36    1.66
  -5   4  -2   31.91    1.70
   5  -4   2   31.88    1.43
  -5   4  -2   30.03    1.47
  -5   4  -3   60.94    2.41
  -5   4  -3   53.61    2.23
  -5   4  -3   56.25    2.32
   5  -4   3   58.40    2.08
  -5   4  -3   58.66    2.11
  -5   4  -4   43.05    1.87
  -5   4  -4   49.39    2.01
  -5   4  -4   44.25    1.62
   5  -4   4   44.57    1.77
  -5   4  -4   48.05    1.82
  -5   4  -5   30.24    1.46
  -5   4  -5   32.21    1.37
  -5   4  -5   31.97    1.41
   5  -4   5   30.35    1.38
  -5   4  -5   30.92    1.36
  -5   4  -6    0.70    0.23
  -5   4  -6    0.73    0.29
  -5   4  -6    0.39    0.23
   5  -4   6    0.29    0.19
   5  -4   6    0.67    0.29
  -5   4  -7   80.86    2.33
  -5   4  -7   80.29    2.36
   5  -4   7   83.22    2.24
   5  -4   7   81.68    2.43
  -5   4  -7   80.52    2.17
  -5   4  -8  105.11    2.58
  -5   4  -8  114.85    2.77
  -5   3   6   36.56    1.43
  -5   3   5    1.43    0.42
  -5   3   5    1.57    0.35
  -5   3   4    2.16    0.51
  -5   3   4    2.42    0.42
  -5   3   3   86.25    3.26
  -5   3   3   85.81    2.66
  -5   3   2  133.63    4.06
  -5   3   2  121.59    4.29
  -5   3   2  129.87    3.44
   5  -3  -2  120.93    3.41
  -5   3   1   15.91    1.07
  -5   3   1   20.81    1.58
  -5   3   1   18.54    1.37
  -5   3   0    0.43    0.27
  -5   3   0    1.27    0.51
  -5   3   0    0.24    0.26
  -5   3   0    0.79    0.37
  -5   3  -1    3.27    0.49
  -5   3  -1    2.67    0.44
  -5   3  -1    2.27    0.56
  -5   3  -1    2.59    0.53
   5  -3   1    2.79    0.44
  -5   3  -1    3.20    0.60
  -5   3  -2   11.20    0.83
  -5   3  -2   12.41    1.07
  -5   3  -2   11.11    1.00
   5  -3   2   11.06    0.77
  -5   3  -2   12.00    0.87
  -5   3  -2   11.45    1.06
  -5   3  -3   42.49    1.61
  -5   3  -3   39.42    1.92
  -5   3  -3   41.61    1.97
  -5   3  -3   42.85    1.72
   5  -3   3   45.60    1.61
  -5   3  -3   42.26    1.71
  -5   3  -3   42.21    2.05
  -5   3  -4   64.41    2.49
  -5   3  -4   64.51    2.33
   5  -3   4   65.45    2.48
  -5   3  -4   66.82    2.23
  -5   3  -4   69.13    2.59
  -5   3  -5   20.34    1.20
  -5   3  -5   18.83    1.23
  -5   3  -5   19.98    1.22
   5  -3   5   21.12    1.29
  -5   3  -5   21.17    1.09
  -5   3  -6    0.64    0.24
  -5   3  -6    0.63    0.32
  -5   3  -6    0.25    0.26
   5  -3   6   -0.02    0.28
  -5   3  -6    0.33    0.23
  -5   3  -7   82.60    2.66
  -5   3  -7   82.77    2.74
   5  -3   7   79.85    2.63
   5  -3   7   82.43    2.64
  -5   3  -7   82.09    2.28
  -5   3  -8   96.88    2.76
  -5   3  -8   98.49    2.91
   5  -3   8   93.39    2.73
   5  -3   8   98.83    2.70
  -5   3  -9    2.99    0.33
  -5   3  -9    2.56    0.38
  -5   2   7   30.50    1.32
   5  -2  -6  103.57    2.82
  -5   2   6  107.76    3.19
  -5   2   5    5.40    0.69
  -5   2   5    5.57    0.65
   5  -2  -5    5.23    0.57
  -5   2   4    2.45    0.53
   5  -2  -4    2.13    0.39
  -5   2   4    2.47    0.47
  -5   2   3   16.74    1.18
  -5   2   3   21.10    1.36
  -5   2   3   20.45    1.45
  -5   2   3   21.96    1.27
  -5   2   2  113.17    3.62
  -5   2   2  107.91    3.81
  -5   2   2  104.68    3.15
  -5   2   2  110.13    3.70
  -5   2   1   73.84    2.80
  -5   2   1   66.99    2.95
  -5   2   1   72.72    2.29
  -5   2   1   74.84    2.96
   5  -2  -1   75.76    2.60
  -5   2   1   76.47    2.98
  -5   2   0   21.34    1.37
  -5   2   0   21.48    1.56
  -5   2   0   23.63    1.55
   5  -2   0   21.84    1.19
  -5   2   0   22.82    1.52
  -5   2  -1   13.91    0.94
  -5   2  -1   12.46    1.00
  -5   2  -1   12.40    1.12
  -5   2  -1   12.69    1.05
  -5   2  -1   12.67    1.13
  -5   2  -1   13.27    1.16
  -5   2  -1   12.20    0.87
  -5   2  -2    6.86    0.67
  -5   2  -2    7.21    0.82
  -5   2  -2    7.17    0.80
  -5   2  -2    6.79    0.69
   5  -2   2    8.35    0.77
  -5   2  -2    7.93    0.88
  -5   2  -2    8.62    0.91
  -5   2  -2    6.73    0.62
  -5   2  -3  122.04    3.78
   5  -2   3  123.73    3.48
  -5   2  -3  123.70    3.91
  -5   2  -3  121.91    3.54
  -5   2  -3  120.33    3.89
  -5   2  -3  119.06    3.23
  -5   2  -4  256.00    6.55
  -5   2  -4  263.88    6.51
   5  -2   4  273.13    6.73
   5  -2   4  282.05    6.33
  -5   2  -4  274.89    6.75
  -5   2  -4  263.34    6.70
  -5   2  -4  271.97    6.04
  -5   2  -5   30.08    1.62
   5  -2   5   29.69    1.65
   5  -2   5   30.01    1.41
  -5   2  -5   29.81    1.54
  -5   2  -5   32.23    1.31
  -5   2  -6   10.97    0.80
  -5   2  -6    9.99    0.94
   5  -2   6   10.41    0.97
   5  -2   6   10.40    0.77
  -5   2  -6   11.19    0.71
  -5   2  -7    0.66    0.33
   5  -2   7    0.43    0.26
   5  -2   7    0.68    0.28
   5  -2   7    0.76    0.26
  -5   2  -8   59.95    2.35
   5  -2   8   62.39    2.29
   5  -2   8   57.41    1.98
  -5   2  -9   68.25    2.34
   5  -2   9   64.84    2.17
   5  -2   9   64.76    1.76
  -5   2 -10    1.87    0.33
   5  -1  -7   10.61    0.74
  -5   1   7   11.58    0.89
   5  -1  -6   32.62    1.54
  -5   1   6   34.21    1.73
  -5   1   5   61.69    2.35
  -5   1   5   58.21    2.17
   5  -1  -5   66.45    2.44
  -5   1   5   64.10    2.55
  -5   1   4    2.92    0.55
  -5   1   4    2.50    0.48
   5  -1  -4    2.24    0.50
  -5   1   4    2.17    0.47
  -5   1   3    1.59    0.47
  -5   1   3    1.33    0.41
  -5   1   3    1.68    0.42
   5  -1  -3    1.28    0.40
  -5   1   3    1.68    0.42
  -5   1   3    0.90    0.36
  -5   1   2   37.65    1.94
  -5   1   2   32.82    1.53
   5  -1  -2   33.65    1.52
  -5   1   2   33.93    1.56
  -5   1   2   32.88    1.82
  -5   1   2   31.73    1.79
  -5   1   1   64.28    2.40
  -5   1   1   69.06    2.69
  -5   1   1   60.10    2.57
   5  -1  -1   65.74    2.09
  -5   1   1   59.36    2.10
  -5   1   1   65.09    2.67
  -5   1   1   69.12    2.73
  -5   1   0   18.41    1.19
  -5   1   0   17.92    1.27
  -5   1   0   17.61    1.29
  -5   1   0   18.26    1.30
  -5   1   0   19.64    1.36
   5  -1   0   16.03    1.11
  -5   1  -1  129.37    3.76
  -5   1  -1  137.38    4.10
  -5   1  -1  127.27    4.02
  -5   1  -1  126.51    4.03
   5  -1   1  128.01    3.59
  -5   1  -2   91.27    2.90
  -5   1  -2   91.48    3.10
  -5   1  -2   85.35    2.82
  -5   1  -2   87.42    3.11
  -5   1  -2   85.22    3.11
   5  -1   2   90.74    2.62
  -5   1  -3    1.19    0.36
   5  -1   3    0.81    0.32
  -5   1  -3    1.00    0.40
  -5   1  -3    0.86    0.35
   5  -1   3    0.71    0.23
  -5   1  -4   67.07    2.50
   5  -1   4   66.25    2.42
  -5   1  -4   65.35    2.52
  -5   1  -4   69.72    2.60
  -5   1  -5   33.14    1.72
   5  -1   5   34.31    1.78
   5  -1   5   35.33    1.66
  -5   1  -5   32.42    1.62
  -5   1  -5   34.48    1.66
  -5   1  -6    3.16    0.58
   5  -1   6    3.45    0.61
   5  -1   6    3.53    0.52
  -5   1  -6    2.80    0.46
   5  -1   7    5.13    0.51
  -5   1  -7    6.10    0.77
  -5   1  -7    5.83    0.54
   5  -1   7    6.23    0.77
   5  -1   7    6.68    0.65
   5  -1   7    6.80    0.68
  -5   1  -8   27.91    1.60
  -5   1  -8   30.27    1.29
   5  -1   8   25.75    1.21
   5  -1   8   29.14    1.37
   5  -1   8   28.94    1.27
  -5   1  -9   53.22    2.13
  -5   1  -9   47.42    1.64
   5  -1   9   47.26    1.96
   5  -1   9   49.15    1.69
   5  -1   9   51.68    1.74
  -5   1 -10    3.86    0.48
  -5   1 -10    3.66    0.34
   5  -1  10    3.41    0.42
   5  -1  10    4.20    0.40
   5   0  -7    1.88    0.38
  -5   0   7    2.66    0.51
  -5   0   7    2.35    0.40
   5   0  -7    1.61    0.35
  -5   0   7    2.69    0.39
  -5   0   6   13.80    1.05
   5   0  -6   13.69    1.07
  -5   0   6   14.18    1.18
  -5   0   6   15.35    1.04
  -5   0   5    9.47    0.79
  -5   0   5   10.76    0.99
   5   0  -5   10.01    0.96
  -5   0   5   10.25    1.02
  -5   0   5    8.95    0.86
  -5   0   4    5.48    0.75
  -5   0   4    4.39    0.56
  -5   0   4    4.85    0.69
   5   0  -4    4.69    0.67
  -5   0   4    4.56    0.71
  -5   0   3   48.25    2.21
  -5   0   3   43.19    1.88
  -5   0   3   50.21    2.18
   5   0  -3   52.32    2.18
  -5   0   3   42.87    1.97
  -5   0   3   44.31    1.99
  -5   0   3   35.87    1.82
  -5   0   2   56.84    2.44
  -5   0   2   58.10    2.25
   5   0  -2   59.74    2.30
  -5   0   2   61.79    2.49
  -5   0   2   58.04    2.43
  -5   0   1  213.28    5.39
  -5   0   1  207.51    5.58
  -5   0   1  209.32    5.34
   5   0  -1  205.74    5.13
  -5   0   1  208.78    5.56
  -5   0   1  205.99    5.55
  -5   0   0    3.85    0.56
  -5   0   0    3.59    0.59
  -5   0   0    3.09    0.51
   5   0   0    2.56    0.39
  -5   0   0    2.80    0.52
  -5   0   0    4.00    0.57
  -5   0   0    3.55    0.60
   5   0   0    2.19    0.48
  -5   0  -1   15.88    1.10
  -5   0  -1   15.41    1.07
  -5   0  -1   15.91    0.97
  -5   0  -1   16.81    1.20
  -5   0  -1   15.89    1.15
   5   0   1   17.09    1.12
  -5   0  -2   88.40    2.91
  -5   0  -2   93.78    2.96
  -5   0  -2   90.30    2.85
  -5   0  -2   84.44    3.03
  -5   0  -2   87.57    3.05
   5   0   2   93.70    2.84
  -5   0  -2   90.39    2.94
  -5   0  -3   10.86    0.90
   5   0   3   11.65    0.94
  -5   0  -3   10.58    0.90
  -5   0  -3   11.52    0.98
  -5   0  -3    9.70    0.90
   5   0   3   10.02    0.75
  -5   0  -4    7.95    0.79
   5   0   4    6.96    0.73
  -5   0  -4    6.99    0.79
  -5   0  -4    8.09    0.80
  -5   0  -4    7.84    0.78
   5   0   4    7.29    0.62
  -5   0  -5   81.96    2.88
   5   0   5   78.90    2.85
   5   0   5   83.73    2.84
  -5   0  -5   79.01    2.98
  -5   0  -5   78.62    2.69
  -5   0  -5   79.32    2.73
   5   0   5   81.40    2.38
  -5   0  -6    7.99    0.86
  -5   0  -6    8.15    0.65
   5   0   6    8.63    0.87
   5   0   6    8.47    0.83
  -5   0  -6    7.74    0.89
  -5   0  -6    8.46    0.72
  -5   0  -6    7.79    0.69
  -5   0  -7   14.16    1.16
  -5   0  -7   14.39    0.93
   5   0   7   16.18    1.22
   5   0   7   14.79    0.90
   5   0   7   14.68    1.10
   5   0   7   15.31    0.93
  -5   0  -8   42.49    2.04
  -5   0  -8   40.75    1.69
   5   0   8   43.81    2.03
   5   0   8   40.62    1.85
   5   0   8   45.14    1.76
  -5   0  -9   46.66    2.04
  -5   0  -9   43.31    1.69
   5   0   9   44.83    1.94
   5   0   9   42.63    1.78
   5   0   9   43.83    1.75
   5   0  10    3.65    0.44
  -5   0 -10    3.94    0.53
  -5   0 -10    3.40    0.41
   5   0  10    4.56    0.53
   5   0  10    4.09    0.47
  -5   0 -11   14.63    0.77
   5   0  11   14.67    0.77
   5   0  11   14.08    0.72
  -5  -1   8   28.31    1.31
  -5  -1   8   32.02    1.32
  -5  -1   8   28.77    1.20
   5   1  -7   24.76    1.36
  -5  -1   7   26.87    1.57
   5   1  -7   24.45    1.18
   5   1  -7   25.56    1.09
  -5  -1   7   25.14    1.39
  -5  -1   6   10.95    0.98
   5   1  -6   12.15    1.05
  -5  -1   6   12.04    1.15
   5   1  -6    8.82    0.82
   5   1  -6   10.23    0.78
  -5  -1   6    9.52    0.95
  -5  -1   5   60.42    2.01
  -5  -1   5   61.48    2.59
   5   1  -5   63.30    2.65
  -5  -1   5   60.54    2.72
   5   1  -5   64.48    2.22
  -5  -1   4   88.84    3.22
  -5  -1   4   88.63    2.67
  -5  -1   4   88.79    3.25
   5   1  -4   90.92    3.33
   5   1  -4   91.76    2.75
  -5  -1   3   43.49    2.09
  -5  -1   3   44.56    1.72
   5   1  -3   47.53    2.19
  -5  -1   3   44.08    1.95
   5   1  -3   48.21    1.71
  -5  -1   3   40.05    1.88
  -5  -1   2   84.15    2.99
  -5  -1   2   77.37    2.49
   5   1  -2   80.36    2.89
  -5  -1   2   85.82    2.94
  -5  -1   2   77.05    2.63
  -5  -1   2   85.05    2.90
  -5  -1   1   33.34    1.64
  -5  -1   1   28.48    1.58
  -5  -1   1   32.22    1.43
   5   1  -1   30.29    1.55
  -5  -1   1   30.06    1.60
  -5  -1   1   31.54    1.60
  -5  -1   1   31.21    1.61
  -5  -1   0    5.38    0.66
  -5  -1   0    5.81    0.69
  -5  -1   0    4.69    0.54
   5   1   0    5.45    0.60
  -5  -1   0    4.86    0.64
  -5  -1   0    5.34    0.49
  -5  -1   0    5.91    0.69
  -5  -1   0    5.78    0.70
   5   1   0    4.79    0.66
  -5  -1  -1   47.48    1.98
  -5  -1  -1   43.72    1.77
   5   1   1   49.42    1.76
  -5  -1  -1   43.78    1.99
  -5  -1  -1   43.63    1.71
  -5  -1  -1   46.22    2.02
  -5  -1  -1   47.04    2.09
   5   1   1   46.91    2.02
  -5  -1  -2   93.38    3.03
  -5  -1  -2   92.28    2.83
  -5  -1  -2   90.16    3.01
  -5  -1  -2   90.12    3.11
  -5  -1  -2   90.27    2.90
  -5  -1  -2   88.82    3.06
  -5  -1  -2   93.65    3.22
   5   1   2   95.25    3.00
   5   1   2   99.03    2.57
  -5  -1  -3   82.22    2.80
   5   1   3   81.89    2.81
  -5  -1  -3   80.42    2.87
  -5  -1  -3   82.30    2.82
  -5  -1  -3   79.54    2.83
  -5  -1  -3   83.30    2.99
   5   1   3   86.84    2.69
  -5  -1  -4    0.81    0.34
  -5  -1  -4    0.83    0.33
   5   1   4    1.01    0.34
  -5  -1  -4    0.68    0.32
  -5  -1  -4    1.13    0.34
   5   1   4    0.78    0.27
  -5  -1  -5   13.61    1.06
  -5  -1  -5   13.56    0.80
   5   1   5   12.45    0.98
   5   1   5   14.75    1.07
  -5  -1  -5   12.50    1.07
  -5  -1  -5   13.19    0.97
  -5  -1  -5   13.30    0.97
   5   1   5   13.43    0.90
  -5  -1  -6   36.36    1.82
  -5  -1  -6   39.44    1.59
   5   1   6   39.71    1.89
   5   1   6   38.90    1.87
  -5  -1  -6   36.96    1.92
  -5  -1  -6   38.32    1.60
  -5  -1  -6   35.19    1.57
   5   1   6   38.21    1.50
   5   1   6   37.72    1.59
  -5  -1  -7   58.62    2.42
  -5  -1  -7   58.40    2.15
   5   1   7   56.81    2.39
   5   1   7   58.30    2.41
  -5  -1  -7   59.53    2.52
   5   1   7   57.46    2.10
   5   1   7   60.87    2.05
  -5  -1  -8   35.52    1.82
  -5  -1  -8   35.43    1.62
   5   1   8   31.39    1.70
   5   1   8   32.85    1.72
  -5  -1  -8   32.92    1.76
   5   1   8   34.20    1.59
   5   1   8   34.00    1.35
  -5  -1  -9   98.40    3.21
  -5  -1  -9   92.01    2.92
   5   1   9   92.68    3.10
   5   1   9   98.28    3.14
   5   1   9   97.08    3.02
   5   1  10    1.48    0.34
  -5  -1 -10    1.71    0.37
  -5  -1 -10    1.98    0.34
   5   1  10    1.35    0.32
   5   1  10    1.53    0.36
   5   1  10    1.68    0.32
   5   1  11    3.67    0.42
  -5  -1 -11    4.53    0.43
  -5  -1 -11    3.56    0.38
   5   1  11    4.16    0.42
   5   1  11    4.32    0.43
  -5  -2   8   64.49    2.10
  -5  -2   8   69.57    2.26
  -5  -2   8   66.40    2.13
  -5  -2   7  109.32    3.29
   5   2  -7  100.24    3.23
  -5  -2   7  104.91    3.50
   5   2  -7  102.75    2.99
   5   2  -7  107.83    2.97
  -5  -2   7  111.21    3.40
  -5  -2   6   22.91    1.43
   5   2  -6   22.43    1.46
  -5  -2   6   21.75    1.59
   5   2  -6   20.40    1.25
   5   2  -6   22.24    1.23
  -5  -2   5    5.69    0.76
   5   2  -5    4.16    0.69
  -5  -2   5    4.55    0.70
   5   2  -5    4.50    0.63
   5   2  -5    3.67    0.54
  -5  -2   4   38.87    1.98
  -5  -2   4   42.79    2.09
   5   2  -4   40.17    2.13
  -5  -2   4   42.21    2.08
   5   2  -4   40.36    1.81
   5   2  -4   44.35    1.85
  -5  -2   3   32.67    1.75
   5   2  -3   35.59    1.90
  -5  -2   3   29.55    1.70
   5   2  -3   33.51    1.51
  -5  -2   3   32.61    1.61
  -5  -2   3   31.06    1.51
  -5  -2   3   33.30    1.62
   5   2  -3   35.00    1.54
  -5  -2   2   89.01    3.07
   5   2  -2   87.39    3.17
  -5  -2   2   85.43    3.03
  -5  -2   2   92.88    3.06
  -5  -2   2   87.14    2.97
  -5  -2   2   91.94    3.00
   5   2  -2   92.01    2.66
  -5  -2   1  117.46    3.55
  -5  -2   1  117.15    3.54
   5   2  -1  109.69    3.56
  -5  -2   1  111.81    3.51
  -5  -2   1  110.61    3.48
  -5  -2   1  115.01    3.62
   5   2  -1  118.26    2.97
  -5  -2   0    9.87    0.85
  -5  -2   0    7.42    0.75
  -5  -2   0    8.33    0.68
  -5  -2   0    8.08    0.81
  -5  -2   0    8.85    0.88
   5   2   0    7.30    0.81
   5   2   0    8.34    0.80
  -5  -2  -1    3.02    0.50
  -5  -2  -1    3.90    0.41
   5   2   1    2.01    0.42
  -5  -2  -1    3.03    0.46
  -5  -2  -1    2.89    0.54
  -5  -2  -1    3.73    0.58
   5   2   1    2.84    0.53
  -5  -2  -2  104.04    3.27
  -5  -2  -2  107.29    2.86
  -5  -2  -2   98.87    3.26
   5   2   2  111.62    3.06
  -5  -2  -2  106.15    3.29
  -5  -2  -2  108.37    3.47
  -5  -2  -2  109.86    3.56
   5   2   2  109.44    3.30
  -5  -2  -3  248.13    6.05
   5   2   3  245.75    5.53
   5   2   3  252.19    5.98
  -5  -2  -3  245.23    6.13
  -5  -2  -3  244.28    6.14
  -5  -2  -3  232.61    6.20
   5   2   3  230.12    5.83
  -5  -2  -4   15.50    1.10
   5   2   4   16.64    0.85
  -5  -2  -4   15.41    0.82
   5   2   4   14.70    1.03
  -5  -2  -4   13.90    1.11
  -5  -2  -4   13.26    1.03
  -5  -2  -4   13.93    1.11
   5   2   4   14.15    0.99
   5   2   5    3.91    0.43
  -5  -2  -5    3.77    0.57
   5   2   5    3.89    0.54
  -5  -2  -5    3.94    0.57
   5   2   5    4.22    0.59
  -5  -2  -5    3.60    0.60
  -5  -2  -5    4.20    0.49
  -5  -2  -5    4.50    0.58
   5   2   5    4.24    0.56
  -5  -2  -6   38.21    1.86
  -5  -2  -6   41.34    1.73
   5   2   6   42.34    1.94
   5   2   6   42.12    1.86
  -5  -2  -6   41.28    2.02
  -5  -2  -6   40.44    1.69
  -5  -2  -6   39.25    1.65
   5   2   6   40.22    1.63
   5   2   6   39.93    1.76
  -5  -2  -7   19.78    1.20
   5   2   7   17.02    1.18
   5   2   7   21.42    1.38
  -5  -2  -7   21.14    1.39
   5   2   7   18.44    1.12
   5   2   7   17.73    1.13
  -5  -2  -8  130.60    3.89
  -5  -2  -8  125.71    3.73
   5   2   8  119.77    3.75
   5   2   8  126.68    3.95
  -5  -2  -8  124.41    3.90
   5   2   8  131.20    3.76
   5   2   8  124.25    3.54
  -5  -2  -9   66.25    2.44
  -5  -2  -9   62.86    2.37
   5   2   9   62.11    2.36
   5   2   9   66.42    2.55
   5   2   9   67.82    2.47
   5   2   9   66.40    2.16
   5   2  10    1.17    0.34
  -5  -2 -10    0.91    0.31
  -5  -2 -10    1.00    0.32
   5   2  10    0.34    0.21
   5   2  10    0.08    0.21
   5   2  11    0.87    0.25
  -5  -2 -11    1.58    0.26
  -5  -2 -11    1.52    0.29
   5   2  11    0.59    0.18
   5   2  11    1.34    0.29
   5   2  11    1.01    0.24
  -5  -3   7   92.39    2.92
   5   3  -7   92.69    2.96
  -5  -3   7   91.98    3.09
   5   3  -7   88.77    2.68
   5   3  -7   93.28    2.72
   5   3  -7   90.11    2.65
  -5  -3   7  100.18    3.10
  -5  -3   6   39.66    1.89
   5   3  -6   36.90    1.91
  -5  -3   6   35.74    1.79
   5   3  -6   35.22    1.68
   5   3  -6   38.06    1.70
   5   3  -6   39.80    1.80
  -5  -3   5    3.82    0.62
   5   3  -5    3.01    0.63
  -5  -3   5    2.74    0.54
   5   3  -5    2.94    0.52
   5   3  -5    3.32    0.53
  -5  -3   4   25.29    1.57
   5   3  -4   25.88    1.68
  -5  -3   4   24.64    1.54
   5   3  -4   23.92    1.37
   5   3  -4   24.88    1.42
  -5  -3   3   12.25    1.01
   5   3  -3    9.89    1.04
  -5  -3   3   11.79    1.01
   5   3  -3   11.64    0.89
  -5  -3   3   11.20    0.91
  -5  -3   3   10.65    0.91
  -5  -3   3   13.17    0.97
   5   3  -3   12.00    0.95
  -5  -3   2   70.32    2.57
   5   3  -2   67.93    2.80
  -5  -3   2   68.67    2.57
  -5  -3   2   71.83    2.57
  -5  -3   2   74.05    2.71
   5   3  -2   70.39    2.40
  -5  -3   1  139.48    3.89
   5   3  -1  125.54    4.03
  -5  -3   1  135.00    3.83
  -5  -3   1  134.15    3.94
  -5  -3   1  142.24    4.12
   5   3  -1  136.74    3.57
   5   3  -1  122.66    4.03
   5   3   0    0.86    0.32
  -5  -3   0    1.10    0.36
  -5  -3   0    0.84    0.30
  -5  -3   0    1.25    0.34
  -5  -3   0    1.05    0.36
  -5  -3   0    1.49    0.41
   5   3   0    1.09    0.26
   5   3   0    1.73    0.46
  -5  -3  -1    2.78    0.49
   5   3   1    3.19    0.50
  -5  -3  -1    3.24    0.50
  -5  -3  -1    2.95    0.56
  -5  -3  -1    3.29    0.57
   5   3   1    3.07    0.36
   5   3   1    3.73    0.57
  -5  -3  -2   44.41    1.91
   5   3   2   46.39    1.87
  -5  -3  -2   47.76    2.03
  -5  -3  -2   46.64    2.12
  -5  -3  -2   44.47    2.07
   5   3   2   50.18    2.01
  -5  -3  -3  233.07    5.84
  -5  -3  -3  240.80    5.93
   5   3   3  240.33    5.62
  -5  -3  -3  237.28    5.27
   5   3   3  234.06    5.71
  -5  -3  -3  231.58    6.03
  -5  -3  -3  246.40    6.13
  -5  -3  -3  233.50    6.10
   5   3   3  233.34    5.81
  -5  -3  -4  205.96    5.30
   5   3   4  215.85    4.98
  -5  -3  -4  197.17    4.85
   5   3   4  200.18    4.63
   5   3   4  200.22    5.12
  -5  -3  -4  204.48    5.53
  -5  -3  -4  206.40    5.38
   5   3   4  203.55    4.57
  -5  -3  -4  195.71    5.41
   5   3   4  197.54    5.13
   5   3   5    5.59    0.57
   5   3   5    6.56    0.61
  -5  -3  -5    5.79    0.69
  -5  -3  -5    5.42    0.60
   5   3   5    4.98    0.57
   5   3   5    5.40    0.66
  -5  -3  -5    5.65    0.75
  -5  -3  -5    5.90    0.69
  -5  -3  -5    6.01    0.73
   5   3   5    5.52    0.65
  -5  -3  -6   24.48    1.41
  -5  -3  -6   24.73    1.38
   5   3   6   27.86    1.40
   5   3   6   26.14    1.51
  -5  -3  -6   23.14    1.52
  -5  -3  -6   26.07    1.32
   5   3   6   24.81    1.29
   5   3   6   24.52    1.42
  -5  -3  -7   21.24    1.32
  -5  -3  -7   27.02    1.48
   5   3   7   28.35    1.46
   5   3   7   25.14    1.54
  -5  -3  -7   25.60    1.55
   5   3   7   18.33    1.20
   5   3   7   28.29    1.52
  -5  -3  -8   19.38    1.19
  -5  -3  -8   19.33    1.27
   5   3   8   20.55    1.39
  -5  -3  -8   19.99    1.31
   5   3   8   18.27    1.18
   5   3   8   19.52    1.25
   5   3   8   19.25    1.23
  -5  -3  -9  167.60    4.58
   5   3   9  165.93    4.36
   5   3   9  161.56    4.68
  -5  -3  -9  167.72    4.41
   5   3   9  165.43    4.57
  -5  -3  -9  163.39    4.27
   5   3   9  162.47    4.34
   5   3  10    1.24    0.36
  -5  -3 -10    1.55    0.31
  -5  -3 -10    1.48    0.36
   5   3  10    0.89    0.26
   5   3  10    1.78    0.40
  -5  -3 -11   20.37    1.02
   5   3  11   19.39    1.02
   5   3  11   21.26    1.10
   5   3  11   20.15    1.03
  -5  -4   7   89.25    2.84
  -5  -4   7   88.45    2.69
   5   4  -7   95.46    2.83
   5   4  -7   86.91    2.54
   5   4  -7   90.08    2.66
  -5  -4   7   93.53    2.87
  -5  -4   6   63.38    2.41
   5   4  -6   62.09    2.50
  -5  -4   6   64.02    2.40
   5   4  -6   60.96    2.26
   5   4  -6   68.65    2.40
   5   4  -6   63.33    2.19
  -5  -4   5    0.59    0.37
   5   4  -5    0.61    0.34
  -5  -4   5    0.70    0.36
   5   4  -5    0.45    0.30
   5   4  -5    1.15    0.39
   5   4  -5    0.38    0.30
  -5  -4   4    5.50    0.73
   5   4  -4    4.67    0.75
  -5  -4   4    3.91    0.63
   5   4  -4    2.92    0.52
  -5  -4   4    4.31    0.55
   5   4  -4    4.72    0.65
   5   4  -4    3.90    0.63
  -5  -4   3    7.72    0.78
   5   4  -3    7.91    0.93
  -5  -4   3    7.51    0.81
   5   4  -3    7.52    0.72
  -5  -4   3    7.46    0.79
  -5  -4   3    7.25    0.73
   5   4  -3    7.04    0.77
   5   4  -3    7.75    0.86
  -5  -4   2   25.12    1.38
   5   4  -2   25.74    1.64
  -5  -4   2   24.11    1.37
   5   4  -2   25.71    1.22
  -5  -4   2   24.38    1.40
  -5  -4   2   26.51    1.53
   5   4  -2   24.79    1.40
   5   4  -2   22.99    1.48
  -5  -4   1  203.64    5.02
   5   4  -1  183.00    5.33
  -5  -4   1  196.16    4.96
  -5  -4   1  202.24    4.84
  -5  -4   1  188.70    5.22
  -5  -4   1  203.66    5.39
   5   4  -1  199.37    5.01
   5   4  -1  190.30    5.30
  -5  -4   0   63.27    2.36
  -5  -4   0   61.79    2.20
   5   4   0   62.85    2.51
  -5  -4   0   65.10    2.29
  -5  -4   0   65.41    2.57
  -5  -4   0   59.86    2.45
   5   4   0   68.05    2.25
   5   4   0   60.40    2.42
  -5  -4  -1    1.24    0.36
  -5  -4  -1    1.04    0.32
   5   4   1    0.67    0.34
   5   4   1    1.09    0.33
  -5  -4  -1    1.28    0.37
  -5  -4  -1    0.77    0.34
  -5  -4  -1    1.17    0.41
   5   4   1    1.26    0.30
   5   4   1    0.96    0.34
  -5  -4  -2    2.87    0.49
   5   4   2    4.05    0.56
   5   4   2    3.03    0.43
   5   4   2    3.50    0.48
  -5  -4  -2    3.02    0.51
  -5  -4  -2    3.28    0.57
  -5  -4  -2    3.13    0.56
   5   4   2    2.35    0.38
   5   4   2    2.77    0.49
  -5  -4  -3  163.67    4.42
   5   4   3  169.63    4.47
   5   4   3  162.48    4.17
   5   4   3  169.70    4.34
  -5  -4  -3  171.49    4.76
  -5  -4  -3  169.60    4.75
  -5  -4  -3  164.89    4.76
   5   4   3  162.66    4.48
  -5  -4  -4  172.01    4.53
   5   4   4  173.36    4.51
  -5  -4  -4  165.15    4.39
   5   4   4  169.98    4.11
   5   4   4  167.33    4.31
   5   4   4  179.58    4.57
  -5  -4  -4  164.62    4.85
   5   4   4  169.88    4.25
  -5  -4  -4  164.06    4.72
  -5  -4  -4  167.48    4.78
   5   4   4  165.12    4.58
  -5  -4  -5   18.36    1.20
  -5  -4  -5   20.47    1.25
   5   4   5   22.20    1.25
   5   4   5   19.49    1.07
   5   4   5   22.01    1.33
  -5  -4  -5   21.82    1.49
  -5  -4  -5   20.83    1.31
   5   4   5   20.51    1.17
  -5  -4  -5   22.62    1.37
   5   4   5   20.56    1.31
   5   4   6    4.71    0.58
   5   4   6    4.10    0.54
  -5  -4  -6    4.59    0.60
  -5  -4  -6    4.32    0.63
   5   4   6    4.36    0.53
   5   4   6    5.00    0.68
  -5  -4  -6    4.35    0.70
  -5  -4  -6    3.66    0.54
  -5  -4  -6    3.46    0.52
   5   4   6    4.45    0.65
   5   4   7    0.56    0.33
  -5  -4  -7    0.76    0.32
  -5  -4  -7    0.68    0.35
   5   4   7    0.28    0.22
   5   4   7    0.58    0.35
  -5  -4  -7    0.70    0.35
   5   4   7    0.74    0.36
   5   4   8    0.37    0.30
  -5  -4  -8    0.71    0.29
  -5  -4  -8    1.37    0.41
   5   4   8    1.35    0.35
   5   4   8    0.81    0.40
  -5  -4  -8    0.40    0.26
   5   4   8    0.94    0.38
  -5  -4  -9   69.85    2.63
   5   4   9   75.35    2.79
  -5  -4  -9   66.16    2.37
   5   4   9   75.60    2.71
  -5  -4  -9   71.54    2.18
   5   4   9   75.36    2.63
  -5  -4 -10   82.56    2.70
   5   4  10   80.89    2.74
   5   4  10   82.74    2.76
  -5  -4 -11   14.91    0.86
   5   4  11   14.68    0.85
   5   4  11   13.51    0.87
   5   4  11   14.15    0.87
  -5  -5   7   25.93    1.17
  -5  -5   7   24.52    1.13
   5   5  -7   28.24    1.23
  -5  -5   7   25.83    1.21
  -5  -5   6   54.96    2.08
   5   5  -6   56.43    2.15
  -5  -5   6   53.48    2.04
   5   5  -6   55.64    2.00
   5   5  -6   54.46    2.10
  -5  -5   5    2.23    0.46
   5   5  -5    2.73    0.55
  -5  -5   5    2.16    0.46
   5   5  -5    2.85    0.48
   5   5  -5    2.84    0.52
  -5  -5   4    8.36    0.85
   5   5  -4    8.19    0.96
  -5  -5   4   10.07    0.92
   5   5  -4    8.67    0.80
  -5  -5   4    8.54    0.79
   5   5  -4   10.48    0.95
   5   5  -4   10.31    0.86
  -5  -5   3   38.45    1.89
   5   5  -3   41.06    2.16
   5   5  -3   41.52    1.77
  -5  -5   3   41.50    1.87
  -5  -5   3   41.03    1.95
   5   5  -3   41.21    1.98
   5   5  -3   40.74    1.89
   5   5  -3   45.38    1.81
  -5  -5   2   22.23    1.21
   5   5  -2   21.32    1.52
  -5  -5   2   22.21    1.25
   5   5  -2   20.73    1.12
  -5  -5   2   18.66    1.24
  -5  -5   2   21.95    1.43
   5   5  -2   19.78    1.31
   5   5  -2   22.21    1.37
  -5  -5   1   61.15    2.14
   5   5  -1   59.76    2.57
  -5  -5   1   60.97    2.12
   5   5  -1   63.65    1.98
  -5  -5   1   60.55    2.18
  -5  -5   1   62.15    2.49
  -5  -5   1   63.79    2.56
   5   5  -1   60.12    2.37
   5   5  -1   61.38    2.41
  -5  -5   0  166.95    4.22
   5   5   0  165.18    4.83
  -5  -5   0  169.76    4.05
  -5  -5   0  170.23    4.50
  -5  -5   0  168.57    4.86
  -5  -5   0  163.16    4.75
   5   5   0  167.38    4.54
   5   5   0  169.38    4.64
  -5  -5  -1    4.04    0.55
  -5  -5  -1    4.00    0.48
   5   5   1    6.21    0.75
   5   5   1    4.48    0.58
   5   5   1    4.75    0.51
  -5  -5  -1    4.61    0.60
  -5  -5  -1    4.15    0.64
  -5  -5  -1    4.63    0.68
   5   5   1    4.37    0.57
   5   5   1    4.37    0.60
  -5  -5  -2   14.46    0.98
  -5  -5  -2   14.04    0.83
   5   5   2   11.81    1.00
   5   5   2   13.85    0.97
   5   5   2   13.55    0.88
  -5  -5  -2   13.85    1.08
  -5  -5  -2   12.69    1.08
  -5  -5  -2   13.56    1.12
   5   5   2   14.06    0.97
   5   5   2   14.56    1.06
   5   5   2   13.42    0.86
  -5  -5  -3   68.73    2.35
   5   5   3   67.44    2.51
   5   5   3   62.76    2.32
   5   5   3   65.00    2.27
  -5  -5  -3   69.37    2.69
  -5  -5  -3   66.92    2.63
  -5  -5  -3   66.52    2.63
   5   5   3   69.89    2.57
  -5  -5  -4   74.65    2.55
   5   5   4   79.90    2.78
   5   5   4   73.86    2.61
   5   5   4   83.40    2.72
  -5  -5  -4   74.47    2.94
  -5  -5  -4   78.67    2.88
  -5  -5  -4   75.18    2.82
   5   5   4   84.02    2.93
  -5  -5  -5    1.00    0.33
   5   5   5    1.19    0.38
  -5  -5  -5    1.13    0.35
   5   5   5    1.29    0.37
   5   5   5    1.18    0.36
  -5  -5  -5    0.70    0.35
  -5  -5  -5    0.90    0.33
  -5  -5  -5    0.70    0.32
   5   5   5    1.44    0.45
   5   5   6    0.51    0.30
  -5  -5  -6    1.01    0.32
   5   5   6    0.56    0.31
  -5  -5  -6    0.74    0.35
   5   5   6    0.80    0.35
  -5  -5  -6    0.84    0.41
  -5  -5  -6    1.66    0.41
  -5  -5  -6    1.02    0.34
   5   5   6    1.08    0.43
  -5  -5  -7   35.84    1.54
  -5  -5  -7   34.81    1.88
   5   5   7   33.96    1.53
   5   5   7   39.36    1.97
  -5  -5  -7   36.23    1.90
   5   5   7   36.78    1.84
   5   5   7   37.57    1.97
  -5  -5  -8   33.71    1.81
   5   5   8   34.72    1.83
  -5  -5  -8   33.35    1.68
   5   5   8   35.50    1.80
  -5  -5  -8   31.89    1.39
   5   5   8   33.68    1.81
  -5  -5  -9   95.31    3.19
   5   5   9  100.15    3.23
  -5  -5  -9   88.51    2.74
   5   5   9   93.11    3.13
  -5  -5  -9   92.50    2.63
   5   5   9   96.02    3.16
  -5  -5 -10   88.55    2.85
   5   5  10   94.20    2.88
   5   5  10   91.87    2.93
   5   5  11    2.21    0.36
  -5  -5 -11    1.33    0.26
   5   5  11    1.74    0.28
   5   5  11    1.91    0.31
   5   6  -6   36.88    1.38
  -5  -6   6   36.18    1.45
   5   6  -6   35.96    1.41
   5   6  -6   37.12    1.58
  -5  -6   6   35.85    1.51
  -5  -6   5    6.89    0.66
   5   6  -5    5.23    0.64
  -5  -6   5    5.69    0.60
   5   6  -5    6.48    0.62
   5   6  -5    5.80    0.68
  -5  -6   4   52.32    2.10
   5   6  -4   55.55    2.37
  -5  -6   4   53.08    2.08
   5   6  -4   54.60    2.08
  -5  -6   4   51.64    2.06
   5   6  -4   57.35    2.38
   5   6  -4   51.91    2.01
  -5  -6   3   14.46    1.05
   5   6  -3   13.84    1.20
  -5  -6   3   12.93    0.94
   5   6  -3   13.84    0.97
  -5  -6   3   12.68    1.05
   5   6  -3   13.63    1.12
   5   6  -3   12.96    0.99
   5   6  -2   75.77    3.02
  -5  -6   2   77.15    2.45
   5   6  -2   74.31    2.43
   5   6  -2   72.60    2.41
  -5  -6   2   76.97    2.40
  -5  -6   2   70.01    2.65
  -5  -6   2   74.85    2.88
   5   6  -2   74.77    2.86
   5   6  -2   73.00    2.52
   5   6  -1   10.42    1.04
  -5  -6   1   10.38    0.71
   5   6  -1    7.64    0.76
   5   6  -1    9.26    0.70
  -5  -6   1    9.64    0.83
  -5  -6   1    9.02    0.89
  -5  -6   1    9.10    0.93
   5   6  -1    9.56    0.92
   5   6  -1    9.05    0.83
   5   6   0   83.13    3.15
  -5  -6   0   87.13    2.91
  -5  -6   0   90.81    3.23
  -5  -6   0   85.25    3.12
   5   6   0   80.77    2.97
   5   6   0   87.33    2.91
   5   6   0   83.80    2.64
   5   6   1   86.66    3.13
  -5  -6  -1   85.61    2.95
  -5  -6  -1   85.54    3.15
  -5  -6  -1   83.97    3.12
   5   6   1   82.53    2.95
   5   6   1   84.52    2.90
   5   6   1   85.19    2.73
  -5  -6  -2   18.20    1.07
   5   6   2   16.15    1.24
   5   6   2   16.26    1.14
  -5  -6  -2   18.24    1.28
  -5  -6  -2   17.98    1.31
  -5  -6  -2   17.99    1.31
   5   6   2   18.59    1.23
   5   6   2   16.93    1.20
   5   6   2   18.87    1.15
  -5  -6  -3    4.25    0.52
   5   6   3    5.19    0.74
   5   6   3    3.64    0.58
  -5  -6  -3    4.60    0.71
  -5  -6  -3    4.52    0.65
  -5  -6  -3    3.71    0.62
   5   6   3    4.44    0.63
  -5  -6  -4   77.85    2.34
   5   6   4   67.82    2.76
   5   6   4   76.23    2.79
   5   6   4   74.89    2.49
  -5  -6  -4   76.84    3.02
  -5  -6  -4   78.87    2.93
  -5  -6  -4   76.40    2.79
   5   6   4   75.21    2.91
   5   6   5    7.86    0.86
   5   6   5    6.60    0.80
   5   6   5    7.87    0.87
   5   6   5    6.31    0.69
  -5  -6  -5    6.91    0.88
  -5  -6  -5    6.92    0.81
  -5  -6  -5    8.05    0.78
   5   6   5    7.41    0.89
   5   6   6  129.63    3.99
  -5  -6  -6  137.72    4.25
   5   6   6  135.51    4.08
   5   6   6  127.36    3.93
   5   6   6  121.40    3.77
  -5  -6  -6  129.87    4.22
  -5  -6  -6  130.39    3.86
   5   6   6  137.45    4.39
  -5  -6  -7   55.46    2.43
   5   6   7   50.00    1.97
   5   6   7   48.28    2.20
   5   6   7   45.72    2.06
  -5  -6  -7   51.36    2.29
   5   6   7   49.89    2.25
  -5  -6  -7   50.71    1.83
   5   6   7   55.32    2.50
  -5  -6  -8   41.74    2.02
   5   6   8   35.21    1.82
   5   6   8   37.19    1.78
  -5  -6  -8   39.81    1.78
   5   6   8   39.71    1.94
  -5  -6  -8   39.45    1.56
   5   6   8   41.75    2.06
  -5  -6  -9    0.61    0.30
   5   6   9    0.86    0.34
   5   6   9    0.49    0.25
  -5  -6  -9    0.78    0.25
   5   6   9    0.57    0.32
   5   6   9    0.72    0.33
  -5  -6 -10   33.57    1.49
   5   6  10   33.93    1.51
   5   6  10   35.56    1.39
   5   6  11   25.18    1.07
  -5  -7   6   35.43    1.22
  -5  -7   5    0.34    0.20
   5   7  -5    0.43    0.22
  -5  -7   5    0.43    0.22
   5   7  -5    0.37    0.24
   5   7  -5    0.30    0.24
   5   7  -4   11.40    0.88
  -5  -7   4   11.78    0.78
  -5  -7   4   11.04    0.75
   5   7  -4   11.81    0.84
  -5  -7   4   10.91    0.85
   5   7  -4   12.24    1.01
   5   7  -4   12.43    0.91
  -5  -7   3  107.55    3.13
   5   7  -3  114.25    3.60
  -5  -7   3  108.91    2.98
   5   7  -3  107.16    3.19
  -5  -7   3  117.74    3.60
   5   7  -3  118.83    3.75
   5   7  -3  110.56    3.49
  -5  -7   2   69.06    2.36
   5   7  -2   77.51    2.94
   5   7  -2   71.69    2.37
   5   7  -2   69.89    2.37
  -5  -7   2   74.38    2.40
  -5  -7   2   70.32    2.57
  -5  -7   2   74.16    2.85
   5   7  -2   71.05    2.83
   5   7  -2   75.18    2.81
   5   7  -1    0.64    0.42
   5   7  -1    0.69    0.33
  -5  -7   1    0.61    0.28
   5   7  -1    0.87    0.29
  -5  -7   1    0.53    0.38
  -5  -7   1    0.16    0.28
   5   7  -1    0.58    0.38
   5   7   0    1.20    0.45
   5   7   0    0.84    0.32
  -5  -7   0    1.58    0.43
   5   7   0    1.42    0.31
  -5  -7   0    0.68    0.33
  -5  -7   0    1.37    0.47
   5   7   0    0.75    0.35
   5   7   0    0.77    0.29
   5   7   0    1.42    0.37
   5   7   1    8.50    0.95
   5   7   1    8.19    0.86
  -5  -7  -1    7.83    0.85
  -5  -7  -1    9.78    0.97
   5   7   1    7.83    0.87
   5   7   1    7.61    0.75
   5   7   1    8.01    0.80
   5   7   2   37.01    1.99
   5   7   2   39.75    1.98
   5   7   2   38.53    1.96
  -5  -7  -2   36.96    1.92
  -5  -7  -2   36.16    1.90
   5   7   2   35.83    1.87
   5   7   2   34.07    1.74
   5   7   2   37.39    1.80
   5   7   3   96.76    3.46
   5   7   3   91.61    3.28
   5   7   3   95.43    3.37
  -5  -7  -3   98.56    3.44
  -5  -7  -3   92.27    3.22
   5   7   3   91.53    3.23
   5   7   3   93.78    3.23
   5   7   4  126.58    4.17
   5   7   4  126.51    4.08
   5   7   4  135.56    4.24
  -5  -7  -4  133.10    4.24
  -5  -7  -4  127.64    4.10
  -5  -7  -4  131.22    3.88
   5   7   4  123.53    4.06
   5   7   5    9.88    1.00
   5   7   5   10.32    1.01
   5   7   5    8.35    0.94
  -5  -7  -5    8.35    0.96
  -5  -7  -5   11.33    1.01
  -5  -7  -5    8.85    0.78
   5   7   5   10.55    1.05
  -5  -7  -6    1.59    0.48
   5   7   6    2.20    0.55
   5   7   6    1.62    0.43
  -5  -7  -6    1.40    0.43
  -5  -7  -6    1.84    0.40
   5   7   6    1.14    0.45
  -5  -7  -7   44.82    2.16
   5   7   7   44.15    1.82
   5   7   7   43.43    2.08
  -5  -7  -7   41.76    1.99
   5   7   7   45.63    2.22
  -5  -7  -8   73.37    2.81
   5   7   8   82.94    2.86
  -5  -7  -8   75.68    2.50
   5   7   8   76.77    2.89
  -5  -7  -9    5.24    0.62
   5   7   9    5.67    0.64
  -5  -7 -10    1.64    0.32
   5   7  10    1.55    0.30
   5   8  -5    7.66    0.60
   5   8  -5    7.45    0.62
  -5  -8   5    7.30    0.41
   5   8  -4    0.58    0.24
  -5  -8   4    0.08    0.23
   5   8  -4    0.48    0.28
   5   8  -4    0.50    0.26
   5   8  -3    8.50    0.72
   5   8  -3    8.55    0.69
  -5  -8   3    8.62    0.80
   5   8  -3    8.61    0.86
   5   8  -3    9.65    0.87
   5   8  -2   51.90    2.10
   5   8  -2   53.20    1.86
  -5  -8   2   48.86    1.83
   5   8  -2   48.36    1.83
  -5  -8   2   46.56    1.93
  -5  -8   2   51.80    2.21
   5   8  -2   55.01    2.35
   5   8  -2   51.73    2.25
   5   8  -1   20.74    1.37
   5   8  -1   22.21    1.27
  -5  -8   1   19.90    1.21
   5   8  -1   19.95    1.09
  -5  -8   1   22.34    1.36
  -5  -8   1   20.69    1.40
   5   8  -1   21.83    1.47
   5   8   0    0.89    0.37
   5   8   0    0.66    0.35
  -5  -8   0    0.64    0.31
   5   8   0    0.86    0.29
  -5  -8   0    1.16    0.44
  -5  -8   0    1.08    0.42
   5   8   0    1.14    0.42
   5   8   0    0.32    0.26
   5   8   1  114.97    3.85
   5   8   1  106.39    3.55
  -5  -8  -1  103.71    3.52
  -5  -8  -1  106.98    3.62
   5   8   1  107.58    3.70
   5   8   1  107.28    3.50
   5   8   2   21.26    1.52
   5   8   2   20.88    1.43
  -5  -8  -2   20.77    1.43
  -5  -8  -2   22.54    1.44
   5   8   2   21.27    1.15
   5   8   2   22.29    1.42
   5   8   3   44.57    2.26
   5   8   3   43.88    2.13
   5   8   3   45.66    2.21
  -5  -8  -3   41.83    2.10
  -5  -8  -3   44.37    1.99
   5   8   3   40.48    1.79
   5   8   3   43.03    2.07
   5   8   4  141.09    4.46
   5   8   4  133.60    4.25
   5   8   4  137.79    4.36
  -5  -8  -4  136.59    4.30
  -5  -8  -4  136.71    3.88
   5   8   4  135.80    3.99
   5   8   4  130.26    4.20
   5   8   5    0.74    0.36
   5   8   5    0.45    0.35
   5   8   5    0.47    0.31
  -5  -8  -5    0.55    0.32
  -5  -8  -5    0.48    0.33
   5   8   5    1.35    0.43
   5   8   5    0.67    0.40
  -5  -8  -6    1.73    0.48
   5   8   6    1.19    0.45
   5   8   6    0.74    0.30
  -5  -8  -6   -0.03    0.28
  -5  -8  -6    0.51    0.30
   5   8   6    0.67    0.35
  -5  -8  -7   18.18    1.27
   5   8   7   18.50    1.05
   5   8   7   17.64    1.24
  -5  -8  -7   17.17    1.12
   5   8   7   17.97    1.21
  -5  -8  -8   63.74    2.40
   5   8   8   67.16    2.41
  -5  -8  -9   32.65    1.40
   5   8   9   32.74    1.42
   5   9  -4   14.75    0.83
   5   9  -3    8.10    0.55
  -5  -9   3    9.07    0.71
   5   9  -3    9.11    0.77
   5   9  -3    9.17    0.77
   5   9  -2  153.06    2.94
   5   9  -2  151.06    2.93
  -5  -9   2  144.94    2.89
   5   9  -2  151.59    2.98
  -5  -9   2  151.15    3.52
   5   9  -2  155.42    3.74
   5   9  -2  154.36    3.71
   5   9  -1   59.89    2.14
   5   9  -1   61.64    2.18
   5   9  -1   64.50    2.21
  -5  -9   1   60.44    2.15
   5   9  -1   60.32    1.95
  -5  -9   1   63.29    2.26
  -5  -9   1   62.08    2.40
   5   9  -1   63.61    2.52
   5   9  -1   64.98    2.55
   5   9   0    6.96    0.74
   5   9   0    8.26    0.79
  -5  -9   0    8.47    0.79
   5   9   0    8.38    0.63
  -5  -9   0    8.97    0.83
  -5  -9   0    8.54    0.85
   5   9   0    8.84    0.91
   5   9   0    8.67    0.84
   5   9   1    0.91    0.39
   5   9   1    0.70    0.35
  -5  -9  -1    0.69    0.33
  -5  -9  -1    0.62    0.34
   5   9   1    0.24    0.30
   5   9   2   31.82    1.77
   5   9   2   31.26    1.72
  -5  -9  -2   33.69    1.77
  -5  -9  -2   31.45    1.62
   5   9   2   32.13    1.72
   5   9   3   26.36    1.63
   5   9   3   30.26    1.71
  -5  -9  -3   25.34    1.55
  -5  -9  -3   28.38    1.44
   5   9   3   26.28    1.58
   5   9   4   90.69    3.20
   5   9   4   85.31    3.16
  -5  -9  -4   89.08    3.09
  -5  -9  -4   83.12    2.53
   5   9   4   84.23    3.07
   5   9   5   38.04    1.93
   5   9   5   40.77    1.95
  -5  -9  -5   40.81    1.88
  -5  -9  -5   39.62    1.77
   5   9   5   38.57    1.94
   5   9   6   11.31    0.92
  -5  -9  -6    9.91    0.90
   5   9   6    9.89    0.85
   5   9   6   11.16    0.94
  -5  -9  -6    9.52    0.83
  -5  -9  -6   10.64    0.78
   5   9   6    9.49    0.92
  -5  -9  -7    0.52    0.28
   5   9   7    0.35    0.29
  -5  -9  -7    0.42    0.24
   5   9   7    0.89    0.37
  -5  -9  -8   93.42    2.73
   5   9   8   91.19    2.71
   5   9   8   95.59    2.86
  -5 -10   2   56.52    1.87
   5  10  -2   58.01    2.01
   5  10  -1   78.42    2.24
   5  10  -1   77.91    2.23
  -5 -10   1   79.27    2.23
  -5 -10   1   75.57    2.20
  -5 -10   1   78.82    2.45
   5  10  -1   78.47    2.61
   5  10   0    8.44    0.71
   5  10   0    7.86    0.68
  -5 -10   0    7.98    0.67
  -5 -10   0    7.17    0.67
  -5 -10   0    7.69    0.69
   5  10   0    8.21    0.78
   5  10   1   10.11    0.71
   5  10   1    9.64    0.82
   5  10   1    9.45    0.81
  -5 -10  -1    9.81    0.79
  -5 -10  -1   10.94    0.85
  -5 -10  -1   10.63    0.81
   5  10   1    9.73    0.88
   5  10   1    8.96    0.82
   5  10   2    1.60    0.40
   5  10   2    1.61    0.41
  -5 -10  -2    1.41    0.35
  -5 -10  -2    0.78    0.30
  -5 -10  -2    1.73    0.38
   5  10   2    1.57    0.40
   5  10   3   18.09    1.21
   5  10   3   17.59    1.19
  -5 -10  -3   20.07    1.20
  -5 -10  -3   19.37    1.17
  -5 -10  -3   17.00    0.88
   5  10   3   16.91    1.16
   5  10   4   47.84    2.04
   5  10   4   44.36    1.97
  -5 -10  -4   44.59    1.85
  -5 -10  -4   46.94    1.85
   5  10   4   42.93    1.90
   5  10   5   47.70    1.94
   5  10   5   46.09    1.91
  -5 -10  -5   44.82    1.77
  -5 -10  -5   49.34    1.79
   5  10   5   47.18    1.95
   5  10   6    2.69    0.37
  -5 -10  -6    2.33    0.40
   5  10   6    2.85    0.39
  -5 -10  -6    2.08    0.33
   5  10   6    2.39    0.43
   5  10   7    3.83    0.46
   5  11   2    1.10    0.29
   5  11   2    1.05    0.29
   5  11   2    0.72    0.23
   5  11   3   13.18    0.85
   5  11   3   12.10    0.81
   5  11   3   12.11    0.75
   5  11   3   12.34    0.81
  -6   5  -1   35.73    1.27
  -6   5  -2    2.36    0.30
  -6   4   2   23.91    1.16
  -6   4   1    1.07    0.31
  -6   4   1    0.59    0.19
  -6   4   0   30.69    1.46
  -6   4   0   33.06    1.39
  -6   4  -1   23.80    1.26
  -6   4  -1   23.22    1.20
   6  -4   1   22.57    0.93
  -6   4  -2   16.51    1.01
  -6   4  -2   16.48    1.00
   6  -4   2   16.74    0.80
  -6   4  -3    1.51    0.33
   6  -4   3    1.67    0.27
  -6   4  -3    1.78    0.36
  -6   4  -4   21.99    1.10
  -6   4  -4   21.81    1.04
   6  -4   4   20.28    0.86
  -6   4  -5   30.40    1.24
  -6   4  -6    4.47    0.40
  -6   3   4    3.36    0.43
  -6   3   3   10.34    0.83
  -6   3   2   43.98    1.94
  -6   3   2   43.70    1.59
  -6   3   1   18.92    1.26
  -6   3   1   17.53    1.06
   6  -3  -1   16.26    0.88
  -6   3   0    0.80    0.37
   6  -3   0   -0.12    0.22
  -6   3   0    0.73    0.30
  -6   3  -1   23.02    1.35
  -6   3  -1   22.97    1.41
   6  -3   1   22.83    1.00
  -6   3  -2    6.42    0.73
  -6   3  -2    6.89    0.54
  -6   3  -2    6.93    0.74
  -6   3  -3    5.46    0.48
  -6   3  -3    5.52    0.67
   6  -3   3    5.06    0.57
  -6   3  -3    4.80    0.63
  -6   3  -4   50.73    1.65
  -6   3  -4   53.67    2.01
  -6   3  -4   50.10    2.00
   6  -3   4   52.46    1.93
  -6   3  -5   35.79    1.57
  -6   3  -5   34.86    1.43
  -6   3  -5   33.42    1.36
   6  -3   5   34.71    1.46
  -6   3  -6    9.11    0.72
  -6   3  -6    9.69    0.67
   6  -3   6    9.23    0.67
   6  -3   6    8.97    0.67
  -6   3  -7   13.76    0.79
  -6   3  -7   13.64    0.74
   6  -3   7   12.70    0.70
  -6   2   5   29.07    1.05
  -6   2   4    0.53    0.26
  -6   2   4    0.16    0.16
   6  -2  -4   -0.02    0.21
  -6   2   3    0.68    0.34
  -6   2   3    0.36    0.20
   6  -2  -3   -0.26    0.24
  -6   2   2   57.39    2.10
  -6   2   2   56.25    2.08
  -6   2   2   55.85    2.38
  -6   2   2   54.47    1.75
   6  -2  -2   54.40    1.90
  -6   2   1   42.36    1.85
  -6   2   1   45.66    2.19
   6  -2  -1   43.48    1.58
  -6   2   1   42.93    1.91
  -6   2   0    1.00    0.35
  -6   2   0    1.61    0.49
  -6   2   0    0.95    0.37
  -6   2  -1    4.39    0.59
  -6   2  -1    3.45    0.62
   6  -2   1    4.63    0.58
  -6   2  -1    4.25    0.66
  -6   2  -2   38.28    1.55
  -6   2  -2   38.34    1.69
  -6   2  -2   36.42    1.85
   6  -2   2   41.08    1.68
  -6   2  -2   39.53    1.95
  -6   2  -3   12.39    0.84
  -6   2  -3   12.65    1.02
   6  -2   3   12.09    0.84
  -6   2  -3   14.57    1.13
  -6   2  -4  144.97    3.98
  -6   2  -4  149.41    4.31
  -6   2  -4  147.65    4.13
   6  -2   4  155.23    4.34
  -6   2  -4  155.55    4.40
  -6   2  -5   56.78    2.05
  -6   2  -5   53.03    2.15
  -6   2  -5   55.69    2.15
   6  -2   5   56.67    2.22
   6  -2   5   55.94    1.86
  -6   2  -5   56.00    2.09
  -6   2  -6    0.95    0.27
  -6   2  -6    1.33    0.38
  -6   2  -6    1.06    0.33
   6  -2   6    1.41    0.36
  -6   2  -6    0.81    0.25
  -6   2  -7    3.59    0.48
  -6   2  -7    3.48    0.48
   6  -2   7    2.63    0.41
   6  -2   7    3.09    0.40
  -6   2  -8   15.40    0.86
  -6   2  -8   15.89    0.90
   6  -2   8   14.09    0.82
  -6   1   5   29.10    1.24
   6  -1  -5   27.16    1.27
  -6   1   4    0.20    0.24
  -6   1   4    0.23    0.21
   6  -1  -4    0.26    0.25
  -6   1   3   10.18    0.90
  -6   1   3    9.83    0.78
   6  -1  -3    8.51    0.82
  -6   1   2    7.29    0.86
  -6   1   2    6.88    0.80
  -6   1   2    6.04    0.60
  -6   1   2    6.11    0.70
   6  -1  -2    5.75    0.70
  -6   1   1  169.19    4.90
  -6   1   1  161.19    4.78
  -6   1   1  157.41    3.92
  -6   1   1  163.14    4.62
   6  -1  -1  159.23    4.44
  -6   1   1  165.17    4.63
  -6   1   0   72.01    2.85
  -6   1   0   70.59    2.84
  -6   1   0   68.89    2.73
   6  -1   0   73.28    2.49
  -6   1   0   67.88    2.71
  -6   1  -1    8.01    0.79
  -6   1  -1    7.91    0.85
  -6   1  -1    8.04    0.89
  -6   1  -1    8.40    0.89
  -6   1  -1    7.41    0.85
   6  -1   1    8.52    0.70
  -6   1  -2   62.86    2.35
  -6   1  -2   62.17    2.45
  -6   1  -2   64.50    2.56
   6  -1   2   57.95    2.35
  -6   1  -2   62.60    2.61
  -6   1  -2   64.17    2.65
   6  -1   2   63.05    1.97
  -6   1  -3    1.46    0.35
  -6   1  -3    1.13    0.38
  -6   1  -3    1.89    0.43
   6  -1   3    0.81    0.34
  -6   1  -3    0.81    0.39
  -6   1  -3    1.13    0.39
  -6   1  -4   39.90    1.82
  -6   1  -4   37.74    1.84
  -6   1  -4   44.09    1.97
   6  -1   4   39.07    1.75
  -6   1  -4   44.93    2.04
  -6   1  -4   43.21    2.02
  -6   1  -5   73.66    2.66
  -6   1  -5   71.53    2.69
   6  -1   5   70.33    2.67
   6  -1   5   70.19    2.46
  -6   1  -5   69.59    2.54
  -6   1  -5   71.27    2.56
  -6   1  -6    3.31    0.53
  -6   1  -6    3.17    0.55
   6  -1   6    3.11    0.56
   6  -1   6    2.96    0.46
  -6   1  -6    2.67    0.42
  -6   1  -7    7.49    0.77
   6  -1   7    6.42    0.70
   6  -1   7    6.76    0.56
   6  -1   7    5.40    0.54
  -6   1  -8   21.95    1.24
   6  -1   8   23.00    1.20
   6  -1   8   22.13    0.94
  -6   1  -9   47.70    1.68
  -6   1  -9   52.72    1.84
   6  -1   9   51.35    1.72
  -6   0   6    4.75    0.49
   6   0  -6    4.95    0.50
   6   0  -5   83.44    2.52
  -6   0   5   91.50    2.73
   6   0  -5   83.56    2.76
  -6   0   4    6.78    0.65
  -6   0   4    9.12    0.74
   6   0  -4    7.04    0.67
  -6   0   4    9.02    0.79
   6   0  -4    8.16    0.82
  -6   0   3    5.17    0.77
  -6   0   3    8.08    0.76
  -6   0   3    6.67    0.68
   6   0  -3    6.70    0.68
  -6   0   3    6.17    0.68
   6   0  -3    3.81    0.62
  -6   0   2   26.81    1.75
  -6   0   2   29.02    1.57
  -6   0   2   33.52    1.61
   6   0  -2   31.48    1.46
  -6   0   2   29.78    1.46
  -6   0   2   32.22    1.64
   6   0  -2   28.59    1.69
  -6   0   2   33.59    1.66
  -6   0   1  201.38    5.76
  -6   0   1  189.13    5.28
  -6   0   1  199.01    4.83
  -6   0   1  195.49    5.31
  -6   0   1  201.33    5.37
   6   0  -1  194.55    5.44
  -6   0   0  116.25    3.74
  -6   0   0  114.42    3.92
  -6   0   0  115.37    3.68
  -6   0   0  110.77    3.69
  -6   0   0  108.81    3.66
   6   0   0  115.04    3.62
  -6   0  -1    3.95    0.61
  -6   0  -1    2.90    0.59
  -6   0  -1    4.60    0.65
  -6   0  -1    2.87    0.55
  -6   0  -1    3.28    0.59
   6   0   1    3.43    0.53
  -6   0  -2    3.04    0.54
  -6   0  -2    2.68    0.50
   6   0   2    2.43    0.50
  -6   0  -2    2.88    0.59
  -6   0  -2    3.63    0.63
   6   0   2    3.05    0.48
  -6   0  -3    1.88    0.43
  -6   0  -3    1.73    0.42
  -6   0  -3    1.90    0.45
   6   0   3    1.16    0.37
  -6   0  -3    1.61    0.45
  -6   0  -3    1.93    0.43
  -6   0  -3    1.66    0.46
   6   0   3    0.85    0.26
  -6   0  -4   41.55    1.92
  -6   0  -4   36.75    1.76
  -6   0  -4   38.59    1.91
   6   0   4   39.17    1.84
  -6   0  -4   38.61    1.91
  -6   0  -4   38.76    1.93
  -6   0  -4   36.61    1.91
   6   0   4   39.02    1.49
  -6   0  -5  162.11    4.72
   6   0   5  160.54    4.64
   6   0   5  166.01    4.57
  -6   0  -5  158.75    4.50
  -6   0  -5  159.39    4.52
  -6   0  -6   50.70    2.27
   6   0   6   48.37    2.16
   6   0   6   52.40    2.13
  -6   0  -6   49.34    1.92
  -6   0  -6   48.93    1.92
  -6   0  -7    7.31    0.81
   6   0   7    6.30    0.74
   6   0   7    7.60    0.74
  -6   0  -8    2.02    0.44
   6   0   8    1.69    0.38
   6   0   8    2.13    0.37
  -6   0  -9  105.69    3.11
   6   0   9  106.20    3.00
   6   0   9  103.20    2.77
  -6   0 -10   70.26    2.10
   6   1  -6    5.61    0.54
  -6  -1   6    7.54    0.66
   6   1  -6    6.25    0.59
  -6  -1   5   80.37    2.71
   6   1  -5   77.68    2.62
  -6  -1   5   85.25    2.75
   6   1  -5   77.23    2.74
  -6  -1   5   86.66    2.50
  -6  -1   4  149.16    4.37
   6   1  -4  148.08    4.20
  -6  -1   4  145.54    4.21
   6   1  -4  154.30    4.49
  -6  -1   3   11.17    1.10
  -6  -1   3   11.08    0.78
  -6  -1   3    9.47    0.96
   6   1  -3   12.77    1.01
  -6  -1   3   12.42    1.00
   6   1  -3   11.09    1.07
  -6  -1   2   12.21    1.17
  -6  -1   2   11.86    0.87
   6   1  -2    9.69    0.90
  -6  -1   2   11.81    0.93
  -6  -1   2   11.97    0.98
  -6  -1   2   11.58    0.96
   6   1  -2   11.02    1.08
  -6  -1   1   48.95    2.42
  -6  -1   1   50.41    2.01
   6   1  -1   48.12    1.99
  -6  -1   1   54.84    2.26
  -6  -1   1   50.33    2.19
   6   1  -1   50.36    2.35
  -6  -1   0   29.61    1.77
  -6  -1   0   34.64    1.96
  -6  -1   0   32.40    1.61
   6   1   0   32.97    1.48
  -6  -1   0   31.93    1.76
  -6  -1   0   35.26    1.81
  -6  -1   0   32.28    1.75
   6   1   0   34.81    1.83
  -6  -1  -1   26.95    1.66
  -6  -1  -1   30.08    1.77
  -6  -1  -1   29.39    1.53
  -6  -1  -1   30.50    1.37
  -6  -1  -1   29.30    1.71
  -6  -1  -1   30.96    1.75
  -6  -1  -1   30.40    1.75
   6   1   1   31.08    1.65
  -6  -1  -2   20.54    1.39
  -6  -1  -2   21.06    1.25
   6   1   2   22.21    1.42
  -6  -1  -2   21.79    1.25
  -6  -1  -2   22.25    1.49
  -6  -1  -2   23.03    1.50
   6   1   2   21.76    1.31
  -6  -1  -3    6.82    0.79
  -6  -1  -3    9.09    0.81
  -6  -1  -3    7.93    0.88
   6   1   3    8.07    0.85
  -6  -1  -3    7.18    0.78
  -6  -1  -3    7.80    0.87
  -6  -1  -3    7.25    0.85
   6   1   3    7.73    0.73
  -6  -1  -4    0.28    0.34
  -6  -1  -4    1.26    0.34
  -6  -1  -4    1.79    0.47
   6   1   4    0.21    0.28
  -6  -1  -4    0.79    0.37
  -6  -1  -4    1.08    0.41
  -6  -1  -4    0.91    0.36
   6   1   4    0.20    0.24
  -6  -1  -5  115.16    3.77
   6   1   5  112.01    3.61
   6   1   5  114.71    3.66
  -6  -1  -5  115.16    3.79
  -6  -1  -5  107.22    3.49
  -6  -1  -5  114.08    3.60
   6   1   5  116.51    3.25
  -6  -1  -6  126.61    4.04
   6   1   6  128.84    3.95
   6   1   6  132.57    3.96
  -6  -1  -6  128.47    4.08
  -6  -1  -6  124.24    3.59
  -6  -1  -6  125.35    3.61
   6   1   6  127.07    3.40
  -6  -1  -7    6.42    0.79
   6   1   7    6.38    0.74
   6   1   7    5.96    0.71
  -6  -1  -7    7.33    0.83
  -6  -1  -8    0.65    0.33
   6   1   8    0.63    0.31
   6   1   8    0.28    0.26
  -6  -1  -9   17.33    1.10
   6   1   9   16.45    0.99
   6   1   9   15.56    0.96
   6   1   9   16.15    0.78
  -6  -1 -10   44.82    1.62
   6   1  10   46.01    1.55
   6   1  10   47.84    1.54
   6   1  10   42.95    1.26
  -6  -2   6   24.65    1.26
   6   2  -6   24.42    1.21
  -6  -2   6   29.12    1.38
   6   2  -6   27.33    1.25
  -6  -2   6   28.64    1.28
  -6  -2   5   22.16    1.37
   6   2  -5   21.87    1.29
  -6  -2   5   24.16    1.39
   6   2  -5   22.68    1.32
  -6  -2   4   55.17    2.41
   6   2  -4   51.16    2.24
   6   2  -4   52.26    2.32
  -6  -2   3    2.62    0.58
  -6  -2   3    2.07    0.56
   6   2  -3    1.55    0.47
   6   2  -3    2.50    0.57
  -6  -2   2    4.73    0.76
   6   2  -2    4.43    0.66
  -6  -2   2    5.19    0.64
  -6  -2   2    5.15    0.62
  -6  -2   2    4.41    0.60
   6   2  -2    4.62    0.74
  -6  -2   1   52.13    2.47
   6   2  -1   51.10    2.21
  -6  -2   1   52.38    2.24
  -6  -2   1   53.24    2.29
  -6  -2   1   54.29    2.26
   6   2  -1   51.28    2.42
  -6  -2   0   53.21    2.42
  -6  -2   0   55.72    1.89
   6   2   0   55.12    2.14
  -6  -2   0   53.45    2.31
  -6  -2   0   55.88    2.33
  -6  -2   0   56.22    2.45
   6   2   0   53.29    2.37
  -6  -2  -1   25.32    1.61
  -6  -2  -1   26.39    1.65
  -6  -2  -1   28.44    1.35
   6   2   1   27.28    1.36
  -6  -2  -1   28.51    1.70
  -6  -2  -1   27.67    1.35
  -6  -2  -1   29.82    1.71
  -6  -2  -1   30.17    1.78
   6   2   1   28.95    1.63
  -6  -2  -2   21.02    1.43
  -6  -2  -2   20.21    1.13
   6   2   2   21.05    1.09
   6   2   2   20.14    1.35
  -6  -2  -2   19.91    1.44
  -6  -2  -2   19.53    1.23
  -6  -2  -2   19.63    1.39
  -6  -2  -2   19.35    1.44
   6   2   2   18.51    1.26
  -6  -2  -3   19.44    1.35
  -6  -2  -3   20.35    1.13
   6   2   3   21.90    1.39
  -6  -2  -3   22.90    1.52
  -6  -2  -3   20.89    1.35
  -6  -2  -3   22.69    1.48
  -6  -2  -3   21.73    1.49
   6   2   3   20.45    1.29
  -6  -2  -4   41.59    2.05
  -6  -2  -4   41.75    2.07
   6   2   4   43.14    2.00
  -6  -2  -4   38.01    1.97
  -6  -2  -4   41.01    2.02
  -6  -2  -4   40.15    1.98
   6   2   4   43.57    1.91
  -6  -2  -5   10.80    1.02
   6   2   5    8.51    0.83
   6   2   5    9.07    0.90
  -6  -2  -5   10.01    1.00
  -6  -2  -5   10.74    0.95
  -6  -2  -5   10.81    0.95
   6   2   5   11.18    0.90
  -6  -2  -6  139.73    4.35
   6   2   6  142.64    4.17
   6   2   6  151.04    4.39
  -6  -2  -6  142.60    4.43
  -6  -2  -6  145.74    4.02
  -6  -2  -6  143.57    3.98
   6   2   6  148.51    4.03
  -6  -2  -7   25.40    1.54
  -6  -2  -7   24.79    1.12
   6   2   7   25.86    1.44
   6   2   7   26.75    1.54
  -6  -2  -7   27.94    1.62
   6   2   7   25.39    1.13
  -6  -2  -7   25.78    1.17
  -6  -2  -7   25.09    1.17
   6   2   7   28.14    1.35
  -6  -2  -8    9.20    0.88
  -6  -2  -8    7.88    0.62
   6   2   8    8.60    0.77
  -6  -2  -8    9.23    0.88
   6   2   8    8.14    0.64
   6   2   8    7.77    0.63
  -6  -2  -9   39.29    1.72
  -6  -2  -9   39.68    1.42
   6   2   9   41.30    1.61
   6   2   9   39.74    1.71
   6   2   9   37.53    1.44
  -6  -2 -10   19.59    0.98
  -6  -2 -10   18.26    0.77
   6   2  10   19.34    0.89
   6   2  10   18.74    0.98
   6   2  10   17.06    0.83
  -6  -3   6    6.53    0.64
   6   3  -6    4.86    0.55
  -6  -3   6    5.99    0.64
   6   3  -6    6.10    0.52
  -6  -3   6    6.38    0.63
  -6  -3   5    1.01    0.39
   6   3  -5    0.11    0.30
  -6  -3   5    0.79    0.35
   6   3  -5    0.25    0.20
   6   3  -5    0.21    0.21
  -6  -3   4   37.59    1.95
   6   3  -4   36.44    1.87
   6   3  -4   40.16    1.50
   6   3  -4   37.42    1.87
  -6  -3   3   48.93    2.23
  -6  -3   3   48.30    2.30
   6   3  -3   42.35    2.14
  -6  -3   3   43.99    1.74
   6   3  -3   47.06    1.70
   6   3  -3   46.44    2.23
  -6  -3   2    1.08    0.44
   6   3  -2    0.08    0.31
  -6  -3   2    0.41    0.31
  -6  -3   2    0.58    0.38
  -6  -3   2    0.48    0.31
   6   3  -2    0.38    0.32
  -6  -3   1   47.03    2.25
   6   3  -1   43.81    2.13
  -6  -3   1   45.64    2.07
  -6  -3   1   49.14    2.11
  -6  -3   1   44.82    2.19
   6   3  -1   49.90    2.34
  -6  -3   0   32.11    1.88
   6   3   0   33.16    1.72
  -6  -3   0   34.01    1.84
  -6  -3   0   34.88    1.83
  -6  -3   0   35.20    1.94
   6   3   0   33.40    1.86
  -6  -3  -1   28.11    1.70
  -6  -3  -1   27.32    1.63
   6   3   1   28.36    1.51
  -6  -3  -1   29.51    1.48
  -6  -3  -1   29.70    1.75
  -6  -3  -1   26.74    1.74
   6   3   1   30.42    1.69
  -6  -3  -2   25.83    1.62
   6   3   2   26.25    1.38
   6   3   2   27.70    1.55
  -6  -3  -2   26.59    1.52
  -6  -3  -2   29.06    1.74
  -6  -3  -2   26.04    1.70
   6   3   2   26.64    1.54
  -6  -3  -3   62.60    2.64
   6   3   3   70.45    2.31
   6   3   3   67.07    2.55
  -6  -3  -3   63.87    2.61
  -6  -3  -3   66.10    2.72
  -6  -3  -3   62.42    2.77
   6   3   3   69.36    2.60
  -6  -3  -4   45.72    2.13
   6   3   4   45.91    1.70
   6   3   4   42.09    1.95
  -6  -3  -4   42.89    2.11
  -6  -3  -4   42.73    2.07
  -6  -3  -4   45.50    2.22
   6   3   4   45.08    2.00
  -6  -3  -5    6.60    0.78
  -6  -3  -5    6.83    0.80
   6   3   5    6.87    0.68
   6   3   5    6.60    0.78
  -6  -3  -5    6.54    0.78
  -6  -3  -5    6.97    0.85
  -6  -3  -5    6.25    0.73
  -6  -3  -5    6.43    0.81
   6   3   5    6.88    0.76
  -6  -3  -6   34.27    1.81
  -6  -3  -6   31.86    1.38
   6   3   6   36.70    1.63
   6   3   6   35.64    1.36
   6   3   6   33.67    1.76
  -6  -3  -6   31.56    1.57
  -6  -3  -6   32.93    1.85
   6   3   6   34.72    1.36
  -6  -3  -6   32.02    1.57
   6   3   6   36.75    1.76
  -6  -3  -7   44.51    2.03
  -6  -3  -7   41.79    1.68
   6   3   7   43.60    1.81
   6   3   7   44.18    1.63
   6   3   7   44.32    2.04
  -6  -3  -7   44.89    2.12
   6   3   7   43.13    1.67
  -6  -3  -7   47.87    1.71
  -6  -3  -7   45.51    1.66
   6   3   7   44.82    1.93
   6   3   8    0.23    0.22
  -6  -3  -8    0.70    0.29
  -6  -3  -8    0.64    0.26
   6   3   8    0.11    0.21
   6   3   8    0.65    0.29
  -6  -3  -8    0.79    0.33
   6   3   8    0.64    0.27
  -6  -3  -9   17.51    1.04
  -6  -3  -9   16.83    0.94
   6   3   9   16.95    0.92
   6   3   9   18.55    1.13
  -6  -3  -9   17.92    1.08
   6   3   9   16.24    0.95
   6   3   9   14.97    0.89
  -6  -3 -10   33.98    1.27
   6   3  10   34.77    1.24
   6   3  10   39.40    1.52
   6   3  10   37.95    1.40
  -6  -4   6   55.95    1.96
   6   4  -6   57.07    1.90
  -6  -4   6   59.02    2.07
  -6  -4   6   51.57    1.95
  -6  -4   5    7.21    0.75
   6   4  -5    7.68    0.74
   6   4  -5    6.76    0.57
   6   4  -5    7.11    0.64
  -6  -4   4    0.64    0.36
   6   4  -4    0.54    0.35
   6   4  -4    0.53    0.25
   6   4  -4    0.40    0.29
  -6  -4   3   46.57    2.21
   6   4  -3   43.57    2.17
  -6  -4   3   45.23    1.88
   6   4  -3   48.31    1.85
   6   4  -3   48.02    2.14
  -6  -4   2    2.05    0.48
   6   4  -2    2.98    0.60
  -6  -4   2    2.59    0.50
  -6  -4   2    2.99    0.56
  -6  -4   2    2.05    0.44
   6   4  -2    2.40    0.43
   6   4  -2    1.76    0.47
  -6  -4   1   90.96    3.21
   6   4  -1   90.39    3.34
  -6  -4   1   92.55    3.16
  -6  -4   1   93.71    3.40
   6   4  -1   96.02    2.80
   6   4  -1   93.40    3.33
  -6  -4   0  101.05    3.40
   6   4   0  104.27    3.50
  -6  -4   0  101.31    3.06
  -6  -4   0   99.52    3.50
  -6  -4   0   91.98    3.52
   6   4   0  105.13    2.86
   6   4   0  103.23    3.52
  -6  -4  -1    3.19    0.65
  -6  -4  -1    4.00    0.63
   6   4   1    4.43    0.64
   6   4   1    4.33    0.59
  -6  -4  -1    4.94    0.64
  -6  -4  -1    4.26    0.71
  -6  -4  -1    3.57    0.67
   6   4   1    4.47    0.67
  -6  -4  -2    1.81    0.48
  -6  -4  -2    3.12    0.55
   6   4   2    3.15    0.56
   6   4   2    2.77    0.48
  -6  -4  -2    2.95    0.57
  -6  -4  -2    2.89    0.61
  -6  -4  -2    2.89    0.62
   6   4   2    2.49    0.51
  -6  -4  -3   52.90    2.36
   6   4   3   54.62    2.18
   6   4   3   55.30    2.18
  -6  -4  -3   54.42    2.39
  -6  -4  -3   55.21    2.48
  -6  -4  -3   55.12    2.55
   6   4   3   54.98    2.30
  -6  -4  -4   84.03    3.12
   6   4   4  101.27    3.02
   6   4   4   91.39    2.63
   6   4   4   88.87    3.02
  -6  -4  -4   94.40    3.40
  -6  -4  -4   91.58    3.29
  -6  -4  -4   96.59    3.47
   6   4   4   89.01    3.13
  -6  -4  -5   24.94    1.50
   6   4   5   27.22    1.34
  -6  -4  -5   23.47    1.20
   6   4   5   24.31    1.21
   6   4   5   24.93    1.21
   6   4   5   24.46    1.43
  -6  -4  -5   24.94    1.63
  -6  -4  -5   25.09    1.50
  -6  -4  -5   25.72    1.57
   6   4   5   25.39    1.48
   6   4   6    0.49    0.27
  -6  -4  -6    0.92    0.40
   6   4   6    0.64    0.26
  -6  -4  -6    0.89    0.30
   6   4   6    0.98    0.29
  -6  -4  -6    1.01    0.33
   6   4   6    1.10    0.30
   6   4   6    0.69    0.35
  -6  -4  -6    0.70    0.38
  -6  -4  -6    0.50    0.26
   6   4   6    1.02    0.39
  -6  -4  -7   42.58    1.91
  -6  -4  -7   42.45    1.77
   6   4   7   42.58    1.62
   6   4   7   41.43    1.70
   6   4   7   42.25    1.94
  -6  -4  -7   42.06    1.64
  -6  -4  -7   41.94    2.06
   6   4   7   43.36    1.73
  -6  -4  -7   43.59    1.64
   6   4   7   41.16    1.92
   6   4   8    1.14    0.32
  -6  -4  -8    1.95    0.42
  -6  -4  -8    1.36    0.33
   6   4   8    1.12    0.31
   6   4   8    0.90    0.30
  -6  -4  -8    2.31    0.49
   6   4   8    2.07    0.42
  -6  -4  -9   53.39    1.90
  -6  -4  -9   55.46    1.91
   6   4   9   55.23    1.91
   6   4   9   50.80    1.99
  -6  -4  -9   50.95    1.95
   6   4   9   53.85    1.96
   6   4   9   54.31    1.95
  -6  -4 -10   52.65    1.62
  -6  -4 -10   53.98    1.72
   6   4  10   50.75    1.69
   6   4  10   54.10    1.83
   6   4  10   51.88    1.78
  -6  -5   5   28.07    1.38
   6   5  -5   29.29    1.38
   6   5  -5   25.19    1.16
  -6  -5   4   11.07    0.93
   6   5  -4   10.37    0.92
   6   5  -4   10.81    0.81
   6   5  -4   12.75    0.85
  -6  -5   3    2.45    0.54
   6   5  -3    2.79    0.54
  -6  -5   3    2.81    0.49
   6   5  -3    3.39    0.49
   6   5  -3    3.33    0.50
  -6  -5   2   22.57    1.32
   6   5  -2   24.27    1.57
   6   5  -2   23.38    1.21
  -6  -5   2   23.83    1.31
  -6  -5   2   21.73    1.43
   6   5  -2   24.74    1.34
   6   5  -2   23.05    1.38
  -6  -5   1   42.58    1.87
   6   5  -1   41.63    2.10
  -6  -5   1   38.54    1.88
  -6  -5   1   40.28    2.10
   6   5  -1   41.31    1.77
   6   5  -1   39.90    1.91
  -6  -5   0  112.22    3.41
   6   5   0  110.26    3.72
   6   5   0  107.04    3.14
  -6  -5   0  107.20    3.33
  -6  -5   0  112.62    3.77
  -6  -5   0  113.04    3.85
   6   5   0  110.41    3.23
   6   5   0  108.85    3.52
  -6  -5  -1   82.13    2.77
   6   5   1   87.75    3.09
   6   5   1   76.22    2.55
  -6  -5  -1   83.29    2.94
  -6  -5  -1   82.43    3.23
  -6  -5  -1   86.29    3.28
   6   5   1   82.29    2.58
   6   5   1   80.83    2.91
  -6  -5  -2   36.48    1.86
   6   5   2   32.59    1.72
   6   5   2   32.52    1.49
  -6  -5  -2   31.44    1.74
  -6  -5  -2   30.62    1.83
  -6  -5  -2   33.88    1.95
   6   5   2   32.10    1.36
   6   5   2   30.87    1.65
  -6  -5  -3   14.46    1.14
  -6  -5  -3   10.36    0.86
   6   5   3   14.50    1.09
   6   5   3   11.14    0.85
   6   5   3   12.77    0.94
  -6  -5  -3   14.56    1.20
  -6  -5  -3   13.70    1.20
  -6  -5  -3   13.65    1.24
   6   5   3   13.86    1.10
  -6  -5  -4  100.96    3.34
   6   5   4  105.86    3.33
  -6  -5  -4   99.23    3.00
   6   5   4  103.71    3.06
   6   5   4  104.02    3.19
  -6  -5  -4  103.61    3.69
  -6  -5  -4   97.91    3.52
  -6  -5  -4   99.11    3.58
   6   5   4  100.09    3.36
  -6  -5  -5   28.08    1.51
   6   5   5   27.98    1.47
  -6  -5  -5   24.75    1.34
   6   5   5   25.33    1.33
   6   5   5   26.22    1.43
  -6  -5  -5   26.04    1.69
  -6  -5  -5   25.78    1.57
  -6  -5  -5   24.15    1.51
   6   5   5   26.29    1.53
  -6  -5  -6   10.99    0.89
   6   5   6   10.66    0.87
  -6  -5  -6   10.21    0.87
   6   5   6   11.30    0.87
   6   5   6   10.68    0.93
  -6  -5  -6   11.44    1.09
  -6  -5  -6   10.91    0.92
  -6  -5  -6   11.24    0.92
   6   5   6   11.34    0.99
  -6  -5  -7    7.61    0.71
  -6  -5  -7    7.08    0.73
   6   5   7    6.94    0.70
   6   5   7    6.92    0.66
   6   5   7    5.58    0.67
  -6  -5  -7    6.64    0.62
  -6  -5  -7    7.67    0.85
  -6  -5  -7    6.07    0.58
   6   5   7    6.83    0.78
  -6  -5  -8   11.00    0.76
  -6  -5  -8   11.84    0.88
   6   5   8   11.29    0.86
   6   5   8   10.40    0.86
  -6  -5  -8   10.23    0.89
   6   5   8   10.73    0.85
   6   5   8   11.52    0.93
  -6  -5  -9   41.86    1.38
  -6  -5  -9   41.28    1.63
   6   5   9   42.96    1.70
   6   5   9   43.99    1.71
  -6  -5  -9   40.76    1.63
   6   5   9   44.03    1.74
   6   5   9   44.39    1.75
  -6  -5 -10   92.72    2.55
   6   5  10   98.71    2.65
   6   5  10   96.31    2.61
  -6  -6   5   35.41    1.40
   6   6  -5   37.94    1.41
   6   6  -5   33.96    1.31
  -6  -6   4   21.53    1.20
   6   6  -4   21.27    1.20
   6   6  -4   21.41    1.13
  -6  -6   3    5.75    0.67
   6   6  -3    5.56    0.68
  -6  -6   3    6.52    0.68
   6   6  -3    5.47    0.63
   6   6  -3    6.65    0.56
   6   6  -2    4.38    0.66
   6   6  -2    4.42    0.52
  -6  -6   2    4.35    0.65
  -6  -6   2    4.41    0.55
   6   6  -2    2.72    0.49
   6   6  -2    4.26    0.55
   6   6  -2    4.04    0.51
   6   6  -1   25.83    1.59
   6   6  -1   25.83    1.42
  -6  -6   1   27.73    1.53
  -6  -6   1   28.29    1.68
   6   6  -1   23.47    1.38
   6   6  -1   25.60    1.37
  -6  -6   0  121.29    3.26
   6   6   0  114.53    3.83
  -6  -6   0  116.04    3.53
  -6  -6   0  115.81    3.87
  -6  -6   0  113.01    3.93
   6   6   0  118.00    3.56
   6   6   0  119.68    3.58
  -6  -6  -1   53.45    1.89
   6   6   1   54.74    2.39
  -6  -6  -1   49.81    2.20
  -6  -6  -1   51.35    2.45
  -6  -6  -1   49.08    2.40
   6   6   1   54.03    2.11
   6   6   1   54.00    2.20
  -6  -6  -2    4.69    0.53
   6   6   2    4.11    0.65
  -6  -6  -2    3.64    0.61
  -6  -6  -2    3.71    0.68
  -6  -6  -2    3.57    0.67
   6   6   2    3.93    0.59
  -6  -6  -3   21.96    1.32
   6   6   3   22.76    1.44
   6   6   3   22.14    1.30
   6   6   3   22.57    1.17
  -6  -6  -3   21.71    1.51
  -6  -6  -3   22.24    1.53
  -6  -6  -3   21.56    1.55
   6   6   3   21.51    1.38
   6   6   3   22.30    1.17
  -6  -6  -4   71.76    2.54
   6   6   4   74.15    2.75
  -6  -6  -4   71.67    2.53
   6   6   4   72.96    2.59
   6   6   4   73.40    2.42
  -6  -6  -4   69.24    2.95
  -6  -6  -4   71.67    2.90
  -6  -6  -4   71.39    2.86
   6   6   4   68.39    2.69
   6   6   4   70.58    2.41
  -6  -6  -5  133.79    3.75
   6   6   5  135.75    4.04
  -6  -6  -5  134.82    3.95
   6   6   5  133.39    3.91
   6   6   5  137.56    3.78
  -6  -6  -5  137.62    4.47
  -6  -6  -5  135.89    4.24
  -6  -6  -5  130.62    4.02
   6   6   5  139.76    4.20
  -6  -6  -6   60.80    2.08
   6   6   6   61.42    2.34
  -6  -6  -6   58.15    2.33
   6   6   6   61.13    2.33
   6   6   6   60.74    2.39
   6   6   6   60.22    2.21
  -6  -6  -6   63.38    2.68
  -6  -6  -6   59.07    2.33
  -6  -6  -6   58.87    2.16
   6   6   6   59.80    2.46
  -6  -6  -7   25.85    1.43
   6   6   7   27.30    1.44
   6   6   7   26.45    1.29
   6   6   7   29.82    1.41
  -6  -6  -7   24.97    1.19
   6   6   7   26.70    1.51
  -6  -6  -8    2.31    0.42
   6   6   8    1.64    0.39
   6   6   8    1.72    0.36
  -6  -6  -8    2.16    0.42
   6   6   8    1.39    0.36
  -6  -6  -9    1.14    0.30
   6   6   9    1.19    0.31
   6   6   9    1.31    0.29
  -6  -6  -9    0.84    0.25
   6   6   9    0.86    0.27
  -6  -6 -10   39.38    1.35
   6   6  10   40.24    1.44
  -6  -7   4   37.20    1.39
   6   7  -4   40.23    1.49
   6   7  -4   39.63    1.53
  -6  -7   3    6.18    0.60
   6   7  -3    8.07    0.73
  -6  -7   3    6.36    0.64
   6   7  -3    6.31    0.64
  -6  -7   2    3.53    0.50
   6   7  -2    4.19    0.59
   6   7  -2    3.45    0.43
  -6  -7   2    4.18    0.60
  -6  -7   2    3.37    0.45
   6   7  -2    3.85    0.54
   6   7  -2    3.87    0.55
   6   7  -1    3.13    0.55
   6   7  -1    2.50    0.46
  -6  -7   1    3.83    0.63
  -6  -7   1    3.37    0.53
   6   7  -1    3.41    0.56
   6   7  -1    3.26    0.42
   6   7   0    3.37    0.58
   6   7   0    3.95    0.61
  -6  -7   0    4.19    0.57
  -6  -7   0    3.90    0.67
  -6  -7   0    4.72    0.68
   6   7   0    4.16    0.59
   6   7   0    3.50    0.48
   6   7   1  141.95    4.42
   6   7   1  155.70    4.56
  -6  -7  -1  148.96    4.34
  -6  -7  -1  143.49    4.59
  -6  -7  -1  149.10    4.62
   6   7   1  154.35    4.32
   6   7   1  150.53    4.14
   6   7   2    1.69    0.48
   6   7   2    1.87    0.52
  -6  -7  -2    1.53    0.43
  -6  -7  -2    2.19    0.55
  -6  -7  -2    1.17    0.43
   6   7   2    1.90    0.43
   6   7   2    1.99    0.41
   6   7   3    0.34    0.31
   6   7   3    0.13    0.27
   6   7   3    0.32    0.39
  -6  -7  -3   -0.02    0.32
  -6  -7  -3    0.31    0.33
  -6  -7  -3    0.34    0.33
   6   7   3   -0.02    0.30
   6   7   3    0.48    0.27
   6   7   4  122.16    3.78
   6   7   4  114.79    3.65
   6   7   4  116.42    3.96
  -6  -7  -4  114.23    3.96
  -6  -7  -4  112.08    3.84
  -6  -7  -4  115.26    3.72
   6   7   4  120.82    3.74
   6   7   4  114.99    3.48
   6   7   5   61.86    2.45
  -6  -7  -5   61.10    2.38
   6   7   5   62.40    2.45
   6   7   5   64.16    2.63
  -6  -7  -5   57.18    2.60
  -6  -7  -5   60.72    2.52
  -6  -7  -5   58.80    2.28
   6   7   5   64.43    2.53
   6   7   5   63.97    2.39
  -6  -7  -6   45.73    1.97
   6   7   6   44.76    1.97
   6   7   6   45.64    1.99
  -6  -7  -6   46.56    1.93
   6   7   6   49.05    2.10
  -6  -7  -7    9.12    0.80
   6   7   7    8.00    0.67
   6   7   7    8.24    0.79
  -6  -7  -7    8.11    0.80
  -6  -7  -7    7.33    0.60
   6   7   7    8.97    0.82
  -6  -7  -8    0.65    0.28
   6   7   8    0.69    0.31
  -6  -7  -8    0.42    0.28
   6   7   8    0.12    0.21
  -6  -7  -9   11.96    0.75
   6   7   9   12.47    0.81
  -6  -8   3    4.03    0.32
   6   8  -3    3.39    0.39
  -6  -8   3    4.05    0.44
   6   8  -3    3.98    0.46
   6   8  -3    2.91    0.38
  -6  -8   2    1.69    0.28
   6   8  -2    1.41    0.33
   6   8  -2    1.39    0.26
  -6  -8   2    1.16    0.34
   6   8  -2    1.63    0.35
   6   8  -2    1.49    0.36
  -6  -8   1    0.70    0.24
   6   8  -1    1.39    0.35
   6   8  -1    0.63    0.26
  -6  -8   1    1.02    0.34
  -6  -8   1    1.12    0.34
   6   8  -1    0.66    0.30
   6   8  -1    0.72    0.34
   6   8   0   31.48    1.64
   6   8   0   31.24    1.58
  -6  -8   0   32.65    1.52
  -6  -8   0   31.63    1.64
  -6  -8   0   30.77    1.68
   6   8   0   32.35    1.61
   6   8   1  130.93    3.91
   6   8   1  123.99    3.88
  -6  -8  -1  123.11    3.73
  -6  -8  -1  127.99    3.98
  -6  -8  -1  130.29    4.01
   6   8   1  118.14    3.35
   6   8   2  126.36    3.90
   6   8   2  127.56    4.02
  -6  -8  -2  118.06    3.81
  -6  -8  -2  122.71    3.98
  -6  -8  -2  130.89    4.01
   6   8   2  126.49    3.47
   6   8   2  116.56    3.45
   6   8   3    4.06    0.62
   6   8   3    4.90    0.74
  -6  -8  -3    4.51    0.68
  -6  -8  -3    4.95    0.65
  -6  -8  -3    2.30    0.53
   6   8   3    4.64    0.58
   6   8   3    4.41    0.58
   6   8   4    2.75    0.51
   6   8   4    2.18    0.53
   6   8   4    1.63    0.49
  -6  -8  -4    2.56    0.55
  -6  -8  -4    1.92    0.41
  -6  -8  -4    2.36    0.50
   6   8   4    2.79    0.49
   6   8   4    3.01    0.51
   6   8   5   59.13    2.30
  -6  -8  -5   57.52    2.23
   6   8   5   54.13    2.27
   6   8   5   57.81    2.43
  -6  -8  -5   56.38    2.40
  -6  -8  -5   58.72    2.32
  -6  -8  -5   55.75    1.97
   6   8   5   59.24    2.23
   6   8   5   57.64    2.25
  -6  -8  -6   16.19    1.08
   6   8   6   18.75    1.19
   6   8   6   18.50    1.15
  -6  -8  -6   14.94    1.11
  -6  -8  -6   16.60    1.03
   6   8   6   17.77    1.11
   6   8   6   16.90    1.12
  -6  -8  -7   27.17    1.34
   6   8   7   27.66    1.17
   6   8   7   28.78    1.42
  -6  -8  -7   25.49    1.31
   6   8   7   28.54    1.35
   6   8   7   28.72    1.42
  -6  -8  -8    7.95    0.64
   6   8   8    8.61    0.69
  -6  -8  -8    8.30    0.57
   6   8   8    9.82    0.75
  -6  -9   2   70.91    2.19
   6   9  -2   73.21    2.20
   6   9  -2   70.47    2.22
   6   9  -1   45.99    1.62
   6   9  -1   44.25    1.56
   6   9  -1   45.28    1.56
  -6  -9   1   42.98    1.49
  -6  -9   1   44.59    1.77
   6   9  -1   45.31    1.84
   6   9   0   10.10    0.79
   6   9   0   10.53    0.80
  -6  -9   0    8.84    0.71
  -6  -9   0   10.26    0.79
  -6  -9   0    8.65    0.80
   6   9   0   11.44    0.94
   6   9   1   15.94    1.05
   6   9   1   17.59    1.14
  -6  -9  -1   16.00    1.03
  -6  -9  -1   16.38    1.11
  -6  -9  -1   16.10    1.10
   6   9   2   34.70    1.65
   6   9   2   34.43    1.72
  -6  -9  -2   32.66    1.61
  -6  -9  -2   32.51    1.65
  -6  -9  -2   33.95    1.63
   6   9   2   31.71    1.47
   6   9   3    3.00    0.51
   6   9   3    3.01    0.55
  -6  -9  -3    2.88    0.51
  -6  -9  -3    2.09    0.42
  -6  -9  -3    3.34    0.56
   6   9   3    3.48    0.51
   6   9   4   19.80    1.20
   6   9   4   20.33    1.33
  -6  -9  -4   21.77    1.32
  -6  -9  -4   18.99    1.21
  -6  -9  -4   19.82    1.04
   6   9   4   19.53    1.17
  -6  -9  -5   17.98    1.07
   6   9   5   18.75    1.20
  -6  -9  -5   18.27    1.16
  -6  -9  -5   17.54    1.07
   6   9   5   17.96    0.89
   6   9   5   19.02    1.14
  -6  -9  -6   19.51    1.07
   6   9   6   19.03    1.04
   6   9   6   17.98    1.09
  -6  -9  -6   17.29    1.04
  -6  -9  -6   17.84    0.91
   6   9   6   17.22    0.85
   6   9   6   20.73    1.13
  -6  -9  -7    0.68    0.22
   6   9   7    0.76    0.28
  -6  -9  -7    0.72    0.26
   6   9   7    0.57    0.24
   6  10   0    8.74    0.60
   6  10   0    8.03    0.58
   6  10   0    8.66    0.70
   6  10   1   13.57    0.87
   6  10   1   14.25    0.88
  -6 -10  -1   13.04    0.79
  -6 -10  -1   13.64    0.83
  -6 -10  -1   13.01    0.82
   6  10   1   14.43    0.96
   6  10   2   14.75    0.84
   6  10   2   14.11    0.95
   6  10   2   14.20    0.95
  -6 -10  -2   13.92    0.88
  -6 -10  -2   14.78    0.92
  -6 -10  -2   13.80    0.81
   6  10   3    3.82    0.52
   6  10   3    4.77    0.56
  -6 -10  -3    3.74    0.48
  -6 -10  -3    3.94    0.50
   6  10   3    4.50    0.49
   6  10   4    7.78    0.71
  -6 -10  -4    7.78    0.60
   6  10   4    8.07    0.71
  -6 -10  -4    6.62    0.63
  -6 -10  -4    7.26    0.64
   6  10   4    7.69    0.64
   6  10   5   34.39    1.40
   6  10   5   32.36    1.36
  -6 -10  -5   30.12    1.30
   6  10   5   31.88    1.32
  -7   3  -1   90.00    2.46
  -7   3  -2   63.66    1.98
  -7   3  -2   65.42    1.94
  -7   3  -3    0.92    0.22
  -7   2   1    7.68    0.60
  -7   2   0    0.54    0.24
   7  -2   0    0.67    0.20
  -7   2   0    0.59    0.23
  -7   2  -1   22.67    1.12
  -7   2  -1   21.55    1.13
  -7   2  -2  147.09    3.81
  -7   2  -2  138.43    3.38
  -7   2  -2  146.96    3.82
   7  -2   2  145.81    3.63
   7  -2   2  140.80    3.26
  -7   2  -3    4.32    0.42
  -7   2  -3    4.54    0.53
   7  -2   3    4.47    0.47
   7  -2   3    3.79    0.36
  -7   2  -3    4.29    0.51
  -7   2  -4    1.80    0.28
  -7   2  -4    2.72    0.43
   7  -2   4    2.51    0.37
  -7   2  -4    2.34    0.36
  -7   2  -5   15.33    0.73
  -7   2  -5   14.34    0.73
  -7   2  -5   15.16    0.88
   7  -2   5   16.40    0.86
  -7   2  -6   20.34    0.95
  -7   1   3    5.05    0.40
  -7   1   2   27.74    1.17
   7  -1  -2   29.14    1.23
  -7   1   1   15.32    0.86
  -7   1   1   14.37    0.88
  -7   1   1   15.86    0.94
   7  -1  -1   14.18    0.88
  -7   1   0   15.77    0.97
  -7   1   0   16.58    1.02
   7  -1   0   16.13    0.96
  -7   1   0   14.43    0.93
  -7   1  -1    2.13    0.39
  -7   1  -1    2.43    0.45
   7  -1   1    2.33    0.40
  -7   1  -1    3.12    0.50
  -7   1  -2   78.47    2.35
  -7   1  -2   80.84    2.58
  -7   1  -2   83.46    2.69
   7  -1   2   80.11    2.49
  -7   1  -2   82.12    2.76
  -7   1  -3   19.08    1.00
  -7   1  -3   17.75    1.06
  -7   1  -3   18.93    1.14
   7  -1   3   17.77    1.00
  -7   1  -3   19.26    1.18
  -7   1  -4    2.49    0.38
  -7   1  -4    2.02    0.38
  -7   1  -4    2.25    0.42
   7  -1   4    1.51    0.35
   7  -1   4    1.95    0.34
  -7   1  -4    1.89    0.39
  -7   1  -5    5.84    0.56
  -7   1  -5    6.33    0.64
   7  -1   5    6.40    0.61
   7  -1   5    6.77    0.55
  -7   1  -5    6.21    0.58
  -7   1  -6   18.81    0.96
  -7   1  -6   18.16    0.79
  -7   1  -6   18.90    1.03
   7  -1   6   17.92    0.98
   7  -1   6   19.06    0.80
  -7   1  -7    8.10    0.56
  -7   1  -7    7.84    0.59
   7  -1   7    8.04    0.59
  -7   0   3    9.36    0.52
   7   0  -3    9.15    0.64
  -7   0   2    4.71    0.60
  -7   0   2    4.83    0.48
   7   0  -2    5.15    0.53
  -7   0   1   60.49    2.31
  -7   0   1   52.72    1.93
   7   0  -1   56.93    1.99
  -7   0   1   56.15    1.97
  -7   0   0   29.07    1.57
  -7   0   0   28.30    1.40
   7   0   0   30.40    1.54
  -7   0   0   27.52    1.43
   7   0   0   31.43    1.37
  -7   0   0   28.25    1.44
  -7   0  -1    1.41    0.42
  -7   0  -1    1.77    0.40
   7   0   1    2.24    0.43
  -7   0  -1    1.84    0.41
  -7   0  -1    1.72    0.42
   7   0   1    1.45    0.31
  -7   0  -2   26.88    1.40
  -7   0  -2   26.47    1.47
  -7   0  -2   26.32    1.39
   7   0   2   26.83    1.41
  -7   0  -2   25.87    1.50
  -7   0  -2   27.64    1.55
   7   0   2   27.23    1.17
  -7   0  -3   15.46    1.04
  -7   0  -3   15.91    1.10
  -7   0  -3   14.65    1.01
   7   0   3   16.70    1.07
  -7   0  -3   16.72    1.18
  -7   0  -3   16.16    1.17
  -7   0  -4    0.49    0.26
  -7   0  -4    0.88    0.31
   7   0   4    0.18    0.24
   7   0   4    0.28    0.24
  -7   0  -4    0.29    0.26
  -7   0  -4    0.65    0.33
  -7   0  -5   33.75    1.58
  -7   0  -5   32.49    1.52
   7   0   5   32.61    1.55
   7   0   5   30.69    1.43
  -7   0  -5   35.82    1.56
  -7   0  -5   32.15    1.48
  -7   0  -6   33.91    1.55
  -7   0  -6   35.19    1.53
   7   0   6   33.54    1.52
   7   0   6   35.38    1.44
  -7   0  -6   33.41    1.34
  -7   0  -7    6.63    0.62
  -7   0  -7    6.94    0.61
  -7   0  -7    6.14    0.63
   7   0   7    6.66    0.59
   7   0   7    6.42    0.53
  -7   0  -8    7.48    0.59
  -7   0  -8    7.67    0.57
   7   0   8    7.55    0.56
  -7  -1   4   79.94    2.18
   7   1  -4   84.51    2.36
  -7  -1   3   13.71    0.77
  -7  -1   3   15.88    0.84
   7   1  -3   13.93    0.90
  -7  -1   2    2.98    0.55
  -7  -1   2    2.22    0.37
  -7  -1   2    2.15    0.33
   7   1  -2    2.65    0.44
  -7  -1   1   11.50    1.04
  -7  -1   1   11.37    0.74
  -7  -1   1   12.59    0.86
  -7  -1   1   12.66    0.73
  -7  -1   1   12.38    0.88
  -7  -1   1   11.94    0.86
   7   1  -1   13.30    0.98
  -7  -1   0   46.56    2.19
  -7  -1   0   46.03    1.76
  -7  -1   0   44.78    1.95
  -7  -1   0   48.69    2.02
   7   1   0   46.02    1.94
  -7  -1  -1   12.60    1.05
  -7  -1  -1   12.46    1.09
  -7  -1  -1   15.54    0.98
   7   1   1   14.65    1.09
  -7  -1  -1   13.39    1.07
  -7  -1  -1   14.21    1.10
   7   1   1   10.21    0.86
  -7  -1  -2   16.18    1.18
  -7  -1  -2   17.66    1.26
  -7  -1  -2   15.75    1.03
   7   1   2   18.66    1.22
  -7  -1  -2   18.78    1.30
  -7  -1  -2   17.59    1.27
   7   1   2   17.24    1.06
  -7  -1  -3    6.51    0.75
  -7  -1  -3    7.39    0.80
  -7  -1  -3    8.38    0.74
   7   1   3    8.82    0.82
  -7  -1  -3    7.62    0.82
  -7  -1  -3    8.71    0.89
   7   1   3    6.15    0.61
  -7  -1  -4    7.81    0.81
  -7  -1  -4    8.00    0.72
   7   1   4    7.44    0.76
  -7  -1  -4    7.16    0.79
  -7  -1  -4    9.06    0.87
   7   1   4    8.22    0.66
  -7  -1  -5    7.73    0.80
  -7  -1  -5    8.19    0.73
   7   1   5    7.00    0.71
   7   1   5    7.22    0.73
  -7  -1  -5    8.16    0.76
  -7  -1  -5    8.13    0.76
   7   1   5    7.20    0.55
  -7  -1  -6  122.29    3.66
  -7  -1  -6  123.24    3.45
   7   1   6  122.89    3.55
   7   1   6  123.24    3.52
  -7  -1  -6  117.92    3.29
  -7  -1  -6  122.09    3.32
  -7  -1  -7   33.90    1.59
  -7  -1  -7   35.22    1.50
  -7  -1  -7   34.18    1.63
   7   1   7   35.55    1.52
   7   1   7   37.08    1.52
  -7  -1  -8    2.61    0.40
  -7  -1  -8    1.89    0.32
  -7  -1  -8    2.35    0.41
   7   1   8    1.83    0.32
   7   1   8    1.39    0.28
  -7  -1  -9   17.10    0.86
  -7  -1  -9   15.49    0.77
  -7  -2   4   88.40    2.46
  -7  -2   4   83.02    2.38
   7   2  -4   86.23    2.50
  -7  -2   3   19.41    1.12
   7   2  -3   20.45    1.03
  -7  -2   3   20.55    1.07
   7   2  -3   20.61    1.17
  -7  -2   2   13.47    1.11
  -7  -2   2   13.75    1.02
   7   2  -2   14.12    0.89
  -7  -2   2   14.45    0.91
  -7  -2   2   11.90    0.74
   7   2  -2   15.21    1.07
  -7  -2   1    0.56    0.39
   7   2  -1    0.68    0.28
  -7  -2   1    0.62    0.28
  -7  -2   1    0.41    0.25
  -7  -2   1    0.81    0.32
   7   2  -1    0.03    0.26
  -7  -2   0   67.66    2.82
   7   2   0   68.58    2.17
  -7  -2   0   67.23    2.53
  -7  -2   0   69.71    2.58
   7   2   0   70.96    2.63
  -7  -2  -1   54.54    2.41
  -7  -2  -1   54.77    2.46
  -7  -2  -1   53.14    1.81
   7   2   1   52.09    2.23
  -7  -2  -1   53.94    2.31
  -7  -2  -1   53.68    2.33
   7   2   1   52.44    2.17
  -7  -2  -2   40.95    2.03
  -7  -2  -2   41.79    2.04
  -7  -2  -2   39.36    1.58
   7   2   2   41.55    1.92
  -7  -2  -2   40.92    1.65
  -7  -2  -2   42.64    2.08
  -7  -2  -2   41.25    2.03
   7   2   2   40.41    1.82
  -7  -2  -3    1.60    0.44
  -7  -2  -3    2.22    0.51
  -7  -2  -3    1.94    0.37
   7   2   3    2.32    0.49
  -7  -2  -3    1.78    0.47
  -7  -2  -3    2.26    0.43
  -7  -2  -3    1.86    0.45
   7   2   3    2.38    0.44
  -7  -2  -4   10.18    0.96
  -7  -2  -4   10.97    0.79
   7   2   4   10.66    0.92
  -7  -2  -4   10.65    0.92
  -7  -2  -4   10.66    0.95
  -7  -2  -4   11.35    1.00
   7   2   4   10.28    0.82
  -7  -2  -5    9.63    0.91
  -7  -2  -5    9.67    0.74
   7   2   5    9.03    0.80
   7   2   5    9.11    0.86
  -7  -2  -5    9.45    0.88
  -7  -2  -5    6.73    0.75
   7   2   5    9.12    0.73
  -7  -2  -6  126.67    3.87
  -7  -2  -6  132.93    3.52
   7   2   6  126.10    3.61
   7   2   6  131.22    3.79
  -7  -2  -6  125.96    3.80
  -7  -2  -6  128.93    3.52
  -7  -2  -6  123.62    3.49
   7   2   6  126.82    3.35
  -7  -2  -7   47.21    1.99
  -7  -2  -7   47.95    1.77
   7   2   7   48.22    1.81
   7   2   7   49.98    1.95
  -7  -2  -7   47.45    1.98
  -7  -2  -8    4.47    0.54
  -7  -2  -8    4.74    0.48
   7   2   8    4.29    0.45
   7   2   8    4.87    0.52
  -7  -2  -9    6.23    0.49
   7   2   9    6.40    0.52
  -7  -3   4   34.52    1.48
   7   3  -4   33.02    1.32
  -7  -3   4   34.81    1.37
   7   3  -4   34.61    1.36
  -7  -3   3  140.30    4.00
   7   3  -3  139.07    3.71
  -7  -3   3  140.55    3.74
   7   3  -3  146.82    3.87
  -7  -3   2    0.55    0.30
  -7  -3   2    1.10    0.39
   7   3  -2    1.78    0.39
   7   3  -2    0.82    0.33
  -7  -3   1    4.75    0.74
   7   3  -1    4.03    0.54
  -7  -3   1    3.35    0.51
  -7  -3   1    4.62    0.59
  -7  -3   1    5.27    0.59
   7   3  -1    4.12    0.60
  -7  -3   0   35.80    1.92
   7   3   0   34.10    1.70
  -7  -3   0   33.82    1.70
  -7  -3   0   34.85    1.77
  -7  -3   0   34.78    1.70
   7   3   0   36.24    1.79
  -7  -3  -1   51.42    2.42
  -7  -3  -1   47.44    2.28
   7   3   1   48.74    1.87
   7   3   1   49.86    2.13
  -7  -3  -1   50.74    2.28
  -7  -3  -1   50.34    2.25
  -7  -3  -1   52.23    2.32
   7   3   1   51.15    2.18
  -7  -3  -2  143.75    4.46
  -7  -3  -2  140.75    4.35
   7   3   2  145.83    3.65
   7   3   2  136.07    4.04
  -7  -3  -2  134.31    3.78
  -7  -3  -2  137.93    4.34
  -7  -3  -2  139.57    4.33
  -7  -3  -2  143.89    4.41
   7   3   2  135.47    4.05
  -7  -3  -3   16.27    1.26
  -7  -3  -3   16.79    1.24
   7   3   3   16.52    1.16
  -7  -3  -3   19.12    1.19
  -7  -3  -3   16.30    1.25
  -7  -3  -3   16.15    1.24
  -7  -3  -3   17.32    1.31
   7   3   3   16.74    1.15
  -7  -3  -4    0.98    0.40
  -7  -3  -4    1.46    0.29
  -7  -3  -4    1.71    0.47
   7   3   4    1.56    0.40
  -7  -3  -4    1.41    0.39
  -7  -3  -4    1.50    0.42
   7   3   4    1.50    0.40
  -7  -3  -5    3.13    0.56
  -7  -3  -5    4.21    0.46
   7   3   5    3.38    0.48
   7   3   5    3.86    0.57
  -7  -3  -5    3.41    0.54
  -7  -3  -5    3.83    0.59
  -7  -3  -5    4.11    0.59
   7   3   5    4.42    0.57
  -7  -3  -6   24.44    1.45
  -7  -3  -6   25.12    1.14
   7   3   6   24.99    1.24
   7   3   6   23.72    1.38
  -7  -3  -6   23.39    1.41
  -7  -3  -6   24.08    1.26
  -7  -3  -6   25.38    1.30
   7   3   6   25.61    1.31
  -7  -3  -7  161.52    4.42
  -7  -3  -7  162.93    3.92
   7   3   7  159.23    4.00
   7   3   7  168.26    4.39
  -7  -3  -7  166.48    4.47
  -7  -3  -7  161.02    3.77
  -7  -3  -7  153.14    3.74
   7   3   7  164.52    4.06
  -7  -3  -8    2.81    0.45
   7   3   8    3.13    0.36
   7   3   8    3.58    0.47
  -7  -3  -8    2.54    0.42
   7   3   8    2.43    0.32
  -7  -3  -9    1.31    0.28
  -7  -3  -9    0.87    0.21
   7   3   9    1.15    0.25
  -7  -4   4   12.47    0.85
   7   4  -4   10.96    0.72
  -7  -4   4   11.57    0.75
  -7  -4   3   84.05    2.84
   7   4  -3   82.49    2.59
   7   4  -3   80.20    2.21
   7   4  -3   86.45    2.54
  -7  -4   2   26.62    1.48
  -7  -4   2   26.33    1.54
   7   4  -2   27.77    1.42
  -7  -4   2   24.95    1.21
   7   4  -2   27.21    1.40
  -7  -4   1   -0.32    0.35
   7   4  -1    0.39    0.26
   7   4  -1    0.66    0.28
  -7  -4   1    0.24    0.28
  -7  -4   1    0.35    0.28
  -7  -4   1    0.54    0.26
   7   4  -1    0.57    0.32
  -7  -4   0   11.80    1.07
   7   4   0    9.47    0.88
   7   4   0   13.15    0.94
  -7  -4   0   13.31    1.03
  -7  -4   0   13.50    1.03
  -7  -4   0   13.27    1.09
   7   4   0   12.18    1.00
  -7  -4  -1   94.32    3.30
   7   4   1   95.36    3.00
   7   4   1   90.15    2.95
  -7  -4  -1   92.42    3.30
  -7  -4  -1   97.28    3.32
  -7  -4  -1   90.98    3.33
   7   4   1   92.92    3.16
  -7  -4  -2   14.19    1.23
  -7  -4  -2   12.71    1.08
   7   4   2   13.16    0.93
   7   4   2   13.02    0.97
  -7  -4  -2   14.34    1.18
  -7  -4  -2   13.61    0.98
  -7  -4  -2   13.89    1.16
  -7  -4  -2   14.56    1.22
   7   4   2   13.83    1.08
  -7  -4  -3   35.39    1.90
  -7  -4  -3   35.82    1.80
   7   4   3   35.55    1.51
   7   4   3   35.10    1.66
  -7  -4  -3   36.16    1.91
  -7  -4  -3   34.13    1.69
  -7  -4  -3   33.58    1.82
  -7  -4  -3   37.37    1.98
   7   4   3   34.63    1.75
  -7  -4  -4    7.25    0.84
   7   4   4    6.15    0.57
   7   4   4    5.71    0.56
   7   4   4    6.71    0.70
  -7  -4  -4    6.66    0.79
  -7  -4  -4    6.33    0.74
  -7  -4  -4    7.03    0.81
  -7  -4  -4    5.45    0.76
   7   4   4    5.99    0.70
  -7  -4  -5    1.54    0.44
   7   4   5    1.11    0.29
  -7  -4  -5    1.34    0.40
   7   4   5    1.53    0.39
  -7  -4  -5    0.78    0.34
  -7  -4  -5    1.14    0.36
   7   4   5    0.98    0.35
  -7  -4  -6   17.39    1.16
   7   4   6   17.79    1.14
  -7  -4  -6   16.56    1.18
  -7  -4  -6   15.59    1.03
  -7  -4  -6   17.43    1.07
   7   4   6   16.09    1.09
  -7  -4  -7  120.18    3.49
   7   4   7  128.56    3.52
  -7  -4  -7  122.82    3.64
  -7  -4  -7  115.38    2.98
  -7  -4  -7  117.54    3.02
   7   4   7  120.33    3.40
  -7  -4  -8   38.17    1.58
   7   4   8   42.58    1.63
  -7  -4  -8   38.67    1.65
   7   4   8   41.50    1.54
  -7  -4  -9    0.94    0.22
   7   4   9    1.05    0.22
  -7  -5   4    5.67    0.55
  -7  -5   3   95.60    3.03
   7   5  -3   97.84    2.84
   7   5  -3   98.52    2.62
  -7  -5   2   41.08    1.91
   7   5  -2   43.90    1.82
   7   5  -2   39.84    1.40
  -7  -5   2   38.96    1.61
   7   5  -2   44.23    1.67
  -7  -5   1    1.86    0.43
   7   5  -1    2.19    0.46
  -7  -5   1    1.41    0.32
   7   5  -1    1.85    0.30
  -7  -5   1    1.94    0.43
  -7  -5   1    2.99    0.43
   7   5  -1    2.67    0.45
  -7  -5   0    1.45    0.40
   7   5   0    1.20    0.37
  -7  -5   0    1.88    0.44
   7   5   0    1.40    0.31
  -7  -5   0    0.94    0.38
  -7  -5   0    1.58    0.39
   7   5   0    1.16    0.36
  -7  -5  -1   17.12    1.18
   7   5   1   19.45    1.24
   7   5   1   17.00    0.99
  -7  -5  -1   20.79    1.10
  -7  -5  -1   18.65    1.31
  -7  -5  -1   17.34    1.31
   7   5   1   18.72    1.21
  -7  -5  -2   48.05    2.02
   7   5   2   41.64    1.86
   7   5   2   42.33    1.71
  -7  -5  -2   45.46    1.91
  -7  -5  -2   43.23    2.09
  -7  -5  -2   41.97    2.15
   7   5   2   44.10    1.96
  -7  -5  -3   15.61    1.20
  -7  -5  -3   13.12    0.99
   7   5   3   13.83    0.97
   7   5   3   12.62    0.90
  -7  -5  -3   13.59    1.05
  -7  -5  -3   12.76    1.10
  -7  -5  -3   14.28    1.22
   7   5   3   13.52    1.05
  -7  -5  -4   40.46    1.95
  -7  -5  -4   40.46    1.76
   7   5   4   45.84    1.77
   7   5   4   41.67    1.73
  -7  -5  -4   40.64    1.94
  -7  -5  -4   39.53    1.94
  -7  -5  -4   39.92    2.03
   7   5   4   39.91    1.88
  -7  -5  -5    6.73    0.74
  -7  -5  -5    6.55    0.65
   7   5   5    6.00    0.58
   7   5   5    6.87    0.67
  -7  -5  -5    6.54    0.76
  -7  -5  -5    7.10    0.80
  -7  -5  -5    7.97    0.81
  -7  -5  -5    7.74    0.82
  -7  -5  -6    0.81    0.28
   7   5   6    1.16    0.28
  -7  -5  -6    1.12    0.34
   7   5   6    1.05    0.31
  -7  -5  -6    0.64    0.34
  -7  -5  -6    1.09    0.33
   7   5   6    1.00    0.35
  -7  -5  -7   66.69    2.21
   7   5   7   63.74    1.89
   7   5   7   65.52    2.03
   7   5   7   65.56    2.16
  -7  -5  -7   67.59    2.43
  -7  -5  -7   61.23    1.89
  -7  -5  -7   63.63    1.90
   7   5   7   67.61    2.32
  -7  -5  -8   46.23    1.58
   7   5   8   47.02    1.45
   7   5   8   46.53    1.65
  -7  -5  -8   44.07    1.74
   7   5   8   47.48    1.72
  -7  -5  -9    0.41    0.14
   7   5   9    0.46    0.14
   7   5   9    0.29    0.15
  -7  -5  -9    0.19    0.20
   7   5   9   -0.07    0.16
  -7  -6   3    8.96    0.71
   7   6  -3    8.76    0.64
  -7  -6   2   23.68    1.31
   7   6  -2   24.19    1.23
  -7  -6   2   22.52    1.15
   7   6  -2   23.98    1.03
   7   6  -1   13.41    0.97
   7   6  -1   12.51    0.87
  -7  -6   1   10.60    0.77
  -7  -6   1   11.43    0.79
   7   6  -1   11.56    0.78
  -7  -6   0    0.86    0.27
   7   6   0    0.93    0.36
   7   6   0    0.53    0.28
  -7  -6   0    1.26    0.44
  -7  -6   0    0.37    0.27
   7   6   0    0.75    0.26
  -7  -6  -1   76.80    2.42
   7   6   1   82.62    2.78
  -7  -6  -1   75.01    2.46
  -7  -6  -1   79.81    2.85
  -7  -6  -1   72.85    2.90
   7   6   1   75.62    2.57
  -7  -6  -2    7.21    0.65
   7   6   2    5.62    0.67
  -7  -6  -2    6.94    0.71
  -7  -6  -2    6.80    0.85
  -7  -6  -2    5.75    0.74
   7   6   2    7.30    0.72
  -7  -6  -3    4.59    0.53
   7   6   3    3.70    0.55
   7   6   3    4.48    0.48
  -7  -6  -3    3.25    0.55
  -7  -6  -3    5.01    0.73
  -7  -6  -3    3.98    0.64
   7   6   3    4.35    0.57
  -7  -6  -4   71.86    2.55
  -7  -6  -4   72.92    2.22
   7   6   4   72.79    2.48
   7   6   4   68.31    2.17
  -7  -6  -4   69.66    2.68
  -7  -6  -4   73.46    2.72
  -7  -6  -4   64.22    2.65
   7   6   4   73.05    2.59
  -7  -6  -5   10.40    0.82
  -7  -6  -5   10.72    0.69
   7   6   5   10.35    0.80
   7   6   5   10.75    0.72
   7   6   5   10.22    0.73
  -7  -6  -5    9.31    0.90
  -7  -6  -5   10.95    0.93
  -7  -6  -5   10.14    0.88
   7   6   5    9.82    0.87
  -7  -6  -6   10.33    0.75
   7   6   6   11.02    0.73
   7   6   6    9.78    0.81
   7   6   6   11.24    0.73
  -7  -6  -6   10.08    0.82
  -7  -6  -6   10.98    0.95
  -7  -6  -6   11.26    0.83
   7   6   6    9.87    0.83
  -7  -6  -7   16.90    0.84
   7   6   7   17.07    0.88
   7   6   7   17.44    0.89
   7   6   7   16.26    0.85
  -7  -6  -7   16.74    1.06
  -7  -6  -7   14.95    0.76
   7   6   7   17.76    1.05
   7   6   7   17.63    0.84
   7   6   8   28.43    1.10
   7   6   8   26.59    1.01
  -7  -6  -8   26.32    1.21
   7   6   8   28.70    1.24
   7   6   8   27.77    1.05
   7   6   9   22.38    0.84
   7   6   9   21.16    0.78
  -7  -7   2    2.36    0.37
   7   7  -2    2.08    0.34
  -7  -7   2    2.60    0.39
  -7  -7   1    9.50    0.75
   7   7  -1   10.77    0.79
   7   7  -1   10.06    0.68
  -7  -7   1    8.61    0.57
  -7  -7   1    9.57    0.60
  -7  -7   1   10.28    0.81
   7   7  -1    9.43    0.59
   7   7   0    3.92    0.54
   7   7   0    3.59    0.52
  -7  -7   0    3.61    0.57
  -7  -7   0    3.04    0.45
   7   7   0    3.10    0.40
   7   7   1   58.44    2.21
   7   7   1   56.10    2.28
  -7  -7  -1   59.19    2.03
  -7  -7  -1   59.20    2.28
  -7  -7  -1   57.77    2.39
   7   7   1   57.26    1.97
   7   7   2   68.88    2.42
   7   7   2   62.10    2.52
  -7  -7  -2   65.55    2.31
  -7  -7  -2   61.89    2.47
  -7  -7  -2   59.13    2.49
   7   7   2   61.73    2.15
   7   7   3    1.87    0.42
   7   7   3    1.25    0.41
  -7  -7  -3    1.74    0.43
  -7  -7  -3    1.71    0.45
  -7  -7  -3    0.61    0.34
   7   7   3    1.44    0.34
   7   7   4    8.95    0.77
   7   7   4    7.81    0.82
  -7  -7  -4    7.67    0.80
  -7  -7  -4    7.90    0.80
  -7  -7  -4    6.58    0.73
   7   7   4    7.57    0.71
   7   7   5   87.41    2.74
   7   7   5   89.53    2.97
  -7  -7  -5   93.47    3.08
  -7  -7  -5   91.05    2.92
  -7  -7  -5   90.64    2.78
   7   7   5   93.08    2.86
   7   7   6    6.17    0.56
   7   7   6    5.39    0.57
  -7  -7  -6    5.18    0.62
  -7  -7  -6    5.54    0.56
   7   7   6    7.14    0.66
   7   7   6    6.23    0.50
   7   7   7   43.17    1.52
  -7  -7  -7   41.14    1.64
   7   7   7   42.82    1.61
   7   7   7   39.83    1.38
   7   7   8    5.73    0.46
  -7  -7  -8    5.88    0.49
   7   7   8    6.22    0.51
   7   7   8    5.58    0.43
  -7  -8   1    5.78    0.46
   7   8  -1    6.46    0.54
   7   8  -1    5.29    0.42
  -7  -8   1    6.39    0.58
   7   8  -1    6.27    0.43
  -7  -8   0    1.35    0.27
   7   8   0    1.44    0.32
   7   8   0    1.32    0.33
  -7  -8   0    1.53    0.35
  -7  -8   0    1.23    0.27
   7   8   0    1.42    0.33
   7   8   1   78.39    2.48
   7   8   1   77.52    2.60
  -7  -8  -1   75.26    2.22
  -7  -8  -1   80.75    2.54
  -7  -8  -1   75.56    2.62
   7   8   2   87.54    2.68
   7   8   2   83.91    2.83
  -7  -8  -2   82.33    2.58
  -7  -8  -2   81.94    2.73
  -7  -8  -2   82.36    2.79
   7   8   2   79.58    2.26
   7   8   3    3.00    0.45
   7   8   3    2.94    0.51
  -7  -8  -3    3.02    0.47
  -7  -8  -3    3.06    0.49
  -7  -8  -3    2.89    0.48
   7   8   3    2.75    0.39
   7   8   4    1.56    0.35
   7   8   4    1.38    0.38
  -7  -8  -4    1.08    0.31
  -7  -8  -4    1.33    0.34
  -7  -8  -4    1.53    0.38
   7   8   4    1.39    0.31
   7   8   5   26.45    1.33
  -7  -8  -5   28.39    1.40
  -7  -8  -5   27.13    1.28
  -7  -8  -5   24.20    1.03
   7   8   5   26.20    1.18
   7   8   5   23.81    0.98
   7   8   6   35.16    1.38
  -7  -8  -6   37.90    1.54
  -7  -8  -6   33.41    1.27
   7   8   6   36.55    1.38
   7   8   6   35.21    1.23
  -7  -8  -7   21.44    1.00
   7   8   7   23.60    0.98
   7   8   7   22.46    0.90
   7   9   1   27.91    1.15
   7   9   1   28.70    1.24
  -7  -9  -1   28.72    1.27
   7   9   1   27.18    1.25
   7   9   2   85.06    2.40
   7   9   2   84.72    2.59
  -7  -9  -2   79.86    2.28
  -7  -9  -2   80.13    2.44
  -7  -9  -2   83.31    2.49
   7   9   3   10.18    0.69
   7   9   3   11.58    0.84
  -7  -9  -3   10.82    0.74
  -7  -9  -3    9.40    0.72
  -7  -9  -3   11.87    0.74
   7   9   4    2.41    0.40
  -7  -9  -4    2.73    0.40
  -7  -9  -4    2.65    0.40
   7   9   5    2.43    0.36
  -7  -9  -5    2.55    0.37
   7   9   5    3.12    0.29
  -8   0  -1    1.82    0.28
  -8   0  -1    1.77    0.23
  -8   0  -2   20.45    0.94
  -8   0  -2   20.24    0.85
   8   0   2   20.24    0.93
   8   0   2   21.61    0.90
  -8   0  -2   20.78    0.98
  -8   0  -3  128.28    3.21
  -8   0  -3  129.10    3.09
   8   0   3  125.90    3.19
  -8   0  -3  134.17    3.28
  -8   0  -4    9.40    0.62
  -8   0  -4    8.71    0.56
   8   0   4    9.18    0.60
  -8  -1   0   20.32    1.01
   8   1   0   20.36    0.94
  -8  -1  -1    1.51    0.32
   8   1   1    1.99    0.33
  -8  -1  -1    2.38    0.34
  -8  -1  -1    1.82    0.32
  -8  -1  -2    0.80    0.27
  -8  -1  -2    0.63    0.19
   8   1   2    0.27    0.19
  -8  -1  -2    0.83    0.26
  -8  -1  -2    0.59    0.24
  -8  -1  -3   47.02    1.77
  -8  -1  -3   48.60    1.51
   8   1   3   48.41    1.66
   8   1   3   48.46    1.67
  -8  -1  -3   47.36    1.74
  -8  -1  -3   45.75    1.71
  -8  -1  -4   47.54    1.70
  -8  -1  -4   46.16    1.72
  -8  -1  -4   46.75    1.50
   8   1   4   47.53    1.62
   8   1   4   47.25    1.63
  -8  -1  -4   47.11    1.66
  -8  -1  -4   46.89    1.66
  -8  -1  -5    5.56    0.52
  -8  -1  -5    4.47    0.48
  -8  -1  -5    4.67    0.40
   8   1   5    4.44    0.43
   8   1   5    4.30    0.43
  -8  -1  -5    4.32    0.42
  -8  -1  -6    1.17    0.25
  -8  -1  -6    1.34    0.26
  -8  -1  -6    1.07    0.21
  -8  -2   1    8.24    0.64
   8   2  -1    8.03    0.55
  -8  -2   0   36.35    1.52
  -8  -2   0   37.13    1.26
   8   2   0   37.55    1.40
  -8  -2   0   35.28    1.29
   8   2   0   36.70    1.34
  -8  -2   0   35.58    1.29
  -8  -2  -1    1.11    0.33
   8   2   1    1.78    0.32
  -8  -2  -1    1.43    0.30
  -8  -2  -1    1.33    0.28
   8   2   1    1.35    0.29
  -8  -2  -2   12.97    0.93
   8   2   2   13.29    0.84
  -8  -2  -2   14.90    0.94
  -8  -2  -2   14.35    0.93
   8   2   2   13.92    0.80
  -8  -2  -3   20.83    1.16
  -8  -2  -3   20.05    1.15
   8   2   3   20.08    0.99
   8   2   3   19.61    1.04
  -8  -2  -3   20.21    1.12
  -8  -2  -3   21.84    1.16
   8   2   3   19.79    0.93
  -8  -2  -4   73.29    2.41
  -8  -2  -4   75.18    2.43
  -8  -2  -4   70.36    1.85
   8   2   4   69.10    2.13
   8   2   4   74.91    2.28
  -8  -2  -4   70.77    2.27
  -8  -2  -4   72.60    2.30
   8   2   4   72.59    1.95
  -8  -2  -5    7.23    0.65
  -8  -2  -5    8.31    0.69
  -8  -2  -5    7.99    0.48
   8   2   5    8.43    0.60
   8   2   5    7.95    0.63
  -8  -2  -5    7.14    0.59
  -8  -2  -5    7.67    0.61
  -8  -2  -6    1.14    0.29
  -8  -2  -6    0.65    0.24
  -8  -2  -6    0.78    0.19
   8   2   6    0.68    0.20
   8   2   6    0.43    0.21
  -8  -2  -7   26.74    1.10
  -8  -2  -7   26.05    1.07
  -8  -2  -7   24.43    0.79
  -8  -3   1    0.56    0.26
  -8  -3   1    0.26    0.17
   8   3  -1   -0.05    0.14
   8   3  -1    0.29    0.20
  -8  -3   0   37.14    1.59
   8   3   0   36.17    1.37
  -8  -3   0   34.32    1.31
  -8  -3   0   38.13    1.36
   8   3   0   37.53    1.42
  -8  -3  -1   37.22    1.65
   8   3   1   36.80    1.45
  -8  -3  -1   35.92    1.50
  -8  -3  -1   38.93    1.55
   8   3   1   37.96    1.48
  -8  -3  -2    4.40    0.57
   8   3   2    3.70    0.45
  -8  -3  -2    5.44    0.58
  -8  -3  -2    5.13    0.58
   8   3   2    3.89    0.46
  -8  -3  -3   27.06    1.39
  -8  -3  -3   27.22    1.38
   8   3   3   25.19    1.09
   8   3   3   25.16    1.21
  -8  -3  -3   24.42    1.27
  -8  -3  -3   24.48    1.28
   8   3   3   27.14    1.20
  -8  -3  -4   27.02    1.37
  -8  -3  -4   26.77    1.33
   8   3   4   22.48    1.02
   8   3   4   25.11    1.20
  -8  -3  -4   24.05    1.09
  -8  -3  -4   25.69    1.25
  -8  -3  -4   26.61    1.28
   8   3   4   25.47    1.13
  -8  -3  -5    3.10    0.47
  -8  -3  -5    3.38    0.46
   8   3   5    2.82    0.32
   8   3   5    3.47    0.43
  -8  -3  -5    2.47    0.37
  -8  -3  -5    3.22    0.41
  -8  -3  -5    3.90    0.45
   8   3   5    3.07    0.37
  -8  -3  -6    2.04    0.37
  -8  -3  -6    1.24    0.30
   8   3   6    0.92    0.24
  -8  -3  -6    1.33    0.27
  -8  -3  -6    1.76    0.29
  -8  -3  -7   31.84    1.27
  -8  -3  -7   29.62    1.19
   8   3   7   29.07    1.14
  -8  -4   1    2.31    0.35
   8   4  -1    2.12    0.27
   8   4  -1    2.00    0.30
  -8  -4   0    6.12    0.60
   8   4   0    6.50    0.49
  -8  -4   0    6.58    0.52
  -8  -4   0    6.31    0.50
   8   4   0    6.49    0.56
  -8  -4  -1   19.63    1.12
   8   4   1   17.74    0.91
  -8  -4  -1   17.01    0.98
  -8  -4  -1   19.45    1.05
   8   4   1   19.11    1.02
  -8  -4  -2   35.24    1.59
   8   4   2   38.85    1.46
  -8  -4  -2   36.18    1.59
  -8  -4  -2   34.68    1.55
   8   4   2   36.42    1.50
  -8  -4  -3    4.80    0.56
   8   4   3    4.15    0.47
  -8  -4  -3    3.92    0.51
  -8  -4  -3    3.80    0.39
  -8  -4  -3    4.41    0.54
   8   4   3    4.42    0.50
  -8  -4  -4   18.40    1.12
  -8  -4  -4   16.10    0.99
   8   4   4   17.10    0.94
  -8  -4  -4   15.86    0.89
  -8  -4  -4   15.45    0.97
  -8  -4  -4   15.74    0.98
   8   4   4   15.95    0.93
  -8  -4  -5    6.80    0.66
  -8  -4  -5    6.86    0.61
   8   4   5    6.15    0.55
  -8  -4  -5    6.80    0.59
  -8  -4  -5    6.34    0.58
  -8  -4  -5    6.46    0.60
   8   4   5    6.61    0.57
  -8  -4  -6    0.33    0.23
  -8  -4  -6    0.63    0.23
   8   4   6    0.23    0.18
  -8  -4  -6    0.13    0.20
  -8  -4  -6    0.34    0.19
  -8  -4  -6    0.70    0.22
   8   4   6    0.33    0.18
  -8  -4  -7   65.28    1.99
  -8  -4  -7   63.04    1.87
   8   4   7   64.77    1.87
  -8  -4  -7   62.95    1.96
  -8  -5   1    4.28    0.47
   8   5  -1    4.20    0.34
  -8  -5   0    7.53    0.60
   8   5   0    7.23    0.52
   8   5   0    6.61    0.57
  -8  -5   0    6.91    0.51
  -8  -5   0    7.20    0.52
   8   5   0    7.09    0.55
  -8  -5  -1    5.90    0.56
   8   5   1    5.34    0.46
   8   5   1    5.34    0.41
  -8  -5  -1    5.85    0.56
  -8  -5  -1    5.79    0.58
  -8  -5  -1    6.26    0.57
   8   5   1    4.65    0.50
  -8  -5  -2   25.63    1.21
   8   5   2   22.73    0.95
   8   5   2   23.64    0.99
  -8  -5  -2   25.11    1.25
  -8  -5  -2   23.41    1.20
  -8  -5  -2   23.80    1.26
   8   5   2   23.01    1.15
  -8  -5  -3   35.16    1.45
   8   5   3   34.20    1.30
  -8  -5  -3   33.70    1.24
  -8  -5  -3   32.74    1.50
  -8  -5  -3   34.44    1.51
   8   5   3   35.90    1.48
  -8  -5  -4   79.10    2.35
   8   5   4   78.11    2.24
  -8  -5  -4   76.18    2.30
  -8  -5  -4   75.60    2.45
  -8  -5  -4   77.69    2.45
   8   5   4   76.77    2.39
  -8  -5  -5    0.34    0.23
  -8  -5  -5    0.58    0.22
   8   5   5    0.45    0.19
  -8  -5  -5    0.32    0.21
  -8  -5  -5    0.67    0.23
  -8  -5  -5    0.38    0.23
   8   5   5    0.67    0.23
  -8  -5  -6    0.43    0.19
  -8  -5  -6   -0.07    0.16
   8   5   6    0.22    0.17
  -8  -5  -6   -0.09    0.20
   8   5   6    0.14    0.17
  -8  -5  -6    0.16    0.13
  -8  -5  -6    0.41    0.21
   8   5   6    0.05    0.19
  -8  -5  -7    7.37    0.52
  -8  -5  -7    7.62    0.45
  -8  -5  -7    7.44    0.56
  -8  -6   0   -0.02    0.19
   8   6   0    0.16    0.17
   8   6   1    0.05    0.20
  -8  -6  -1    0.57    0.20
   8   6   1    0.12    0.18
  -8  -6  -1    0.40    0.21
  -8  -6  -1    0.39    0.17
   8   6   1    0.10    0.14
  -8  -6  -2   66.31    1.87
   8   6   2   68.45    2.00
   8   6   2   69.28    2.30
  -8  -6  -2   66.98    2.19
  -8  -6  -2   69.42    2.20
  -8  -6  -2   66.75    2.26
   8   6   2   68.69    2.11
  -8  -6  -3   10.43    0.59
   8   6   3   10.01    0.61
   8   6   3    9.42    0.78
  -8  -6  -3    8.32    0.69
  -8  -6  -3    9.72    0.59
  -8  -6  -3   11.40    0.79
  -8  -6  -3    9.45    0.76
   8   6   3   10.79    0.73
  -8  -6  -4   57.47    1.59
   8   6   4   58.44    1.59
   8   6   4   61.20    2.08
  -8  -6  -4   54.18    1.81
  -8  -6  -4   56.29    1.97
  -8  -6  -4   57.50    1.96
   8   6   4   62.12    1.97
   8   6   5   12.97    0.83
  -8  -6  -5   14.77    0.84
  -8  -6  -5   12.69    0.79
  -8  -6  -5   13.60    0.81
   8   6   5   12.97    0.79
   8   6   6   17.49    0.85
  -8  -6  -6   18.38    0.93
   8   6   6   18.22    0.90
   8   7   1    0.25    0.19
   8   7   2   13.48    0.71
   8   7   2   12.52    0.80
  -8  -7  -2   10.79    0.71
  -8  -7  -2   10.57    0.70
  -8  -7  -2   11.66    0.78
   8   7   3   13.06    0.70
   8   7   3   12.81    0.84
  -8  -7  -3   13.09    0.80
  -8  -7  -3   13.05    0.79
  -8  -7  -3   12.06    0.80
   8   7   3   12.22    0.70
   8   7   4   24.12    1.14
  -8  -7  -4   22.19    1.07
  -8  -7  -4   21.60    1.04
  -8  -7  -4   23.05    1.05
   8   7   4   23.56    1.01
   8   7   5   37.87    1.40
   8   7   5   37.88    1.33
   0   0   0    0.00    0.00
;
_shelx_hkl_checksum              30565
loop_
_space_group_symop_operation_xyz
'x, y, z'
'-x, -y, -z'
loop_
_atom_site_label
_atom_site_type_symbol
_atom_site_fract_x
_atom_site_fract_y
_atom_site_fract_z
_atom_site_U_iso_or_equiv
_atom_site_adp_type
_atom_site_occupancy
_atom_site_site_symmetry_order
_atom_site_calc_flag
_atom_site_refinement_flags_posn
_atom_site_refinement_flags_adp
_atom_site_refinement_flags_occupancy
_atom_site_disorder_assembly
_atom_site_disorder_group
Cd Cd 0.500000 0.500000 0.500000 0.01245(6) Uani 1 2 d S . P . .
S1 S 0.32849(6) 0.67108(5) 0.30529(4) 0.01499(10) Uani 1 1 d . . . . .
S2 S 0.82169(6) 0.51249(5) 0.30494(4) 0.01426(10) Uani 1 1 d . . . . .
P1 P 0.60850(6) 0.59548(5) 0.20156(4) 0.01150(10) Uani 1 1 d . . . . .
O1 O 0.67149(18) 0.72290(14) 0.10093(12) 0.0151(3) Uani 1 1 d . . . . .
O2 O 0.60931(18) 0.48032(14) 0.10725(12) 0.0147(3) Uani 1 1 d . . . . .
O3 O -0.05326(19) 0.91632(14) 0.88096(12) 0.0184(3) Uani 1 1 d . . . . .
N1 N 0.5202(2) 0.70808(16) 0.58633(14) 0.0134(3) Uani 1 1 d . . . . .
N2 N 0.1193(2) 1.08072(16) 0.85185(15) 0.0141(3) Uani 1 1 d D . . . .
H1N H 0.160(3) 1.134(2) 0.892(2) 0.021 Uiso 1 1 d D U . . .
C1 C 0.5522(3) 0.7954(2) 0.00256(19) 0.0214(4) Uani 1 1 d . . . . .
H1A H 0.614817 0.863363 -0.056963 0.032 Uiso 1 1 calc R U . . .
H1B H 0.415988 0.850813 0.047219 0.032 Uiso 1 1 calc R U . . .
H1C H 0.545463 0.720779 -0.048837 0.032 Uiso 1 1 calc R U . . .
C2 C 0.7944(3) 0.4158(2) 0.01237(19) 0.0198(4) Uani 1 1 d . . . . .
H2A H 0.771766 0.350890 -0.041726 0.030 Uiso 1 1 calc R U . . .
H2B H 0.899990 0.358317 0.059927 0.030 Uiso 1 1 calc R U . . .
H2C H 0.836324 0.494761 -0.045028 0.030 Uiso 1 1 calc R U . . .
C3 C 0.3594(3) 0.82668(19) 0.61886(17) 0.0136(4) Uani 1 1 d . . . . .
H3 H 0.233111 0.825959 0.608339 0.016 Uiso 1 1 calc R U . . .
C4 C 0.3671(3) 0.95066(19) 0.66716(16) 0.0132(3) Uani 1 1 d . . . . .
C5 C 0.5538(3) 0.9504(2) 0.68134(17) 0.0162(4) Uani 1 1 d . . . . .
H5 H 0.566438 1.033959 0.712005 0.019 Uiso 1 1 calc R U . . .
C6 C 0.7202(3) 0.8274(2) 0.65039(18) 0.0184(4) Uani 1 1 d . . . . .
H6 H 0.847911 0.824403 0.661243 0.022 Uiso 1 1 calc R U . . .
C7 C 0.6976(3) 0.7082(2) 0.60319(17) 0.0161(4) Uani 1 1 d . . . . .
H7 H 0.812055 0.623727 0.582051 0.019 Uiso 1 1 calc R U . . .
C8 C 0.1788(3) 1.0787(2) 0.70791(17) 0.0155(4) Uani 1 1 d . . . . .
H8A H 0.203526 1.172717 0.669476 0.019 Uiso 1 1 calc R U . . .
H8B H 0.068431 1.069904 0.673043 0.019 Uiso 1 1 calc R U . . .
C9 C 0.0153(3) 0.99545(19) 0.92501(17) 0.0139(4) Uani 1 1 d . . . . .
loop_
_atom_site_aniso_label
_atom_site_aniso_U_11
_atom_site_aniso_U_22
_atom_site_aniso_U_33
_atom_site_aniso_U_23
_atom_site_aniso_U_13
_atom_site_aniso_U_12
Cd 0.01677(10) 0.01071(10) 0.00990(9) -0.00159(6) -0.00192(7) -0.00471(7)
S1 0.0132(2) 0.0153(2) 0.0145(2) -0.00067(16) -0.00328(16) -0.00189(17)
S2 0.0128(2) 0.0163(2) 0.0133(2) -0.00099(16) -0.00417(16) -0.00307(17)
P1 0.0127(2) 0.0115(2) 0.0108(2) -0.00056(16) -0.00266(17) -0.00431(17)
O1 0.0181(6) 0.0156(6) 0.0142(6) 0.0025(5) -0.0061(5) -0.0080(5)
O2 0.0149(6) 0.0155(6) 0.0144(6) -0.0043(5) -0.0019(5) -0.0052(5)
O3 0.0230(7) 0.0180(7) 0.0171(6) -0.0034(5) -0.0030(5) -0.0103(6)
N1 0.0154(7) 0.0128(7) 0.0122(7) -0.0024(6) -0.0028(6) -0.0041(6)
N2 0.0169(8) 0.0120(8) 0.0135(7) -0.0043(6) -0.0002(6) -0.0053(6)
C1 0.0264(10) 0.0207(10) 0.0201(9) 0.0083(8) -0.0119(8) -0.0106(8)
C2 0.0168(9) 0.0216(10) 0.0200(9) -0.0103(8) 0.0000(8) -0.0039(8)
C3 0.0148(9) 0.0146(9) 0.0120(8) -0.0001(7) -0.0024(7) -0.0060(7)
C4 0.0177(9) 0.0129(9) 0.0080(8) 0.0014(7) -0.0012(7) -0.0055(7)
C5 0.0226(9) 0.0165(9) 0.0123(8) -0.0027(7) -0.0023(7) -0.0100(8)
C6 0.0166(9) 0.0236(10) 0.0174(9) -0.0024(8) -0.0045(7) -0.0083(8)
C7 0.0157(9) 0.0169(9) 0.0152(9) -0.0026(7) -0.0033(7) -0.0039(7)
C8 0.0197(9) 0.0122(9) 0.0129(8) -0.0015(7) -0.0011(7) -0.0043(7)
C9 0.0121(8) 0.0112(9) 0.0157(9) -0.0031(7) -0.0011(7) -0.0008(7)
loop_
_atom_type_symbol
_atom_type_description
_atom_type_scat_dispersion_real
_atom_type_scat_dispersion_imag
_atom_type_scat_source
C C 0.0181 0.0091 'International Tables Vol C Tables 4.2.6.8 and 6.1.1.4'
H H 0.0000 0.0000 'International Tables Vol C Tables 4.2.6.8 and 6.1.1.4'
N N 0.0311 0.0180 'International Tables Vol C Tables 4.2.6.8 and 6.1.1.4'
O O 0.0492 0.0322 'International Tables Vol C Tables 4.2.6.8 and 6.1.1.4'
P P 0.2955 0.4335 'International Tables Vol C Tables 4.2.6.8 and 6.1.1.4'
S S 0.3331 0.5567 'International Tables Vol C Tables 4.2.6.8 and 6.1.1.4'
Cd Cd 0.1185 4.6533 'International Tables Vol C Tables 4.2.6.8 and 6.1.1.4'
loop_
_geom_angle_atom_site_label_1
_geom_angle_atom_site_label_2
_geom_angle_atom_site_label_3
_geom_angle
_geom_angle_site_symmetry_1
_geom_angle_site_symmetry_3
_geom_angle_publ_flag
N1 Cd N1 180.0 . 2_666 ?
N1 Cd S1 91.93(4) . . ?
N1 Cd S1 88.07(4) 2_666 . ?
N1 Cd S1 88.07(4) . 2_666 ?
N1 Cd S1 91.93(4) 2_666 2_666 ?
S1 Cd S1 180.0 . 2_666 ?
N1 Cd S2 88.27(4) . . ?
N1 Cd S2 91.73(4) 2_666 . ?
S1 Cd S2 77.205(12) . . ?
S1 Cd S2 102.795(12) 2_666 . ?
N1 Cd S2 91.73(4) . 2_666 ?
N1 Cd S2 88.27(4) 2_666 2_666 ?
S1 Cd S2 102.796(12) . 2_666 ?
S1 Cd S2 77.204(12) 2_666 2_666 ?
S2 Cd S2 180.0 . 2_666 ?
P1 S1 Cd 81.244(18) . . ?
P1 S2 Cd 81.133(18) . . ?
O2 P1 O1 103.94(7) . . ?
O2 P1 S2 112.28(5) . . ?
O1 P1 S2 105.65(5) . . ?
O2 P1 S1 106.70(5) . . ?
O1 P1 S1 111.26(5) . . ?
S2 P1 S1 116.38(3) . . ?
C1 O1 P1 118.33(11) . . ?
C2 O2 P1 118.18(11) . . ?
C3 N1 C7 118.19(15) . . ?
C3 N1 Cd 122.21(11) . . ?
C7 N1 Cd 119.60(12) . . ?
C9 N2 C8 121.87(15) . . ?
C9 N2 H1N 118.8(15) . . ?
C8 N2 H1N 119.2(15) . . ?
O1 C1 H1A 109.5 . . ?
O1 C1 H1B 109.5 . . ?
H1A C1 H1B 109.5 . . ?
O1 C1 H1C 109.5 . . ?
H1A C1 H1C 109.5 . . ?
H1B C1 H1C 109.5 . . ?
O2 C2 H2A 109.5 . . ?
O2 C2 H2B 109.5 . . ?
H2A C2 H2B 109.5 . . ?
O2 C2 H2C 109.5 . . ?
H2A C2 H2C 109.5 . . ?
H2B C2 H2C 109.5 . . ?
N1 C3 C4 123.53(16) . . ?
N1 C3 H3 118.2 . . ?
C4 C3 H3 118.2 . . ?
C3 C4 C5 117.54(17) . . ?
C3 C4 C8 121.18(16) . . ?
C5 C4 C8 121.24(16) . . ?
C6 C5 C4 119.42(17) . . ?
C6 C5 H5 120.3 . . ?
C4 C5 H5 120.3 . . ?
C5 C6 C7 118.89(17) . . ?
C5 C6 H6 120.6 . . ?
C7 C6 H6 120.6 . . ?
N1 C7 C6 122.41(17) . . ?
N1 C7 H7 118.8 . . ?
C6 C7 H7 118.8 . . ?
N2 C8 C4 110.62(14) . . ?
N2 C8 H8A 109.5 . . ?
C4 C8 H8A 109.5 . . ?
N2 C8 H8B 109.5 . . ?
C4 C8 H8B 109.5 . . ?
H8A C8 H8B 108.1 . . ?
O3 C9 N2 125.13(16) . . ?
O3 C9 C9 121.50(19) . 2_577 ?
N2 C9 C9 113.36(18) . 2_577 ?
loop_
_geom_bond_atom_site_label_1
_geom_bond_atom_site_label_2
_geom_bond_distance
_geom_bond_site_symmetry_2
_geom_bond_publ_flag
Cd N1 2.3799(14) . ?
Cd N1 2.3800(14) 2_666 ?
Cd S1 2.7003(4) . ?
Cd S1 2.7003(4) 2_666 ?
Cd S2 2.7053(4) . ?
Cd S2 2.7053(4) 2_666 ?
S1 P1 1.9850(6) . ?
S2 P1 1.9838(6) . ?
P1 O2 1.5884(12) . ?
P1 O1 1.6056(12) . ?
O1 C1 1.455(2) . ?
O2 C2 1.454(2) . ?
O3 C9 1.232(2) . ?
N1 C3 1.338(2) . ?
N1 C7 1.340(2) . ?
N2 C9 1.330(2) . ?
N2 C8 1.458(2) . ?
N2 H1N 0.867(10) . ?
C1 H1A 0.9800 . ?
C1 H1B 0.9800 . ?
C1 H1C 0.9800 . ?
C2 H2A 0.9800 . ?
C2 H2B 0.9800 . ?
C2 H2C 0.9800 . ?
C3 C4 1.388(2) . ?
C3 H3 0.9500 . ?
C4 C5 1.395(3) . ?
C4 C8 1.512(3) . ?
C5 C6 1.382(3) . ?
C5 H5 0.9500 . ?
C6 C7 1.388(3) . ?
C6 H6 0.9500 . ?
C7 H7 0.9500 . ?
C8 H8A 0.9900 . ?
C8 H8B 0.9900 . ?
C9 C9 1.539(3) 2_577 ?
loop_
_geom_torsion_atom_site_label_1
_geom_torsion_atom_site_label_2
_geom_torsion_atom_site_label_3
_geom_torsion_atom_site_label_4
_geom_torsion
_geom_torsion_site_symmetry_1
_geom_torsion_site_symmetry_2
_geom_torsion_site_symmetry_3
_geom_torsion_site_symmetry_4
_geom_torsion_publ_flag
O2 P1 O1 C1 55.97(14) . . . . ?
S2 P1 O1 C1 174.34(12) . . . . ?
S1 P1 O1 C1 -58.50(14) . . . . ?
O1 P1 O2 C2 57.77(13) . . . . ?
S2 P1 O2 C2 -55.94(13) . . . . ?
S1 P1 O2 C2 175.45(11) . . . . ?
C7 N1 C3 C4 1.0(3) . . . . ?
Cd N1 C3 C4 -178.81(12) . . . . ?
N1 C3 C4 C5 0.4(3) . . . . ?
N1 C3 C4 C8 -177.31(15) . . . . ?
C3 C4 C5 C6 -1.5(2) . . . . ?
C8 C4 C5 C6 176.12(16) . . . . ?
C4 C5 C6 C7 1.3(3) . . . . ?
C3 N1 C7 C6 -1.3(3) . . . . ?
Cd N1 C7 C6 178.59(13) . . . . ?
C5 C6 C7 N1 0.1(3) . . . . ?
C9 N2 C8 C4 -81.8(2) . . . . ?
C3 C4 C8 N2 106.14(18) . . . . ?
C5 C4 C8 N2 -71.4(2) . . . . ?
C8 N2 C9 O3 -5.6(3) . . . . ?
C8 N2 C9 C9 174.87(17) . . . 2_577 ?
