#------------------------------------------------------------------------------
#$Date: 2022-04-06 01:22:52 +0300 (Wed, 06 Apr 2022) $
#$Revision: 274360 $
#$URL: file:///home/coder/svn-repositories/cod/cif/1/56/67/1566749.cif $
#------------------------------------------------------------------------------
#
# This file is available in the Crystallography Open Database (COD),
# http://www.crystallography.net/
#
# All data on this site have been placed in the public domain by the
# contributors.
#
data_1566749
loop_
_publ_author_name
'Peng, Hang'
'Qi, Jun-Chao'
'Song, Xian-Jiang'
'Xiong, Ren-Gen'
'Liao, Wei-Qiang'
_publ_section_title
;
 An Unprecedented Azobenzene-Based Organic Single-Component Ferroelectric
;
_journal_name_full               'Chemical Science'
_journal_paper_doi               10.1039/D2SC00689H
_journal_year                    2022
_chemical_formula_moiety         'C12 H4 F6 N2'
_chemical_formula_sum            'C12 H4 F6 N2'
_chemical_formula_weight         290.17
_space_group_crystal_system      monoclinic
_space_group_IT_number           14
_space_group_name_Hall           '-P 2yn'
_space_group_name_H-M_alt        'P 1 21/n 1'
_atom_sites_solution_hydrogens   geom
_atom_sites_solution_primary     dual
_audit_creation_date             2021-11-14
_audit_creation_method
;
Olex2 1.3
(compiled 2020.11.12 svn.r5f609507 for OlexSys, GUI svn.r6272)
;
_audit_update_record
;
2022-01-24 deposited with the CCDC.	2022-04-05 downloaded from the CCDC.
;
_cell_angle_alpha                90
_cell_angle_beta                 97.270(6)
_cell_angle_gamma                90
_cell_formula_units_Z            2
_cell_length_a                   4.4870(3)
_cell_length_b                   9.3652(6)
_cell_length_c                   13.1716(8)
_cell_measurement_reflns_used    1296
_cell_measurement_temperature    298(2)
_cell_measurement_theta_max      23.2210
_cell_measurement_theta_min      2.6600
_cell_volume                     549.04(6)
_computing_cell_refinement       'CrysAlisPro 1.171.40.60a (Rigaku OD, 2019)'
_computing_data_collection       'CrysAlisPro 1.171.40.60a (Rigaku OD, 2019)'
_computing_data_reduction        'CrysAlisPro 1.171.40.60a (Rigaku OD, 2019)'
_computing_molecular_graphics    'Olex2 1.3 (Dolomanov et al., 2009)'
_computing_publication_material  'Olex2 1.3 (Dolomanov et al., 2009)'
_computing_structure_refinement  'SHELXL 2017/1 (Sheldrick, 2015)'
_computing_structure_solution    'SHELXT 2014/5 (Sheldrick, 2014)'
_diffrn_ambient_temperature      298(2)
_diffrn_detector                 'Hybrid Pixel Array Detector'
_diffrn_detector_area_resol_mean 10.0000
_diffrn_measured_fraction_theta_full 0.997
_diffrn_measured_fraction_theta_max 0.948
_diffrn_measurement_details
;
List of Runs (angles in degrees, time in seconds):

  # Type    Start    End  Width  t~exp~   \w     \q     \k     \f   Frames
#--------------------------------------------------------------------------
  1  \w    -29.00  43.00   0.50    2.00    --   20.00  54.00  60.00  144
  2  \w    -74.00  34.00   0.50    2.00    --   20.00  54.00  90.00  216
  3  \w     42.00  68.00   0.50    2.00    --   20.00  54.00  90.00   52
  4  \w    -72.00 -27.00   0.50    2.00    --   20.00  54.00   0.00   90
  5  \w     34.00 110.00   0.50    2.00    --   20.00  54.00   0.00  152
  6  \w    -30.00  -5.00   0.50    2.00    --   20.00  54.00-150.00   50
  7  \w     82.00 107.00   0.50    2.00    --   20.00  54.00-150.00   50
  8  \w    -69.00  44.00   0.50    2.00    --   20.00  54.00 -30.00  226
;
_diffrn_measurement_device       'two-circle diffractometer'
_diffrn_measurement_device_type  'XtaLAB Mini II'
_diffrn_measurement_method       '\w scans'
_diffrn_orient_matrix_type
'CrysAlisPro convention (1999,Acta A55,543-557)'
_diffrn_orient_matrix_UB_11      -0.0630564000
_diffrn_orient_matrix_UB_12      -0.0473783000
_diffrn_orient_matrix_UB_13      -0.0389106000
_diffrn_orient_matrix_UB_21      -0.0584879000
_diffrn_orient_matrix_UB_22      0.0590012000
_diffrn_orient_matrix_UB_23      -0.0299425000
_diffrn_orient_matrix_UB_31      0.1342088000
_diffrn_orient_matrix_UB_32      0.0034979000
_diffrn_orient_matrix_UB_33      -0.0231226000
_diffrn_radiation_monochromator  graphite
_diffrn_radiation_probe          x-ray
_diffrn_radiation_type           'Mo K\a'
_diffrn_radiation_wavelength     0.71073
_diffrn_reflns_av_R_equivalents  0.0278
_diffrn_reflns_av_unetI/netI     0.0424
_diffrn_reflns_Laue_measured_fraction_full 0.997
_diffrn_reflns_Laue_measured_fraction_max 0.948
_diffrn_reflns_limit_h_max       6
_diffrn_reflns_limit_h_min       -6
_diffrn_reflns_limit_k_max       13
_diffrn_reflns_limit_k_min       -12
_diffrn_reflns_limit_l_max       18
_diffrn_reflns_limit_l_min       -16
_diffrn_reflns_number            4448
_diffrn_reflns_point_group_measured_fraction_full 0.997
_diffrn_reflns_point_group_measured_fraction_max 0.948
_diffrn_reflns_theta_full        25.242
_diffrn_reflns_theta_max         30.107
_diffrn_reflns_theta_min         2.676
_diffrn_source                   'fine-focus sealed X-ray tube'
_diffrn_source_type              'Rigaku (Mo) X-ray Source'
_exptl_absorpt_coefficient_mu    0.178
_exptl_absorpt_correction_T_max  1.00000
_exptl_absorpt_correction_T_min  0.52346
_exptl_absorpt_correction_type   multi-scan
_exptl_absorpt_process_details
;
CrysAlisPro 1.171.40.60a (Rigaku Oxford Diffraction, 2019)
Empirical absorption correction using spherical harmonics,
 implemented in SCALE3 ABSPACK scaling algorithm.
;
_exptl_crystal_colour            yellow
_exptl_crystal_colour_primary    yellow
_exptl_crystal_density_diffrn    1.755
_exptl_crystal_description       prism
_exptl_crystal_F_000             288
_exptl_crystal_size_max          0.08
_exptl_crystal_size_mid          0.05
_exptl_crystal_size_min          0.05
_refine_diff_density_max         0.173
_refine_diff_density_min         -0.203
_refine_diff_density_rms         0.052
_refine_ls_extinction_method     none
_refine_ls_goodness_of_fit_ref   1.018
_refine_ls_hydrogen_treatment    constr
_refine_ls_matrix_type           full
_refine_ls_number_parameters     91
_refine_ls_number_reflns         1540
_refine_ls_number_restraints     0
_refine_ls_restrained_S_all      1.018
_refine_ls_R_factor_all          0.0915
_refine_ls_R_factor_gt           0.0485
_refine_ls_shift/su_max          0.000
_refine_ls_shift/su_mean         0.000
_refine_ls_structure_factor_coef Fsqd
_refine_ls_weighting_details
'w=1/[\s^2^(Fo^2^)+(0.0612P)^2^+0.0396P] where P=(Fo^2^+2Fc^2^)/3'
_refine_ls_weighting_scheme      calc
_refine_ls_wR_factor_gt          0.1165
_refine_ls_wR_factor_ref         0.1367
_reflns_Friedel_coverage         0.000
_reflns_number_gt                892
_reflns_number_total             1540
_reflns_threshold_expression     'I > 2\s(I)'
_cod_data_source_file            d2sc00689h2.cif
_cod_data_source_block           246_az_298k
_cod_database_code               1566749
_shelx_shelxl_version_number     2017/1
_chemical_oxdiff_formula         'C H N F'
_shelx_space_group_comment
;
The symmetry employed for this shelxl refinement is uniquely defined
by the following loop, which should always be used as a source of
symmetry information in preference to the above space-group names.
They are only intended as comments.
;
_shelx_estimated_absorpt_t_max   0.991
_shelx_estimated_absorpt_t_min   0.986
_reflns_odcompleteness_completeness 99.09
_reflns_odcompleteness_iscentric 1
_reflns_odcompleteness_theta     26.32
_olex2_refinement_description
;
1.a Aromatic/amide H refined with riding coordinates:
 C008(H008), C00A(H00A)
;
_shelx_res_file
;
TITL 2,4,6_az_298k_a.res in P2(1)/n
    2,4,6_az_298k.res
    created by SHELXL-2017/1 at 11:16:58 on 05-Apr-2021
REM Old TITL 2,4,6_az_298K in P21 #4
REM SHELXT solution in P2(1)/n
REM R1 0.162, Rweak 0.007, Alpha 0.020, Orientation as input
REM Formula found by SHELXT: C6 F3 N
CELL 0.71073 4.487 9.3652 13.1716 90 97.27 90
ZERR 2 0.0003 0.0006 0.0008 0 0.006 0
LATT 1
SYMM 0.5-X,0.5+Y,0.5-Z
SFAC C H F N
UNIT 24 8 12 4

L.S. 60
PLAN  5
SIZE 0.05 0.05 0.08
CONF
BOND $H
list 4
fmap 2
MORE -1
ACTA
REM <olex2.extras>
REM <HklSrc "%.\\2,4,6_az_298K.hkl">
REM </olex2.extras>

WGHT    0.061200    0.039600
FVAR       1.04747
F001  3    0.367614    0.317237    0.624076    11.00000    0.08083    0.07271 =
         0.03948    0.00525    0.01806    0.01975
F002  3    0.165045    0.425798    0.270485    11.00000    0.08296    0.07009 =
         0.04149    0.00489    0.00647    0.02482
F003  3    0.832577    0.056435    0.384248    11.00000    0.06096    0.05466 =
         0.08250   -0.01162    0.01692    0.01972
N004  4    0.042561    0.493212    0.456922    11.00000    0.04545    0.04333 =
         0.04351   -0.00421    0.01084    0.00086
C005  1    0.245641    0.376956    0.447863    11.00000    0.03287    0.03375 =
         0.04119   -0.00445    0.00854   -0.00335
C006  1    0.400402    0.292301    0.524801    11.00000    0.04327    0.04105 =
         0.03713   -0.00181    0.01172   -0.00506
C007  1    0.306841    0.346751    0.347981    11.00000    0.04443    0.04204 =
         0.03758    0.00085    0.00484    0.00103
C008  1    0.598064    0.184707    0.505898    11.00000    0.04550    0.03883 =
         0.04719    0.00525    0.00590   -0.00050
AFIX  43
H008  2    0.698287    0.130414    0.558675    11.00000   -1.20000
AFIX   0
C009  1    0.639380    0.161812    0.404912    11.00000    0.03898    0.03582 =
         0.06002   -0.00766    0.01333    0.00183
C00A  1    0.497403    0.239967    0.324301    11.00000    0.05244    0.04754 =
         0.04343   -0.00908    0.01413    0.00193
AFIX  43
H00A  2    0.528766    0.221489    0.257094    11.00000   -1.20000
AFIX   0
HKLF 4




REM  2,4,6_az_298k_a.res in P2(1)/n
REM R1 =  0.0485 for     892 Fo > 4sig(Fo)  and  0.0915 for all    1540 data
REM     91 parameters refined using      0 restraints

END

WGHT      0.0609      0.0411

REM Highest difference peak  0.173,  deepest hole -0.203,  1-sigma level  0.052
Q1    1   0.4006  0.0748  0.2800  11.00000  0.05    0.17
Q2    1   0.7047  0.2765  0.2610  11.00000  0.05    0.17
Q3    1   0.4097  0.1967  0.5027  11.00000  0.05    0.16
Q4    1   0.2705  0.3705  0.4010  11.00000  0.05    0.16
Q5    1   0.3106  0.0731  0.4209  11.00000  0.05    0.16
;
_shelx_res_checksum              85216
_shelx_hkl_file
;
   0   0   1   -0.13    0.19
   0   0  -2 1542.78   52.50
   0   0   2 1563.00   52.56
   0   0   3   -0.14    1.08
   0   0  -3   -0.14    0.47
   0   0  -3    0.82    0.81
   0   0   3    0.39    0.86
   0   0   3    0.36    0.48
   0   0   4  184.71    7.36
   0   0  -4  171.89    6.31
   0   0  -4  171.29    7.06
   0   0   4  174.35    7.40
   0   0   4  168.19    6.37
   0   0   5   -0.67    1.23
   0   0   5    0.72    1.41
   0   0  -5   -0.76    0.99
   0   0  -5    0.31    0.47
   0   0   6    4.12    1.81
   0   0  -6    2.01    1.04
   0   0  -6    3.45    0.65
   0   0   6    1.92    1.40
   0   0   7   -0.35    1.94
   0   0   7   -0.98    1.66
   0   0   8  753.05   28.12
   0   0   8  733.86   28.31
   0   0   9   -0.46    1.99
   0   0   9   -0.86    1.81
   0   0  10   33.83    4.01
   0   0  10   46.64    4.66
   0   0  11    1.76    2.77
   0   0  11    1.08    2.48
   0   0  12   65.42    6.10
   0   0  12   61.37    5.69
   0   0  13   -1.96    2.56
   0   0  13    3.55    2.94
   0   0  14   30.54    4.52
   0   0  14   30.24    4.77
   0   0  15    0.77    2.50
   0   0  15   -0.84    2.81
   0   0  16    0.90    3.02
   0   0  16   -1.64    2.89
   0   0  17    1.92    3.77
   0   0  17    1.75    3.22
   0   0  18   13.25    4.59
   0  -1   0    0.06    0.29
   0   1   0   -0.09    0.28
   0  -1   0   -0.05    0.33
   0   1   0   -0.05    0.29
   0  -1   0    0.42    0.24
   0   1   0    0.78    0.36
   0  -1   1  489.09   10.67
   0   1   1  492.86   10.79
   0  -1   1  495.50   10.36
   0   1  -1   59.22    9.84
   0   1   1  521.50   10.55
   0   1  -1  497.45   10.61
   0   1  -1  503.03   10.39
   0  -1  -1  124.19    9.97
   0   1   1  500.72   10.57
   0  -1  -1  495.92   10.55
   0  -1   1  489.31   10.89
   0   1   2 1113.42   37.60
   0  -1  -2 1074.54   37.59
   0  -1   2 1104.24   37.75
   0   1  -2 1097.60   37.67
   0  -1   2 1093.43   37.87
   0   1   2 1139.91   37.66
   0  -1  -3   74.71    3.29
   0   1  -3   69.78    3.55
   0   1   3   76.84    3.41
   0  -1   3   74.47    3.77
   0  -1   3   71.53    3.71
   0  -1   3   70.16    2.98
   0   1   3   72.73    3.56
   0  -1   4  451.95   16.89
   0   1   4  468.30   16.36
   0   1  -4  448.79   16.67
   0   1   4  454.98   16.76
   0  -1  -4  456.24   16.20
   0  -1   4  445.54   16.92
   0   1  -4  454.57   16.67
   0   1   5  984.42   34.21
   0  -1   5  988.87   34.45
   0   1   5  945.10   33.50
   0  -1  -5  984.32   33.37
   0   1  -5  950.67   33.98
   0  -1   5  941.62   34.37
   0  -1   6  132.68    6.68
   0  -1   6  133.50    6.72
   0   1  -6  127.86    6.19
   0   1   6  128.86    5.67
   0  -1  -6  128.96    5.51
   0   1   6  133.82    6.46
   0  -1   7  245.36   10.69
   0   1   7  231.70   10.26
   0  -1   7  221.20   10.40
   0   1   7  230.55    9.25
   0  -1   8   47.07    4.28
   0  -1   8   62.51    4.80
   0   1   8   58.99    4.33
   0   1   8   54.42    4.43
   0   1   9   93.74    6.24
   0  -1   9   84.54    5.90
   0   1   9   80.88    5.62
   0  -1   9   87.32    6.16
   0  -1  10  256.79   13.06
   0  -1  10  297.89   13.40
   0   1  10  281.57   13.37
   0   1  10  261.35   12.72
   0  -1  11  470.01   20.23
   0   1  11  462.51   19.89
   0  -1  11  463.04   20.41
   0   1  11  475.44   20.50
   0  -1  12   68.25    6.16
   0  -1  12   71.15    6.44
   0   1  12   59.57    6.00
   0   1  12   76.57    6.15
   0  -1  13    1.44    2.70
   0   1  13    0.71    2.62
   0  -1  13    5.42    2.95
   0   1  13   -0.63    2.23
   0  -1  14   18.03    4.22
   0   1  14   13.76    3.44
   0   1  14   19.29    4.16
   0  -1  14   24.38    4.10
   0   1  15   15.00    3.97
   0  -1  15   14.41    3.93
   0   1  15   13.35    3.49
   0  -1  15    7.96    3.38
   0   1  16   32.59    5.04
   0  -1  16   36.86    5.58
   0   1  16   33.09    5.43
   0  -1  16   27.41    5.08
   0   1  17   -1.91    3.28
   0  -1  17    1.82    3.63
   0  -1  17    4.88    4.04
   0  -1  18    4.80    3.70
   0  -1  18   12.44    4.45
   0   1  18   14.10    4.46
   0  -2   0  521.65   17.71
   0  -2   0  494.99   17.69
   0  -2   0  490.95   17.38
   0   2   0  505.24   17.78
   0   2   0  482.62   17.50
   0   2   0  500.97   17.67
   0  -2   0  509.86   17.52
   0   2   1   12.78    1.45
   0  -2   1   10.76    1.54
   0  -2  -1   11.75    1.19
   0   2  -1   12.75    1.23
   0   2  -1   12.88    1.00
   0  -2   1   12.80    0.97
   0   2  -1   11.98    1.24
   0  -2   1   15.40    1.37
   0   2  -1   11.88    1.55
   0   2  -1    9.80    1.28
   0  -2  -1   12.67    1.28
   0  -2   1    8.12    1.05
   0   2  -2  102.12    4.13
   0   2  -2   91.56    4.52
   0  -2  -2   98.96    4.44
   0   2  -2  107.74    4.43
   0   2  -2   97.28    3.75
   0  -2   2  100.87    4.07
   0   2  -2   92.05    3.71
   0  -2  -2  107.36    4.35
   0  -2   2   99.61    4.82
   0  -2   2   97.66    4.56
   0   2   2   92.06    4.56
   0   2   2  103.83    4.29
   0   2   3 1810.65   13.19
   0   2   3 1847.52   14.90
   0  -2   3 1792.22    9.23
   0   2  -3 1850.61   10.95
   0   2  -3 1834.75   13.84
   0  -2   3 1859.63   15.11
   0  -2  -3 1900.08   14.22
   0  -2   3 1880.78   10.79
   0   2  -3 1847.56    9.28
   0  -2   3 1912.98   16.39
   0   2  -4  134.20    5.89
   0  -2   4  138.56    5.04
   0  -2   4  132.14    5.01
   0  -2   4  137.01    6.45
   0   2  -4  128.35    4.99
   0   2   4  128.33    5.95
   0   2   4  130.13    5.72
   0  -2   4  123.50    6.10
   0  -2  -4  133.62    5.77
   0   2  -5 1009.06   34.64
   0   2   5 1043.96   36.24
   0  -2   5 1060.03   36.76
   0   2  -5 1039.84   36.05
   0  -2   5 1032.53   35.00
   0   2   5 1058.64   36.05
   0  -2   5 1031.87   36.51
   0   2   5  962.01   35.85
   0  -2  -5 1024.87   35.73
   0  -2   6 1047.33   37.81
   0  -2  -6 1039.79   36.74
   0   2  -6 1031.71   37.21
   0   2   6 1091.51   37.16
   0  -2   6 1084.68   38.07
   0   2   6 1042.38   37.46
   0  -2   6 1041.23   36.18
   0  -2   7  501.30   18.19
   0   2   7  504.76   18.97
   0  -2   7  505.29   20.04
   0   2   7  533.73   19.72
   0  -2   7  481.14   19.85
   0  -2   8   47.21    4.17
   0   2   8   39.81    3.14
   0  -2   8   42.11    4.11
   0   2   8   38.59    3.52
   0   2   9   10.33    2.35
   0  -2   9   14.86    3.05
   0  -2   9   14.98    2.89
   0  -2  10   69.02    5.56
   0   2  10   57.59    4.98
   0  -2  10   66.82    5.61
   0   2  10   49.35    5.06
   0   2  11  228.91   11.84
   0  -2  11  236.09   12.43
   0  -2  11  240.45   12.53
   0   2  11  243.98   12.49
   0   2  12   44.85    5.07
   0  -2  12   35.56    4.98
   0   2  12   43.33    4.69
   0  -2  12   45.32    5.31
   0   2  13   13.10    3.25
   0   2  13   11.36    3.48
   0  -2  13   17.54    3.92
   0  -2  13   15.07    3.65
   0  -2  14   -0.78    3.43
   0  -2  14   -0.80    3.31
   0   2  14    2.03    2.32
   0   2  14   -3.08    2.84
   0   2  15    1.66    2.93
   0  -2  15   -0.83    3.08
   0   2  16    4.44    3.27
   0  -2  16    3.72    3.79
   0  -2  16    0.89    3.22
   0  -2  17   14.85    4.77
   0  -2  17   13.29    4.40
   0   2  17   10.37    4.12
   0  -2  18    7.95    4.26
   0   3   0    0.56    1.10
   0  -3   0    0.17    1.03
   0   3   0   -0.80    1.15
   0  -3   0    0.23    0.63
   0  -3   0   -0.41    0.75
   0  -3   0    0.50    0.95
   0  -3  -1   48.47    2.88
   0   3  -1   50.39    3.13
   0   3  -1   54.70    2.69
   0   3  -1   47.33    2.73
   0  -3   1   52.51    3.25
   0  -3  -1   51.66    2.95
   0   3   1   53.46    2.94
   0  -3  -1   52.69    3.07
   0  -3   1   55.43    2.67
   0   3  -1   49.81    2.83
   0   3   1   49.87    3.18
   0  -3   1   58.60    3.00
   0   3  -1   55.67    3.09
   0   3  -2 1550.30    9.39
   0   3  -2 1573.17   12.10
   0  -3   2 1557.67   11.61
   0   3  -2 1516.23   12.17
   0  -3  -2 1528.78   12.89
   0   3  -2 1557.74   13.65
   0   3   2 1520.06   14.41
   0   3   2 1539.13   12.00
   0   3  -2 1520.63    9.17
   0  -3   2 1559.24   12.87
   0  -3   2 1574.02   14.77
   0  -3  -2 1603.23   12.36
   0  -3  -2 1518.94   13.05
   0  -3  -3 1370.06   47.12
   0   3  -3 1376.79   45.96
   0   3  -3 1382.73   46.57
   0   3  -3 1306.74   45.89
   0  -3  -3 1284.79   47.11
   0  -3  -3 1390.49   46.90
   0   3  -3 1372.78   46.86
   0   3   3 1365.15   46.74
   0  -3   3 1356.47   47.59
   0   3  -3 1384.76   47.20
   0   3   3 1372.82   47.41
   0  -3   3 1364.39   47.18
   0  -3   3 1365.10   46.43
   0   3  -4  366.29   13.01
   0  -3   4  403.55   15.15
   0  -3  -4  378.13   14.28
   0   3  -4  369.12   13.00
   0   3   4  373.60   14.60
   0   3  -4  365.97   14.09
   0   3   4  376.63   14.03
   0  -3   4  381.85   14.67
   0  -3   4  365.36   13.41
   0   3  -4  372.09   13.55
   0   3  -4  371.63   14.38
   0   3   4  376.38   13.97
   0  -3   5  442.90   17.40
   0  -3  -5  441.60   16.82
   0   3   5  455.43   16.68
   0  -3   5  450.44   17.78
   0  -3   5  431.20   15.52
   0   3  -5  453.78   15.90
   0   3  -5  449.33   16.87
   0   3   5  458.28   17.33
   0  -3   5  452.56   15.84
   0  -3   6    9.85    2.49
   0  -3   6   10.58    2.31
   0   3   6    6.57    1.47
   0  -3  -6    8.68    1.59
   0   3   6   12.60    1.97
   0   3   7  337.63   13.85
   0  -3   7  333.83   14.68
   0  -3   7  339.29   14.52
   0   3   7  331.77   13.92
   0   3   8   76.69    4.93
   0  -3   8   69.11    5.48
   0  -3   8   60.90    5.21
   0   3   8   61.13    4.46
   0  -3   9    2.51    2.47
   0   3   9    2.09    1.67
   0  -3   9    1.58    2.53
   0   3  10  461.88   19.61
   0  -3  10  460.02   20.56
   0  -3  10  509.97   20.80
   0   3  11   81.67    6.58
   0  -3  11   91.62    7.09
   0   3  11   72.53    5.92
   0  -3  11   92.16    7.31
   0  -3  12   22.65    4.25
   0   3  12   17.65    3.83
   0   3  12   22.50    3.48
   0  -3  12   26.68    4.54
   0  -3  13   12.01    3.80
   0   3  13   12.11    3.44
   0  -3  13    8.37    3.76
   0  -3  14    4.92    3.51
   0   3  14    3.85    2.96
   0  -3  14    4.09    3.33
   0  -3  15    4.41    3.65
   0  -3  15    2.65    3.18
   0   3  15    7.45    3.31
   0  -3  16   11.24    4.38
   0   3  16   -2.65    3.03
   0  -3  16    8.53    3.93
   0  -3  17   -2.01    3.55
   0   3  17   -0.93    3.44
   0  -3  17   -4.97    3.90
   0  -4   0    7.53    1.51
   0  -4   0    7.98    1.40
   0  -4   0    9.98    1.39
   0  -4   0    9.76    1.18
   0   4   0   10.05    1.39
   0   4   0    9.66    1.71
   0   4   0    8.23    1.53
   0  -4  -1  579.45   21.65
   0  -4   1  611.67   21.98
   0  -4  -1  594.17   21.51
   0   4  -1  588.46   21.19
   0  -4   1  560.47   21.47
   0   4  -1  609.72   21.86
   0  -4  -1  578.83   21.01
   0  -4  -1  595.46   21.71
   0   4   1  615.71   22.17
   0   4  -1  577.10   21.65
   0  -4   1  606.12   21.12
   0   4   1  595.57   21.46
   0   4  -1  594.29   21.49
   0   4  -2   24.35    2.20
   0  -4   2   33.87    2.47
   0   4  -2   25.58    1.79
   0  -4   2   28.07    1.82
   0  -4  -2   29.43    2.38
   0   4  -2   29.25    2.40
   0  -4   2   23.37    2.64
   0   4   2   24.15    2.59
   0   4  -2   26.38    2.19
   0   4  -2   22.38    2.42
   0  -4   2   22.05    2.05
   0  -4  -2   28.04    2.33
   0  -4   3   73.79    4.70
   0   4   3   70.51    3.81
   0   4   3   72.40    4.55
   0   4  -3   63.72    3.10
   0   4  -3   78.77    4.38
   0   4  -3   70.44    3.22
   0  -4   3   70.88    4.16
   0  -4  -3   67.06    4.04
   0  -4  -3   63.59    3.97
   0   4  -3   73.26    3.88
   0   4  -3   67.98    3.83
   0  -4  -3   73.55    3.91
   0  -4   3   65.01    3.60
   0   4  -4   91.24    4.44
   0   4  -4   83.35    3.66
   0  -4   4   84.55    5.46
   0   4   4   88.19    5.28
   0   4   4   82.24    4.42
   0  -4  -4  100.67    4.92
   0   4  -4   95.61    4.78
   0  -4   4   86.72    4.24
   0  -4   4   86.19    5.07
   0   4  -5  398.62   14.31
   0   4   5  385.79   15.59
   0  -4   5  352.45   15.89
   0  -4   5  398.25   15.61
   0   4   5  359.08   14.54
   0   4  -5  383.83   14.81
   0  -4   6  128.03    7.08
   0  -4   6  123.27    7.45
   0   4   6  125.46    6.90
   0  -4   7   34.30    3.86
   0   4   7   40.40    3.65
   0  -4   7   31.01    4.07
   0   4   8   18.28    2.70
   0  -4   8   26.61    4.01
   0  -4   8   22.48    3.54
   0   4   8   19.68    2.90
   0   4   9   33.56    3.54
   0  -4   9   29.88    4.52
   0   4   9   32.38    3.63
   0  -4   9   31.94    4.44
   0  -4  10   12.41    3.65
   0   4  10    5.68    2.17
   0  -4  10   13.39    3.41
   0  -4  11   18.90    3.71
   0  -4  11   17.36    3.90
   0   4  11   21.76    3.18
   0  -4  12    9.28    3.60
   0  -4  12    2.26    3.12
   0   4  12   -0.66    2.63
   0   4  13    1.43    2.80
   0  -4  13   -1.62    3.52
   0  -4  13   -0.78    3.16
   0  -4  14   35.33    5.49
   0  -4  14   33.00    5.21
   0   4  14   35.45    5.23
   0  -4  15    2.79    3.50
   0   4  15   -0.82    3.17
   0  -4  15   -0.90    3.54
   0  -4  16    4.84    3.94
   0  -4  16    4.92    3.86
   0   4  16   -1.75    3.01
   0   4  17    0.92    3.01
   0  -4  17    1.02    3.78
   0  -4  17   -1.04    3.91
   0   5   0   -0.19    0.97
   0   5   0    0.65    1.30
   0  -5   0    3.19    1.00
   0  -5   0   -0.87    0.92
   0   5   0    1.04    1.30
   0   5  -1  140.93    7.20
   0  -5   1  157.73    6.99
   0  -5   1  153.27    6.48
   0  -5  -1  149.41    6.81
   0   5  -1  135.57    6.40
   0  -5  -1  149.51    7.09
   0   5  -1  150.57    7.08
   0   5   1  147.63    6.84
   0  -5  -1  141.35    6.27
   0   5   1  145.87    7.48
   0  -5   1  139.73    7.17
   0  -5  -2  190.38    8.34
   0   5   2  194.01    8.95
   0  -5   2  184.47    7.47
   0   5   2  168.85    7.82
   0   5  -2  178.49    8.14
   0  -5   2  183.84    8.75
   0   5  -2  174.40    8.33
   0   5  -2  183.77    7.86
   0  -5   2  183.67    8.02
   0  -5  -3    1.18    1.13
   0   5  -3    0.29    1.16
   0  -5  -3    2.37    1.18
   0  -5   3    2.22    1.43
   0   5  -3    1.93    1.26
   0   5   3    2.62    1.68
   0   5  -3    1.61    1.27
   0  -5   3    1.88    1.82
   0  -5   3    0.23    1.01
   0   5  -4  165.11    7.32
   0   5  -4  147.04    7.64
   0  -5  -4  165.00    7.45
   0  -5   4  173.08    7.92
   0   5   4  150.45    8.06
   0   5  -4  159.93    7.35
   0   5   4  147.03    7.04
   0  -5   4  146.40    8.21
   0  -5   5  124.94    7.15
   0  -5   5  136.32    7.89
   0  -5   6   16.72    3.37
   0   5   6   16.46    2.80
   0  -5   6    8.84    2.59
   0  -5   7  102.68    6.73
   0   5   7  107.87    6.76
   0  -5   7  104.27    7.39
   0   5   8   48.31    4.53
   0  -5   8   51.18    5.29
   0  -5   8   58.17    5.30
   0  -5   9    3.21    3.16
   0  -5   9    2.81    2.56
   0   5   9    6.29    2.05
   0   5   9    6.91    2.43
   0  -5  10   66.25    6.18
   0  -5  10   83.52    7.22
   0  -5  11   38.65    5.08
   0  -5  11   25.60    4.60
   0  -5  12    3.24    3.36
   0  -5  12    7.45    3.44
   0  -5  13   86.82    8.22
   0   5  13   80.89    7.14
   0  -5  13   86.35    7.71
   0   5  14    2.30    2.58
   0  -5  14    9.25    4.21
   0  -5  14    3.47    3.06
   0   5  15   -3.28    2.95
   0  -5  15    2.76    3.32
   0  -5  15   -0.98    3.53
   0  -5  16    3.09    3.71
   0  -5  16    2.93    3.53
   0  -5  17   13.39    4.84
   0   6   0  151.79    8.02
   0   6  -1  252.33   11.69
   0  -6  -1  269.53   11.57
   0  -6   1  257.45   11.63
   0   6   1  271.82   12.16
   0  -6  -2  703.79   26.89
   0   6  -2  731.21   27.24
   0   6  -2  733.09   26.86
   0   6   2  693.57   27.68
   0  -6   2  743.64   27.61
   0  -6  -3  500.51   19.68
   0  -6   3  529.45   20.52
   0   6  -3  503.31   19.69
   0   6   3  483.96   20.45
   0   6  -3  495.47   19.56
   0   6  -4   96.36    5.55
   0   6  -4   84.05    5.52
   0  -6   4   96.51    6.41
   0  -6   4  105.73    5.85
   0   6   4   83.09    6.08
   0   6   5   18.98    3.05
   0   6  -5   18.76    2.82
   0  -6   5   29.57    4.10
   0  -6   5   22.35    3.00
   0   6   6   26.88    3.71
   0  -6   6   21.52    3.84
   0  -6   6   26.96    3.43
   0  -6   7    0.95    2.19
   0   6   7    2.11    2.29
   0  -6   7    2.96    2.70
   0  -6   8   22.06    3.70
   0  -6   8   17.27    3.79
   0   6   8   13.70    3.06
   0  -6   9   32.96    4.51
   0   6   9   40.91    4.54
   0   6  10    0.58    2.06
   0  -6  10    2.54    2.85
   0  -6  10    1.49    3.33
   0  -6  11    6.91    3.15
   0  -6  11    4.78    3.47
   0  -6  12   12.78    4.09
   0  -6  12    1.50    2.83
   0  -6  13    2.43    3.05
   0  -6  13   -0.91    3.34
   0  -6  14    4.80    4.18
   0  -6  15    7.08    3.97
   0   7   0    1.40    1.72
   0   7  -1   97.98    6.33
   0   7   1   88.76    6.38
   0  -7  -1  101.04    6.04
   0  -7   2    4.49    2.47
   0   7  -2    8.68    2.31
   0   7   2    2.02    2.26
   0  -7  -2    1.18    1.42
   0   7  -3   15.43    2.55
   0  -7   3   13.53    2.99
   0   7   3   13.60    3.02
   0  -7  -3   14.05    2.49
   0  -7   4    9.42    3.13
   0   7   4    9.22    2.82
   0   7  -4   10.44    2.14
   0   7  -5   13.11    2.43
   0   7   5   14.07    2.99
   0  -7   5    7.96    2.89
   0  -7   6   36.04    4.60
   0   7   6   26.25    3.92
   0   7  -6   26.47    3.30
   0   7   7   54.89    5.22
   0  -7   7   54.92    5.67
   0   7  -7   50.42    4.98
   0  -7   8   25.84    4.66
   0   7   8   23.71    3.74
   0  -7   9  107.20    8.37
   0   7   9   90.15    7.22
   0  -7  10    2.38    3.23
   0   7  10    1.98    2.21
   0  -7  11   10.99    3.92
   0  -7  12    0.90    3.17
   0  -7  13    3.79    3.92
   0  -7  14    1.00    3.43
   0  -7  15    1.04    3.93
   0   8   0  100.95    6.86
   0  -8   0   85.38    6.11
   0  -8  -1    2.77    1.84
   0   8  -1   -1.57    2.02
   0   8   1    5.06    2.44
   0   8   2    5.23    2.41
   0  -8   2    2.53    2.27
   0  -8  -2    4.55    1.79
   0   8  -2    6.08    2.31
   0   8   3   -0.60    2.31
   0   8  -3    0.49    2.06
   0  -8   3    0.54    2.19
   0   8   4    8.07    2.71
   0  -8   4    4.60    2.59
   0   8   5   11.55    2.93
   0  -8   5    4.31    2.93
   0   8   6   -0.66    2.22
   0  -8   6    1.32    2.69
   0  -8   7  141.93    9.63
   0   8   7  130.00    9.05
   0  -8   8  297.67   15.65
   0   8   8  301.81   15.41
   0   8   9   33.11    4.59
   0  -8   9   21.68    4.50
   0  -8  10   51.75    6.45
   0   8  10   63.81    6.22
   0  -8  11   -0.89    3.29
   0  -8  12    1.89    3.33
   0  -8  13    0.99    3.82
   0  -8  14    8.26    3.98
   0   9   0    2.48    2.23
   0  -9   0    1.07    1.85
   0   9   1  165.40   10.11
   0   9  -1  180.95   10.33
   0   9   2  101.52    7.50
   0   9  -2   91.63    7.03
   0   9   3   95.73    7.72
   0  -9   3  116.89    7.89
   0   9   4   15.41    3.60
   0  -9   4   10.68    3.19
   0  -9   5   13.98    3.73
   0   9   5   19.49    3.80
   0  -9   6    3.53    2.93
   0   9   6    6.66    2.96
   0   9   7   10.66    3.56
   0  -9   7    3.00    2.65
   0   9   8   42.01    5.36
   0  -9   8   49.43    5.91
   0   9   9   -0.79    2.44
   0  -9   9   -0.85    2.84
   0   9  10    4.03    2.91
   0  -9  10   -2.68    3.69
   0  -9  11    4.70    3.69
   0  -9  12   10.84    4.16
   0  -9  13    5.15    3.88
   0  10   0    2.77    2.50
   0  10  -1   -0.67    2.53
   0  10   1    1.43    2.40
   0  10   2   53.08    5.80
   0  10  -2   46.94    5.40
   0  10   3   81.07    7.22
   0 -10   4   90.84    7.33
   0  10   4   91.21    7.83
   0  10   5   -0.80    2.76
   0 -10   5   -0.71    2.63
   0 -10   6   -1.50    2.77
   0  10   6    0.82    2.82
   0  10   7   -0.84    2.58
   0 -10   7    3.16    3.04
   0  10   8   -0.86    2.79
   0 -10   8    0.83    2.93
   0  10   9    0.87    2.75
   0 -10   9   -1.75    3.09
   0  10  10    3.51    2.87
   0 -10  10   -0.92    3.53
   0  10  11    2.65    3.04
   0 -10  11   -2.89    3.31
   0  11   0   -1.54    2.64
   0  11  -1    1.49    2.50
   0  11   1   -0.79    2.71
   0  11   2   33.29    5.08
   0  11   3   18.32    4.14
   0  11   4    0.86    2.64
   0  11   5   10.51    3.45
   0  11   6    2.69    2.84
   0  11   7    6.39    2.81
   0 -11   7    3.30    3.18
   0 -11   8   -1.73    3.57
   0  11   8    2.78    2.94
   0 -11   9    0.90    3.25
   0  11   9   -0.93    2.87
   0 -11  10   -2.81    3.61
   0  11  10    4.70    3.32
   0  12   0    2.51    2.65
   0  12   1   -0.86    2.72
   0  12   2    4.41    2.80
   0  12   3    4.53    2.88
   0  12   4   -0.93    2.85
   0  12   5    1.90    3.34
   0  12   6   -0.96    3.06
   0  13   1   -7.31    3.30
   0  13   2    4.72    3.48
  -1   0  18   11.71    4.68
  -1   0  18   -1.86    3.36
  -1   0  17   22.22    4.82
  -1   0  17   17.72    4.30
  -1   0  16    0.87    2.84
  -1   0  16   -1.67    2.65
  -1   0  15   34.53    5.12
  -1   0  15   28.53    4.72
  -1   0  14    0.73    2.51
  -1   0  14    0.76    2.73
  -1   0  13   18.95    3.84
  -1   0  13   18.85    3.77
  -1   0  12   -0.64    2.50
  -1   0  12   -0.62    2.53
  -1   0  11   31.33    4.38
  -1   0  11   32.13    4.13
  -1   0  10    0.51    2.14
  -1   0   9   38.66    3.93
  -1   0   8    2.01    1.61
  -1   0   7 3218.63  108.97
   1   0  -7 3161.59  107.47
  -1   0   7 3161.58  106.77
  -1   0   6   -0.11    0.61
  -1   0   6    0.30    1.45
   1   0  -6   -0.17    0.74
  -1   0   5 1927.22   66.91
  -1   0   5 1931.45   65.59
   1   0  -5 1930.04   65.98
  -1   0   5 1959.25   66.16
  -1   0   4    0.84    1.23
  -1   0   4    0.35    0.64
   1   0  -4    0.14    0.68
  -1   0   4    0.45    0.79
  -1   0   3 3471.48  116.86
  -1   0   3 3449.77  116.80
  -1   0   3 3481.88  116.79
   1   0  -2    0.49    0.78
  -1   0   2    0.47    0.78
   1   0  -2    0.13    0.82
   1   0  -1 1469.33   50.19
  -1   0   1 1515.48   49.98
  -1   0   1 1418.62   50.07
  -1   0   0    0.22    0.57
  -1   0   0    0.13    0.94
   1   0   0   -0.14    0.93
   1   0   0    0.54    0.58
   1   0   1  670.31   23.72
  -1   0  -1  665.72   23.51
   1   0   1  675.20   23.47
  -1   0  -1  659.43   23.41
  -1   0  -1  667.32   22.99
   1   0   1  668.06   22.99
   1   0   2    0.76    0.96
   1   0   2   -0.72    1.24
  -1   0  -2    1.29    1.09
   1   0   2    0.82    1.19
  -1   0  -2    0.59    0.83
   1   0   2    0.46    1.00
  -1   0  -2    0.32    0.89
  -1   0  -2    1.16    1.17
   1   0   3 1054.84   37.86
   1   0   3 1067.49   37.22
  -1   0  -3 1065.73   37.02
   1   0   3 1108.93   37.84
  -1   0  -3 1083.91   37.46
   1   0   3 1093.71   37.63
   1   0   4    0.89    1.10
   1   0   4   -0.49    1.40
  -1   0  -4    0.39    1.05
   1   0   4    0.95    1.18
  -1   0  -4    0.75    0.87
   1   0   4    1.93    0.99
   1   0   5  663.40   24.96
   1   0   5  685.26   24.76
   1   0   5  692.25   25.40
   1   0   5  699.20   25.21
  -1   0  -5  694.69   24.85
  -1   0  -5  674.17   24.40
  -1   0  -6    0.21    0.91
  -1   0  -6    1.65    0.91
   1   0   6   -0.34    1.68
   1   0   6    0.90    1.37
   1   0   6    0.53    1.43
   1   0   7   -0.39    1.87
   1   0   7    1.68    1.63
   1   0   7   -0.31    1.49
   1   0   8   -0.72    1.69
   1   0   8   -0.44    2.24
   1   0   8    1.12    1.69
   1   0   9   -1.24    2.06
   1   0   9    1.00    2.47
   1   0   9    1.23    1.99
   1   0  10   -1.68    2.55
   1   0  10   -0.45    1.88
   1   0  10    1.88    2.39
   1   0  11  726.00   28.17
   1   0  11  687.97   28.80
   1   0  12    4.14    3.18
   1   0  12   -1.74    2.81
   1   0  13   20.36    4.35
   1   0  14    2.47    3.23
   1   0  15   -3.55    3.48
   1   0  16   -0.95    3.36
   1   0  17   12.22    4.78
  -1   1  18    6.38    3.50
  -1   1  18    1.96    3.28
  -1  -1  18    2.92    3.52
  -1  -1  18   11.46    4.28
  -1   1  17   12.10    4.25
  -1   1  17   11.27    3.85
  -1  -1  17   10.01    3.92
  -1  -1  17   19.38    4.56
  -1   1  16    2.47    2.91
  -1  -1  16    6.06    3.20
  -1  -1  16   13.73    3.96
  -1   1  16    4.39    3.17
  -1   1  15    0.82    2.83
  -1  -1  15   -0.80    2.69
  -1  -1  15    2.43    3.11
  -1   1  15    4.64    2.91
  -1  -1  14   10.43    3.36
  -1  -1  14   13.49    3.57
  -1   1  14   13.00    3.74
  -1   1  14   12.27    3.31
  -1  -1  13   19.31    3.85
  -1  -1  13   24.10    4.16
  -1   1  13   23.33    4.37
  -1   1  13   18.59    3.78
  -1  -1  12   55.36    5.59
  -1  -1  12   63.92    6.03
  -1   1  12   49.21    5.15
  -1  -1  11    3.47    2.52
  -1  -1  11   10.26    3.14
  -1   1  11    6.11    2.31
  -1   1  10  162.53    8.93
  -1  -1  10  156.19    8.91
  -1  -1  10  141.26    8.81
  -1   1   9  163.19    8.95
  -1  -1   9  176.87    9.34
  -1  -1   9  178.57    9.23
  -1   1   8    0.80    1.69
  -1  -1   8    0.41    1.68
  -1   1   7    8.47    2.05
  -1   1   7   11.78    1.50
  -1  -1   7   12.59    2.25
   1  -1  -7   12.25    1.63
  -1  -1   6  175.94    6.42
   1  -1  -6  172.19    7.10
  -1   1   6  195.80    8.51
  -1  -1   6  178.49    8.33
   1  -1  -6  174.86    7.58
   1   1  -6  169.34    6.93
  -1   1   6  176.88    7.28
  -1  -1   5  295.04   12.41
  -1   1   5  328.09   12.28
  -1   1   5  315.46   11.72
   1  -1  -5  300.72   11.54
   1   1  -5  313.59   12.15
  -1  -1   5  272.14   11.11
   1  -1  -5  323.38   11.96
  -1  -1   5  316.69   11.34
  -1  -1   5  322.14   11.07
  -1  -1   4  934.17   33.65
   1  -1  -4  962.06   33.39
  -1  -1   4  966.33   32.68
  -1   1   4  919.85   33.55
   1  -1  -4  998.67   33.22
  -1   1   4  961.70   33.22
  -1  -1   4  919.40   32.69
   1   1  -4  970.52   33.48
  -1   1   3    6.80    1.17
  -1  -1   3    4.29    0.79
   1   1  -3    4.76    0.80
   1  -1  -3    4.58    1.02
   1  -1  -3    4.51    1.08
  -1  -1   3    6.09    1.21
   1   1  -3    6.42    1.16
  -1   1   3    5.17    1.24
   1   1  -3    4.80    1.36
  -1   1   2 1246.87   41.89
   1  -1  -2 1205.48   41.22
  -1   1   2 1197.93   41.81
  -1  -1   2 1200.07   41.57
  -1  -1   2 1182.94   41.91
  -1   1   2 1194.88   41.83
   1  -1  -2 1294.28   41.87
  -1   1   2 1152.11   41.90
   1   1  -2 1233.29   41.99
   1   1  -2 1226.22   41.52
  -1  -1   2 1234.99   41.34
   1   1  -2 1190.48   41.39
   1   1  -1  270.22   10.35
   1  -1  -1  258.42   10.59
  -1   1   1  280.97    9.87
  -1  -1   1  299.63   10.60
  -1  -1   1  271.61    9.95
   1  -1  -1  289.00   10.58
  -1   1   1  278.23   10.70
  -1   1   1  274.47   10.42
  -1  -1   1  282.35   10.27
   1  -1   0  436.22   15.46
  -1  -1   0  406.90   15.15
  -1   1   0  415.48   15.08
  -1   1   0  431.30   14.75
   1   1   0  417.15   15.31
  -1  -1   0  423.03   14.64
   1  -1   0  409.28   15.22
  -1   1  -1  379.07   14.66
  -1   1  -1  394.17   14.58
   1   1   1  420.97   14.93
   1  -1   1  396.82   14.90
   1  -1   1  410.19   14.62
   1   1   1  394.95   14.22
  -1   1  -1  402.08   14.80
   1  -1   1  404.57   14.89
  -1  -1  -1  392.74   14.15
   1  -1   1  422.52   14.37
   1  -1   2 2402.05   82.29
   1   1   2 2401.09   81.30
   1  -1   2 2498.87   82.46
  -1   1  -2 2457.27   82.14
  -1   1  -2 2448.12   82.28
  -1  -1  -2 2487.06   82.61
   1  -1   2 2495.38   82.65
   1   1   2 2414.74   82.01
  -1   1  -2 2429.43   82.42
  -1  -1  -2 2414.39   82.23
   1  -1   2 2424.95   82.05
  -1  -1  -2 2434.11   81.80
  -1  -1  -2 2382.51   81.25
   1   1   2 2370.26   82.52
  -1   1  -3  649.59   25.06
   1  -1   3  707.27   25.31
  -1   1  -3  703.73   25.05
  -1  -1  -3  705.06   24.87
   1   1   3  719.70   24.44
  -1  -1  -3  748.28   25.18
   1  -1   3  684.06   25.60
  -1  -1  -3  713.89   24.36
  -1  -1  -3  719.62   25.57
   1   1   3  670.82   25.06
  -1   1  -3  730.03   25.37
   1  -1   3  707.86   25.28
  -1  -1  -4 1273.54   44.97
   1  -1   4 1217.14   45.35
   1   1   4 1299.02   45.30
  -1   1  -4 1294.73   44.98
   1  -1   4 1277.23   45.35
   1   1   4 1318.01   44.62
  -1  -1  -4 1325.41   45.00
  -1  -1  -4 1304.57   44.47
  -1   1  -4 1307.19   45.02
  -1   1  -4 1319.71   45.31
   1  -1   4 1349.19   45.95
  -1   1  -5   37.21    2.97
   1  -1   5   35.86    2.93
  -1  -1  -5   35.07    2.56
   1  -1   5   33.47    3.04
  -1  -1  -5   39.00    2.43
   1  -1   5   37.89    3.43
  -1   1  -5   27.57    2.56
   1   1   5   41.96    3.13
   1   1   5   40.72    2.68
  -1  -1  -6    0.20    0.84
   1  -1   6    0.62    1.62
  -1   1  -6   -0.24    1.04
   1   1   6    0.23    1.15
   1   1   6    0.63    1.51
   1  -1   6    0.56    1.27
  -1  -1  -6   -0.63    0.98
   1  -1   6   -2.21    2.08
   1   1   7  114.25    6.02
   1  -1   7  114.90    6.54
   1   1   7  120.20    6.64
   1  -1   7  107.43    6.07
  -1  -1  -7  121.78    5.72
   1  -1   7  105.83    6.73
   1  -1   8  253.28   10.83
   1  -1   8  234.04   11.70
   1   1   8  237.75   11.28
   1   1   8  226.36   10.47
   1  -1   8  231.66   11.05
   1   1   9  293.46   12.57
   1  -1   9  263.88   12.79
   1   1   9  288.93   13.23
   1  -1   9  264.57   13.38
   1  -1   9  276.72   12.29
   1   1  10    0.44    1.89
   1  -1  10    3.55    2.87
   1   1  10    0.54    2.57
   1  -1  10    7.67    3.21
   1  -1  11  475.90   20.38
   1   1  11  462.16   20.57
   1  -1  11  478.57   21.19
   1  -1  12   30.06    4.76
   1   1  12   34.06    4.72
   1  -1  12   33.49    4.53
   1   1  13    5.87    3.14
   1  -1  13    0.68    2.70
   1  -1  13    3.12    3.18
   1  -1  14    0.85    3.38
   1   1  14    2.39    3.01
   1  -1  14    0.74    2.66
   1   1  15    3.46    3.12
   1  -1  15    0.92    3.23
   1  -1  16   22.52    5.33
   1   1  16   24.21    5.12
   1   1  17    0.99    3.57
   1  -1  17    6.26    4.01
  -1   2  18   11.66    3.91
  -1  -2  18   14.64    4.33
  -1  -2  18    4.95    4.04
  -1   2  17    6.85    3.55
  -1   2  17    2.80    3.45
  -1  -2  17    8.31    4.08
  -1  -2  17    6.56    3.54
  -1   2  16    4.87    3.25
  -1  -2  16    1.73    3.12
  -1   2  16    2.65    3.12
  -1  -2  16    5.31    3.20
  -1  -2  15   12.08    3.67
  -1  -2  15    4.96    3.25
  -1   2  15    3.81    2.88
  -1   2  15    9.12    3.50
  -1  -2  14   -0.74    2.62
  -1   2  14   -0.77    2.92
  -1   2  14   -1.42    2.38
  -1  -2  14    4.63    3.14
  -1   2  13    9.22    3.01
  -1  -2  13    8.20    3.30
  -1  -2  13   14.28    4.05
  -1  -2  12   14.95    3.50
  -1   2  12   19.99    3.44
  -1  -2  12   15.06    3.31
  -1  -2  11   28.70    4.19
  -1   2  11   33.27    4.18
  -1  -2  10    8.65    2.94
  -1   2  10    3.03    2.20
  -1  -2  10    4.53    2.63
  -1  -2   9   11.13    2.57
  -1  -2   9   10.69    2.64
  -1   2   9    5.47    1.94
  -1   2   8   86.89    4.73
  -1  -2   8   86.58    5.81
  -1  -2   8   80.43    5.39
  -1   2   8   79.17    5.50
  -1  -2   7   64.45    4.44
  -1   2   7   60.00    4.45
  -1   2   7   66.45    3.95
  -1  -2   7   63.31    4.63
  -1  -2   6   26.78    2.66
  -1  -2   6   27.92    2.95
   1  -2  -6   22.66    2.29
   1  -2  -6   23.43    2.13
  -1   2   6   29.04    2.45
   1  -2  -5   58.11    3.59
  -1  -2   5   66.63    4.04
  -1  -2   5   62.05    2.53
  -1   2   5   54.71    3.81
   1   2  -5   56.86    3.57
  -1  -2   5   58.71    3.65
  -1  -2   5   61.24    2.70
  -1  -2   5   59.77    2.53
   1  -2  -5   51.88    3.25
  -1   2   5   58.74    3.59
  -1  -2   4  124.42    5.10
  -1  -2   4  125.44    4.74
  -1  -2   4  132.40    5.75
  -1  -2   4  125.78    4.75
   1   2  -4  124.79    5.73
   1  -2  -4  127.24    5.91
  -1   2   4  126.61    6.20
  -1   2   4  129.34    5.96
   1  -2  -4  125.51    5.72
  -1  -2   4  130.12    6.08
   1  -2  -3   13.01    1.71
  -1  -2   3   21.34    1.51
   1  -2  -3   14.01    1.71
   1   2  -3   16.12    1.59
   1   2  -3   16.50    1.94
  -1  -2   3   18.29    1.16
  -1  -2   3   21.89    1.88
  -1   2   3   15.72    2.01
   1   2  -3   16.69    1.13
  -1   2   3   16.18    1.82
  -1  -2   2  569.62   20.42
  -1   2   2  568.37   20.97
  -1  -2   2  562.72   20.38
   1  -2  -2  596.49   20.82
   1  -2  -2  602.88   21.17
   1   2  -2  572.50   20.26
   1   2  -2  570.22   20.08
  -1   2   2  600.47   21.09
   1   2  -2  552.08   20.99
   1   2  -1 2912.47   25.54
  -1   2   1 2923.38   29.30
   1  -2  -1 2947.85   29.18
  -1  -2   1 2836.59   25.83
  -1  -2   1 2807.69   27.68
   1   2  -1 2891.82   27.12
  -1   2   1 2939.64   29.41
   1   2   0 9732.74  325.62
  -1   2   0 9726.63  327.02
  -1   2   0 9813.42  326.72
   1  -2   0 9941.04  326.92
  -1  -2   0 9737.70  325.69
  -1   2   0 9999.00  326.73
  -1  -2   0 9928.50  326.75
   1   2   0 9826.66  326.61
   1  -2   0 9664.63  325.69
   1  -2   0 9402.28  326.89
   1  -2   1 5785.21  195.22
  -1   2  -1 5924.54  195.22
   1   2   1 5768.65  195.29
  -1   2  -1 5712.51  195.11
   1  -2   1 5827.23  195.11
   1   2   1 5731.60  194.03
  -1   2  -1 5968.16  194.95
   1   2   2   19.15    1.48
   1  -2   2   18.41    2.25
   1  -2   2   19.32    1.86
   1   2   2   20.97    1.01
  -1   2  -2   19.78    1.87
  -1  -2  -2   22.90    2.25
   1   2   2   17.31    2.02
  -1   2  -2   14.38    1.63
   1   2   2   19.23    0.96
  -1   2  -2   16.41    1.99
   1  -2   2   20.10    2.23
   1  -2   3   95.19    4.55
  -1   2  -3   94.37    4.55
   1   2   3   84.79    3.60
  -1   2  -3   85.40    4.32
  -1  -2  -3   87.61    4.84
  -1   2  -3   83.05    4.53
   1  -2   3   81.49    4.75
   1   2   3   85.56    4.13
  -1  -2  -3   88.73    4.50
   1  -2   3   84.47    4.90
   1   2   3   88.02    4.76
  -1   2  -4  194.29    8.17
  -1   2  -4  198.81    8.50
   1  -2   4  194.06    8.91
  -1  -2  -4  192.54    8.94
   1   2   4  203.89    8.68
   1  -2   4  195.54    8.39
  -1   2  -4  210.29    8.31
   1  -2   4  194.23    9.14
   1   2   4  200.48    8.30
  -1  -2  -4  192.20    8.33
   1   2   4  193.42    7.65
   1  -2   5  685.14   25.62
   1  -2   5  710.71   24.93
  -1   2  -5  659.39   24.90
  -1   2  -5  683.02   24.55
   1   2   5  693.03   24.33
   1   2   5  687.14   24.98
  -1   2  -5  680.64   24.48
   1  -2   5  643.28   25.80
  -1  -2  -5  685.12   24.81
   1  -2   6  130.31    6.32
   1   2   6  131.54    6.68
   1  -2   6  139.20    7.23
   1   2   6  127.67    6.07
  -1   2  -6  122.06    5.79
   1  -2   6  131.73    7.41
  -1  -2  -6  128.02    6.18
   1   2   7   23.89    2.92
   1   2   7   26.70    2.63
   1  -2   7   19.59    3.25
   1  -2   7   24.50    2.57
   1  -2   7   25.10    3.30
   1  -2   8  333.73   13.67
   1  -2   8  330.00   14.81
   1   2   8  335.94   14.43
   1  -2   8  325.13   15.15
   1   2   8  325.04   13.64
   1   2   9   39.47    4.16
   1  -2   9   37.16    4.79
   1  -2   9   44.02    4.75
   1  -2  10  111.28    7.83
   1  -2  10  113.22    8.08
   1   2  10  110.57    7.43
   1   2  11   -0.59    2.61
   1  -2  11    2.45    2.87
   1  -2  11    5.47    3.15
   1  -2  12   11.95    3.99
   1  -2  12    4.68    3.10
   1   2  12    7.19    3.06
   1   2  13   10.02    3.51
   1  -2  13    9.43    3.46
   1  -2  14   -0.79    3.08
   1  -2  14    0.88    3.30
   1   2  14   -1.56    2.68
   1   2  15   10.13    3.80
   1  -2  15    6.62    3.93
   1  -2  15   16.79    4.25
   1  -2  16   -1.01    4.03
   1   2  16    5.45    3.56
   1   2  17    3.85    4.32
   1  -2  17    8.54    4.86
  -1  -3  18   33.37    5.95
  -1   3  17   -0.85    2.70
  -1  -3  17    1.85    3.63
  -1   3  17    1.87    3.14
  -1  -3  17   -1.94    3.50
  -1  -3  16   -1.84    3.74
  -1   3  16   -0.80    2.83
  -1  -3  16   -0.87    3.20
  -1   3  16    1.77    3.20
  -1   3  15   21.87    4.21
  -1   3  15   21.75    4.48
  -1  -3  15   25.82    4.58
  -1  -3  15   24.26    4.68
  -1  -3  14    5.23    3.04
  -1   3  14   -0.71    2.24
  -1  -3  14    3.23    3.11
  -1   3  13   48.68    5.27
  -1  -3  13   54.42    6.01
  -1  -3  13   52.69    5.63
  -1   3  12  247.56   13.14
  -1  -3  12  276.64   14.04
  -1  -3  12  259.38   13.54
  -1  -3  11  118.98    8.29
  -1  -3  11  131.40    8.17
  -1   3  11  116.24    7.85
  -1  -3  10  674.05   27.40
  -1  -3  10  699.84   26.98
  -1   3  10  658.08   26.80
  -1  -3   9   59.89    5.36
  -1   3   9   57.65    4.92
  -1  -3   9   62.40    5.02
  -1  -3   8   10.79    2.36
  -1  -3   8    6.40    2.39
  -1   3   8    5.15    1.60
  -1  -3   7  384.51   16.16
  -1  -3   7  398.02   15.67
  -1   3   7  372.08   15.38
  -1   3   6   90.16    5.26
   1  -3  -6   86.62    4.85
  -1  -3   6   93.72    5.16
  -1  -3   6   95.07    5.60
   1   3  -5  393.94   14.71
  -1  -3   5  355.41   13.58
  -1   3   5  375.55   15.06
  -1  -3   5  384.89   14.56
  -1  -3   5  393.95   15.29
  -1   3   5  382.44   15.39
   1  -3  -5  383.92   14.68
  -1  -3   4   24.36    1.90
   1  -3  -4   18.65    1.88
  -1  -3   4   21.78    1.59
   1   3  -4   20.59    2.46
  -1   3   4   22.78    2.39
  -1   3   4   27.92    2.49
  -1   3   4   21.74    2.12
   1   3  -4   20.32    1.93
  -1  -3   4   19.13    2.25
   1  -3  -3   17.17    1.95
   1   3  -3   17.99    1.72
  -1   3   3   10.10    1.50
   1   3  -3   14.38    2.03
   1   3  -3   18.81    1.22
  -1  -3   3   16.43    1.59
   1   3  -3   15.98    1.63
  -1  -3   3   20.38    1.56
  -1   3   3   18.06    1.11
  -1  -3   3   16.12    1.93
  -1   3   3   19.88    2.19
  -1   3   3   20.26    2.27
  -1   3   2   -0.22    0.34
  -1   3   2   -1.03    1.29
   1  -3  -2    0.22    0.65
   1   3  -2   -1.74    0.82
   1  -3  -2   -0.22    0.93
   1  -3  -2   -0.52    1.34
  -1  -3   2    0.23    0.98
   1   3  -2    0.26    1.28
   1   3  -2   -0.11    0.68
  -1  -3   2    0.08    0.63
   1   3  -2   -0.19    0.97
  -1  -3   2    0.18    1.07
  -1   3   2    1.29    1.15
  -1  -3   2   -0.17    0.84
  -1   3   1  383.54   14.59
   1  -3  -1  405.76   14.79
  -1   3   1  391.45   14.73
  -1  -3   1  373.49   13.76
   1   3  -1  370.01   13.52
  -1   3   1  352.63   14.28
   1   3  -1  373.07   14.37
  -1  -3   1  353.17   14.03
  -1  -3   1  389.35   14.34
  -1   3   0  233.57   10.09
  -1  -3   0  248.81    9.18
  -1   3   0  246.95   10.30
   1   3   0  251.37    9.12
  -1   3   0  262.35   10.04
   1   3   0  237.45   10.17
  -1  -3   0  254.68   10.02
   1  -3   0  246.26   10.10
   1  -3   1 1120.61   39.80
  -1   3  -1 1108.68   39.56
   1   3   1 1137.95   39.80
  -1   3  -1 1067.14   39.14
   1   3   1 1158.70   38.25
  -1   3  -1 1092.82   39.45
  -1  -3  -1 1072.76   39.40
  -1   3  -1 1122.78   39.39
   1   3   1 1132.38   37.93
  -1  -3  -1 1109.64   38.18
   1  -3   1 1156.59   39.46
   1  -3   1 1181.59   39.49
  -1   3  -1 1107.36   39.58
   1  -3   2  123.63    6.02
  -1   3  -2  132.35    6.33
  -1   3  -2  117.31    5.76
   1   3   2  132.24    5.26
   1   3   2  135.89    5.08
   1   3   2  128.71    6.55
   1  -3   2  143.72    6.79
   1  -3   2  142.20    6.74
  -1   3  -2  128.74    6.27
   1  -3   2  140.78    6.21
  -1   3  -2  127.92    6.18
  -1   3  -3  273.56   11.38
   1   3   3  264.55    9.97
   1  -3   3  277.56   11.79
  -1  -3  -3  294.35   11.83
  -1   3  -3  275.87   11.37
   1   3   3  274.24   10.49
   1  -3   3  284.41   11.04
  -1   3  -3  279.36   10.81
  -1   3  -3  283.34   11.15
   1  -3   3  271.13   11.76
   1   3   3  268.20   11.62
  -1  -3  -3  282.48   11.24
   1   3   4    2.33    1.16
  -1  -3  -4    3.84    1.60
   1  -3   4    3.12    1.89
   1  -3   4    3.11    1.11
  -1   3  -4    2.33    1.23
   1  -3   4    2.06    1.88
  -1   3  -4    3.04    1.11
   1   3   4    2.86    1.49
   1   3   4    2.36    0.87
   1   3   5  437.73   18.22
   1  -3   5  459.54   17.49
   1  -3   5  435.26   18.58
   1   3   5  476.63   17.07
  -1   3  -5  449.62   17.21
  -1  -3  -5  487.32   18.63
  -1   3  -5  475.90   17.37
   1  -3   5  492.33   18.97
   1   3   5  461.42   17.58
  -1   3  -6    2.48    1.08
   1   3   6    2.62    1.16
   1   3   6    1.78    1.47
   1  -3   6    5.82    1.45
   1  -3   6    3.06    2.02
   1   3   6    5.02    1.79
   1  -3   6    3.35    2.24
   1   3   7   96.57    5.92
   1  -3   7   96.58    6.54
   1   3   7   90.60    5.73
   1  -3   7  109.97    6.91
   1   3   8    7.72    2.24
   1  -3   8   14.66    3.51
   1  -3   8   16.93    3.53
   1   3   9   -0.93    2.28
   1  -3   9    2.39    3.22
   1  -3   9    2.26    2.74
   1  -3  10   -1.23    2.77
   1   3  10    1.56    2.16
   1   3  11    7.55    2.80
   1  -3  11    7.22    3.25
   1  -3  11    6.00    3.29
   1   3  12   15.39    3.69
   1  -3  12   18.79    4.15
   1  -3  12   11.78    4.17
   1  -3  13   23.78    4.94
   1  -3  13   27.22    4.88
   1   3  13   37.25    4.87
   1  -3  14   11.88    3.88
   1   3  14   19.87    4.02
   1  -3  14   13.42    4.40
   1  -3  15   -0.89    3.36
   1   3  15    0.83    2.77
   1  -3  15    1.95    3.68
   1  -3  16    9.27    4.34
   1  -3  16   -0.94    3.47
   1   3  16    1.77    3.19
   1   3  17    7.50    3.89
  -1  -4  17    8.13    3.99
  -1   4  17    7.50    3.68
  -1   4  16   -4.45    3.21
  -1  -4  16   -2.63    3.43
  -1   4  16    0.80    2.80
  -1  -4  16   -0.96    3.98
  -1   4  15    0.75    2.25
  -1  -4  15    5.73    3.27
  -1   4  15   -4.23    3.19
  -1  -4  15   -4.53    3.69
  -1   4  14    2.84    2.12
  -1  -4  14    7.54    3.23
  -1  -4  14    9.30    3.62
  -1   4  13   14.62    3.25
  -1  -4  13    6.94    3.39
  -1  -4  13    6.30    3.39
  -1   4  12   50.24    5.17
  -1  -4  12   52.91    5.71
  -1  -4  12   54.46    6.13
  -1   4  11   66.80    5.92
  -1  -4  11   62.60    5.81
  -1   4  10   35.14    4.17
  -1  -4  10   33.63    4.17
  -1  -4  10   33.53    4.59
  -1  -4   9   25.25    3.42
  -1  -4   9   24.88    3.91
  -1   4   9   21.80    2.98
  -1   4   8    7.88    2.15
  -1  -4   8    4.33    1.99
  -1  -4   8    4.00    2.61
  -1  -4   7   13.39    2.80
  -1   4   7    9.56    2.14
  -1  -4   7   14.56    2.53
  -1   4   6    1.48    1.58
   1   4  -6    0.44    1.64
  -1  -4   6    0.29    1.66
  -1  -4   6   -0.80    2.03
  -1   4   5   46.18    3.90
  -1   4   5   57.04    4.08
  -1  -4   5   46.62    3.29
   1   4  -5   48.08    4.14
   1   4  -5   40.74    2.75
  -1  -4   5   52.70    4.12
  -1  -4   4    0.19    0.84
   1   4  -4   -0.21    0.94
  -1   4   4    0.35    1.42
   1   4  -4    0.47    1.20
  -1  -4   4   -0.19    1.11
  -1  -4   4   -0.31    1.63
   1   4  -4    1.43    1.38
  -1   4   4    1.08    1.44
   1   4  -3  263.83   11.71
   1   4  -3  262.55   10.96
  -1  -4   3  270.72   11.43
   1   4  -3  289.28   10.95
   1   4  -3  268.57   10.03
   1  -4  -3  258.31   11.80
  -1  -4   3  280.23   10.84
  -1  -4   3  272.50   10.38
  -1   4   3  272.91   11.85
  -1   4   3  298.38   12.07
  -1  -4   2 2326.24   79.23
   1  -4  -2 2287.28   79.73
  -1   4   2 2321.87   79.84
  -1  -4   2 2353.33   78.94
   1   4  -2 2360.75   78.52
  -1   4   2 2264.15   79.65
   1   4  -2 2300.19   79.76
  -1  -4   2 2308.61   77.70
   1   4  -2 2238.28   79.07
   1  -4  -2 2256.54   79.16
  -1  -4   2 2293.59   78.78
   1   4  -1  586.97   20.74
   1  -4  -1  556.41   20.95
  -1  -4   1  580.38   20.02
  -1   4   1  577.90   20.84
  -1   4   1  534.81   20.91
   1   4  -1  578.12   19.74
  -1  -4   1  551.73   20.32
   1  -4  -1  568.57   20.40
  -1  -4   1  554.64   20.26
   1  -4  -1  531.94   20.35
   1   4  -1  538.87   18.62
  -1   4   0   33.98    2.89
   1   4   0   28.27    2.61
   1  -4   0   32.56    2.51
  -1  -4   0   34.85    1.95
  -1  -4   0   27.64    2.18
  -1   4   0   28.35    2.35
  -1   4   0   22.80    2.21
  -1  -4   0   32.43    2.43
   1   4   0   33.18    1.92
  -1   4   0   33.88    1.34
  -1   4   0   25.52    2.30
  -1   4  -1    1.74    1.26
   1  -4   1    2.21    1.10
  -1  -4  -1    2.54    1.27
   1  -4   1    1.56    1.44
  -1   4  -1    0.22    0.91
   1   4   1    1.78    0.99
  -1  -4  -1    1.58    0.69
  -1   4  -1    0.51    1.26
   1   4   1    1.25    1.36
  -1   4  -1    1.01    1.12
  -1   4  -2    0.28    1.12
  -1   4  -2    0.54    1.33
   1  -4   2    0.49    1.06
  -1   4  -2    0.24    1.02
   1   4   2    1.00    1.45
  -1   4  -2    1.65    0.94
   1  -4   2   -0.34    1.75
   1  -4   3   23.41    2.92
   1  -4   3   24.73    2.39
   1   4   3   27.91    3.01
  -1   4  -3   28.92    2.61
   1  -4   3   27.31    2.36
  -1   4  -3   20.75    2.06
   1  -4   3   28.97    3.18
  -1  -4  -3   27.57    2.94
   1  -4   4  287.34   13.32
   1  -4   4  299.43   12.05
   1  -4   4  297.96   13.16
   1   4   4  305.29   11.77
   1   4   4  303.81   13.16
  -1   4  -4  307.43   12.26
  -1  -4  -4  296.55   12.91
  -1  -4  -5  243.19   11.10
   1  -4   5  233.62   11.47
   1  -4   5  246.40   10.01
  -1   4  -5  227.21    9.96
   1  -4   5  239.27   11.33
   1   4   5  233.77   11.12
   1   4   5  244.72   10.07
   1  -4   6  837.04   32.18
   1  -4   6  867.20   32.19
   1   4   6  835.25   30.63
   1   4   6  825.27   31.69
   1   4   7   22.19    3.28
   1   4   7   25.59    3.02
   1  -4   7   30.74    4.08
   1  -4   7   25.44    3.88
   1  -4   8    4.57    2.82
   1   4   8    3.24    1.92
   1  -4   8    3.97    2.99
   1   4   8    4.63    2.17
   1   4   9   34.62    3.85
   1  -4   9   33.19    4.53
   1   4   9   28.06    3.72
   1  -4   9   27.06    4.43
   1   4  10   -0.52    1.94
   1  -4  10    2.04    2.82
   1  -4  10    3.99    3.24
   1   4  11    4.59    2.50
   1  -4  11   -1.49    3.18
   1  -4  11    3.59    3.03
   1  -4  12   22.50    4.61
   1  -4  12   10.05    4.02
   1  -4  13    0.86    3.26
   1  -4  13    0.83    2.98
   1  -4  14    7.04    3.78
   1  -4  14   10.19    3.84
   1  -4  15   -0.99    3.79
   1  -4  15    3.73    3.36
   1  -4  16    1.04    3.98
   1  -4  16    1.96    3.84
  -1   5  17    0.93    3.36
  -1   5  16    1.79    3.00
  -1  -5  16    3.01    3.45
  -1  -5  15    1.90    3.80
  -1   5  14   -0.72    2.34
  -1  -5  14    2.69    3.52
  -1  -5  13   21.65    4.67
  -1   5  13    5.42    2.67
  -1   5  12   -1.91    2.24
  -1  -5  12   -0.77    2.86
  -1   5  11   26.84    3.71
  -1  -5  11   32.95    4.93
  -1  -5  10   75.07    6.76
  -1   5   9   42.56    4.31
  -1  -5   9   58.17    5.53
  -1   5   8   21.54    3.23
  -1  -5   8   24.23    4.04
  -1  -5   7  391.97   16.56
   1   5  -7  339.38   16.26
  -1   5   7  366.61   15.94
  -1   5   6   44.84    4.31
   1   5  -6   49.43    4.60
  -1  -5   6   52.96    4.86
   1   5  -5  421.65   18.03
  -1  -5   5  443.58   17.96
  -1   5   5  438.14   18.07
   1   5  -4   24.27    2.50
   1   5  -4   20.06    2.79
  -1   5   4   26.08    3.12
  -1  -5   4   24.20    3.07
  -1   5   4   25.85    3.04
   1   5  -3  435.18   17.00
  -1  -5   3  409.79   16.40
   1   5  -3  412.14   15.74
  -1  -5   3  366.62   15.51
   1  -5  -3  429.52   17.06
  -1   5   3  415.84   16.87
   1   5  -3  405.41   16.09
  -1   5   3  427.20   17.17
   1  -5  -2  652.07   25.93
   1   5  -2  693.87   25.58
  -1  -5   2  680.79   25.29
   1   5  -2  692.56   24.81
  -1   5   2  686.49   25.94
  -1   5   2  691.80   26.24
   1  -5  -1   66.30    4.87
   1   5  -1   73.21    4.87
  -1   5   1   88.42    5.40
  -1  -5   1   78.76    4.41
  -1   5   1   79.89    5.03
  -1   5   0   17.48    2.35
  -1  -5   0   12.47    1.64
  -1   5   0   16.10    2.44
   1   5   0   16.66    2.44
  -1  -5  -1  216.47    9.00
  -1   5  -1  233.87   10.41
   1   5   1  224.29   10.47
  -1   5  -1  220.39    9.54
  -1   5  -1  235.50    9.99
  -1   5  -2    3.39    1.63
  -1  -5  -2    1.11    0.91
   1  -5   2    4.34    1.90
  -1   5  -2    1.63    0.92
   1   5   2    2.37    1.80
  -1   5  -2    3.08    1.28
  -1   5  -3   24.48    2.68
   1   5   3   17.95    2.88
  -1  -5  -3   24.03    2.91
   1  -5   3   24.18    3.15
  -1   5  -3   22.41    2.44
  -1  -5  -4    0.39    1.75
   1  -5   4   -0.86    2.04
  -1   5  -4    0.26    1.10
  -1   5  -4   -0.62    1.25
   1  -5   4   -1.84    2.38
   1   5   4   -0.88    1.91
  -1   5  -5   19.11    2.29
   1  -5   5   20.00    3.24
  -1  -5  -5   18.76    2.83
   1   5   5   18.00    2.93
   1  -5   5   20.54    3.37
   1  -5   6    3.53    2.43
  -1  -5  -6    2.27    1.71
   1  -5   6    2.70    2.72
   1   5   6    5.81    2.24
   1   5   7   22.89    3.37
   1  -5   7   19.79    3.60
   1  -5   7   30.78    4.49
   1  -5   8   29.96    4.26
   1   5   8   23.37    3.55
   1  -5   9    5.22    2.86
   1  -5   9   14.75    3.70
   1   5   9   15.94    3.04
   1  -5  10   56.65    5.99
   1  -5  10   47.61    5.65
   1  -5  11   10.68    3.68
   1  -5  11    9.24    3.66
   1  -5  12    5.77    3.49
   1  -5  12   14.81    4.30
   1  -5  13    6.18    3.66
   1  -5  13    4.37    3.69
   1  -5  14   -0.94    3.54
   1  -5  14   -3.70    3.90
   1  -5  15   15.94    4.69
   1  -5  15   15.57    4.82
   1  -5  16   -1.05    3.61
   1  -5  16   -1.02    3.83
  -1   6  16   -1.79    3.30
  -1  -6  16   -3.15    4.50
  -1  -6  15    4.97    3.90
  -1  -6  14    2.82    3.32
  -1  -6  13   26.57    5.22
  -1   6  12    2.63    2.09
  -1  -6  12    4.14    3.55
  -1   6  11    4.37    2.04
  -1  -6  11    4.62    3.65
   1   6 -10   97.07    7.57
  -1  -6  10   84.62    7.48
   1   6  -9  291.64   14.75
  -1  -6   9  282.43   14.75
  -1   6   9  303.34   14.31
   1   6  -8  417.96   18.48
  -1  -6   8  376.94   18.18
  -1   6   8  421.87   18.05
  -1  -6   7  227.86   11.83
   1   6  -7  227.84   11.82
  -1   6   7  225.58   11.57
  -1   6   6   13.47    2.76
   1   6  -6   17.00    2.83
   1   6  -5  257.82   12.30
  -1  -6   5  248.69   12.11
  -1   6   5  262.61   12.57
  -1   6   4    9.32    2.56
   1   6  -4   12.19    2.51
  -1  -6   4   15.78    2.85
   1   6  -4   13.25    2.21
   1   6  -3    6.16    1.91
  -1   6   3    4.78    2.12
  -1  -6   3    3.38    1.98
   1  -6  -3    4.47    1.92
  -1   6   3    2.23    1.78
   1   6  -2    9.60    2.23
  -1   6   2    6.52    2.31
  -1  -6   2    8.24    2.06
  -1   6   2    9.16    2.30
   1  -6  -2    9.10    2.15
   1  -6  -1    0.86    1.48
  -1   6   1   -0.78    1.50
  -1   6   1    4.50    2.27
  -1  -6   1    1.44    1.34
   1   6  -1    0.40    1.67
   1  -6   0  137.55    8.03
  -1   6   0  137.79    7.57
  -1   6   0  146.33    8.16
  -1   6  -1  188.46    8.85
   1   6   1  190.37    9.55
  -1   6  -1  166.98    9.08
   1   6   2   15.30    2.84
  -1   6  -2   21.04    2.53
   1  -6   2   25.08    3.39
  -1   6  -2   17.41    2.75
   1  -6   3  108.30    7.02
  -1  -6  -3  106.58    6.48
  -1   6  -3   95.99    6.04
   1   6   3   96.90    6.67
  -1  -6  -4    2.14    1.87
  -1   6  -4    2.61    1.62
   1   6   4    4.06    2.41
  -1  -6  -5    2.70    1.83
   1  -6   5   -0.51    2.13
   1  -6   5    0.56    2.50
   1   6   5    1.59    2.11
   1  -6   6   13.03    3.41
  -1  -6  -6   11.99    2.56
   1  -6   6   17.43    3.63
   1   6   6    6.63    2.47
   1  -6   7   12.29    3.39
   1   6   7   12.64    3.06
   1  -6   7   12.22    3.45
   1  -6   8   27.68    4.21
   1  -6   8   21.25    4.30
   1   6   8   25.16    3.72
   1   6   9   80.03    6.68
   1  -6   9   81.25    7.28
   1  -6   9   94.80    7.73
   1  -6  10   13.10    3.66
   1  -6  10   14.02    3.91
   1   6  10   15.27    3.24
   1  -6  11    0.79    2.77
   1  -6  11    0.82    3.10
   1  -6  12    6.70    3.36
   1  -6  12    7.00    3.57
   1  -6  13    8.91    3.64
   1  -6  13   11.10    4.34
   1  -6  14    9.50    4.14
   1  -6  14    3.89    4.03
   1  -6  15    1.00    3.44
   1  -6  15    1.02    3.59
   1   7 -15    2.84    2.63
  -1  -7  15   -1.03    4.25
   1   7 -14    9.15    3.38
  -1  -7  14    2.93    3.76
   1   7 -13    3.51    2.70
  -1  -7  13    0.92    3.55
   1   7 -12   30.81    4.79
  -1  -7  12   37.32    5.77
   1   7 -11   -1.58    2.57
  -1  -7  11    0.81    2.86
   1   7 -10    5.91    2.55
  -1   7  10    8.96    2.88
  -1  -7  10    4.54    3.20
   1   7  -9   -0.69    2.05
  -1   7   9    4.41    2.42
  -1  -7   9    2.10    2.85
   1   7  -8   93.51    7.09
  -1  -7   8   93.49    7.32
  -1   7   8   90.57    7.04
   1   7  -7   74.70    6.05
  -1  -7   7   75.03    6.32
  -1   7   7   61.63    5.84
  -1   7   6   25.04    3.87
   1   7  -6   24.41    3.51
  -1  -7   6   25.97    3.77
   1   7  -5    1.05    1.81
  -1   7   5    2.33    2.41
  -1  -7   5    5.62    2.61
   1   7  -4   72.13    5.70
  -1  -7   4   79.54    5.97
  -1   7   4   90.73    6.51
   1  -7  -3    5.57    2.30
  -1  -7   3    3.37    2.07
  -1   7   3    0.55    2.12
   1   7  -3    1.31    1.98
  -1   7   2   79.75    6.21
  -1  -7   2   94.43    5.76
   1  -7  -2   92.51    6.30
  -1   7   2   81.93    6.00
   1   7  -2   96.04    6.27
   1  -7  -1    0.50    1.95
  -1   7   1    6.20    2.05
  -1   7   1    0.52    2.01
   1   7  -1    5.70    2.40
  -1   7   0   55.34    4.96
   1  -7   0   58.55    5.05
  -1   7   0   61.56    4.71
   1   7   0   55.34    4.89
   1   7   1  154.63    8.90
  -1   7  -1  159.57    8.16
  -1   7  -1  151.40    8.68
   1   7   2  352.05   15.85
  -1   7  -2  338.23   15.24
   1  -7   3   88.76    6.84
   1   7   3   88.44    6.76
  -1   7  -3  100.37    6.45
  -1   7  -4   29.22    3.42
  -1  -7  -4   30.71    3.59
   1  -7   4   25.35    4.04
   1   7   4   34.05    4.23
  -1  -7  -5   20.71    3.17
   1  -7   5   24.51    4.07
   1   7   5   25.22    3.94
   1  -7   6   -0.58    2.44
   1  -7   6    0.65    3.01
   1   7   6   -1.25    2.20
   1  -7   7   -2.47    2.37
   1   7   7   -2.58    2.58
   1  -7   7    4.19    3.03
   1  -7   8   40.99    4.96
   1  -7   8   50.69    5.77
   1   7   8   41.91    5.04
   1   7   9   11.70    3.32
   1  -7   9    4.74    3.23
   1  -7   9    9.89    3.23
   1  -7  10    1.51    2.90
   1  -7  10    1.67    3.09
   1   7  10    1.42    2.25
   1  -7  11   25.68    4.55
   1  -7  11   18.50    4.50
   1  -7  12    5.12    2.94
   1  -7  12    7.43    4.17
   1  -7  13    0.90    3.18
   1  -7  13   -0.98    3.36
   1  -7  14    8.55    3.87
   1  -7  14    4.08    3.85
   1  -7  15    2.98    3.24
  -1  -8  14    4.01    3.86
   1   8 -14    3.70    2.85
   1   8 -13   -1.78    2.56
  -1  -8  13   -0.95    3.36
   1   8 -12   -0.85    2.53
  -1  -8  12    6.30    3.92
   1   8 -11   24.98    4.35
  -1  -8  11   18.73    4.45
  -1  -8  10    0.80    3.00
   1   8 -10    0.76    2.19
  -1   8  10   -2.87    2.76
   1   8  -9    1.43    2.06
  -1   8   9   -1.42    2.37
  -1  -8   9    0.75    3.20
  -1   8   8    0.70    2.78
   1   8  -8    2.68    2.30
  -1   8   7    4.80    2.42
  -1  -8   7    4.56    2.71
   1   8  -7    8.18    2.70
   1   8  -6   12.64    2.94
  -1  -8   6    7.89    2.62
  -1   8   6    7.43    2.86
  -1   8   5    6.61    2.97
   1   8  -5    8.10    2.45
  -1  -8   5   10.64    2.74
  -1   8   4   29.02    4.23
   1  -8  -3   22.75    3.42
  -1   8   3   22.66    3.74
   1   8  -3   25.55    3.66
  -1   8   2    1.22    2.10
   1  -8  -2    1.12    1.78
   1   8  -2    3.71    2.15
  -1   8   1    7.72    2.63
   1  -8  -1    2.81    2.08
   1   8  -1   10.43    2.74
  -1   8   0   29.90    3.98
   1  -8   0   37.09    4.32
   1   8   0   31.26    4.08
   1   8   1  153.34    9.25
  -1   8  -1  150.61    9.00
  -1   8  -2   -1.07    1.98
   1   8   2    1.21    2.38
   1  -8   3  594.97   25.11
   1   8   3  608.57   25.40
  -1   8  -3  602.67   24.43
   1  -8   4  145.64    9.24
   1   8   4  148.35    9.45
   1   8   5    0.67    2.32
   1  -8   5   -0.67    2.52
   1  -8   6    9.20    3.34
   1   8   6   16.74    3.46
   1   8   7   19.36    3.65
   1  -8   7   10.48    3.63
   1   8   8    8.10    2.91
   1  -8   8   14.25    4.14
   1  -8   9   15.92    4.00
   1   8   9   11.40    3.53
   1  -8  10    0.89    3.27
   1   8  10   -0.78    2.74
   1  -8  11   -0.93    3.43
   1  -8  12    0.98    3.44
   1  -8  13   13.24    4.91
  -1  -9  13    1.97    3.94
  -1  -9  12    4.69    3.68
  -1  -9  11    5.32    3.86
  -1  -9  10    5.89    3.54
  -1   9  10    2.38    2.52
  -1   9   9   32.23    4.84
  -1  -9   9   43.65    5.79
  -1   9   8    9.30    3.44
  -1   9   7    3.05    2.56
  -1   9   6   12.72    3.33
  -1   9   5   11.03    3.22
  -1   9   4   58.52    5.99
  -1   9   3    1.41    2.36
   1  -9  -3   -1.26    2.00
  -1   9   2   12.37    3.08
   1  -9  -2   16.94    3.31
   1   9  -2   16.38    3.24
  -1   9   1   29.35    4.35
   1  -9  -1   28.32    3.88
   1   9  -1   21.92    3.86
  -1   9   0   15.51    3.17
   1  -9   0   11.47    2.93
   1   9   0   13.50    3.12
  -1   9  -1   52.63    5.27
   1  -9   1   52.23    5.40
   1   9   1   42.54    5.12
  -1   9  -2   45.96    4.95
   1   9   2   31.49    4.55
   1   9   3    3.52    2.42
   1  -9   4    6.95    3.17
   1   9   4    5.09    2.86
   1  -9   5    2.18    2.68
   1   9   5    0.75    2.64
   1   9   6   19.26    4.01
   1  -9   6   15.22    4.14
   1  -9   7    7.19    3.32
   1   9   7    9.47    3.50
   1  -9   8    3.35    2.88
   1   9   8   -2.42    3.10
   1  -9   9    7.04    3.71
   1   9   9    6.63    2.93
   1  -9  10   11.99    4.26
   1   9  10   35.48    5.08
   1  -9  11   -0.97    3.24
   1  -9  12   11.07    4.46
  -1  10  10    8.67    3.41
  -1  10   9    6.03    3.45
  -1  10   8    0.85    2.70
  -1  10   7    3.36    2.89
  -1  10   6    3.31    2.91
  -1  10   5    5.67    3.12
  -1  10   4    3.98    2.74
  -1  10   3   38.88    5.13
   1 -10  -3   38.89    4.77
   1 -10  -2   17.30    3.45
  -1  10   2   15.99    3.60
   1 -10  -1    1.39    2.13
  -1  10   1    1.48    2.73
   1  10  -1    0.70    2.40
  -1  10   0   11.49    3.14
   1 -10   0    9.85    2.83
   1  10   0    7.91    3.14
   1 -10   1    1.43    1.91
  -1  10  -1    3.47    2.39
   1  10   1   -0.74    2.41
   1 -10   2   13.27    3.33
  -1  10  -2   10.73    3.32
   1  10   2    9.86    3.00
   1  10   3   -1.56    2.62
   1  10   4   -0.80    2.68
   1 -10   5    1.56    2.94
   1  10   5    1.64    2.60
   1 -10   6    1.63    2.87
   1  10   6    8.42    3.30
   1 -10   7   31.33    5.35
   1  10   7   30.15    5.10
   1  10   8   78.85    7.69
   1 -10   8   69.66    7.59
   1 -10   9   22.03    5.19
   1  10   9   22.39    4.57
   1 -10  10   -0.95    3.52
   1  10  10   -0.91    2.88
   1  10  11    0.91    2.81
  -1  11  10    0.94    2.88
  -1  11   9    0.93    2.95
  -1  11   8    3.70    3.41
  -1  11   7    3.65    3.14
  -1  11   6    0.90    2.77
  -1  11   5   -0.89    2.72
  -1  11   4   19.96    4.42
  -1  11   3   27.13    4.70
  -1  11   2   49.57    5.98
   1 -11  -1   34.82    4.83
   1  11  -1   37.76    5.25
  -1  11   1   43.53    5.45
  -1  11   0   11.72    3.26
   1 -11   0   10.72    3.25
   1  11   0   16.61    3.92
   1 -11   1    1.55    2.39
   1  11   1    2.43    2.65
   1 -11   2   -0.80    2.29
   1  11   2   -1.66    3.07
   1 -11   3    4.91    2.74
   1  11   3   -3.41    2.70
   1  11   4    7.83    3.42
   1  11   5   20.53    4.45
   1  11   6    0.91    2.88
   1 -11   7   23.10    4.87
   1  11   7   15.74    3.88
   1 -11   8   -0.92    3.24
   1  11   8    3.79    3.42
  -1  12   6    4.84    3.50
  -1  12   5    1.91    3.11
  -1  12   4    9.34    3.53
  -1  12   3   26.51    5.05
  -1  12   2    8.02    3.43
  -1  12   1    0.87    2.66
   1  12   0    0.86    2.71
  -1  12   0    0.84    2.66
   1  12   1    0.88    3.02
   1 -12   2   -0.85    2.35
   1  12   2    1.80    2.67
   1 -12   3    3.47    2.83
   1  12   3    0.92    2.82
   1 -12   4    0.89    2.46
   1  12   4    0.94    2.88
   1  12   5   -0.96    3.28
   1  13   1    3.71    3.42
  -2   0  18   13.16    4.24
  -2   0  17   -0.90    3.08
  -2   0  17    2.65    2.80
  -2   0  16   11.74    3.68
  -2   0  16   21.27    4.27
  -2   0  15   -3.99    3.07
  -2   0  15    0.79    2.72
  -2   0  14   18.46    3.93
  -2   0  14   14.21    3.85
  -2   0  13    0.68    2.29
  -2   0  12    7.55    2.71
  -2   0  11    3.47    2.18
  -2   0  10  106.85    7.13
  -2   0   9    0.48    1.83
  -2   0   8    5.13    2.03
  -2   0   8    3.28    1.59
  -2   0   7   -0.85    1.18
  -2   0   7    0.23    0.91
  -2   0   7    1.52    1.52
  -2   0   6   15.31    1.80
  -2   0   6   12.37    1.80
   2   0  -6   14.95    2.22
  -2   0   6   14.36    2.12
  -2   0   6   13.71    1.99
   2   0  -5    0.29    1.25
  -2   0   5    0.29    1.30
  -2   0   5    0.46    1.02
  -2   0   5    0.26    1.10
  -2   0   5    0.54    1.10
   2   0  -4   48.24    3.29
   2   0  -4   46.42    3.24
  -2   0   4   40.64    3.06
  -2   0   4   45.84    3.28
   2   0  -3    0.26    1.11
  -2   0   3    0.46    1.07
  -2   0   2   46.99    2.91
  -2   0   2   44.17    2.97
   2   0  -2   45.51    3.32
  -2   0   2   42.64    3.10
   2   0  -1    0.28    1.19
  -2   0   1    0.70    1.03
  -2   0   1    0.16    0.77
  -2   0   0  141.00    7.18
  -2   0   0  151.25    6.80
   2   0   0  161.03    6.53
   2   0   1   -0.15    0.71
  -2   0  -1   -1.06    1.24
  -2   0  -1    0.86    1.14
  -2   0  -1   -0.28    0.84
   2   0   1    0.31    1.34
  -2   0  -1    0.26    1.11
  -2   0  -2  491.50   18.98
  -2   0  -2  497.94   17.96
   2   0   2  482.41   19.40
   2   0   2  517.27   19.06
  -2   0  -2  500.59   18.67
  -2   0  -3    1.51    1.38
  -2   0  -3   -0.30    1.32
   2   0   3   -0.93    1.17
   2   0   3   -0.30    1.48
  -2   0  -3   -1.14    0.99
   2   0   3   -0.35    1.44
   2   0   4  513.32   18.68
   2   0   4  486.32   19.82
   2   0   4  492.01   19.63
   2   0   5    0.39    2.03
   2   0   5   -0.82    1.72
   2   0   5    0.52    1.33
   2   0   6  579.77   22.24
   2   0   6  589.76   23.53
   2   0   6  609.93   23.60
   2   0   7   -2.38    2.19
   2   0   7    0.49    2.37
   2   0   8  131.83    8.12
   2   0   8  138.64    8.55
   2   0   9    1.63    2.21
   2   0   9    2.97    2.74
   2   0  10  177.27   10.40
   2   0  10  197.01   11.26
   2   0  11   -0.72    3.06
   2   0  11    1.84    2.06
   2   0  12   -0.78    3.04
   2   0  13   -0.84    3.09
   2   0  14    4.50    3.32
   2   0  15    1.90    3.80
   2   0  16    4.04    3.80
  -2  -1  18   23.13    5.04
  -2  -1  17   -0.90    2.92
  -2   1  17    2.63    2.86
  -2  -1  17    2.64    3.25
  -2   1  17    0.91    3.05
  -2   1  16    0.83    2.64
  -2  -1  16    3.40    3.39
  -2   1  16    6.05    3.19
  -2  -1  16   -0.83    2.80
  -2  -1  15    7.21    3.08
  -2  -1  15    5.48    3.01
  -2   1  15    5.46    2.88
  -2   1  15    4.09    3.02
  -2  -1  14    3.00    2.45
  -2   1  14    2.18    2.62
  -2  -1  14   -2.18    2.80
  -2  -1  13   16.76    3.60
  -2   1  13   14.24    3.13
  -2  -1  13   16.86    3.59
  -2  -1  12  209.99   11.87
  -2   1  12  229.73   12.09
  -2  -1  11   36.56    4.43
  -2   1  11   28.21    3.90
  -2  -1  10    0.54    2.25
  -2   1  10   -0.53    2.06
  -2  -1   9   96.35    6.68
  -2   1   9   97.93    6.57
  -2   1   9  115.42    6.45
  -2  -1   8  120.36    6.96
  -2   1   8   98.57    6.58
  -2   1   8  119.17    6.40
   2   1  -7  132.87    7.63
  -2  -1   7  141.60    7.37
  -2   1   7  129.10    7.21
  -2   1   7  133.35    7.08
  -2  -1   7  134.49    6.34
  -2   1   7  140.42    6.68
   2   1  -6  181.79    8.65
  -2  -1   6  169.84    8.27
  -2   1   6  166.80    7.78
  -2   1   6  181.97    8.34
  -2  -1   6  160.44    7.44
   2   1  -5  385.38   16.05
   2  -1  -5  402.62   15.40
  -2  -1   5  413.81   15.13
  -2  -1   5  366.42   15.53
  -2   1   5  391.91   15.62
  -2   1   5  398.17   15.93
  -2  -1   5  417.49   15.38
  -2  -1   4  155.70    7.00
   2   1  -4  153.97    7.38
   2  -1  -4  160.12    6.81
   2   1  -4  138.19    6.69
  -2   1   4  146.11    6.98
  -2  -1   4  157.12    6.73
  -2   1   4  144.84    7.35
  -2   1   4  146.24    7.24
  -2   1   3    0.24    1.02
  -2   1   3    0.59    1.32
  -2  -1   3    0.51    1.04
  -2  -1   3    2.80    0.99
   2  -1  -3    0.29    1.19
   2   1  -3    0.95    0.97
  -2   1   3   -0.50    1.00
  -2  -1   3   -0.21    0.87
  -2   1   2   74.66    4.07
  -2  -1   2   80.76    4.32
  -2   1   2   79.44    3.90
   2  -1  -2   76.49    4.60
   2   1  -2   73.77    4.32
  -2   1   2   78.26    4.36
  -2  -1   2   72.46    4.12
  -2  -1   2   68.99    3.71
   2  -1  -1  328.01   13.10
  -2  -1   1  337.99   12.37
  -2   1   1  351.59   13.02
  -2  -1   1  328.88   13.11
   2  -1  -1  341.80   13.74
  -2   1   1  328.94   13.36
   2   1  -1  320.57   13.49
  -2  -1   1  356.63   13.29
  -2   1   0  108.87    5.22
   2  -1   0  102.35    5.34
   2  -1   0  106.06    5.99
   2   1   0  111.54    6.02
  -2  -1   0  131.30    5.92
  -2   1   0  120.20    5.71
  -2  -1   0  117.10    5.16
  -2   1   0  119.04    5.47
   2  -1   1 1072.32   14.50
  -2   1  -1 1064.31   13.92
  -2  -1  -1 1045.06   11.20
  -2   1  -1 1025.08   14.17
   2  -1   1 1060.40   16.73
  -2  -1  -1 1078.65   15.47
  -2   1  -1 1054.52   15.16
  -2  -1  -1 1041.88   13.61
   2   1   2   18.57    1.26
   2   1   2   18.46    2.06
  -2   1  -2   14.88    1.84
  -2  -1  -2   16.84    2.38
  -2  -1  -2   16.80    1.93
  -2   1  -2   17.68    2.28
   2  -1   2   19.72    2.62
   2   1   2   14.08    2.28
  -2   1  -2   16.28    1.90
  -2  -1  -2   17.61    1.29
   2  -1   2   14.31    2.34
   2   1   3   95.01    4.05
   2  -1   3   86.98    4.82
  -2  -1  -3   91.57    5.50
   2  -1   3   89.41    5.02
  -2   1  -3   79.81    4.61
   2  -1   3   98.76    5.69
   2   1   3   89.08    5.59
   2  -1   3   98.92    5.67
   2   1   3   89.24    5.01
  -2  -1  -3   90.68    4.70
   2  -1   4 1031.63   36.53
  -2  -1  -4 1018.30   37.26
  -2   1  -4 1029.60   36.05
   2  -1   4 1030.75   37.30
   2   1   4  964.84   37.39
   2  -1   4  999.26   37.30
   2   1   4 1014.82   36.80
  -2  -1  -4 1040.13   36.10
   2  -1   5    0.84    1.95
   2  -1   5    0.40    1.53
   2  -1   5    1.58    1.58
   2   1   5    1.79    1.79
   2   1   5    0.43    1.65
   2  -1   6   43.19    4.30
   2  -1   6   32.65    3.74
   2  -1   6   38.66    3.75
   2   1   6   39.63    4.21
   2   1   6   42.54    4.06
   2  -1   7   11.41    3.14
   2  -1   7    9.96    2.34
   2   1   7   14.05    2.81
   2  -1   7   13.62    2.67
   2   1   7   10.62    2.82
   2  -1   8    4.56    3.14
   2  -1   8    4.84    2.24
   2   1   8    6.47    2.49
   2  -1   8    6.47    2.44
   2   1   8    3.06    2.75
   2  -1   9   63.31    5.38
   2   1   9   50.87    5.29
   2   1   9   60.84    5.77
   2  -1  10   77.49    6.23
   2   1  10   87.70    6.84
   2  -1  10   89.24    7.38
   2   1  10   72.52    6.55
   2   1  11   38.12    4.87
   2  -1  11   31.02    4.89
   2   1  11   24.41    4.23
   2   1  12    2.79    2.68
   2  -1  12    5.58    3.36
   2   1  12    7.38    3.41
   2  -1  13   32.61    5.58
   2   1  13   31.97    5.22
   2  -1  14    4.59    3.39
   2   1  14    7.74    4.19
   2  -1  15    2.93    3.98
   2   1  15   -0.92    3.46
   2   1  16   -4.92    3.78
   2  -1  16    2.07    3.73
  -2  -2  18    3.64    3.05
  -2  -2  17   20.17    4.71
  -2  -2  17   18.18    4.65
  -2   2  17   18.29    4.28
  -2   2  17   15.71    4.59
  -2  -2  16   -2.61    3.21
  -2   2  16   -4.12    3.10
  -2  -2  16    5.72    3.08
  -2   2  16    0.88    2.88
  -2   2  15    6.20    2.98
  -2  -2  15    0.77    2.64
  -2  -2  15    3.27    2.89
  -2  -2  14   -0.77    2.50
  -2   2  14    2.92    2.38
  -2  -2  14    0.71    2.51
  -2  -2  13   15.81    3.55
  -2  -2  13   16.36    3.74
  -2   2  13   14.93    3.26
  -2  -2  12    6.59    2.64
  -2   2  12    6.29    2.57
  -2  -2  12    4.22    2.63
  -2  -2  11   -3.03    2.51
  -2  -2  11   -1.10    2.42
  -2   2  10   -0.53    1.88
  -2  -2  10   -0.55    2.13
  -2  -2   9   25.06    3.49
  -2   2   9   17.07    3.00
  -2   2   9   19.47    3.01
  -2  -2   8   41.59    4.07
   2   2  -8   43.63    4.32
  -2   2   8   39.63    3.77
   2   2  -7  654.05   25.19
  -2  -2   7  657.00   24.69
  -2   2   7  622.47   23.91
  -2   2   7  616.44   24.43
   2   2  -6  638.49   24.71
  -2  -2   6  659.82   24.24
  -2   2   6  649.14   24.40
  -2   2   6  596.91   23.72
  -2   2   5    7.24    1.75
  -2  -2   5   13.74    2.01
   2   2  -5   13.61    2.35
   2  -2  -5   10.66    1.51
   2   2  -5   10.52    1.43
  -2   2   5   14.01    2.36
   2  -2  -4   81.41    4.13
  -2   2   4   81.88    5.08
   2   2  -4   82.69    4.35
  -2  -2   4   90.96    4.81
  -2  -2   4   89.87    4.38
   2   2  -4   90.26    5.38
  -2   2   4   93.70    5.48
  -2   2   3   28.31    2.92
  -2   2   3   24.55    2.73
  -2  -2   3   32.13    2.36
   2   2  -3   30.12    2.50
  -2  -2   3   26.78    2.23
  -2   2   2 1410.52   48.53
  -2   2   2 1375.49   49.09
   2  -2  -2 1370.31   49.07
   2   2  -2 1346.73   48.52
  -2  -2   2 1433.33   47.65
  -2  -2   2 1356.32   48.09
  -2   2   1 1188.58   43.05
  -2  -2   1 1137.18   42.27
  -2   2   1 1270.34   41.43
   2  -2  -1 1156.54   42.93
  -2  -2   1 1232.29   41.12
   2   2  -1 1234.54   42.61
  -2  -2   1 1160.83   42.12
  -2  -2   1 1192.62   41.20
   2  -2  -1 1177.93   42.67
  -2   2   1 1208.13   41.32
   2  -2   0  161.59    7.77
  -2   2   0  168.77    8.23
  -2  -2   0  167.14    6.11
  -2   2   0  164.03    7.44
  -2   2   0  175.93    6.85
   2  -2   0  161.19    8.08
  -2  -2   0  165.03    6.12
   2   2   0  171.12    7.93
  -2   2   0  181.07    7.89
  -2  -2   0  176.76    6.75
  -2   2  -1   86.62    4.70
   2  -2   1   77.55    5.08
   2   2   1   92.75    5.29
  -2  -2  -1   85.79    4.00
  -2   2  -1   89.20    5.26
   2   2   2   19.20    1.93
  -2  -2  -2   15.47    2.45
   2  -2   2   21.45    2.61
  -2   2  -2   16.40    2.13
  -2  -2  -2   18.27    1.70
   2   2   2   17.86    2.62
   2  -2   3   13.43    2.39
  -2  -2  -3   12.18    1.59
  -2  -2  -3   16.90    2.59
   2  -2   3   17.27    2.00
   2   2   3   17.26    1.98
   2  -2   3    9.19    1.93
   2  -2   3   17.64    2.54
   2   2   3   13.39    2.49
  -2   2  -3   18.76    2.28
   2  -2   4   62.04    4.48
  -2  -2  -4   68.42    4.97
   2  -2   4   62.07    4.12
   2  -2   4   62.61    4.59
   2   2   4   65.97    5.02
   2  -2   4   75.38    5.23
   2   2   4   71.09    4.36
   2   2   5  121.62    7.45
   2  -2   5  139.98    7.30
  -2  -2  -5  132.27    7.55
   2  -2   5  120.76    7.13
   2  -2   5  129.49    7.61
   2   2   5  129.74    6.94
   2  -2   6  158.74    8.43
   2  -2   6  150.26    8.40
   2   2   6  168.69    9.10
   2  -2   6  157.48    8.98
   2   2   6  165.24    8.38
   2   2   7   28.56    3.57
   2  -2   7   33.02    4.31
   2  -2   7   33.87    3.61
   2  -2   7   45.14    4.41
   2   2   7   38.01    4.36
   2   2   8    1.43    2.68
   2  -2   8   -1.20    3.14
   2  -2   8    0.46    1.64
   2  -2   8    1.95    2.43
   2   2   8    3.98    2.47
   2   2   9   16.96    3.31
   2   2   9   12.19    3.24
   2  -2   9   19.61    3.55
   2   2  10   58.59    5.73
   2  -2  10   56.12    6.14
   2   2  10   61.87    5.86
   2  -2  10   62.56    5.62
   2   2  11   83.67    6.91
   2  -2  11   70.07    7.13
   2   2  11   72.13    6.77
   2   2  12   66.09    6.57
   2  -2  12   80.30    7.61
   2   2  12   58.11    6.28
   2   2  13    0.77    3.17
   2  -2  13    6.21    3.41
   2   2  13    1.55    2.93
   2  -2  14    3.78    3.78
   2  -2  15   -1.00    3.62
   2  -2  16    1.06    4.22
  -2   3  17   39.49    6.01
  -2   3  17   32.89    5.27
  -2  -3  17   26.41    5.39
  -2  -3  16    3.58    3.44
  -2   3  16    6.61    2.98
  -2   3  15    3.12    2.48
  -2  -3  15    4.22    2.68
  -2   3  14   -0.74    2.26
  -2  -3  14    3.17    2.92
  -2  -3  13   11.80    3.46
  -2   3  13    8.25    2.82
  -2  -3  12   -0.68    2.28
  -2   3  12    0.64    2.15
  -2  -3  12    5.30    2.72
  -2   3  11    4.77    2.43
  -2  -3  11    3.75    2.81
  -2  -3  11    2.66    2.32
  -2  -3  10    5.74    2.47
  -2  -3  10    9.11    2.70
  -2   3  10    2.76    1.95
   2   3  -9   -0.60    2.25
  -2  -3   9    4.64    2.54
  -2  -3   9    4.23    2.25
  -2   3   9    0.49    1.96
  -2   3   8   -0.38    1.46
  -2  -3   8   -1.38    1.97
  -2  -3   8   -0.37    1.73
   2   3  -8    3.28    2.27
  -2   3   8    1.87    1.83
  -2   3   7   34.99    3.42
  -2  -3   7   30.13    3.40
   2   3  -7   29.13    3.58
  -2   3   7   33.39    3.60
  -2  -3   7   33.42    3.23
  -2  -3   6   43.60    3.65
  -2   3   6   30.12    3.25
   2   3  -6   37.74    3.83
  -2   3   6   41.13    3.92
  -2  -3   5   16.06    2.21
  -2   3   5   15.09    2.42
   2   3  -5   14.04    2.50
  -2   3   5   15.91    2.52
   2   3  -4  631.77   25.26
  -2  -3   4  683.93   24.18
   2   3  -4  685.20   23.63
  -2   3   4  660.56   25.22
  -2  -3   4  613.18   23.72
  -2   3   4  648.97   24.94
  -2  -3   3    8.11    1.46
  -2   3   3    6.46    1.87
   2   3  -3    8.42    1.49
  -2  -3   3    6.35    1.48
  -2   3   3    8.36    2.00
   2  -3  -2  839.43   30.72
  -2  -3   2  829.50   28.96
   2   3  -2  812.63   29.71
  -2   3   2  808.27   30.87
  -2   3   2  847.38   30.73
   2  -3  -1  364.91   15.05
  -2  -3   1  366.86   13.10
   2  -3  -1  377.44   15.14
   2   3  -1  371.81   14.48
  -2   3   1  355.49   15.06
  -2   3   1  337.85   14.95
   2  -3   0   62.31    4.26
   2   3   0   57.37    4.05
   2  -3   0   50.16    4.05
  -2   3   0   62.10    4.35
   2  -3   1  689.13   27.15
   2   3   1  752.46   27.21
  -2   3  -1  735.17   27.27
   2  -3   2  125.80    6.82
   2   3   2  116.66    6.79
  -2   3  -2  130.40    6.88
  -2   3  -3   22.20    2.66
  -2  -3  -3   23.41    3.19
   2  -3   3   15.85    2.77
   2  -3   3   14.63    2.58
   2  -3   3   18.86    2.61
   2   3   3   23.47    3.05
  -2  -3  -4  101.77    6.72
   2  -3   4  122.24    6.73
   2   3   4  116.04    6.95
   2  -3   4  117.61    6.83
   2  -3   4  125.67    7.35
  -2   3  -4  111.02    6.39
  -2   3  -5    3.56    1.75
   2  -3   5    3.48    2.36
  -2  -3  -5    2.37    2.06
   2  -3   5    2.38    1.56
   2  -3   5    0.43    1.87
   2   3   5   -0.48    1.91
  -2   3  -6    7.79    1.93
   2  -3   6    5.38    2.82
  -2  -3  -6    6.66    2.44
   2  -3   6   12.43    2.56
   2  -3   6   11.24    2.75
   2   3   6    5.64    2.54
   2  -3   7    8.17    3.05
   2  -3   7    5.65    2.01
   2  -3   7    7.11    2.66
   2   3   7    5.53    2.52
   2  -3   8    4.44    3.01
   2  -3   8    8.70    2.93
   2   3   8    4.16    2.59
   2  -3   9  128.97    8.55
   2   3   9  122.25    8.48
   2  -3   9  142.92    9.28
   2  -3  10   11.82    3.66
   2  -3  10    9.46    3.17
   2   3  10   14.38    3.31
   2  -3  11   71.01    7.11
   2  -3  11   70.21    6.69
   2   3  11   56.10    6.19
   2  -3  12    5.12    3.48
   2   3  12    8.51    3.21
   2  -3  13    2.73    3.64
   2   3  13   -0.82    2.66
   2  -3  14    1.93    3.79
   2   3  14    3.42    3.08
   2  -3  15   -4.09    3.77
  -2   4  17   -1.74    2.59
  -2   4  16    0.83    2.47
  -2  -4  16    0.93    3.43
  -2   4  15    4.74    2.86
  -2  -4  15  -10.57    3.89
  -2   4  14    9.73    3.06
  -2  -4  14    9.94    3.44
  -2   4  13   -1.41    2.24
  -2  -4  13   -0.77    3.07
   2   4 -12    0.78    2.25
  -2   4  12   -0.66    2.10
  -2  -4  12    1.42    2.51
   2   4 -11   11.75    3.24
  -2   4  11   17.97    3.41
  -2  -4  11   19.62    3.80
   2   4 -10  134.89    8.93
  -2  -4  10  121.24    8.21
   2   4  -9  447.51   19.95
  -2  -4   9  440.74   19.19
   2   4  -8  584.08   24.51
  -2  -4   8  602.72   23.83
  -2   4   8  572.32   23.91
  -2   4   8  589.84   23.38
   2   4  -7  175.41    9.94
  -2  -4   7  191.71    9.58
  -2   4   7  193.37   10.01
  -2   4   7  175.74    9.35
  -2   4   6    0.43    1.57
   2   4  -6    0.51    1.90
  -2   4   6    0.48    1.77
  -2  -4   6    1.89    1.79
   2   4  -5  195.01   10.18
  -2  -4   5  204.08    9.29
  -2   4   5  190.72    9.97
  -2   4   5  194.25    9.88
  -2   4   4    9.27    2.20
   2   4  -4   10.49    2.37
  -2   4   4    9.27    2.20
  -2  -4   4   10.00    2.00
  -2   4   3    2.49    1.53
   2  -4  -3   -0.87    1.77
  -2  -4   3    0.23    1.29
  -2   4   3    2.12    1.60
   2   4  -2   79.31    4.50
   2  -4  -2   88.05    5.59
  -2   4   2   72.81    5.21
  -2   4   2   73.25    5.22
  -2   4   1 1788.59   62.85
   2   4  -1 1775.14   61.85
   2  -4  -1 1769.83   62.87
  -2   4   1 1772.71   62.82
   2  -4   0  704.87   26.45
   2   4   0  691.03   25.74
  -2   4   0  655.52   26.12
  -2   4   0  696.12   26.39
   2  -4   1 1228.98   44.19
   2   4   1 1233.42   44.02
  -2   4  -1 1205.57   44.19
   2  -4   2   60.83    4.46
   2   4   2   59.37    4.60
  -2   4  -2   53.56    4.30
   2  -4   3  272.93   12.28
   2  -4   3  243.39   11.68
   2   4   3  265.15   12.24
  -2   4  -3  251.44   11.77
   2  -4   4   20.68    3.39
  -2   4  -4   27.54    2.98
  -2  -4  -4   33.74    3.66
   2  -4   4   23.41    2.95
   2  -4   4   31.72    3.70
   2  -4   5   13.49    3.19
  -2   4  -5   16.72    2.60
  -2  -4  -5   22.06    3.29
   2  -4   5   22.06    2.78
   2  -4   5   18.96    3.21
   2  -4   6   63.01    5.79
  -2  -4  -6   56.11    5.25
   2  -4   6   61.05    4.68
   2  -4   6   57.71    5.31
   2  -4   7   13.06    3.39
   2  -4   7   17.56    3.52
   2  -4   8   -0.67    2.41
   2  -4   8   -1.21    2.64
   2  -4   9   95.07    7.53
   2  -4   9   96.21    7.83
   2  -4  10   42.97    5.56
   2  -4  10   36.01    5.11
   2  -4  11   11.56    3.97
   2  -4  11    5.87    3.25
   2   4  11    6.86    3.00
   2  -4  12    0.88    3.02
   2  -4  12   -0.78    2.68
   2   4  12    4.03    3.34
   2  -4  13    3.76    3.46
   2   4  13   -0.85    2.94
   2  -4  14    2.98    3.15
   2   4  14    0.89    3.08
   2  -4  15    6.27    4.17
   2   4  15    0.93    2.78
   2   5 -16    2.95    3.12
  -2   5  16    2.52    2.74
  -2  -5  16   -0.96    3.56
   2   5 -15    1.89    2.91
  -2   5  15    0.80    2.47
  -2  -5  15    0.92    3.38
   2   5 -14   -0.90    2.87
  -2   5  14    1.53    2.50
  -2  -5  14   -0.86    3.24
   2   5 -13   15.52    3.89
  -2   5  13   14.55    3.20
  -2  -5  13   12.92    3.86
   2   5 -12    3.27    2.52
  -2   5  12    0.69    2.12
  -2  -5  12    8.26    3.42
   2   5 -11  165.08   10.84
  -2  -5  11  170.80   10.54
   2   5 -10  266.29   13.95
  -2  -5  10  245.66   13.17
   2   5  -9  140.79    9.15
  -2  -5   9  126.79    8.43
  -2   5   9  134.13    8.09
   2   5  -8   75.16    6.51
  -2  -5   8   95.05    6.56
  -2   5   8   77.99    6.44
  -2   5   8   94.91    6.52
   2   5  -7  257.43   13.00
  -2  -5   7  267.07   12.42
  -2   5   7  244.93   12.77
  -2   5   7  252.74   12.46
  -2   5   6   67.49    5.29
  -2  -5   6   74.37    5.26
  -2   5   6   61.16    5.30
  -2   5   5   -3.47    2.02
  -2  -5   5   -0.37    1.81
   2   5  -5   -0.53    1.73
  -2   5   5   -1.55    1.86
  -2   5   4   13.59    2.75
  -2   5   4   12.90    2.65
  -2   5   3    8.11    2.36
   2  -5  -3    6.39    2.25
  -2   5   3    9.01    2.32
  -2   5   2   43.60    4.35
   2  -5  -2   48.83    4.46
  -2   5   2   44.77    4.12
   2  -5  -1  149.64    8.47
   2   5  -1  150.16    7.54
  -2   5   1  157.52    8.42
  -2   5   1  160.61    8.62
  -2   5   0   18.97    2.98
   2  -5   0   17.16    2.91
   2   5   0   21.94    2.77
  -2   5   0   21.33    2.93
  -2   5  -1   36.86    3.69
  -2   5  -1   34.63    3.76
   2   5   1   41.27    3.85
  -2   5  -2  310.99   13.95
  -2   5  -2  334.44   14.38
   2  -5   3  349.03   15.06
   2  -5   3  340.21   15.59
  -2   5  -3  329.84   15.05
  -2  -5  -4   25.59    3.57
   2  -5   4   21.67    2.96
   2  -5   4   26.16    3.86
  -2   5  -4   23.69    3.00
   2  -5   5   -2.34    2.80
  -2   5  -5    2.43    1.68
  -2  -5  -5   -1.66    2.41
   2  -5   5   -0.83    1.75
   2  -5   5   -1.09    2.78
   2  -5   6   -1.24    2.74
  -2  -5  -6    1.15    2.22
   2  -5   6   -1.16    2.48
   2  -5   7    1.32    2.49
  -2  -5  -7    1.23    2.27
   2  -5   7    0.62    2.62
   2  -5   8   61.43    5.95
   2  -5   8   40.55    5.30
   2  -5   9   -0.75    3.12
   2  -5   9   -1.41    2.98
   2  -5  10    4.01    2.95
   2  -5  10   -1.50    2.77
   2  -5  11   -1.71    2.93
   2  -5  11   -0.80    2.73
   2  -5  12   -0.90    3.26
   2  -5  12    1.67    3.01
   2  -5  13    4.79    3.68
   2  -5  13   -0.88    3.10
   2   5  13    5.33    3.42
   2  -5  14    2.01    3.47
   2  -5  14    9.20    4.31
   2   5  14    7.42    3.57
   2   5  15    0.97    2.89
  -2   6  16    2.55    2.45
   2   6 -15   12.59    3.74
  -2   6  15   12.33    3.60
  -2  -6  15    8.61    4.18
   2   6 -14   28.94    5.06
  -2   6  14   24.50    4.44
  -2  -6  14   33.55    5.61
  -2   6  13    3.02    2.54
   2   6 -13    4.46    2.91
  -2  -6  13    5.12    3.65
   2   6 -12   81.78    7.54
  -2   6  12   72.31    6.90
  -2  -6  12   87.64    7.79
   2   6 -11    0.81    2.71
  -2  -6  11   -1.48    3.01
   2   6 -10    8.38    3.06
  -2  -6  10   10.21    3.36
  -2   6   9    0.59    2.04
   2   6  -9    0.72    2.20
  -2  -6   9    2.50    2.93
  -2   6   8   14.16    3.07
   2   6  -8   20.23    3.72
  -2  -6   8   25.56    4.00
  -2   6   7   19.89    3.49
  -2   6   7   19.27    3.54
   2   6  -7   22.26    3.75
   2   6  -6    9.75    2.92
  -2   6   6   16.14    3.07
  -2   6   6   14.28    2.96
  -2   6   5   44.77    4.72
  -2   6   5   42.76    4.68
  -2   6   4    5.56    2.43
  -2   6   4    5.48    2.43
  -2   6   3   14.74    3.21
   2  -6  -3   17.66    3.10
  -2   6   3   13.76    2.98
  -2   6   2   35.83    4.04
   2  -6  -2   33.28    4.03
  -2   6   2   32.40    3.88
  -2   6   1    0.52    2.01
   2  -6  -1   -0.53    1.82
  -2   6   1   -0.49    1.90
  -2   6   0    2.56    1.93
   2  -6   0    2.65    2.08
   2   6   0    5.04    1.89
  -2   6   0    1.87    2.01
  -2   6  -1   38.02    4.14
   2  -6   1   36.08    4.07
   2   6   1   29.88    3.80
  -2   6  -1   32.98    3.67
   2   6   2  308.58   14.53
  -2   6  -2  327.94   14.01
  -2   6  -2  286.49   13.95
  -2  -6  -3  414.94   17.80
   2   6   3  364.29   17.16
  -2   6  -3  385.07   16.33
  -2   6  -3  377.96   16.66
   2  -6   4  232.67   12.38
  -2  -6  -4  251.62   12.58
  -2   6  -4  245.28   11.75
  -2  -6  -5   34.96    4.42
   2  -6   5   42.86    4.75
   2  -6   6  164.48    9.93
  -2  -6  -6  163.93    9.73
   2  -6   6  155.90   10.04
   2  -6   7   23.13    4.02
  -2  -6  -7   17.44    3.40
   2  -6   7   24.99    4.31
   2  -6   8   -0.74    2.97
   2  -6   8   -4.30    2.76
   2  -6   9    1.58    3.15
   2  -6   9    6.84    3.09
   2  -6  10   -1.67    3.00
   2  -6  10   -0.81    2.91
   2  -6  11   -3.53    3.18
   2  -6  11    2.55    2.99
   2  -6  12    1.86    3.20
   2  -6  12    0.89    3.28
   2  -6  13    8.81    3.93
   2  -6  13   13.03    4.06
   2  -6  14    3.88    3.42
   2   6  14   10.62    3.93
   2  -6  14    4.09    3.61
  -2   7  15    0.84    2.33
  -2  -7  15    1.00    4.12
   2   7 -14    0.96    2.76
  -2   7  14   -0.82    2.66
  -2  -7  14    6.64    3.93
   2   7 -13    3.70    2.76
  -2   7  13    7.10    2.92
  -2  -7  13    7.17    3.84
   2   7 -12    2.65    2.72
  -2  -7  12    1.68    3.54
   2   7 -11   10.92    3.56
   2   7 -10   12.78    3.39
  -2   7   9   30.72    4.28
   2   7  -9   20.45    3.91
   2   7  -8    4.33    2.22
  -2   7   8    5.96    2.45
  -2   7   7   60.55    5.93
   2   7  -7   71.07    6.43
  -2   7   6   38.46    4.79
  -2   7   6   37.99    4.76
  -2   7   5    3.85    2.37
  -2   7   5    4.39    2.69
  -2   7   4  197.26   11.10
  -2   7   4  201.38   11.24
  -2   7   3   23.48    3.69
   2  -7  -3   22.10    3.45
  -2   7   3   21.45    3.64
   2  -7  -2   -0.60    2.17
  -2   7   2   -1.21    2.18
  -2   7   2    2.23    2.23
   2   7  -2    0.51    1.84
   2  -7  -1  139.21    8.65
  -2   7   1  137.04    8.41
   2   7  -1  132.18    8.26
  -2   7   1  126.61    8.40
   2   7   0   13.40    3.08
   2  -7   0   20.85    3.40
  -2   7   0   14.43    3.09
  -2   7   0   13.90    2.90
   2  -7   1  133.09    8.63
  -2   7  -1  127.60    7.94
   2   7   1  141.22    8.68
  -2   7  -1  141.11    8.51
  -2   7  -2   87.28    6.22
  -2   7  -2   99.46    6.77
  -2   7  -3    4.77    2.28
  -2  -7  -3    8.67    2.57
   2   7   3    7.50    2.69
  -2   7  -4    0.51    1.67
  -2  -7  -4    1.23    2.27
   2  -7   4   -0.64    2.93
   2   7   4   -0.65    2.33
  -2  -7  -5    4.41    2.33
   2  -7   5    1.99    2.55
   2   7   5    2.68    2.52
  -2  -7  -6    0.65    2.11
   2  -7   6    5.57    2.93
   2   7   6    4.17    2.56
  -2  -7  -7    2.02    2.54
   2  -7   7   -1.46    3.03
   2  -7   8    5.46    3.07
   2  -7   8   11.55    3.41
   2  -7   9   -0.82    2.95
   2  -7   9   -2.43    3.18
   2  -7  10    4.31    3.11
   2  -7  10    5.96    3.47
   2  -7  11    6.26    3.57
   2  -7  11    2.72    3.27
   2  -7  12   10.48    4.18
   2  -7  12   27.06    5.40
   2  -7  13   10.94    4.53
   2  -7  13    4.85    3.96
   2   8 -13   -0.95    2.91
  -2   8  13    1.65    2.61
   2   8 -12    1.82    2.89
   2   8 -11    3.50    2.77
   2   8 -10   10.03    3.30
  -2   8  10   11.92    3.55
  -2   8   9    5.94    2.86
   2   8  -9    4.80    2.47
  -2   8   8    1.48    2.47
   2   8  -8    3.08    2.30
  -2   8   7    2.19    2.58
  -2   8   6   -1.44    2.48
  -2   8   5   39.27    4.91
  -2   8   5   34.29    4.64
  -2   8   4   19.05    3.73
  -2   8   4   17.15    3.38
   2  -8  -3   72.57    6.37
  -2   8   3   67.79    6.32
  -2   8   3   64.91    5.87
  -2   8   2   14.91    3.35
   2  -8  -2   20.03    3.53
  -2   8   2   17.00    3.04
   2   8  -2   18.02    3.24
  -2   8   1    0.66    2.16
   2  -8  -1    2.64    2.44
   2   8  -1   -0.60    1.91
  -2   8   1    1.75    1.80
  -2   8   0   24.55    3.96
   2  -8   0   19.93    3.60
  -2   8   0   16.31    3.18
   2   8   0   18.15    3.46
  -2   8  -1   12.55    2.90
   2  -8   1    3.36    2.38
   2   8   1    6.47    2.78
  -2   8  -2   27.37    4.00
   2  -8   2   25.43    3.98
   2   8   2   14.04    3.41
  -2   8  -3   15.29    3.09
  -2  -8  -3   19.35    3.49
   2   8   3   17.95    3.72
  -2  -8  -4   -0.65    2.19
   2   8   4    4.98    2.74
  -2  -8  -5    2.00    2.29
   2  -8   5    2.17    2.67
   2   8   5   -0.74    2.33
  -2  -8  -6   -0.68    2.02
   2  -8   6   -0.75    2.66
   2   8   6    0.76    2.40
  -2  -8  -7   -0.70    2.35
   2  -8   7   -0.79    2.84
   2   8   7    2.34    2.81
   2  -8   8   -2.47    3.35
   2  -8   9    1.72    3.10
   2  -8  10    0.89    3.27
   2  -8  10    0.90    3.16
   2  -8  11   -2.78    3.11
   2  -8  11   -0.93    3.21
   2  -8  12   -4.83    3.93
   2  -8  12   -0.97    3.58
   2   9 -12   -0.94    2.80
   2   9 -11    1.81    2.70
   2   9 -10   -1.75    2.52
  -2   9  10   -2.44    2.87
   2   9  -9    1.69    2.51
  -2   9   9    4.89    2.73
  -2   9   8    0.81    2.49
  -2   9   7    7.24    3.16
  -2   9   6   -0.80    2.60
  -2   9   5   -2.36    2.64
  -2   9   4   44.79    5.32
  -2   9   4   32.01    4.48
  -2   9   3    2.29    2.42
   2  -9  -3    1.49    2.14
  -2   9   3   -0.68    2.04
   2  -9  -2    2.94    2.65
   2   9  -2    6.51    2.74
  -2   9   2    1.50    2.45
  -2   9   2    2.62    2.31
  -2   9   1    1.46    2.25
   2  -9  -1   -0.73    2.17
   2   9  -1    0.67    2.26
  -2   9   1    1.25    1.99
  -2   9   0   -4.99    2.45
   2  -9   0   -3.66    2.26
   2   9   0    0.70    2.40
  -2   9  -1    0.69    2.19
   2   9   1    0.72    2.27
   2  -9   1   -2.22    2.34
  -2   9  -2   19.42    3.43
   2  -9   2   18.84    3.66
   2   9   2   14.03    3.64
  -2   9  -3   10.35    2.98
   2   9   3   21.25    4.11
   2   9   4    5.46    2.69
   2   9   5   45.59    5.90
   2  -9   6    8.11    3.48
   2   9   6    7.40    3.53
   2  -9   7   24.43    4.81
   2   9   7   17.68    4.20
   2  -9   8    0.87    3.22
   2  -9   9    0.91    3.12
   2  -9  10   -1.88    3.68
   2  10 -11   13.07    4.02
  -2  10  10   19.33    4.37
  -2  10   9   12.34    3.86
  -2  10   8    1.77    2.71
  -2  10   7    1.76    2.61
  -2  10   6    1.74    3.27
  -2  10   5    4.30    2.81
  -2  10   4    0.84    2.76
   2 -10  -3    0.81    2.16
  -2  10   3   -0.83    2.47
  -2  10   2   -0.81    2.86
   2 -10  -2   -0.80    2.13
   2 -10  -1   -1.60    2.29
   2  10  -1   -0.74    2.43
  -2  10   1    0.79    2.36
  -2  10   0   27.15    4.37
   2 -10   0   23.98    4.15
   2  10   0   19.91    4.03
  -2  10  -1    6.76    3.03
   2 -10   1   14.53    3.48
   2  10   1   18.87    3.80
  -2  10  -2   29.05    4.44
   2 -10   2   22.89    4.25
   2  10   2   23.39    4.38
   2 -10   3    6.69    3.02
   2  10   3    7.43    3.05
   2  10   4    0.85    2.91
   2  10   5   -3.46    3.19
   2  10   6    1.77    2.81
   2  10   7   22.58    4.45
   2 -10   8   12.88    4.21
   2 -10   9   -0.95    3.35
  -2  11   8    2.82    3.47
  -2  11   7    5.63    3.31
  -2  11   6   -0.94    2.97
  -2  11   5   -0.93    3.18
  -2  11   4   10.04    3.59
  -2  11   3   -1.79    3.15
   2 -11  -3    0.87    2.51
  -2  11   2   -0.88    3.17
   2 -11  -2   -1.73    2.39
  -2  11   1    1.71    2.55
   2 -11  -1   -0.86    2.48
  -2  11   0    4.15    2.47
   2 -11   0   -0.86    2.57
   2  11   0    3.33    3.00
  -2  11  -1   10.48    3.35
   2 -11   1   11.31    3.56
   2  11   1    8.52    3.36
   2 -11   2    0.88    2.44
   2  11   2    3.48    3.21
   2 -11   3   -3.58    2.75
   2  11   3    3.56    2.73
   2 -11   4    0.91    2.62
   2  11   4   -0.91    2.96
   2  11   5   -0.92    3.02
   2  11   6    8.50    3.71
  -2  12   4   -1.94    3.08
  -2  12   3    4.77    3.36
  -2  12   2    0.93    2.78
   2 -12  -2    0.92    2.92
  -2  12   1    0.91    2.96
   2 -12  -1    1.84    2.92
  -2  12   0   14.10    3.85
   2 -12   0   10.14    3.70
   2 -12   1   19.41    4.41
   2  12   1    9.99    3.98
   2 -12   2    2.81    3.05
   2  12   2    4.63    3.49
   2 -12   3    2.84    2.82
   2  12   3    0.94    2.81
  -3   0  17   12.03    3.87
  -3   0  16   -0.82    2.96
  -3   0  16   -0.82    3.35
  -3   0  15    1.55    2.72
  -3   0  14   -0.72    2.30
  -3   0  13    2.04    2.33
  -3   0  12   -2.52    2.06
  -3   0  11    1.75    1.90
  -3   0  10    0.54    1.79
   3   0  -9    0.50    1.67
  -3   0   9   -0.49    1.77
   3   0  -8   -1.38    1.87
  -3   0   8   -0.44    1.81
   3   0  -7   52.75    4.30
  -3   0   7   53.27    4.28
  -3   0   6    0.43    1.76
  -3   0   6    0.42    1.54
   3   0  -6   -1.20    1.48
  -3   0   6   -0.72    1.43
  -3   0   5   58.68    4.73
   3   0  -5   63.50    4.73
   3   0  -4    0.40    1.76
   3   0  -3  586.40   23.13
   3   0  -2   -0.43    1.75
   3   0  -1  450.25   18.71
   3   0   0   -0.46    1.74
  -3   0  -1    1.94    1.79
   3   0   1   -0.96    1.99
  -3   0  -2   -0.40    1.59
   3   0   2   -1.51    1.97
  -3   0  -3    2.93    1.91
   3   0   3    3.11    2.22
   3   0   4   -1.36    2.21
  -3   0  -4   -0.90    1.83
   3   0   4   -0.54    2.13
   3   0   5   22.31    3.34
   3   0   5   21.00    3.46
   3   0   6   -0.54    2.45
   3   0   6    0.60    2.25
   3   0   7   40.95    4.59
   3   0   7   44.63    4.80
   3   0   8    1.26    2.38
   3   0   8   -1.98    2.32
   3   0   9   21.10    4.01
   3   0   9   29.73    4.27
   3   0  10   -0.73    2.80
   3   0  10    0.72    2.29
   3   0  11    2.34    3.00
   3   0  11    1.51    2.60
   3   0  12    0.83    2.62
   3   0  13   -0.88    2.94
  -3   1  17    7.12    3.81
  -3  -1  16   -0.83    2.98
  -3   1  16    0.81    2.65
  -3  -1  15    5.49    3.08
  -3   1  15    9.97    3.45
  -3  -1  14    5.91    2.67
  -3   1  14    7.23    2.68
  -3  -1  13   11.71    3.22
   3   1 -13   18.03    3.67
  -3   1  13   18.26    3.45
  -3  -1  12   42.12    4.80
   3   1 -12   34.44    4.62
  -3   1  12   39.71    4.57
  -3  -1  11   57.10    5.29
   3   1 -11   59.90    5.60
  -3   1  11   46.12    4.91
   3   1 -10   -0.59    1.92
  -3  -1  10    0.54    2.04
  -3   1  10    1.08    1.94
   3   1  -9    4.93    2.38
  -3  -1   9    1.48    1.86
  -3   1   9    3.46    1.86
   3   1  -8   23.42    3.33
  -3  -1   8   23.29    3.09
  -3   1   8   19.40    2.91
  -3   1   8   20.02    3.08
  -3   1   7    8.61    2.17
   3   1  -7    2.86    1.88
  -3  -1   7    5.22    1.94
  -3   1   7    5.59    2.13
  -3  -1   6   19.21    2.69
  -3   1   6   16.25    2.55
   3   1  -6   14.92    2.88
  -3  -1   6   16.48    2.45
  -3   1   6   18.87    3.00
  -3   1   5   -1.43    1.79
  -3   1   5    0.87    1.64
  -3  -1   5    0.63    1.31
   3   1  -5   -0.36    1.43
   3  -1  -4  315.74   13.93
   3   1  -4  314.49   13.63
  -3  -1   4  297.56   12.61
  -3   1   4  325.99   14.04
  -3   1   3    1.30    1.80
   3  -1  -3    6.61    2.20
  -3  -1   3    1.18    1.16
   3   1  -3    5.96    1.94
   3  -1  -2  213.83   10.77
   3   1  -2  232.18   10.79
   3  -1  -1  248.16   12.20
   3   1  -1  276.84   12.37
   3  -1   0   95.75    5.48
  -3   1   0  111.81    5.97
   3  -1   0   92.41    6.47
   3   1   0  118.87    6.91
   3  -1   1   30.33    2.89
  -3   1  -1   46.23    3.55
  -3  -1  -1   40.23    4.04
   3  -1   1   38.05    4.17
   3   1   1   31.13    3.74
  -3   1  -2   25.86    2.94
  -3  -1  -2   41.70    4.01
   3  -1   2   38.84    4.07
   3   1   2   26.70    3.66
  -3   1  -3   23.60    2.81
  -3  -1  -3   26.82    3.59
   3  -1   3   16.26    3.03
   3   1   3   27.52    3.76
  -3  -1  -4  132.36    8.14
   3  -1   4  136.64    8.53
   3   1   4  148.54    8.78
   3  -1   4  150.75    8.58
   3   1   4  146.68    7.88
   3  -1   5    1.60    2.25
   3   1   5   -0.92    2.06
  -3  -1  -5   -0.53    2.25
   3  -1   5    2.27    2.43
   3   1   5    1.74    2.31
   3  -1   6   39.16    4.56
   3  -1   6   41.82    4.76
   3  -1   7    0.62    2.33
   3  -1   7    3.69    2.41
   3   1   7   -0.65    2.28
   3  -1   8    1.33    2.60
   3  -1   8   -0.64    2.10
   3   1   8   -0.68    2.51
   3  -1   9    7.11    3.01
   3  -1   9   10.07    2.93
   3   1   9    8.62    2.99
   3  -1  10    9.12    3.32
   3  -1  10    7.68    2.80
   3   1  10    7.54    3.08
   3  -1  11    3.25    2.93
   3   1  11   -3.16    2.71
   3  -1  12    4.31    3.38
   3   1  12   -0.82    2.75
   3  -1  13   10.92    3.72
   3  -1  14    0.96    3.37
  -3  -2  16   -2.51    2.88
  -3   2  16   -0.82    2.43
   3   2 -16    3.59    2.93
  -3  -2  15   -2.38    2.58
   3   2 -15   -0.85    2.71
  -3   2  15   -0.77    2.38
  -3  -2  14   -2.25    2.76
   3   2 -14    3.24    2.64
  -3   2  14    0.73    2.24
  -3  -2  13    1.41    2.48
   3   2 -13    3.83    2.36
  -3   2  13    2.05    1.97
  -3  -2  12   -1.31    2.57
   3   2 -12    2.16    2.15
  -3   2  12    3.20    2.41
  -3  -2  11   -0.61    2.09
   3   2 -11    0.68    1.95
  -3   2  11    0.60    1.94
  -3  -2  10   20.05    3.35
   3   2 -10   18.43    3.30
  -3   2  10   18.19    3.40
   3   2  -9  494.76   20.32
  -3  -2   9  484.16   19.52
  -3   2   9  471.05   19.60
   3   2  -8  422.48   18.29
  -3  -2   8  399.66   17.32
  -3   2   8  405.13   17.87
   3   2  -7   78.18    5.79
  -3  -2   7   62.01    4.81
  -3   2   7   71.34    5.18
  -3   2   7   55.35    5.09
  -3   2   6   10.22    2.33
   3   2  -6    4.03    2.06
  -3  -2   6    4.72    1.94
  -3   2   6    5.62    2.23
  -3   2   5   55.43    4.71
  -3   2   5   65.21    5.28
  -3   2   4    5.08    2.35
  -3   2   4    4.02    1.92
   3   2  -4    5.05    1.72
  -3   2   3   15.48    2.72
   3  -2  -3   10.76    2.42
   3   2  -3   11.92    2.29
  -3   2   2    9.83    2.48
   3  -2  -2   15.57    2.72
   3   2  -2   12.99    2.33
   3  -2  -1  200.94    9.52
   3  -2  -1  194.73   10.19
   3   2  -1  196.15    9.90
  -3   2   1  200.78   10.19
  -3   2   0   36.61    3.86
   3  -2   0   45.93    4.32
   3   2   0   36.57    3.96
   3  -2   1    4.35    1.66
   3  -2   1    5.00    1.97
   3   2   1    5.17    2.32
   3  -2   2    5.94    1.72
  -3  -2  -2    7.74    2.61
   3  -2   2    2.05    1.90
   3   2   2    2.99    2.27
  -3  -2  -3  198.50   10.66
   3  -2   3  213.10   10.88
   3   2   3  199.86   10.72
   3  -2   4   10.34    2.58
   3   2   4    9.00    3.12
  -3  -2  -5   95.92    7.00
   3  -2   5  101.31    7.22
   3   2   5  104.64    7.33
   3  -2   5   99.79    7.08
   3  -2   6   30.69    4.42
   3  -2   6   37.15    4.42
   3   2   6   41.76    4.80
   3  -2   7   -0.61    2.11
   3   2   7   -0.67    2.30
   3  -2   8   -1.40    2.75
   3  -2   8   -1.27    2.19
   3   2   8    2.13    2.73
   3  -2   9   23.91    4.53
   3  -2   9   27.08    4.36
   3   2   9   23.94    4.19
   3  -2  10   67.66    6.95
   3   2  10   75.54    7.20
   3  -2  11   11.80    3.95
   3   2  11    8.25    3.37
   3  -2  12    0.89    3.15
   3   2  12    7.71    3.36
   3  -2  13    0.94    3.31
   3   2  13    1.78    2.74
   3  -2  14   -0.99    3.13
  -3  -3  16   -0.86    2.79
   3   3 -16    0.93    2.59
  -3   3  16   -0.83    2.37
  -3  -3  15   -0.81    2.58
   3   3 -15   -1.79    2.91
  -3   3  15    0.79    2.18
  -3  -3  14    0.77    2.57
   3   3 -14    0.85    2.36
  -3   3  14    0.74    2.14
  -3  -3  13   16.54    3.64
  -3   3  13   14.02    3.47
  -3  -3  12   -0.67    2.48
   3   3 -12   -0.77    2.50
  -3   3  12    1.97    2.43
  -3  -3  11    1.87    2.09
   3   3 -11    0.73    2.16
  -3   3  11   -0.62    2.01
  -3  -3  10    1.72    2.24
   3   3 -10    3.42    2.52
  -3   3  10    1.73    1.98
  -3   3  10    1.78    1.94
  -3  -3   9    4.19    2.28
   3   3  -9   -1.94    2.11
  -3   3   9    0.58    1.90
   3   3  -8  294.13   14.45
  -3  -3   8  287.70   13.38
  -3   3   8  288.25   14.15
  -3   3   8  288.95   13.56
   3   3  -7  171.64    9.94
  -3   3   7  165.99    9.63
  -3   3   7  169.62    9.25
  -3   3   6  233.66   11.93
  -3   3   6  221.63   11.25
  -3   3   5   29.78    3.58
  -3   3   5   28.41    3.83
  -3   3   4   20.68    3.09
  -3   3   4   16.88    3.05
  -3   3   3    3.20    2.21
  -3   3   3   -2.40    1.85
   3   3  -3   -0.37    1.35
  -3   3   2    0.95    1.76
   3  -3  -2    0.50    1.64
   3   3  -2    1.20    1.79
  -3   3   2    1.56    2.04
   3  -3  -1  147.15    7.95
   3  -3  -1  127.31    8.01
   3   3  -1  139.53    7.74
  -3   3   1  141.25    8.14
   3  -3   0    1.73    1.88
  -3   3   0    2.90    1.75
   3  -3   0    4.59    2.22
   3   3   0    5.35    2.06
  -3   3  -1    0.98    2.00
   3  -3   1    2.60    1.56
   3  -3   1    1.54    1.98
   3   3   1    2.86    2.01
   3  -3   2  345.74   14.36
  -3  -3  -2  336.55   15.23
   3  -3   2  303.48   14.58
   3   3   2  305.16   14.53
  -3   3  -2  292.82   14.25
  -3   3  -3   10.96    2.69
  -3  -3  -3   11.94    3.30
   3  -3   3   13.41    2.92
   3   3   3   17.48    3.28
  -3   3  -4   67.88    5.60
  -3  -3  -4   83.98    6.46
   3  -3   4   72.64    6.02
   3   3   4   75.26    6.19
  -3   3  -5   28.19    3.62
  -3  -3  -5   30.34    4.23
   3  -3   5   33.32    3.86
   3  -3   5   23.19    3.66
   3   3   5   33.39    4.31
   3  -3   6   -0.65    2.61
  -3   3  -6   -0.50    1.86
  -3  -3  -6   -1.28    2.50
   3  -3   6   -0.58    2.00
   3   3   6   -0.66    2.54
   3  -3   7   38.21    4.93
   3  -3   7   29.39    4.16
   3   3   7   31.43    4.59
   3  -3   8   36.94    5.15
   3  -3   8   46.52    5.04
   3   3   8   42.77    5.44
   3  -3   9   25.90    4.60
   3   3   9   14.07    3.94
   3  -3  10   38.20    5.63
   3   3  10   36.82    5.22
   3  -3  11    7.03    3.45
   3   3  11    5.15    2.81
   3  -3  12    0.93    3.18
   3   3  12   -1.80    3.24
   3  -3  13    0.97    3.18
   3   3  13   -2.80    3.21
   3  -3  14    3.06    3.59
   3   3  14    8.64    3.54
   3   4 -16   -0.96    2.67
  -3  -4  16    0.88    2.95
   3   4 -15   11.17    3.60
  -3   4  15   11.23    3.29
  -3  -4  15   20.16    4.36
  -3  -4  14   15.06    3.72
   3   4 -14   27.69    4.66
  -3   4  14   21.42    3.96
  -3  -4  13    0.74    2.62
   3   4 -13    0.85    2.17
  -3   4  13    2.90    2.49
  -3  -4  12   61.29    6.00
   3   4 -12   49.65    5.78
  -3   4  12   52.81    5.60
   3   4 -11   27.03    4.33
  -3   4  11   20.08    3.62
  -3   4  11   15.37    3.47
   3   4 -10    1.47    2.26
  -3   4  10    1.31    2.01
   3   4  -9    3.48    2.27
  -3   4   9    1.28    2.03
   3   4  -8  110.32    7.69
  -3   4   8   91.08    7.12
  -3   4   8   91.02    6.59
  -3   4   7   32.25    3.92
   3   4  -7   40.84    4.61
  -3   4   7   40.62    4.61
  -3   4   6  224.29   12.21
  -3   4   6  248.00   12.10
  -3   4   5   -0.53    1.96
  -3   4   5    1.18    2.22
  -3   4   4   44.74    4.59
  -3   4   4   52.40    5.05
  -3   4   3    2.59    2.04
  -3   4   3    8.49    2.47
  -3   4   2   12.22    2.89
   3  -4  -2    8.29    2.51
  -3   4   2   11.86    2.53
  -3   4   1   66.87    5.50
  -3   4   1   64.72    5.44
   3  -4  -1   63.16    5.32
   3   4  -1   64.07    4.93
   3  -4   0  158.05    8.65
   3  -4   0  135.23    8.50
   3   4   0  142.26    8.26
  -3   4   0  156.08    8.70
  -3   4  -1    8.65    2.49
   3  -4   1    7.53    2.27
   3  -4   1   11.27    2.75
   3   4   1    6.90    2.44
   3  -4   2  336.55   15.07
   3  -4   2  328.90   15.17
   3   4   2  330.16   15.28
  -3   4  -2  311.40   14.80
  -3  -4  -3  398.13   18.10
   3  -4   3  413.92   17.68
   3   4   3  434.22   18.06
  -3  -4  -4  135.85    8.85
   3  -4   4  145.26    8.75
   3   4   4  148.14    9.10
  -3   4  -4  130.08    8.09
  -3   4  -5   10.99    2.56
  -3  -4  -5   18.82    3.49
   3  -4   5   14.14    3.11
   3  -4   5   13.56    2.78
   3   4   5   13.63    3.15
  -3  -4  -6   38.46    4.60
   3  -4   6   37.62    4.46
   3  -4   6   31.96    4.03
   3   4   6   40.09    4.94
   3  -4   6   24.35    4.23
   3  -4   7    0.73    2.76
  -3  -4  -7   -1.42    2.32
   3  -4   7   -1.80    2.39
   3   4   7    4.38    2.75
   3  -4   8    6.98    3.11
   3   4   8    5.40    3.14
   3  -4   9    0.82    2.82
   3   4   9    2.44    3.06
   3  -4  10   15.59    4.45
   3   4  10   14.53    3.97
   3  -4  11   21.88    4.61
   3   4  11   24.19    4.88
   3  -4  12    9.59    3.93
   3   4  12   21.40    4.61
   3  -4  13   19.06    5.19
   3   4  13   10.66    3.68
   3   4  14    2.00    3.36
   3   5 -15    1.93    3.15
  -3   5  15    4.96    2.85
   3   5 -14    9.33    3.59
  -3   5  14    0.79    2.28
   3   5 -13    9.84    3.38
  -3   5  13    6.81    2.61
   3   5 -12   -1.72    2.38
  -3   5  12   -0.72    2.36
   3   5 -11   -0.82    2.28
   3   5 -10    7.06    3.07
  -3   5  10   -0.71    2.13
   3   5  -9    1.50    2.31
  -3   5   9    4.18    2.57
  -3   5   8    0.60    1.96
   3   5  -8   -1.45    2.48
  -3   5   8   -2.04    2.39
  -3   5   7   12.51    2.83
  -3   5   7   18.66    3.58
  -3   5   6   24.84    3.69
  -3   5   6   30.56    4.22
  -3   5   5   50.35    5.04
  -3   5   5   45.46    5.02
  -3   5   4    2.32    2.04
  -3   5   4   -0.62    2.17
  -3   5   3   -0.57    1.87
  -3   5   3   -2.41    1.96
  -3   5   2    1.70    2.00
   3  -5  -2   -1.17    2.15
  -3   5   2   -0.59    2.08
  -3   5   1   43.12    4.66
  -3   5   1   48.65    4.86
   3  -5  -1   41.14    4.63
   3  -5   0   98.92    7.08
   3   5   0   98.74    6.64
  -3   5   0   92.34    6.92
  -3   5   0  101.42    7.06
   3  -5   1  497.13   20.24
   3   5   1  459.03   19.61
  -3   5  -1  430.03   19.51
  -3   5  -1  449.08   19.71
  -3   5  -2    1.09    1.96
   3  -5   2    4.04    2.47
   3  -5   2    3.97    2.22
   3   5   2    5.05    2.40
  -3   5  -3   41.40    4.45
  -3  -5  -3   44.54    5.08
   3  -5   3   44.04    4.59
   3   5   3   36.07    4.43
  -3   5  -4   31.36    3.90
  -3  -5  -4   38.95    4.72
   3  -5   4   38.56    4.37
   3   5   4   39.83    4.74
  -3   5  -5    3.68    2.22
  -3  -5  -5    8.31    3.28
   3  -5   5    1.74    1.90
   3   5   5    3.42    2.53
  -3  -5  -6    2.14    2.45
   3  -5   6    0.63    2.27
   3   5   6    2.89    2.55
  -3  -5  -7    2.99    2.70
   3  -5   7    3.94    2.58
   3   5   7    3.05    2.49
   3  -5   8   -0.69    2.53
   3   5   8    4.02    3.15
   3  -5   9    8.57    3.55
   3   5   9    2.54    2.61
   3  -5  10   34.20    5.47
   3   5  10   31.97    5.18
   3  -5  11   -0.94    3.63
   3   5  11    2.79    3.35
   3  -5  12   13.83    4.33
   3   5  12   17.37    4.36
   3  -5  13    4.12    4.04
   3   5  13    5.01    3.54
   3   6 -14    0.97    2.58
  -3   6  14   -0.83    2.69
   3   6 -13    0.94    2.50
  -3   6  13    2.39    2.37
   3   6 -12    0.90    2.60
   3   6 -11    1.74    2.60
   3   6 -10   35.33    4.99
  -3   6  10   28.56    4.37
  -3   6   9   -0.67    2.24
   3   6  -9    3.23    3.04
  -3   6   9    1.51    2.25
  -3   6   8    2.00    2.05
  -3   6   8    6.59    2.87
  -3   6   7   10.58    2.85
  -3   6   7   10.74    2.88
  -3   6   6    4.58    2.47
  -3   6   6    6.29    2.58
  -3   6   5   40.73    4.70
  -3   6   5   35.40    4.53
  -3   6   4   44.75    4.97
  -3   6   4   55.39    5.47
  -3   6   3   58.08    5.55
  -3   6   3   60.74    5.65
   3  -6  -2  145.51    9.50
  -3   6   2  156.25    9.38
  -3   6   2  145.31    9.21
   3  -6  -1  292.25   14.73
  -3   6   1  294.83   14.37
  -3   6   1  287.77   14.47
   3  -6   0   86.44    6.82
  -3   6   0   84.64    6.50
  -3   6   0   68.19    6.09
   3  -6   1  109.75    7.75
   3   6   1  103.58    7.07
  -3   6  -1   87.38    6.85
  -3   6  -1   91.83    6.99
  -3   6  -2   55.29    5.11
  -3   6  -2   65.13    5.62
   3  -6   2   44.27    5.12
   3   6   2   58.53    5.55
  -3   6  -3   35.12    4.07
  -3   6  -3   34.89    4.36
   3  -6   3   40.68    4.84
  -3  -6  -3   39.73    5.02
  -3   6  -4    5.90    2.07
  -3   6  -4    5.71    2.12
  -3  -6  -4   12.17    3.44
   3  -6   4    2.97    2.05
   3   6   4    7.46    2.82
  -3  -6  -5   22.74    4.06
   3   6   5   23.65    4.05
  -3  -6  -6   12.75    3.49
   3  -6   6   11.70    3.07
   3   6   6   14.36    3.65
  -3  -6  -7   12.45    3.56
   3  -6   7   11.45    3.28
   3   6   7   11.93    3.37
   3  -6   8   -5.21    2.92
   3   6   8   -0.84    2.73
   3  -6   9    0.77    2.92
   3   6   9    0.88    2.94
   3  -6   9    0.89    3.00
   3  -6  10   -2.80    3.52
   3   6  10   -2.75    3.23
   3  -6  11    0.97    3.35
   3   6  11    2.88    3.21
   3  -6  12    4.06    3.66
   3   6  12    8.99    3.99
   3   7 -13    8.83    3.62
  -3   7  13    5.87    3.10
   3   7 -12    7.61    3.28
   3   7 -11   57.24    6.59
   3   7 -10   53.49    6.27
  -3   7   9   33.22    4.74
  -3   7   9   23.47    4.32
  -3   7   8   13.96    3.37
  -3   7   8   13.43    3.47
  -3   7   7    4.38    2.58
  -3   7   7   13.00    3.39
  -3   7   6   10.11    3.35
  -3   7   6   10.44    3.05
  -3   7   5    4.28    2.75
  -3   7   5    8.74    2.69
  -3   7   4   11.98    3.24
  -3   7   4   18.41    3.76
  -3   7   3    6.94    2.62
   3  -7  -3    4.37    2.45
  -3   7   3   12.34    3.30
  -3   7   2    2.06    2.24
   3  -7  -2    2.13    2.19
  -3   7   2    6.63    2.50
  -3   7   1   14.18    3.14
   3  -7  -1    9.13    2.83
  -3   7   1   12.91    3.05
  -3   7   0   -1.99    2.34
   3  -7   0    0.70    2.14
  -3   7   0    0.62    1.92
  -3   7  -1    1.31    2.07
   3  -7   1   -0.70    2.08
  -3   7  -1    1.83    1.87
  -3   7  -2    7.69    2.72
   3  -7   2   10.59    2.94
  -3   7  -2   14.92    3.06
  -3   7  -3   -1.26    2.16
   3  -7   3    1.44    2.35
  -3  -7  -3    1.53    2.36
   3   7   3    0.68    2.49
  -3   7  -4   63.79    5.76
  -3  -7  -4   59.06    6.33
   3   7   4   69.30    6.55
  -3  -7  -5   11.59    3.60
   3   7   5   18.06    3.78
  -3  -7  -6   18.07    3.88
   3   7   6   22.95    4.52
  -3  -7  -7   10.53    3.21
   3  -7   7   13.13    3.69
   3   7   7   17.44    4.01
   3  -7   8   -0.80    2.75
   3   7   8    1.74    3.21
   3  -7   9   -1.65    3.05
   3   7   9    3.64    3.05
   3  -7  10    3.42    3.16
   3   7  10   10.44    4.07
   3  -7  11    1.76    3.18
   3   7  11   -0.99    3.04
   3   8 -12    4.98    3.16
   3   8 -11   36.76    5.75
  -3   8   9    1.61    2.31
  -3   8   8    0.80    2.83
  -3   8   8    0.84    2.50
  -3   8   7   -2.39    2.45
  -3   8   7   -0.82    2.44
  -3   8   6    0.79    2.36
  -3   8   6   -0.79    2.36
  -3   8   5   -0.78    2.33
  -3   8   5    3.09    2.37
  -3   8   4    4.64    2.73
  -3   8   4    5.25    2.71
  -3   8   3    0.76    2.27
   3  -8  -3    0.79    2.36
  -3   8   3   -1.47    2.39
  -3   8   2    4.50    2.58
   3  -8  -2    2.33    2.15
  -3   8   2    3.55    2.50
  -3   8   1    1.48    2.27
   3  -8  -1    0.77    2.36
  -3   8   1    0.69    2.69
  -3   8   0    6.52    2.79
   3  -8   0    0.76    2.19
  -3   8   0    1.99    2.10
  -3   8  -1    2.13    2.18
   3  -8   1    1.53    2.12
  -3   8  -1    1.93    1.98
  -3   8  -2   -0.69    2.13
   3  -8   2   -0.77    2.14
  -3   8  -3   -0.68    2.14
   3  -8   3    0.78    2.25
  -3  -8  -3   -0.81    2.63
   3  -8   4    6.41    2.89
  -3  -8  -4    1.59    2.60
  -3  -8  -5    1.62    2.78
   3   8   5    3.95    2.85
  -3  -8  -6    5.73    2.75
   3   8   6    4.97    3.25
  -3  -8  -7    4.19    3.03
   3   8   7    3.46    3.12
   3  -8   8    3.41    2.94
   3   8   8    9.03    3.61
   3  -8   9    0.88    3.17
   3   8   9    2.82    3.31
   3  -8  10   -0.90    3.26
   3   8  10   -1.96    3.01
  -3   9   9   25.07    4.54
  -3   9   8    6.89    3.25
  -3   9   7    0.86    2.56
  -3   9   7   -0.87    2.49
  -3   9   6    4.30    2.80
  -3   9   6   -2.53    2.67
  -3   9   5    6.80    3.08
  -3   9   5    6.54    3.02
  -3   9   4   45.39    5.76
  -3   9   4   37.99    5.09
  -3   9   3   -0.83    2.78
   3  -9  -3    6.85    3.09
  -3   9   3    5.39    3.24
  -3   9   2   -0.82    2.35
   3  -9  -2   -0.84    2.74
  -3   9   2   -1.50    2.31
  -3   9   1   -1.60    2.54
   3  -9  -1    2.50    2.22
  -3   9   1    2.19    2.38
  -3   9   0    1.57    2.56
   3  -9   0   -0.83    2.47
  -3   9  -1   14.58    3.57
   3  -9   1   13.28    3.41
  -3   9  -2    3.74    2.57
   3  -9   2    0.84    2.41
  -3  -9  -2    1.69    2.52
   3  -9   3    2.54    2.52
  -3  -9  -3    1.67    2.57
   3  -9   4   -0.86    2.29
  -3  -9  -4   -1.65    2.54
  -3  -9  -5    0.84    2.88
  -3  -9  -6    6.76    3.32
   3   9   6    7.77    3.64
  -3  -9  -7    6.90    3.12
   3   9   7    8.99    3.86
   3   9   8   -0.93    3.05
  -3  10   9   -0.92    2.65
  -3  10   8    6.48    3.63
  -3  10   7   -0.92    3.00
  -3  10   6    3.66    3.22
  -3  10   5    1.82    2.71
  -3  10   5    1.72    2.47
  -3  10   4   -0.91    3.04
  -3  10   4    3.34    2.80
  -3  10   3   -0.89    2.91
  -3  10   3   -0.81    2.33
  -3  10   2   -0.88    2.61
   3 -10  -2    1.81    2.60
  -3  10   1   -0.86    2.57
   3 -10  -1   -1.79    2.48
  -3  10   0   21.92    4.26
   3 -10   0   21.40    4.34
  -3  10  -1   14.82    3.78
   3 -10   1   16.03    4.14
  -3  10  -2   15.99    3.83
   3 -10   2   17.96    4.06
  -3 -10  -2   15.74    4.01
   3 -10   3    1.81    2.51
   3 -10   4    4.59    3.46
   3 -10   5    0.93    2.59
  -3  11   4   -0.95    2.64
  -3  11   3    2.84    3.17
  -3  11   2    1.86    3.28
   3 -11  -2   -0.96    2.86
  -3  11   1    0.92    2.99
   3 -11  -1    3.82    2.84
  -3  11   0    0.89    3.15
   3 -11   0    6.66    3.73
  -3  11  -1   -0.87    2.67
   3 -11   1   -0.95    3.01
   3 -11   2    9.54    3.68
  -4   0  15   -0.73    2.40
  -4   0  14   -0.70    2.45
  -4   0  13   -0.66    2.02
  -4   0  12   -0.62    2.01
  -4   0  11   -0.58    1.82
  -4   0  10   90.67    6.62
  -4   0   6   20.37    3.51
  -4   0   6   15.89    3.09
   4   0  -5   -0.56    1.65
   4   0  -4   -0.57    1.81
   4   0  -3    1.16    1.90
   4   0  -2  107.22    7.49
   4   0  -1    0.61    1.89
   4   0   0   64.94    5.94
  -4   0  -1    0.51    1.91
   4   0   1   -0.65    2.28
  -4   0  -2   17.21    3.11
   4   0   2   16.73    3.57
  -4   0  -3    2.16    1.99
   4   0   3   -0.69    2.20
  -4   0  -4   17.72    3.25
   4   0   4   15.86    3.37
   4   0   5   -0.75    2.56
   4   0   6    2.31    2.65
   4   0   7   -2.39    2.60
   4   0   8    4.11    2.61
   4   0   9   -0.85    2.61
   4   0  10   21.93    4.53
   4   0  11   -0.90    2.94
  -4  -1  15   -0.74    2.62
  -4   1  15    0.74    2.41
  -4  -1  14    0.70    2.29
  -4   1  14    2.10    2.09
  -4  -1  13    5.29    2.65
  -4   1  13    5.28    2.44
  -4   1  12   11.78    2.96
  -4   1  11    1.16    1.95
  -4   1  10    1.08    1.76
  -4   1   9   12.56    2.68
  -4   1   8  115.24    7.14
  -4   1   7  123.16    8.47
  -4   1   6   79.44    6.90
  -4   1   6   83.62    6.47
  -4   1   5   18.48    3.51
  -4   1   5   21.59    3.54
  -4   1   4   18.01    3.24
   4  -1  -4   21.89    3.62
   4   1  -4   24.41    3.51
  -4   1   3   -0.59    2.14
   4  -1  -3    0.61    1.87
   4   1  -3   -0.56    1.87
   4  -1  -2   25.29    3.76
   4   1  -2   24.41    3.59
   4  -1  -1  106.10    7.50
   4   1  -1   98.36    7.28
   4  -1   0    3.85    2.42
   4   1   0    2.47    2.07
  -4  -1  -1   23.02    3.77
   4  -1   1   13.19    3.26
   4   1   1   18.64    3.51
  -4  -1  -2   27.91    3.89
   4  -1   2   26.38    4.12
   4   1   2   22.11    3.91
  -4  -1  -3   31.63    4.23
   4  -1   3   29.79    4.46
   4   1   3   23.63    4.04
  -4  -1  -4   11.76    2.91
   4  -1   4    7.87    2.77
   4   1   4    9.36    3.05
  -4  -1  -5   -0.65    2.40
   4  -1   5   -1.48    2.54
   4   1   5    1.49    2.22
   4  -1   6    0.76    2.35
   4   1   6    0.77    2.79
   4  -1   7   15.84    3.59
   4   1   7   16.91    3.81
   4  -1   8   17.99    3.98
   4   1   8   22.54    4.40
   4  -1   9   -0.84    2.66
   4   1   9   -1.73    2.82
   4  -1  10    2.59    2.90
   4   1  10    8.06    3.16
   4   1  11    0.92    3.10
   4   1  12    4.74    2.92
  -4   2  15    5.23    2.70
  -4   2  14    7.83    2.85
  -4   2  13    0.67    2.00
  -4   2  12   20.32    3.65
  -4   2  11    7.76    2.69
  -4   2  10   -1.12    1.72
  -4   2   9    8.88    2.43
  -4   2   8   26.15    4.05
  -4   2   7   -1.19    1.99
  -4   2   7   -0.69    2.26
  -4   2   6    3.58    2.20
  -4   2   6    4.88    2.68
  -4   2   5    2.80    2.34
  -4   2   5   -1.19    1.94
  -4   2   4    3.44    2.49
  -4   2   4    7.87    2.38
   4  -2  -3  103.63    7.43
   4   2  -3   89.17    6.71
  -4   2   3   97.50    7.28
  -4   2   2   21.71    3.65
   4  -2  -2   17.27    3.32
   4   2  -2   15.79    3.24
  -4   2   1   14.06    3.21
   4  -2  -1    9.10    2.72
   4   2  -1   12.92    2.99
  -4   2   0   15.76    3.34
   4  -2   0   21.58    3.77
   4   2   0   14.10    3.07
  -4  -2  -1   40.06    4.85
   4  -2   1   33.92    4.45
   4   2   1   48.05    5.13
  -4  -2  -2  172.98   10.13
   4  -2   2  147.37    9.82
   4   2   2  167.18   10.19
  -4  -2  -3  198.04   11.53
   4  -2   3  213.69   12.01
   4   2   3  199.02   11.74
  -4  -2  -4   43.50    5.09
   4  -2   4   35.17    4.87
   4   2   4   41.85    5.20
  -4  -2  -5    7.66    3.01
   4  -2   5   14.71    3.37
   4   2   5   15.78    3.39
   4  -2   6   -1.51    2.39
   4   2   6    3.92    2.63
   4  -2   7    2.33    2.53
   4   2   7   -0.82    2.74
   4  -2   8    7.98    3.08
   4   2   8    8.54    3.22
   4  -2   8    4.86    2.99
   4  -2   9   12.70    3.88
   4  -2   9    9.01    3.59
   4   2   9   21.29    4.28
   4  -2  10    5.31    3.19
   4   2  10    0.92    2.83
   4  -2  11    1.84    3.47
   4   2  11    0.95    2.83
   4  -2  12   -0.96    3.29
   4   2  12   -0.98    2.81
  -4   3  14    9.51    2.89
   4   3 -13   -0.84    2.43
  -4   3  13   -1.39    2.45
   4   3 -12   26.24    4.43
  -4   3  12   18.45    3.55
   4   3 -11   13.48    3.61
  -4   3  11    2.49    1.98
  -4   3  10    5.88    2.27
  -4   3   9    2.21    2.34
  -4   3   8    4.40    2.71
  -4   3   7    1.24    2.03
  -4   3   7   -0.73    2.26
  -4   3   6   13.00    2.89
  -4   3   6   13.89    3.31
  -4   3   5   21.06    3.55
  -4   3   5   26.97    4.27
  -4   3   4   -0.72    2.22
  -4   3   4    3.09    2.12
  -4   3   3    4.25    2.44
  -4   3   3    5.53    2.50
  -4   3   2    2.47    1.96
   4  -3  -2    2.66    2.11
   4   3  -2    2.76    2.51
  -4   3   1   13.67    3.12
   4  -3  -1   10.72    2.80
   4   3  -1    9.92    2.79
  -4   3   0    1.24    2.08
   4  -3   0    2.04    2.45
   4   3   0    0.61    2.26
  -4   3  -1   33.98    4.45
  -4  -3  -1   46.91    5.33
   4  -3   1   35.58    4.66
   4   3   1   34.32    4.41
  -4   3  -2   57.48    5.41
  -4  -3  -2   48.06    5.57
   4  -3   2   42.79    5.32
   4   3   2   59.34    5.67
  -4   3  -3    6.40    2.62
  -4  -3  -3    7.68    3.19
   4  -3   3    9.12    2.91
   4   3   3    8.37    2.85
  -4   3  -4   42.99    4.86
  -4  -3  -4   50.29    5.71
   4  -3   4   42.41    5.21
   4   3   4   54.88    5.76
  -4   3  -5   17.38    3.42
  -4  -3  -5   19.96    3.70
   4  -3   5   25.08    4.06
   4   3   5   19.18    3.93
  -4   3  -6    5.16    2.33
  -4  -3  -6    3.86    2.91
   4  -3   6   -0.75    2.24
   4   3   6    2.41    2.39
   4  -3   7    5.38    2.78
   4   3   7   10.06    3.76
   4  -3   8    1.57    2.49
   4   3   8    1.75    2.77
   4   3   9   -0.91    3.12
   4  -3   9    1.77    2.80
   4  -3  10    1.84    3.16
   4   3  10   -0.94    3.47
   4  -3  11    5.73    3.60
   4   3  11    4.86    3.26
   4  -3  12    0.99    3.32
   4   4 -14   -4.62    2.93
  -4   4  14    0.76    2.26
   4   4 -13    5.41    3.10
  -4   4  13   -0.72    2.43
   4   4 -12    4.38    2.94
  -4   4  12   -0.69    2.19
   4   4 -11   -0.85    2.53
  -4   4  11   -1.98    2.38
  -4   4  10   -0.79    2.18
  -4   4   9   15.81    3.63
  -4   4   8    0.78    2.33
  -4   4   7   10.60    2.82
  -4   4   7   16.28    3.65
  -4   4   6   14.47    3.36
  -4   4   6   18.44    3.59
  -4   4   5   16.29    3.28
  -4   4   5   28.80    4.56
  -4   4   4   79.47    6.63
  -4   4   4   75.71    6.99
  -4   4   3   43.59    5.42
  -4   4   3   41.20    4.67
  -4   4   2   23.02    3.98
  -4   4   2   22.45    3.77
  -4   4   1   22.41    3.83
  -4   4   1   22.97    3.63
   4  -4  -1   15.32    3.24
  -4   4   0    6.98    2.31
   4  -4   0   11.79    2.94
   4   4   0   14.60    3.09
  -4   4  -1    5.06    2.33
   4  -4   1   -1.41    2.36
   4   4   1    6.41    2.61
  -4   4  -2   14.52    3.13
  -4  -4  -2    9.84    3.51
   4  -4   2    6.41    2.82
   4   4   2   14.88    3.39
  -4   4  -3   72.62    6.46
   4  -4   3   82.00    7.09
   4   4   3   79.22    6.98
  -4   4  -4    2.54    2.14
  -4  -4  -4    7.67    3.01
   4  -4   4    7.99    2.74
   4   4   4    6.01    2.95
  -4   4  -5   12.05    2.98
  -4  -4  -5   22.68    4.16
   4  -4   5   13.20    3.65
   4   4   5   24.35    4.30
  -4  -4  -6    8.09    3.24
   4  -4   6    2.23    2.98
   4   4   6    5.78    2.91
   4  -4   7   -2.28    2.34
   4   4   7   -0.86    2.48
   4   4   8   -0.90    3.09
   4   4   9   -3.74    3.37
   4   4  10    2.90    3.16
   4   4  11    4.00    3.35
   4  -4  11   -0.99    3.23
   4   5 -13    8.60    3.20
  -4   5  13    2.28    2.42
   4   5 -12    0.93    2.77
  -4   5  12    0.73    2.32
  -4   5  11    1.69    2.34
  -4   5  10    0.84    2.50
  -4   5   9    0.84    2.40
  -4   5   8   -0.71    2.25
  -4   5   8    0.83    2.86
  -4   5   7   38.15    4.72
  -4   5   7   31.91    4.93
  -4   5   6    7.02    2.66
  -4   5   6   12.86    3.40
  -4   5   5   10.45    3.09
  -4   5   5    9.47    3.23
  -4   5   4   37.22    4.87
  -4   5   4   37.20    5.14
  -4   5   3    3.40    2.51
  -4   5   3   -1.53    2.49
  -4   5   2    4.48    2.70
  -4   5   2    4.04    2.48
  -4   5   1   29.86    4.46
   4  -5  -1   34.97    4.62
  -4   5   1   28.73    4.17
  -4   5   0    0.71    2.49
  -4   5   0   -0.67    2.05
   4  -5   0   -3.39    2.33
  -4   5  -1    0.69    1.98
  -4   5  -1   -0.66    2.16
   4  -5   1    2.70    2.26
   4  -5   1   -1.45    2.50
   4   5   1   -1.97    2.01
  -4   5  -2    5.94    2.28
  -4  -5  -2    7.27    3.23
   4  -5   2    4.34    2.62
   4   5   2    5.56    2.46
  -4   5  -3    6.56    2.53
  -4  -5  -3   10.37    3.25
   4  -5   3    3.66    2.88
   4   5   3    9.55    3.15
  -4   5  -4    7.84    2.61
  -4  -5  -4    1.61    2.56
   4  -5   4    2.22    2.21
   4   5   4    3.88    2.60
  -4   5  -5   26.58    3.92
  -4  -5  -5   30.44    4.70
   4  -5   5   32.13    4.70
   4   5   5   27.69    4.62
  -4  -5  -6   10.13    3.68
   4   5   6    9.34    3.65
  -4  -5  -7    3.50    3.02
   4   5   7    6.23    3.14
   4   5   8    1.85    3.02
   4   5   9   13.44    4.07
   4   5  10   10.93    3.84
  -4   6  11    6.31    2.95
  -4   6  10   33.91    5.17
  -4   6   9   -0.88    2.53
  -4   6   8   17.54    3.75
  -4   6   8   13.97    3.65
  -4   6   7   19.68    3.86
  -4   6   7   14.63    3.96
  -4   6   6   29.29    4.46
  -4   6   6   26.91    4.44
  -4   6   5    4.47    2.50
  -4   6   5    2.46    2.68
  -4   6   4    8.11    3.07
  -4   6   4    9.66    3.11
  -4   6   3   -1.46    2.10
  -4   6   3   -1.56    2.25
  -4   6   2   18.08    3.72
  -4   6   2   13.06    3.48
  -4   6   1   13.58    3.30
   4  -6  -1   15.84    3.52
  -4   6   1   20.23    3.99
  -4   6   0   13.19    3.27
  -4   6   0   10.63    3.07
   4  -6   0   19.40    3.61
  -4   6  -1   10.73    3.13
  -4   6  -1   10.50    3.20
   4  -6   1    8.90    2.93
  -4   6  -2    0.70    2.27
  -4   6  -2    0.69    1.92
   4  -6   2    4.45    2.79
  -4  -6  -2    0.86    2.63
  -4   6  -3    1.36    2.09
  -4   6  -3    4.81    2.18
   4  -6   3   -1.50    2.30
  -4  -6  -3    5.90    3.17
   4  -6   3   -0.75    2.24
   4   6   3   -0.76    2.48
  -4   6  -4    2.03    2.02
  -4  -6  -4    3.40    2.92
   4  -6   4    3.77    2.25
   4   6   4    1.60    2.62
  -4  -6  -5   -0.86    2.73
   4   6   5   -0.84    2.68
  -4  -6  -6    0.88    2.79
   4   6   6    2.64    3.38
  -4  -6  -7    0.91    2.88
   4   6   7    2.74    2.98
   4   6   8    1.91    3.11
   4   6   9    2.96    3.39
  -4   7  11   -0.95    2.82
  -4   7  10   24.44    4.70
  -4   7   9   20.27    4.36
  -4   7   8    7.36    3.03
  -4   7   8    9.09    3.36
  -4   7   7    1.63    2.42
  -4   7   7   -1.79    2.84
  -4   7   6    0.81    2.40
  -4   7   6    2.64    2.70
  -4   7   5    7.17    2.88
  -4   7   5    4.28    2.95
  -4   7   4    0.79    2.50
  -4   7   4   -0.83    2.56
  -4   7   3    2.34    2.40
  -4   7   3    3.24    2.64
  -4   7   2   -0.77    2.22
  -4   7   2    1.58    2.28
  -4   7   1   -1.53    2.35
   4  -7  -1   -1.64    2.44
  -4   7   1   -1.54    2.14
  -4   7   0    6.05    2.97
   4  -7   0   12.96    3.37
  -4   7   0    6.78    2.79
  -4   7  -1   67.29    6.51
   4  -7   1   77.36    7.16
  -4   7  -1   70.63    6.69
  -4   7  -2    6.48    2.55
  -4   7  -2   11.07    3.07
   4  -7   2    6.43    2.91
  -4  -7  -2   10.79    3.73
  -4   7  -3   12.37    3.25
   4  -7   3   15.38    3.60
  -4  -7  -3   13.23    3.74
  -4   7  -4   -0.72    2.27
   4  -7   4    0.82    2.58
  -4  -7  -4   -2.66    2.97
   4   7   4    1.67    2.65
  -4  -7  -5   -1.79    3.01
   4   7   5   -1.74    2.92
  -4  -7  -6    5.46    2.98
   4   7   6   11.83    3.78
  -4  -7  -7    7.47    3.45
   4   7   7    7.54    3.70
   4   7   8    3.90    3.35
  -4   8   9   12.27    3.76
  -4   8   9    6.75    3.33
  -4   8   8   -2.63    2.69
  -4   8   8   -0.94    3.07
  -4   8   7    1.74    2.50
  -4   8   7    1.85    2.66
  -4   8   6    0.86    2.65
  -4   8   6    5.44    3.12
  -4   8   5   -2.56    2.37
  -4   8   5    0.89    2.82
  -4   8   4    0.84    2.51
  -4   8   4   -1.73    2.31
  -4   8   3    0.83    2.56
  -4   8   3    2.52    2.66
  -4   8   2   20.60    3.90
  -4   8   2   13.86    3.70
  -4   8   1   16.29    3.89
   4  -8  -1   21.99    4.51
  -4   8   1   10.30    3.20
  -4   8   0   94.00    8.12
   4  -8   0  105.36    8.70
  -4   8   0   90.42    7.79
  -4   8  -1   -1.58    2.58
   4  -8   1    1.73    2.67
  -4   8  -1   -1.50    2.16
  -4   8  -2   13.25    3.69
   4  -8   2   16.41    3.97
  -4  -8  -2   24.35    4.81
  -4   8  -3    0.76    2.20
   4  -8   3    0.87    2.31
  -4  -8  -3    0.92    2.91
   4  -8   4    0.87    2.60
  -4  -8  -4   -2.76    3.00
   4  -8   5   -0.88    2.53
  -4  -8  -5    1.86    2.76
   4  -8   6    3.56    3.29
  -4  -8  -6    2.81    2.97
   4   8   6    5.61    3.45
   4   8   7   -0.97    2.99
  -4   9   8   -3.70    2.94
  -4   9   7    0.92    3.09
  -4   9   7    7.65    3.45
  -4   9   6   -7.34    3.08
  -4   9   6   -0.93    3.12
  -4   9   5    2.72    2.71
  -4   9   5   11.86    3.58
  -4   9   4    2.70    2.93
  -4   9   4   -0.89    2.83
  -4   9   3    5.33    3.21
  -4   9   3    1.74    2.51
  -4   9   2    0.88    2.70
  -4   9   2    4.22    2.76
  -4   9   1    7.79    3.40
   4  -9  -1    4.68    2.97
  -4   9   1    4.91    2.89
  -4   9   0    4.26    3.07
   4  -9   0    0.93    2.94
  -4   9  -1    3.35    2.66
   4  -9   1    0.92    2.84
  -4   9  -2    0.82    2.82
   4  -9   2   -0.92    2.83
  -4  -9  -2   -0.97    3.07
   4  -9   3    0.92    2.65
  -4  -9  -3    2.84    3.17
   4  -9   4    1.85    2.57
  -4  -9  -4   -2.84    3.09
   4  -9   5    2.79    2.77
  -4  10   3    0.89    2.64
  -4  10   2    7.78    2.91
  -5   0   5    6.08    2.69
   5   0  -4    2.18    2.56
   5   0  -3   16.36    3.42
   5   0  -2    2.27    2.54
   5   0  -1    1.54    2.43
   5   0   0    1.58    2.65
   5   0   1   66.67    6.92
   5   0   2    4.17    2.80
   5   0   3  198.24   12.61
   5   0   4   -0.88    2.78
   5   0   5    9.01    3.33
   5   0   6   -0.93    3.19
   5   0   7   -0.95    2.83
   5   0   8    0.98    2.60
   5   0   9    9.97    3.69
  -5   1   6   45.36    5.90
  -5   1   6   53.71    5.86
  -5   1   5   -2.50    2.48
  -5   1   5   -0.76    2.20
  -5   1   4   -0.77    2.30
   5  -1  -4    1.52    2.18
  -5   1   3    0.76    2.62
   5  -1  -3    3.08    2.13
   5   1  -3   -0.72    2.20
  -5   1   2   -3.78    2.66
   5  -1  -2   -0.78    2.41
   5   1  -2    1.46    2.31
   5  -1  -1   -0.79    2.11
   5   1  -1   -3.79    2.26
   5  -1   0   -0.80    2.47
   5   1   0   -1.56    2.55
   5  -1   1   35.30    5.06
   5   1   1   42.48    5.45
   5  -1   2   -2.53    2.75
   5   1   2    1.65    2.76
   5  -1   3    3.44    2.96
   5   1   3    0.85    2.78
   5  -1   4   24.63    4.54
   5   1   4   19.40    4.19
   5  -1   5    4.51    3.03
   5   1   5    7.28    3.13
   5  -1   6    2.76    3.09
   5   1   6    5.64    3.31
   5  -1   7   -0.94    2.79
   5   1   7    1.93    2.78
   5  -1   8    2.87    2.95
   5   1   8    2.97    2.85
   5  -1   9   -0.97    3.00
  -5   2   7   29.00    4.78
  -5   2   6   20.38    4.26
  -5   2   6   22.50    3.89
  -5   2   5   13.20    3.65
  -5   2   5    5.98    2.45
  -5   2   4   28.51    4.81
  -5   2   4   19.58    3.87
  -5   2   3   73.40    6.65
   5  -2  -3   56.60    6.26
  -5   2   2    1.53    2.50
   5  -2  -2   -1.61    2.32
   5   2  -2   -0.72    2.28
  -5   2   1    0.78    2.31
   5  -2  -1    3.27    2.74
   5   2  -1    1.48    2.49
  -5   2   0    4.59    2.71
   5  -2   0    8.26    3.12
   5   2   0   14.60    3.46
  -5   2  -1    6.13    3.00
   5  -2   1    0.83    2.63
   5   2   1    3.18    2.52
  -5   2  -2   31.48    4.47
  -5  -2  -2   19.81    4.04
   5  -2   2   27.81    4.63
   5   2   2   36.31    5.27
  -5   2  -3    8.40    3.18
  -5  -2  -3   10.81    3.27
   5  -2   3    7.76    3.13
   5   2   3   11.99    3.50
  -5   2  -4    2.30    2.50
  -5  -2  -4   -0.79    2.66
   5   2   4    1.78    2.90
  -5   2  -5    3.85    2.58
  -5  -2  -5   -0.82    2.44
   5  -2   5    0.90    2.77
   5   2   5   -1.84    3.08
  -5   2  -6   -0.77    2.44
   5  -2   6    4.58    3.45
   5   2   6    0.95    2.73
   5  -2   7    2.80    3.04
   5   2   7    5.83    3.51
   5  -2   8    0.95    2.72
   5   2   8    3.00    3.26
   5  -2   9   -2.88    2.76
  -5   3   8    1.84    2.64
  -5   3   7    9.16    3.53
  -5   3   6   -0.76    2.20
  -5   3   6    0.92    2.99
  -5   3   5    2.75    2.90
  -5   3   5    0.76    2.35
  -5   3   4   -0.90    2.77
  -5   3   4    2.28    2.18
  -5   3   3    0.88    2.79
  -5   3   3    6.04    2.60
  -5   3   2   -1.50    2.24
   5  -3  -2    4.99    3.13
  -5   3   1   34.77    4.94
   5  -3  -1   46.47    5.72
  -5   3   0    2.28    2.19
  -5  -3   0   -0.83    2.93
   5  -3   0    1.69    2.51
   5   3   0    3.05    2.49
  -5   3  -1    2.28    2.26
  -5  -3  -1   -2.44    3.00
   5  -3   1   -0.85    2.37
   5   3   1    1.59    2.37
  -5   3  -2   -1.54    2.14
  -5  -3  -2    2.45    2.94
   5  -3   2   -0.86    2.56
   5   3   2   -0.83    2.71
  -5   3  -3   -0.77    2.30
  -5  -3  -3    1.65    2.91
   5  -3   3    1.74    2.76
   5   3   3    0.86    2.48
  -5   3  -4   -1.55    2.38
  -5  -3  -4    2.52    2.66
   5  -3   4    1.75    2.61
   5   3   4    1.78    2.74
  -5   3  -5    6.18    2.86
  -5  -3  -5    7.76    3.12
   5   3   5    1.85    2.76
  -5   3  -6    3.08    2.30
   5  -3   6    2.72    2.79
   5   3   6    3.79    2.92
   5  -3   7    7.34    3.24
   5   3   7    3.91    3.28
   5  -3   8   -2.80    3.04
  -5   4  11    9.13    2.98
  -5   4   9    3.84    2.77
  -5   4   8    0.96    2.94
  -5   4   7    0.79    2.20
  -5   4   7    0.96    2.65
  -5   4   6    0.79    2.50
  -5   4   6    1.90    2.63
  -5   4   5    2.34    2.54
  -5   4   5    0.94    2.79
  -5   4   4    2.79    2.94
  -5   4   4   -0.77    2.15
  -5   4   3   13.63    3.65
  -5   4   3   10.03    3.22
  -5   4   2    9.73    3.49
  -5   4   2   13.08    3.26
  -5   4   1    4.31    2.89
  -5   4   1   -1.53    2.35
   5  -4  -1    3.44    2.56
  -5   4   0   -2.28    2.41
  -5  -4   0    0.88    2.54
   5  -4   0   -4.32    2.97
  -5   4  -1    2.27    2.10
  -5  -4  -1    0.87    2.59
   5  -4   1   -0.86    2.29
   5   4   1    1.60    2.22
  -5   4  -2   -0.76    2.25
  -5  -4  -2   -2.59    2.82
   5  -4   2    2.62    2.51
   5   4   2   -1.67    2.49
  -5   4  -3   -0.75    2.17
  -5  -4  -3    0.88    2.69
   5  -4   3    6.18    3.26
   5   4   3    1.74    2.91
  -5   4  -4    3.01    2.59
  -5  -4  -4    2.65    2.89
   5  -4   4    4.44    2.56
   5   4   4    2.69    2.67
  -5   4  -5   -0.75    2.58
  -5  -4  -5    1.80    2.59
   5  -4   5   -1.79    2.84
   5   4   5    6.51    3.43
  -5  -4  -6   -0.93    3.03
   5  -4   6   -0.90    2.94
   5   4   6   -0.96    3.04
   5  -4   7    0.90    2.51
   5   4   7    2.96    3.04
  -5   5  10   22.93    4.72
  -5   5   9   17.08    4.79
  -5   5   8   -2.00    3.25
  -5   5   7    1.65    2.70
  -5   5   7   -0.99    2.83
  -5   5   6   -0.82    2.44
  -5   5   6    1.95    2.71
  -5   5   5    3.25    2.65
  -5   5   5    0.95    2.65
  -5   5   4    1.60    2.22
  -5   5   4    1.89    2.81
  -5   5   3    1.59    2.37
  -5   5   3   -0.92    2.56
  -5   5   2   -0.91    2.79
  -5   5   2   -1.57    2.18
  -5   5   1    0.88    2.54
  -5   5   1   -3.13    2.48
  -5   5   0   -2.57    2.38
  -5   5   0   -0.78    2.16
  -5   5  -1    0.84    2.41
  -5   5  -1    3.88    2.74
  -5  -5  -1    7.43    3.57
   5  -5   1    4.43    2.81
  -5   5  -2    1.54    2.22
  -5  -5  -2   -0.91    3.05
   5  -5   2   -1.77    3.12
  -5   5  -3    3.07    2.70
  -5  -5  -3   -3.66    3.23
   5  -5   3    3.53    3.03
   5   5   3    0.88    2.52
  -5   5  -4    1.53    2.20
  -5  -5  -4   -0.92    3.02
   5  -5   4   -0.89    2.66
   5   5   4   -0.91    3.05
  -5  -5  -5    0.94    2.97
   5  -5   5    0.90    2.48
   5   5   5    0.94    2.89
  -5  -5  -6   -0.96    2.96
   5   5   6   -0.97    2.69
  -5   6   9    4.15    3.38
  -5   6   8    1.03    3.17
  -5   6   7   -1.72    2.73
  -5   6   7    2.03    3.02
  -5   6   6   -0.85    2.37
  -5   6   6   -1.99    3.15
  -5   6   5    2.54    2.76
  -5   6   5    7.84    3.45
  -5   6   4    0.84    2.50
  -5   6   4    2.86    3.36
  -5   6   3    0.83    2.30
  -5   6   3   -0.93    2.59
  -5   6   2    5.75    3.10
  -5   6   2    1.82    2.62
  -5   6   1   -0.82    2.26
  -5   6   1    0.90    2.85
  -5   6   0   11.37    3.44
  -5   6   0    5.64    3.05
  -5   6  -1    2.40    2.69
  -5  -6  -1    6.82    3.68
  -5   6  -2    2.49    2.78
  -5   6  -2    0.79    2.35
  -5  -6  -2    0.95    2.84
  -5   6  -3    2.43    2.64
  -5   6  -3    2.35    2.17
  -5  -6  -3    8.59    4.02
  -5   6  -4    3.96    2.51
  -5   6  -4    3.10    2.31
  -5  -6  -4   -0.96    2.96
   5  -6   4    4.50    2.85
   5   6   5    7.67    3.39
  -5   7   7    0.90    3.00
  -5   7   6   15.13    3.84
  -5   7   6   14.22    4.44
  -5   7   5    1.76    2.88
  -5   7   5   -0.99    2.85
  -5   7   4    0.87    2.51
  -5   7   4   -0.97    2.78
  -5   7   3    1.73    2.49
  -5   7   3    6.61    3.33
  -5   7   2    0.86    2.46
  -5   7   2    3.67    2.91
  -5   7   1   -0.85    2.69
  -5   7   1   -0.90    2.57
  -5   7   0    8.41    3.24
  -5   7   0    0.87    2.69
  -5   7  -1    0.83    2.71
  -5  -7  -1    6.07    3.21
  -5   7  -1   -1.71    2.27
  -5   7  -2   -3.35    2.32
  -5   7  -2    0.82    2.53
  -5  -7  -2    4.94    3.40
  -5   7  -3   -2.44    2.26
  -6   0   4   45.07    6.15
  -6   0   3    3.65    2.80
   6   0  -3   -0.88    2.61
  -6   0   2   10.87    3.27
   6   0  -2   -0.90    2.58
   6   0  -1    0.91    2.89
   6   0   0    0.92    2.66
   6   0   1    5.65    3.08
   6   0   2   44.48    6.17
  -6   1   5   -0.89    2.81
  -6   1   4   -1.91    2.93
  -6   1   4   -0.89    2.66
   6  -1  -4   -1.79    2.66
  -6   1   3    3.63    2.97
   6  -1  -3    2.72    2.70
  -6   1   2    4.61    2.93
   6  -1  -2    6.44    3.24
  -6   1   1    4.55    2.97
   6  -1  -1    5.62    2.88
   6   1  -1    0.89    2.64
  -6   1   0    3.65    2.71
   6  -1   0   -1.90    2.83
   6   1   0    6.35    3.20
  -6   1  -1    7.24    3.19
   6  -1   1    3.85    3.39
   6   1   1    3.75    3.30
  -6   1  -2   -0.91    2.70
   6  -1   2    0.97    2.80
   6   1   2   -2.90    2.87
  -6   2   5    2.03    3.02
  -6   2   5    0.88    2.88
  -6   2   4    1.00    2.87
  -6   2   4    0.88    2.79
  -6   2   3    0.98    2.83
  -6   2   3    4.43    3.05
   6  -2  -3   -0.94    2.88
  -6   2   2   -2.68    2.91
   6  -2  -2   -0.95    2.52
  -6   2   1    1.78    2.82
   6  -2  -1   -0.95    3.00
  -6   2   0   -1.81    2.69
   6  -2   0    3.88    3.07
   6   2   0    0.90    2.41
  -6   2  -1    1.81    2.51
   6  -2   1    7.83    3.69
   6   2   1    7.45    3.20
   6   2   2   15.31    4.06
  -6   3   6    5.27    3.25
  -6   3   5    3.55    2.98
  -6   3   5    5.22    3.41
  -6   3   4    1.04    3.19
  -6   3   4    2.66    2.64
  -6   3   3    1.02    2.71
  -6   3   3    0.88    2.35
  -6   3   2   -1.00    2.66
  -6   3   2   -2.63    2.70
  -6   3   1   -1.75    3.00
   6  -3  -1   -0.98    3.09
   0   0   0    0.00    0.00



TITL 2,4,6_az_298K in P2(1)/n
REM P2(1)/n (#14 in standard setting)
CELL 0.71073   4.486960   9.365229  13.171602  90.0000  97.2704  90.0000
ZERR   10.00   0.000321   0.000617   0.000847   0.0000   0.0063   0.0000
LATT  1
SYMM -x+1/2, y+1/2,-z+1/2
SFAC C H N F
UNIT 10.00 10.00 10.00 10.00
TREF
HKLF 4
END
_computing_structure_solution     'SHELXT 2014/5 (Sheldrick, 2014)'
_computing_structure_solution     'SHELXT 2014/5 (Sheldrick, 2014)'
;
_shelx_hkl_checksum              29523
_olex2_submission_special_instructions 'No special instructions were received'
_oxdiff_exptl_absorpt_empirical_details
;
Empirical correction (ABSPACK) includes:
- Absorption correction using spherical harmonics
- Frame scaling
;
_oxdiff_exptl_absorpt_empirical_full_max 1.151
_oxdiff_exptl_absorpt_empirical_full_min 0.720
loop_
_space_group_symop_operation_xyz
'x, y, z'
'-x+1/2, y+1/2, -z+1/2'
'-x, -y, -z'
'x-1/2, -y-1/2, z-1/2'
loop_
_atom_site_label
_atom_site_type_symbol
_atom_site_fract_x
_atom_site_fract_y
_atom_site_fract_z
_atom_site_U_iso_or_equiv
_atom_site_adp_type
_atom_site_occupancy
_atom_site_site_symmetry_order
_atom_site_calc_flag
_atom_site_refinement_flags_posn
_atom_site_refinement_flags_adp
_atom_site_refinement_flags_occupancy
_atom_site_disorder_assembly
_atom_site_disorder_group
F001 F 0.3676(3) 0.31724(14) 0.62408(8) 0.0634(4) Uani 1 1 d . . . . .
F002 F 0.1650(3) 0.42580(13) 0.27048(9) 0.0650(4) Uani 1 1 d . . . . .
F003 F 0.8326(3) 0.05644(12) 0.38425(11) 0.0654(4) Uani 1 1 d . . . . .
N004 N 0.0426(4) 0.49321(18) 0.45692(12) 0.0437(4) Uani 1 1 d . . . . .
C005 C 0.2456(4) 0.37696(19) 0.44786(13) 0.0356(4) Uani 1 1 d . . . . .
C006 C 0.4004(4) 0.2923(2) 0.52480(14) 0.0399(5) Uani 1 1 d . . . . .
C007 C 0.3068(4) 0.3468(2) 0.34798(14) 0.0414(5) Uani 1 1 d . . . . .
C008 C 0.5981(4) 0.18471(19) 0.50590(15) 0.0438(5) Uani 1 1 d . . . . .
H008 H 0.698287 0.130414 0.558675 0.053 Uiso 1 1 calc R U . . .
C009 C 0.6394(4) 0.16181(19) 0.40491(16) 0.0443(5) Uani 1 1 d . . . . .
C00A C 0.4974(4) 0.2400(2) 0.32430(15) 0.0471(5) Uani 1 1 d . . . . .
H00A H 0.528766 0.221489 0.257094 0.057 Uiso 1 1 calc R U . . .
loop_
_atom_site_aniso_label
_atom_site_aniso_U_11
_atom_site_aniso_U_22
_atom_site_aniso_U_33
_atom_site_aniso_U_23
_atom_site_aniso_U_13
_atom_site_aniso_U_12
F001 0.0808(9) 0.0727(9) 0.0395(7) 0.0053(6) 0.0181(6) 0.0198(7)
F002 0.0830(10) 0.0701(9) 0.0415(7) 0.0049(6) 0.0065(6) 0.0248(7)
F003 0.0610(8) 0.0547(8) 0.0825(10) -0.0116(7) 0.0169(7) 0.0197(6)
N004 0.0455(9) 0.0433(9) 0.0435(9) -0.0042(8) 0.0108(7) 0.0009(7)
C005 0.0329(9) 0.0338(9) 0.0412(10) -0.0044(8) 0.0085(7) -0.0033(7)
C006 0.0433(10) 0.0410(10) 0.0371(9) -0.0018(8) 0.0117(8) -0.0051(8)
C007 0.0444(10) 0.0420(11) 0.0376(10) 0.0008(9) 0.0048(8) 0.0010(8)
C008 0.0455(11) 0.0388(10) 0.0472(11) 0.0053(9) 0.0059(9) -0.0005(8)
C009 0.0390(10) 0.0358(10) 0.0600(12) -0.0077(9) 0.0133(9) 0.0018(8)
C00A 0.0524(11) 0.0475(12) 0.0434(11) -0.0091(9) 0.0141(9) 0.0019(9)
loop_
_atom_type_symbol
_atom_type_description
_atom_type_scat_dispersion_real
_atom_type_scat_dispersion_imag
_atom_type_scat_source
C C 0.0033 0.0016 'International Tables Vol C Tables 4.2.6.8 and 6.1.1.4'
H H 0.0000 0.0000 'International Tables Vol C Tables 4.2.6.8 and 6.1.1.4'
F F 0.0171 0.0103 'International Tables Vol C Tables 4.2.6.8 and 6.1.1.4'
N N 0.0061 0.0033 'International Tables Vol C Tables 4.2.6.8 and 6.1.1.4'
loop_
_geom_angle_atom_site_label_1
_geom_angle_atom_site_label_2
_geom_angle_atom_site_label_3
_geom_angle
_geom_angle_site_symmetry_1
_geom_angle_site_symmetry_3
_geom_angle_publ_flag
N004 N004 C005 115.1(2) 3_566 . ?
C006 C005 N004 129.18(17) . . ?
C006 C005 C007 115.19(16) . . ?
C007 C005 N004 115.58(15) . . ?
F001 C006 C005 119.78(17) . . ?
F001 C006 C008 116.68(17) . . ?
C008 C006 C005 123.50(17) . . ?
F002 C007 C005 117.83(16) . . ?
F002 C007 C00A 118.21(17) . . ?
C00A C007 C005 123.94(17) . . ?
C006 C008 H008 121.6 . . ?
C009 C008 C006 116.90(18) . . ?
C009 C008 H008 121.6 . . ?
F003 C009 C008 118.05(18) . . ?
F003 C009 C00A 118.32(19) . . ?
C00A C009 C008 123.63(18) . . ?
C007 C00A C009 116.82(18) . . ?
C007 C00A H00A 121.6 . . ?
C009 C00A H00A 121.6 . . ?
loop_
_geom_bond_atom_site_label_1
_geom_bond_atom_site_label_2
_geom_bond_distance
_geom_bond_site_symmetry_2
_geom_bond_publ_flag
F001 C006 1.355(2) . ?
F002 C007 1.353(2) . ?
F003 C009 1.364(2) . ?
N004 N004 1.249(3) 3_566 ?
N004 C005 1.434(2) . ?
C005 C006 1.400(2) . ?
C005 C007 1.406(2) . ?
C006 C008 1.386(2) . ?
C007 C00A 1.377(3) . ?
C008 H008 0.9300 . ?
C008 C009 1.383(3) . ?
C009 C00A 1.378(3) . ?
C00A H00A 0.9300 . ?
loop_
_geom_torsion_atom_site_label_1
_geom_torsion_atom_site_label_2
_geom_torsion_atom_site_label_3
_geom_torsion_atom_site_label_4
_geom_torsion
_geom_torsion_site_symmetry_1
_geom_torsion_site_symmetry_2
_geom_torsion_site_symmetry_3
_geom_torsion_site_symmetry_4
_geom_torsion_publ_flag
F001 C006 C008 C009 -178.05(15) . . . . ?
F002 C007 C00A C009 179.72(16) . . . . ?
F003 C009 C00A C007 -179.18(16) . . . . ?
N004 N004 C005 C006 -12.0(3) 3_566 . . . ?
N004 N004 C005 C007 170.6(2) 3_566 . . . ?
N004 C005 C006 F001 -0.5(3) . . . . ?
N004 C005 C006 C008 -178.20(16) . . . . ?
N004 C005 C007 F002 -1.8(2) . . . . ?
N004 C005 C007 C00A 179.54(17) . . . . ?
C005 C006 C008 C009 -0.2(3) . . . . ?
C005 C007 C00A C009 -1.6(3) . . . . ?
C006 C005 C007 F002 -179.61(16) . . . . ?
C006 C005 C007 C00A 1.7(3) . . . . ?
C006 C008 C009 F003 -179.94(15) . . . . ?
C006 C008 C009 C00A 0.4(3) . . . . ?
C007 C005 C006 F001 177.00(15) . . . . ?
C007 C005 C006 C008 -0.7(3) . . . . ?
C008 C009 C00A C007 0.5(3) . . . . ?
