#------------------------------------------------------------------------------
#$Date: 2022-03-02 05:20:08 +0200 (Wed, 02 Mar 2022) $
#$Revision: 273207 $
#$URL: file:///home/coder/svn-repositories/cod/cif/1/56/64/1566432.cif $
#------------------------------------------------------------------------------
#
# This file is available in the Crystallography Open Database (COD),
# http://www.crystallography.net/. The original data for this entry
# were provided by IUCr Journals, http://journals.iucr.org/.
#
# The file may be used within the scientific community so long as
# proper attribution is given to the journal article from which the
# data were obtained.
#
data_1566432
loop_
_publ_author_name
'Ruth, Paul Niklas'
'Herbst-Irmer, Regine'
'Stalke, Dietmar'
_publ_section_title
;
 Hirshfeld atom refinement based on projector augmented wave densities
 with periodic boundary conditions
;
_journal_issue                   2
_journal_name_full               IUCrJ
_journal_page_first              286
_journal_page_last               297
_journal_paper_doi               10.1107/S2052252522001385
_journal_volume                  9
_journal_year                    2022
_chemical_absolute_configuration unk
_chemical_formula_moiety         'C3 H7 N O2'
_chemical_formula_sum            'C3 H7 N O2'
_chemical_formula_weight         89.095
_space_group_crystal_system      orthorhombic
_space_group_IT_number           19
_space_group_name_Hall           'P 2ac 2ab'
_space_group_name_H-M_alt        'P 21 21 21'
_symmetry_Int_Tables_number      19
_audit_creation_date             2021-10-19
_audit_creation_method
;
Olex2 1.5
(compiled 2021.10.07 svn.r9718050b for OlexSys, GUI svn.r6410)
;
_cell_angle_alpha                90
_cell_angle_beta                 90
_cell_angle_gamma                90
_cell_formula_units_Z            4
_cell_length_a                   5.9279(10)
_cell_length_b                   12.2597(17)
_cell_length_c                   5.7939(9)
_cell_measurement_reflns_used    1524
_cell_measurement_temperature    23.15
_cell_measurement_theta_max      22.5
_cell_measurement_theta_min      15.0
_cell_volume                     421.07(11)
_computing_molecular_graphics    'Olex2 1.5 (Dolomanov et al., 2009)'
_computing_publication_material  'Olex2 1.5 (Dolomanov et al., 2009)'
_computing_structure_refinement  'olex2.refine 1.5 (Bourhis et al., 2015)'
_diffrn_ambient_temperature      23
_diffrn_measured_fraction_theta_full 0.9937
_diffrn_measured_fraction_theta_max 0.9933
_diffrn_measurement_device_type  'P-1 four circle diffractometer'
_diffrn_measurement_method       'area detector'
_diffrn_radiation_type           'Mo K\a'
_diffrn_radiation_wavelength     0.71073
_diffrn_reflns_av_unetI/netI     0.0242
_diffrn_reflns_Laue_measured_fraction_full 0.9937
_diffrn_reflns_Laue_measured_fraction_max 0.9933
_diffrn_reflns_limit_h_max       12
_diffrn_reflns_limit_h_min       0
_diffrn_reflns_limit_k_max       26
_diffrn_reflns_limit_k_min       0
_diffrn_reflns_limit_l_max       12
_diffrn_reflns_limit_l_min       0
_diffrn_reflns_number            2519
_diffrn_reflns_point_group_measured_fraction_full 0.9937
_diffrn_reflns_point_group_measured_fraction_max 0.9933
_diffrn_reflns_theta_full        25.2417
_diffrn_reflns_theta_max         50.14
_diffrn_reflns_theta_min         3.32
_exptl_absorpt_coefficient_mu    0.117
_exptl_absorpt_correction_type   none
_exptl_crystal_colour            colorless
_exptl_crystal_density_diffrn    1.405
_exptl_crystal_density_method    'not measured'
_exptl_crystal_description       sphere
_exptl_crystal_F_000             192.122
_exptl_crystal_size_rad          0.18
_refine_diff_density_max         0.1816
_refine_diff_density_min         -0.2065
_refine_diff_density_rms         0.0437
_refine_ls_d_res_high            0.4630
_refine_ls_d_res_low             6.1299
_refine_ls_goodness_of_fit_ref   1.1517
_refine_ls_hydrogen_treatment    refall
_refine_ls_matrix_type           full
_refine_ls_number_constraints    0
_refine_ls_number_parameters     118
_refine_ls_number_reflns         2519
_refine_ls_number_restraints     0
_refine_ls_restrained_S_all      1.1517
_refine_ls_R_factor_all          0.0209
_refine_ls_R_factor_gt           0.0191
_refine_ls_shift/su_max          0.0002
_refine_ls_shift/su_mean         0.0000
_refine_ls_structure_factor_coef Fsqd
_refine_ls_weighting_details
'w=1/[\s^2^(Fo^2^)+(0.0000P)^2^] where P=(Fo^2^+2Fc^2^)/3'
_refine_ls_weighting_scheme      calc
_refine_ls_wR_factor_gt          0.0321
_refine_ls_wR_factor_ref         0.0324
_reflns_Friedel_coverage         0.0
_reflns_limit_h_max              12
_reflns_limit_h_min              0
_reflns_limit_k_max              26
_reflns_limit_k_min              0
_reflns_limit_l_max              12
_reflns_limit_l_min              0
_reflns_number_gt                2393
_reflns_number_total             2519
_reflns_threshold_expression     I>=2u(I)
_iucr_refine_instructions_details
;
TITL L-Ala_23K_P 21 21 21 R = 0.03
CELL 0.71073 5.9279 12.2597 5.7939 90 90 90
ZERR 4 0.001 0.0017 0.0009 0 0 0
LATT -1
SYMM 0.5-X,-Y,0.5+Z
SYMM 0.5+X,0.5-Y,-Z
SYMM -X,0.5+Y,0.5-Z
SFAC C H N O
UNIT 12 28 4 8

L.S. 100
PLAN  -20
TEMP -250
CONF
LIST 6
ACTA 
FMAP 2
BOND $H
MORE -1
WGHT 0
FVAR 1.350697
REM <olex2.extras>
REM <HklSrc "%.\\pbe.hkl">
REM </olex2.extras>

O1    4     0.72676  0.08378  0.62427  11.00000  0.00668  0.00706  0.00593 =
 0.00053 -0.00064  0.00245 
O2    4     0.44091  0.18404  0.76112  11.00000  0.00755  0.00762  0.00392 =
 -0.00056  0.00060  0.00211 
N1    3     0.64729  0.13751  0.18294  11.00000  0.00556  0.00610  0.00424 =
 -0.00016  0.00067  0.00012 
H1    2     0.70440  0.06059  0.19813  11.00000  0.02491  0.02715  0.01767 =
 0.00261  0.01279  0.00486 
H2    2     0.77847  0.18951  0.21145  11.00000  0.01322  0.02791  0.02152 =
 -0.00000  0.00698  0.00273 
H3    2     0.58379  0.14919  0.01642  11.00000  0.03642  0.02152  0.02554 =
 -0.01163  0.02671 -0.00901 
C1    1     0.46630  0.16109  0.35442  11.00000  0.00519  0.00473  0.00352 =
 0.00009 -0.00044  0.00044 
H4    2     0.42252  0.24729  0.34320  11.00000  0.02252  0.01227  0.01777 =
 -0.00117  0.00423  0.00814 
C2    1     0.25987  0.09069  0.30332  11.00000  0.00582  0.00887  0.00614 =
 -0.00047 -0.00059 -0.00132 
H5    2     0.19209  0.11034  0.13150  11.00000  0.01929  0.04801  0.01548 =
 0.01054 -0.01083 -0.00983 
H6    2     0.12780  0.10559  0.43148  11.00000  0.01057  0.03028  0.03260 =
 0.00397  0.00787 -0.00253 
H7    2     0.30413  0.00447  0.30818  11.00000  0.03179  0.01530  0.04788 =
 -0.00469  0.00064 -0.00379 
C3    1     0.55403  0.14080  0.59985  11.00000  0.00487  0.00426  0.00356 =
 -0.00003 -0.00019  0.00023 
HKLF 4

END
Q1 1 0.388889 0.152778 0.71875 11 0.05 0.18
Q2 1 0.638889 0.125 0.625 11 0.05 0.17
Q3 1 0.194444 0.041667 0.09375 11 0.05 0.17
Q4 1 0.5 0.138889 0.53125 11 0.05 0.16
Q5 1 0.75 0.138889 0.21875 11 0.05 0.16

  REM The information below was added by Olex2.
  REM
  REM R1 = 0.0191 for 2393 Fo > 4sig(Fo) and 0.0209 for all 2519 data
  REM 118 parameters refined using 0 restraints
  REM Highest difference peak 0.1816, deepest hole -0.2065
  REM Mean Shift 0.0000, Max Shift 0.0002.

  REM +++ Tabular Listing of Refinement Information +++
  REM R1_all = 0.0209
  REM R1_gt = 0.0191
  REM wR_ref = 0.0324
  REM GOOF = 1.1517
  REM Shift_max = 0.0002
  REM Shift_mean = 0.0000
  REM Reflections_all = 2519
  REM Reflections_gt = 2393
  REM Parameters = 118
  REM Hole = -0.2065
  REM Peak = 0.1816
  REM Flack = n/a

  
;
_cod_data_source_file            fc5060.cif
_cod_data_source_block           A23_NoSpherA2_PBE_ORCA
_cod_original_sg_symbol_Hall     ' P 2ac 2ab'
_cod_database_code               1566432
_olex2_refinement_description
;
;
_iucr_refine_fcf_details
;
data_pbe
_computing_structure_refinement   'olex2.refine 1.5 (Bourhis et al., 2015)'
_shelx_refln_list_code            4
loop_
  _space_group_symop_id
  _space_group_symop_operation_xyz
  1  x,y,z
  2  x+1/2,-y+1/2,-z
  3  -x,y+1/2,-z+1/2
  4  -x+1/2,-y,z+1/2

_space_group_crystal_system       orthorhombic
_space_group_IT_number            19
_space_group_name_H-M_alt         'P 21 21 21'
_space_group_name_Hall            ' P 2ac 2ab'
_symmetry_space_group_name_H-M    'P 21 21 21'
_symmetry_space_group_name_Hall   ' P 2ac 2ab'
_symmetry_Int_Tables_number       19
_cell_length_a                    5.9279(10)
_cell_length_b                    12.2597(17)
_cell_length_c                    5.7939(9)
_cell_angle_alpha                 90
_cell_angle_beta                  90
_cell_angle_gamma                 90
_cell_volume                      421.07(11)
loop_
  _refln_index_h
  _refln_index_k
  _refln_index_l
  _refln_F_squared_calc
  _refln_F_squared_meas
  _refln_F_squared_sigma
  _refln_F_squared_weight
  _refln_observed_status
0 0 2 2845.480 2838.960 33.266 0.044 o
0 0 4 215.140 209.414 3.897 3.241 o
0 0 6 0.482 0.784 0.625 126.079 o
0 0 8 25.456 24.447 1.507 21.666 o
0 0 10 4.874 4.802 1.228 32.655 o
0 0 12 0.016 2.478 9.187 0.583 o
0 1 1 738.451 723.533 7.318 0.919 o
0 1 2 521.197 532.515 6.545 1.149 o
0 1 3 85.967 83.886 1.743 16.203 o
0 1 4 36.853 39.772 1.200 34.163 o
0 1 5 250.247 235.812 4.511 2.419 o
0 1 6 94.465 93.632 2.445 8.237 o
0 1 7 62.996 58.705 2.050 11.714 o
0 1 8 3.100 3.579 0.948 54.747 o
0 1 9 6.609 8.512 1.162 36.457 o
0 1 10 0.006 0.005 1.003 48.927 o
0 1 11 0.616 0.482 1.217 33.246 o
0 1 12 28.814 26.979 2.247 9.747 o
0 2 0 181.908 183.553 1.754 16.001 o
0 2 1 121.632 119.394 1.217 33.246 o
0 2 2 173.579 181.349 2.072 11.467 o
0 2 3 158.372 157.571 2.922 5.768 o
0 2 4 89.666 92.941 2.050 11.714 o
0 2 5 135.494 137.104 2.949 5.661 o
0 2 6 15.688 16.181 1.025 46.856 o
0 2 7 547.034 540.540 9.713 0.522 o
0 2 8 9.570 8.699 1.146 37.511 o
0 2 9 48.048 46.323 2.193 10.241 o
0 2 10 21.297 20.675 1.732 16.409 o
0 2 11 2.021 2.697 1.233 32.366 o
0 2 12 19.212 20.182 1.962 12.784 o
0 3 1 688.644 707.714 6.391 1.205 o
0 3 2 58.624 56.123 0.795 77.932 o
0 3 3 202.051 205.176 2.450 8.200 o
0 3 4 7.319 7.992 0.449 243.682 o
0 3 5 49.625 49.151 1.535 20.899 o
0 3 6 0.850 1.485 0.647 117.676 o
0 3 7 0.000 0.466 0.767 83.598 o
0 3 8 16.931 15.698 1.343 27.297 o
0 3 9 62.144 63.271 2.527 7.710 o
0 3 10 49.882 48.904 2.412 8.463 o
0 3 11 7.694 6.786 1.480 22.476 o
0 3 12 118.093 116.083 3.952 3.152 o
0 4 0 5365.930 5179.240 44.393 0.025 o
0 4 1 94.889 98.154 1.063 43.536 o
0 4 2 172.195 171.001 1.787 15.418 o
0 4 3 712.212 738.114 7.762 0.817 o
0 4 4 225.275 229.185 2.834 6.130 o
0 4 5 386.714 388.598 4.577 2.350 o
0 4 6 16.159 15.967 1.085 41.795 o
0 4 7 11.677 11.768 1.096 40.963 o
0 4 8 2.097 1.727 0.948 54.747 o
0 4 9 21.012 22.194 1.622 18.701 o
0 4 10 27.194 28.305 1.940 13.075 o
0 4 11 1.198 0.915 1.288 29.670 o
0 4 12 0.281 0.422 1.414 24.616 o
0 5 1 0.200 0.230 0.164 1820.570 o
0 5 2 552.322 566.137 5.317 1.741 o
0 5 3 76.817 81.217 1.195 34.478 o
0 5 4 0.313 0.674 0.373 354.351 o
0 5 5 184.622 177.501 2.428 8.349 o
0 5 6 85.190 86.150 1.568 20.032 o
0 5 7 24.724 24.052 1.431 24.053 o
0 5 9 1.279 1.650 0.959 53.503 o
0 5 10 32.522 32.663 2.055 11.652 o
0 5 11 1.511 0.893 1.288 29.670 o
0 5 12 9.454 9.768 1.716 16.725 o
0 6 0 90.091 89.581 1.041 45.388 o
0 6 1 469.021 474.391 4.571 2.356 o
0 6 2 92.374 96.597 1.168 36.115 o
0 6 3 268.339 272.016 2.839 6.106 o
0 6 4 70.783 70.846 1.228 32.655 o
0 6 5 0.735 0.773 0.411 291.292 o
0 6 6 12.812 11.160 0.652 115.706 o
0 6 7 43.187 43.116 1.217 33.246 o
0 6 8 10.105 10.261 0.817 73.804 o
0 6 9 1.280 1.579 0.981 51.138 o
0 6 10 41.775 41.565 2.324 9.114 o
0 6 11 8.917 7.712 1.535 20.899 o
0 6 12 55.308 55.718 2.752 6.502 o
0 7 1 36.411 36.884 0.608 132.986 o
0 7 2 5.292 5.410 0.340 426.253 o
0 7 3 22.230 22.375 0.570 151.490 o
0 7 4 30.483 29.177 0.778 81.260 o
0 7 5 7.582 6.616 0.526 177.790 o
0 7 6 143.882 141.873 2.242 9.795 o
0 7 7 47.486 46.591 1.277 30.181 o
0 7 8 58.490 59.560 1.562 20.173 o
0 7 9 47.496 46.471 1.524 21.201 o
0 7 10 54.360 54.287 2.598 7.293 o
0 7 11 2.575 3.091 1.348 27.076 o
0 7 12 67.512 64.751 3.037 5.339 o
0 8 0 45.082 45.298 0.718 95.479 o
0 8 1 44.026 44.305 0.729 92.629 o
0 8 2 109.661 111.589 1.398 25.198 o
0 8 3 60.436 61.572 0.992 50.014 o
0 8 4 66.016 64.405 1.074 42.652 o
0 8 5 148.585 145.046 2.176 10.396 o
0 8 6 30.782 29.966 0.987 50.572 o
0 8 7 1.554 1.946 0.433 262.541 o
0 8 8 89.389 87.394 1.924 13.300 o
0 8 9 78.834 79.561 1.940 13.075 o
0 8 10 58.024 60.130 1.798 15.230 o
0 8 11 7.802 8.386 1.535 20.899 o
0 9 1 32.637 32.044 0.663 111.913 o
0 9 2 21.973 23.657 0.597 137.911 o
0 9 3 146.724 142.552 1.781 15.513 o
0 9 4 7.253 7.186 0.460 232.216 o
0 9 5 74.262 69.273 1.425 24.238 o
0 9 6 12.181 14.334 0.773 82.416 o
0 9 7 4.390 4.933 0.515 185.436 o
0 9 8 11.347 12.251 0.866 65.635 o
0 9 9 17.052 16.455 1.069 43.090 o
0 9 10 6.697 6.726 0.658 113.786 o
0 9 11 7.861 7.992 0.767 83.598 o
0 10 0 0.568 0.800 0.340 426.253 o
0 10 1 135.102 137.142 1.694 17.161 o
0 10 2 45.933 46.197 0.861 66.474 o
0 10 3 38.902 39.570 0.833 70.919 o
0 10 4 88.862 90.228 1.381 25.802 o
0 10 5 8.890 7.942 0.548 163.852 o
0 10 6 15.365 15.589 0.822 72.823 o
0 10 7 10.189 9.209 0.806 75.826 o
0 10 8 5.445 6.534 0.696 101.588 o
0 10 9 13.813 13.835 1.020 47.361 o
0 10 10 1.145 1.858 0.521 181.553 o
0 10 11 0.759 1.568 0.537 170.608 o
0 11 1 67.482 66.636 1.107 40.156 o
0 11 2 84.937 83.678 1.261 30.974 o
0 11 3 69.810 70.287 1.178 35.447 o
0 11 4 98.285 97.858 1.513 21.510 o
0 11 5 22.028 20.719 0.778 81.260 o
0 11 6 119.342 117.059 1.897 13.687 o
0 11 7 30.036 31.359 1.184 35.119 o
0 11 8 40.877 40.047 1.403 25.002 o
0 11 9 1.748 2.242 0.526 177.790 o
0 11 10 17.609 16.362 1.146 37.511 o
0 11 11 9.118 8.337 0.839 69.995 o
0 12 0 236.250 232.484 2.658 6.966 o
0 12 1 76.873 76.256 1.228 32.655 o
0 12 2 28.473 28.218 0.751 87.299 o
0 12 3 118.392 118.769 1.694 17.161 o
0 12 4 39.163 38.956 0.959 53.503 o
0 12 5 1.230 1.485 0.329 455.144 o
0 12 6 6.348 6.304 0.554 160.623 o
0 12 7 5.031 5.832 0.641 119.696 o
0 12 8 40.316 40.178 1.442 23.689 o
0 12 9 35.725 34.845 1.392 25.397 o
0 12 10 11.991 13.407 0.926 57.369 o
0 12 11 31.847 30.125 1.403 25.002 o
0 13 1 19.761 18.812 0.691 103.207 o
0 13 2 21.563 21.465 0.696 101.588 o
0 13 3 144.873 145.332 1.995 12.367 o
0 13 4 10.717 11.472 0.647 117.676 o
0 13 5 77.480 79.084 1.502 21.825 o
0 13 6 4.242 4.774 0.482 211.585 o
0 13 7 13.242 11.626 0.795 77.932 o
0 13 8 32.812 32.109 1.343 27.297 o
0 13 9 28.837 29.111 1.337 27.521 o
0 13 10 11.524 12.525 1.047 44.914 o
0 14 0 56.186 58.497 1.124 38.989 o
0 14 1 39.600 37.859 0.943 55.385 o
0 14 2 22.059 21.267 0.751 87.299 o
0 14 3 28.821 27.785 0.855 67.329 o
0 14 4 143.314 142.246 2.083 11.347 o
0 14 5 2.679 3.514 0.406 299.218 o
0 14 6 10.771 11.675 0.734 91.252 o
0 14 7 1.027 1.474 0.384 334.391 o
0 14 8 11.329 12.525 0.981 51.138 o
0 14 9 0.716 0.285 0.488 206.857 o
0 14 10 45.934 43.522 1.622 18.701 o
0 15 1 90.391 90.858 1.557 20.315 o
0 15 2 182.638 181.103 2.384 8.659 o
0 15 3 90.136 90.349 1.584 19.618 o
0 15 4 45.965 45.210 1.178 35.447 o
0 15 5 13.275 14.082 0.789 79.018 o
0 15 6 0.024 0.093 0.340 426.253 o
0 15 8 0.062 0.554 0.384 334.391 o
0 15 9 46.378 47.249 1.639 18.328 o
0 15 10 5.026 5.849 0.647 117.676 o
0 16 0 24.361 25.214 0.855 67.329 o
0 16 1 0.364 2.379 9.187 0.583 o
0 16 2 3.963 4.440 0.406 299.218 o
0 16 3 155.105 154.600 2.258 9.653 o
0 16 4 93.987 94.558 1.738 16.305 o
0 16 5 13.701 13.265 0.795 77.932 o
0 16 6 43.426 41.483 1.277 30.181 o
0 16 7 83.226 81.595 1.814 14.955 o
0 16 8 0.613 0.998 0.400 307.472 o
0 16 9 13.251 14.438 1.091 41.376 o
0 17 1 0.878 1.129 0.345 412.829 o
0 17 2 63.393 60.991 1.381 25.802 o
0 17 3 48.438 47.156 1.239 32.080 o
0 17 4 5.322 5.701 0.460 232.216 o
0 17 5 73.430 76.925 1.655 17.965 o
0 17 6 29.358 29.084 1.107 40.156 o
0 17 7 0.489 1.052 0.400 307.472 o
0 17 8 7.167 6.561 0.548 163.852 o
0 17 9 15.195 15.507 0.987 50.572 o
0 18 0 224.618 227.365 2.971 5.578 o
0 18 1 61.031 59.807 1.365 26.427 o
0 18 2 19.349 20.380 0.910 59.461 o
0 18 3 27.979 26.968 0.992 50.014 o
0 18 4 10.239 9.620 0.740 89.905 o
0 18 5 2.680 2.330 0.417 283.677 o
0 18 6 6.932 7.789 0.685 104.865 o
0 18 7 1.436 2.302 0.439 256.018 o
0 18 8 0.262 0.576 0.400 307.472 o
0 18 9 8.550 8.573 0.641 119.696 o
0 19 1 15.681 16.137 0.893 61.670 o
0 19 2 117.663 119.734 2.088 11.288 o
0 19 3 3.072 2.499 0.406 299.218 o
0 19 4 3.820 3.355 0.439 256.018 o
0 19 5 14.056 13.605 0.893 61.670 o
0 19 6 43.208 44.157 1.387 25.598 o
0 19 7 5.357 6.852 0.554 160.623 o
0 19 8 10.304 9.214 0.767 83.598 o
0 20 0 0.023 0.219 0.340 426.253 o
0 20 1 27.890 27.407 1.047 44.914 o
0 20 2 0.879 0.976 0.406 299.218 o
0 20 3 43.403 44.382 1.337 27.521 o
0 20 4 1.629 1.831 0.411 291.292 o
0 20 5 0.150 0.296 0.400 307.472 o
0 20 6 1.343 1.836 0.428 269.316 o
0 20 7 137.253 135.065 2.445 8.237 o
0 20 8 5.864 6.150 0.526 177.790 o
0 21 1 2.119 2.686 0.422 276.356 o
0 21 2 45.931 45.884 1.359 26.641 o
0 21 3 0.795 0.872 0.384 334.391 o
0 21 4 0.489 0.186 0.373 354.351 o
0 21 5 21.382 19.612 1.036 45.870 o
0 21 6 22.467 21.273 1.085 41.795 o
0 21 7 0.457 0.910 0.395 316.072 o
0 22 0 133.054 135.372 2.351 8.903 o
0 22 2 37.046 36.769 1.288 29.670 o
0 22 3 0.638 1.157 0.406 299.218 o
0 22 4 3.502 4.347 0.493 202.286 o
0 22 5 4.865 5.487 0.526 177.790 o
0 22 6 10.491 10.568 0.773 82.416 o
0 23 1 1.752 1.727 0.422 276.356 o
0 23 2 16.884 17.990 1.025 46.856 o
0 23 3 26.653 28.125 1.162 36.457 o
0 23 4 0.027 0.121 0.400 307.472 o
0 23 5 13.935 12.508 0.959 53.503 o
0 23 6 17.062 16.981 0.992 50.014 o
0 24 0 0.075 0.230 0.378 344.154 o
0 24 1 0.031 0.164 0.384 334.391 o
0 24 2 1.803 2.489 0.455 237.845 o
0 24 3 12.029 12.700 0.910 59.461 o
0 24 4 26.161 26.541 1.135 38.239 o
0 24 5 0.337 0.258 0.378 344.154 o
0 25 1 2.343 2.987 0.559 157.489 o
0 25 2 21.390 22.435 1.261 30.974 o
0 25 3 5.843 4.972 0.576 148.618 o
0 25 4 2.161 2.894 0.510 189.446 o
0 26 0 5.391 6.441 0.614 130.622 o
0 26 1 19.614 19.760 1.233 32.366 o
0 26 2 1.684 2.554 0.499 197.865 o
1 0 1 71.766 76.711 0.833 70.919 o
1 0 2 3224.230 3102.530 36.100 0.038 o
1 0 3 28.980 32.016 0.921 58.054 o
1 0 4 332.554 328.133 5.827 1.450 o
1 0 5 282.563 284.349 5.300 1.752 o
1 0 6 0.613 0.071 0.630 123.895 o
1 0 7 246.984 247.783 5.147 1.858 o
1 0 8 10.087 10.442 1.200 34.163 o
1 0 9 0.135 0.038 0.926 57.369 o
1 0 10 2.672 3.481 1.173 35.779 o
1 0 11 1.538 0.806 1.288 29.670 o
1 0 12 16.130 17.880 1.924 13.300 o
1 1 0 250.597 251.236 2.362 8.821 o
1 1 1 131.523 133.437 1.354 26.857 o
1 1 2 72.195 71.602 0.937 56.035 o
1 1 3 291.073 302.305 5.224 1.804 o
1 1 4 247.938 259.847 4.725 2.205 o
1 1 5 125.342 122.337 2.708 6.714 o
1 1 6 0.541 0.893 0.619 128.320 o
1 1 7 26.334 26.837 1.447 23.509 o
1 1 8 33.946 35.327 1.787 15.418 o
1 1 9 3.097 2.231 0.998 49.466 o
1 1 10 24.657 25.735 1.875 14.009 o
1 1 11 13.665 12.010 1.612 18.956 o
1 1 12 75.321 76.015 3.185 4.854 o
1 2 0 5379.660 5481.310 58.042 0.015 o
1 2 1 101.019 104.019 1.102 40.556 o
1 2 2 557.639 571.920 6.112 1.318 o
1 2 3 221.014 224.580 2.637 7.082 o
1 2 4 29.421 28.728 1.047 44.914 o
1 2 5 474.564 463.396 8.118 0.747 o
1 2 6 8.321 7.542 0.833 70.919 o
1 2 7 59.999 61.325 2.116 10.997 o
1 2 8 19.011 19.848 1.436 23.870 o
1 2 9 49.891 51.546 2.269 9.560 o
1 2 10 2.281 1.562 1.124 38.989 o
1 2 11 34.191 33.825 2.264 9.606 o
1 2 12 9.645 8.299 1.738 16.305 o
1 3 0 58.862 59.045 0.691 103.207 o
1 3 1 1073.280 1086.540 9.669 0.527 o
1 3 2 191.486 193.923 2.023 12.034 o
1 3 3 89.802 91.659 1.277 30.181 o
1 3 4 22.564 23.394 0.641 119.696 o
1 3 5 186.662 176.175 3.634 3.728 o
1 3 6 12.233 12.415 0.987 50.572 o
1 3 7 80.341 81.403 2.489 7.949 o
1 3 8 31.128 32.109 1.710 16.832 o
1 3 9 1.213 1.633 0.981 51.138 o
1 3 10 17.506 20.160 1.716 16.725 o
1 3 11 23.783 23.411 1.951 12.929 o
1 3 12 2.966 3.234 1.557 20.315 o
1 4 0 1707.180 1676.820 14.756 0.226 o
1 4 1 155.230 156.881 1.639 18.328 o
1 4 2 1057.870 1063.290 9.620 0.532 o
1 4 3 92.226 95.589 1.337 27.521 o
1 4 4 110.168 109.593 1.568 20.032 o
1 4 5 111.230 108.037 1.683 17.385 o
1 4 6 16.944 15.989 1.085 41.795 o
1 4 7 144.133 141.231 3.514 3.988 o
1 4 8 33.154 32.784 1.754 16.001 o
1 4 9 3.674 3.256 1.135 38.239 o
1 4 10 21.878 21.712 1.820 14.865 o
1 4 11 11.733 11.905 1.622 18.701 o
1 4 12 27.814 29.056 2.214 10.039 o
1 5 0 331.434 338.043 3.283 4.567 o
1 5 1 432.271 437.458 4.221 2.764 o
1 5 2 18.452 18.587 0.411 291.292 o
1 5 3 23.111 23.016 0.526 177.790 o
1 5 4 82.531 83.628 1.343 27.297 o
1 5 5 8.549 8.556 0.532 174.144 o
1 5 6 12.346 13.281 0.669 110.086 o
1 5 7 29.172 30.564 1.041 45.388 o
1 5 8 103.762 102.243 3.108 5.097 o
1 5 9 27.988 28.596 1.831 14.688 o
1 5 10 33.281 32.702 2.088 11.288 o
1 5 11 5.171 6.145 1.447 23.509 o
1 5 12 70.677 68.632 3.113 5.079 o
1 6 0 64.084 61.813 0.795 77.932 o
1 6 1 21.131 21.865 0.439 256.018 o
1 6 2 215.179 219.296 2.308 9.245 o
1 6 3 135.840 138.003 1.633 18.451 o
1 6 4 131.584 130.263 1.869 14.091 o
1 6 5 227.892 229.590 3.009 5.436 o
1 6 6 21.661 21.870 0.817 73.804 o
1 6 7 62.533 61.703 1.469 22.813 o
1 6 8 16.231 15.046 0.921 58.054 o
1 6 9 8.749 10.053 1.299 29.171 o
1 6 10 40.222 41.614 2.308 9.245 o
1 6 11 2.885 3.952 1.348 27.076 o
1 6 12 2.823 2.856 1.524 21.201 o
1 7 0 19.339 19.234 0.439 256.018 o
1 7 1 334.177 339.025 3.404 4.249 o
1 7 2 162.856 161.902 1.820 14.865 o
1 7 3 5.084 5.174 0.378 344.154 o
1 7 4 84.223 83.656 1.228 32.655 o
1 7 5 74.930 72.907 1.387 25.598 o
1 7 6 7.203 7.772 0.619 128.320 o
1 7 7 10.435 9.510 0.767 83.598 o
1 7 8 95.042 91.352 1.957 12.856 o
1 7 9 14.471 15.874 1.014 47.875 o
1 7 10 32.666 31.704 2.105 11.112 o
1 7 11 7.706 8.611 1.579 19.755 o
1 7 12 24.269 22.868 2.083 11.347 o
1 8 0 394.590 401.742 3.996 3.083 o
1 8 1 230.195 234.364 2.478 8.020 o
1 8 2 10.771 10.239 0.433 262.541 o
1 8 3 257.143 257.430 2.806 6.250 o
1 8 4 45.371 45.144 0.882 63.212 o
1 8 5 70.933 69.284 1.376 26.008 o
1 8 6 9.818 9.088 0.680 106.563 o
1 8 7 57.194 56.321 1.453 23.332 o
1 8 8 3.555 3.245 0.488 206.857 o
1 8 9 8.051 8.348 0.740 89.905 o
1 8 10 24.465 24.529 1.255 31.245 o
1 8 11 16.476 15.633 1.178 35.447 o
1 9 0 2.694 3.256 0.340 426.253 o
1 9 1 230.567 232.068 2.527 7.710 o
1 9 2 59.007 61.752 0.981 51.138 o
1 9 3 29.340 28.991 0.702 100.007 o
1 9 4 2.367 2.176 0.384 334.391 o
1 9 5 93.118 89.987 1.458 23.157 o
1 9 6 11.639 11.067 0.767 83.598 o
1 9 7 68.186 67.343 1.612 18.956 o
1 9 8 50.784 51.234 1.518 21.355 o
1 9 9 19.936 19.837 1.118 39.372 o
1 9 10 7.506 7.383 0.811 74.805 o
1 9 11 24.917 23.526 1.310 28.685 o
1 10 0 41.336 43.017 0.800 76.868 o
1 10 1 135.514 131.097 1.672 17.614 o
1 10 2 59.512 59.423 0.998 49.466 o
1 10 3 79.135 79.621 1.239 32.080 o
1 10 4 22.278 22.693 0.702 100.007 o
1 10 5 9.967 9.516 0.576 148.618 o
1 10 6 2.674 2.428 0.439 256.018 o
1 10 7 17.964 18.752 0.959 53.503 o
1 10 8 41.661 39.734 1.381 25.802 o
1 10 9 31.400 29.583 1.310 28.685 o
1 10 10 60.612 55.986 1.803 15.138 o
1 10 11 19.561 18.735 1.222 32.949 o
1 11 0 95.802 96.789 1.354 26.857 o
1 11 1 17.612 17.129 0.559 157.489 o
1 11 2 117.383 117.848 1.590 19.483 o
1 11 3 15.447 16.652 0.597 137.911 o
1 11 4 63.784 62.306 1.173 35.779 o
1 11 5 34.995 35.831 0.954 54.119 o
1 11 6 10.648 9.828 0.680 106.563 o
1 11 7 21.601 21.832 0.910 59.461 o
1 11 8 94.261 95.534 2.121 10.940 o
1 11 9 44.919 46.109 1.579 19.755 o
1 11 10 15.137 16.301 1.146 37.511 o
1 11 11 2.835 3.607 0.592 140.476 o
1 12 0 25.676 26.891 0.707 98.463 o
1 12 1 1.209 0.356 0.362 376.152 o
1 12 2 117.727 115.310 1.622 18.701 o
1 12 3 32.459 32.269 0.833 70.919 o
1 12 4 146.334 140.771 1.990 12.435 o
1 12 5 24.876 25.061 0.861 66.474 o
1 12 6 29.361 28.985 0.959 53.503 o
1 12 7 2.573 1.907 0.460 232.216 o
1 12 8 12.995 11.768 0.970 52.300 o
1 12 9 8.403 8.945 0.822 72.823 o
1 12 10 47.845 45.583 1.639 18.328 o
1 12 11 0.791 1.617 0.532 174.144 o
1 13 0 58.721 57.269 1.080 42.220 o
1 13 1 128.685 127.517 1.770 15.705 o
1 13 2 112.177 110.120 1.633 18.451 o
1 13 3 35.026 33.776 0.904 60.184 o
1 13 4 25.414 27.111 0.855 67.329 o
1 13 5 44.765 44.700 1.151 37.155 o
1 13 6 7.619 7.537 0.603 135.415 o
1 13 7 40.914 42.327 1.250 31.520 o
1 13 8 28.350 28.317 1.266 30.706 o
1 13 9 16.858 16.093 1.135 38.239 o
1 13 10 0.099 0.230 0.510 189.446 o
1 14 0 1.494 0.861 0.433 262.541 o
1 14 1 29.991 29.550 0.828 71.862 o
1 14 2 54.688 54.665 1.135 38.239 o
1 14 3 114.577 114.757 1.781 15.513 o
1 14 4 42.166 39.383 1.063 43.536 o
1 14 5 39.646 40.172 1.118 39.372 o
1 14 6 27.852 27.998 1.003 48.927 o
1 14 7 25.833 24.611 1.047 44.914 o
1 14 8 1.946 1.200 0.504 193.587 o
1 14 9 7.461 7.926 0.822 72.823 o
1 14 10 7.800 6.578 0.669 110.086 o
1 15 0 85.100 86.227 1.474 22.644 o
1 15 1 87.913 87.542 1.518 21.355 o
1 15 2 30.607 31.611 0.921 58.054 o
1 15 3 34.295 33.463 0.981 51.138 o
1 15 4 2.181 2.976 0.395 316.072 o
1 15 5 29.385 29.824 1.025 46.856 o
1 15 6 11.738 11.001 0.811 74.805 o
1 15 7 34.539 32.307 1.173 35.779 o
1 15 8 43.615 46.284 1.381 25.802 o
1 15 9 21.571 22.243 1.239 32.080 o
1 15 10 10.957 10.535 0.882 63.212 o
1 16 0 24.217 24.436 0.850 68.201 o
1 16 1 61.544 61.725 1.288 29.670 o
1 16 2 29.122 27.604 0.943 55.385 o
1 16 3 9.929 9.285 0.614 130.622 o
1 16 4 22.152 23.564 0.910 59.461 o
1 16 5 74.155 78.564 1.633 18.451 o
1 16 6 3.000 2.982 0.428 269.316 o
1 16 7 23.159 25.850 1.074 42.652 o
1 16 8 5.380 5.585 0.521 181.553 o
1 16 9 43.268 42.946 1.584 19.618 o
1 17 0 30.081 29.511 0.959 53.503 o
1 17 1 25.154 25.406 0.904 60.184 o
1 17 2 77.319 75.659 1.524 21.201 o
1 17 3 25.820 25.006 0.943 55.385 o
1 17 4 26.860 28.070 1.014 47.875 o
1 17 5 11.027 11.450 0.800 76.868 o
1 17 6 20.906 21.509 1.003 48.927 o
1 17 7 19.358 20.500 1.014 47.875 o
1 17 8 29.150 26.826 1.178 35.447 o
1 17 9 17.905 18.302 1.047 44.914 o
1 18 0 0.815 0.932 0.384 334.391 o
1 18 1 23.217 23.762 0.926 57.369 o
1 18 2 108.626 110.004 1.924 13.300 o
1 18 3 27.619 26.502 1.003 48.927 o
1 18 4 56.479 58.540 1.464 22.984 o
1 18 5 7.412 6.956 0.647 117.676 o
1 18 6 13.862 13.851 0.893 61.670 o
1 18 7 44.879 43.034 1.387 25.598 o
1 18 8 4.560 5.459 0.521 181.553 o
1 18 9 11.776 11.571 0.893 61.670 o
1 19 0 33.949 33.694 1.096 40.963 o
1 19 1 14.537 15.298 0.828 71.862 o
1 19 2 40.136 41.176 1.200 34.163 o
1 19 3 27.477 27.198 1.052 44.448 o
1 19 4 39.856 40.776 1.250 31.520 o
1 19 5 18.056 18.669 0.976 51.714 o
1 19 6 10.899 11.796 0.861 66.474 o
1 19 7 6.813 6.747 0.614 130.622 o
1 19 8 1.847 2.269 0.439 256.018 o
1 20 0 41.995 40.233 1.244 31.798 o
1 20 1 6.362 5.821 0.482 211.585 o
1 20 2 10.202 9.696 0.702 100.007 o
1 20 3 7.892 7.756 0.658 113.786 o
1 20 4 8.935 9.236 0.795 77.932 o
1 20 5 65.090 64.625 1.639 18.328 o
1 20 6 33.654 31.578 1.244 31.798 o
1 20 7 14.324 15.441 0.987 50.572 o
1 20 8 0.043 0.110 0.389 325.038 o
1 21 0 1.181 1.431 0.428 269.316 o
1 21 1 1.480 2.061 0.411 291.292 o
1 21 2 21.891 22.852 1.020 47.361 o
1 21 3 24.259 23.564 1.047 44.914 o
1 21 4 11.266 10.793 0.784 80.127 o
1 21 5 25.091 25.093 1.113 39.761 o
1 21 6 9.052 9.400 0.773 82.416 o
1 21 7 9.323 9.307 0.663 111.913 o
1 22 0 3.775 3.990 0.471 221.541 o
1 22 1 33.272 34.735 1.206 33.854 o
1 22 2 38.561 36.549 1.272 30.442 o
1 22 3 6.631 7.191 0.608 132.986 o
1 22 4 20.768 21.755 1.047 44.914 o
1 22 5 1.572 1.727 0.428 269.316 o
1 22 6 10.140 8.622 0.756 86.038 o
1 23 0 6.190 7.000 0.603 135.415 o
1 23 1 9.460 10.650 0.888 62.434 o
1 23 2 43.296 43.368 1.420 24.426 o
1 23 3 2.815 2.741 0.455 237.845 o
1 23 4 14.717 15.068 0.959 53.503 o
1 23 5 3.524 4.577 0.499 197.865 o
1 23 6 11.664 12.031 0.882 63.212 o
1 24 0 9.805 9.779 0.789 79.018 o
1 24 1 21.856 20.917 1.074 42.652 o
1 24 2 9.787 10.639 0.795 77.932 o
1 24 3 8.002 8.129 0.641 119.696 o
1 24 4 2.214 2.138 0.433 262.541 o
1 24 5 17.916 17.425 0.998 49.466 o
1 25 1 8.683 9.488 0.817 73.804 o
1 25 2 0.078 0.153 0.428 269.316 o
1 25 3 15.643 17.896 1.157 36.803 o
1 26 0 6.710 7.312 0.636 121.768 o
1 26 1 0.796 2.001 0.482 211.585 o
1 26 2 3.611 4.489 0.554 160.623 o
2 0 0 40.668 41.883 0.537 170.608 o
2 0 1 1.380 1.633 0.159 1948.300 o
2 0 2 4.012 4.193 0.225 974.727 o
2 0 3 134.013 131.968 1.529 21.049 o
2 0 4 51.615 56.732 1.529 21.049 o
2 0 5 144.513 144.400 3.102 5.115 o
2 0 6 76.061 76.426 2.203 10.139 o
2 0 7 7.025 7.416 0.987 50.572 o
2 0 8 55.327 54.062 2.198 10.190 o
2 0 9 72.729 75.680 2.768 6.425 o
2 0 10 50.597 49.683 2.445 8.237 o
2 0 11 12.170 12.591 1.672 17.614 o
2 0 12 47.601 46.657 2.647 7.024 o
2 1 0 31.294 31.090 0.439 256.018 o
2 1 1 78.183 77.917 0.882 63.212 o
2 1 2 303.327 308.280 3.048 5.300 o
2 1 3 138.331 140.261 1.579 19.755 o
2 1 4 103.557 106.814 1.540 20.751 o
2 1 5 37.245 33.946 1.305 28.927 o
2 1 6 91.160 93.917 2.505 7.845 o
2 1 7 45.178 43.916 1.814 14.955 o
2 1 8 59.162 58.803 2.297 9.333 o
2 1 9 15.996 17.480 1.502 21.825 o
2 1 10 68.044 67.168 2.823 6.178 o
2 1 11 10.976 9.916 1.595 19.349 o
2 1 12 21.681 20.566 2.094 11.229 o
2 2 0 1701.810 1676.790 14.772 0.226 o
2 2 1 278.440 277.091 2.724 6.633 o
2 2 2 1072.290 1083.260 9.806 0.512 o
2 2 3 375.034 383.314 3.804 3.402 o
2 2 4 129.273 131.064 1.825 14.776 o
2 2 5 164.732 161.233 2.242 9.795 o
2 2 6 2.332 2.308 0.713 96.954 o
2 2 7 12.672 12.558 1.124 38.989 o
2 2 8 25.168 23.570 1.584 19.618 o
2 2 9 110.102 109.347 3.431 4.181 o
2 2 10 2.138 2.861 1.178 35.447 o
2 2 11 3.806 3.311 1.365 26.427 o
2 2 12 6.501 6.216 1.622 18.701 o
2 3 0 785.135 785.675 7.164 0.959 o
2 3 1 515.546 535.831 5.043 1.936 o
2 3 2 106.960 106.973 1.250 31.520 o
2 3 3 445.395 447.834 4.429 2.510 o
2 3 4 130.200 133.278 1.847 14.428 o
2 3 5 31.237 31.611 0.844 69.089 o
2 3 6 2.216 2.258 0.576 148.618 o
2 3 7 14.333 14.476 1.195 34.478 o
2 3 8 27.609 29.023 1.677 17.499 o
2 3 9 4.974 5.355 1.102 40.556 o
2 3 10 6.745 6.567 1.332 27.748 o
2 3 11 6.047 7.257 1.453 23.332 o
2 3 12 39.471 42.595 2.527 7.710 o
2 4 0 35.005 35.804 0.532 174.144 o
2 4 1 151.379 157.621 1.666 17.730 o
2 4 2 87.109 88.978 1.091 41.376 o
2 4 3 65.319 65.792 0.937 56.035 o
2 4 4 13.610 12.991 0.570 151.490 o
2 4 5 148.584 148.253 2.121 10.940 o
2 4 6 22.769 22.621 0.822 72.823 o
2 4 7 134.023 130.296 2.669 6.909 o
2 4 8 16.635 15.929 1.381 25.802 o
2 4 9 48.287 48.767 2.297 9.333 o
2 4 10 4.685 4.681 1.255 31.245 o
2 4 11 2.996 2.275 1.409 24.808 o
2 4 12 11.152 11.182 1.776 15.608 o
2 5 0 91.289 91.028 1.080 42.220 o
2 5 1 418.109 426.287 4.144 2.867 o
2 5 2 7.777 8.386 0.345 412.829 o
2 5 3 253.017 249.180 2.664 6.937 o
2 5 4 61.864 59.790 0.987 50.572 o
2 5 5 64.570 63.704 1.244 31.798 o
2 5 6 99.920 98.532 1.754 16.001 o
2 5 7 71.200 70.978 1.568 20.032 o
2 5 8 58.070 56.518 1.524 21.201 o
2 5 9 10.689 11.461 1.387 25.598 o
2 5 10 46.196 46.657 2.406 8.502 o
2 5 11 1.381 0.702 1.305 28.927 o
2 5 12 2.148 2.258 1.524 21.201 o
2 6 0 2105.440 2078.770 18.456 0.145 o
2 6 1 22.491 22.890 0.482 211.585 o
2 6 2 287.306 291.787 3.009 5.436 o
2 6 3 88.994 90.941 1.228 32.655 o
2 6 4 111.057 108.130 1.453 23.332 o
2 6 5 12.240 12.476 0.636 121.768 o
2 6 6 0.345 0.592 0.482 211.585 o
2 6 7 29.767 29.314 1.058 43.988 o
2 6 8 50.003 47.041 1.442 23.689 o
2 6 9 50.971 49.842 1.568 20.032 o
2 6 10 16.788 16.970 1.666 17.730 o
2 6 11 13.887 13.637 1.672 17.614 o
2 6 12 30.068 29.331 2.209 10.089 o
2 7 0 291.257 293.404 3.004 5.456 o
2 7 1 95.327 97.863 1.228 32.655 o
2 7 2 138.704 140.234 1.661 17.847 o
2 7 3 107.101 108.530 1.414 24.616 o
2 7 4 101.928 102.413 1.431 24.053 o
2 7 5 14.771 14.147 0.702 100.007 o
2 7 6 77.837 77.106 1.562 20.173 o
2 7 7 84.980 83.639 1.776 15.608 o
2 7 8 44.206 41.812 1.365 26.427 o
2 7 9 10.432 10.562 0.921 58.054 o
2 7 10 26.883 26.217 1.321 28.211 o
2 7 11 0.961 0.515 1.305 28.927 o
2 8 0 0.408 0.762 0.301 541.658 o
2 8 1 4.050 4.835 0.362 376.152 o
2 8 2 140.463 143.934 1.754 16.001 o
2 8 3 121.102 119.553 1.546 20.604 o
2 8 4 115.827 116.412 1.595 19.349 o
2 8 5 61.399 62.701 1.168 36.115 o
2 8 6 0.156 0.230 0.521 181.553 o
2 8 7 81.012 82.346 1.770 15.705 o
2 8 8 0.080 0.307 0.411 291.292 o
2 8 9 1.943 3.355 0.537 170.608 o
2 8 10 31.171 30.388 1.398 25.198 o
2 8 11 6.145 5.657 0.652 115.706 o
2 9 0 238.216 234.677 2.582 7.386 o
2 9 1 274.248 272.882 2.938 5.703 o
2 9 2 130.262 128.011 1.617 18.828 o
2 9 3 291.587 289.232 3.185 4.854 o
2 9 4 47.302 48.597 0.976 51.714 o
2 9 5 25.487 26.184 0.806 75.826 o
2 9 6 3.775 4.917 0.482 211.585 o
2 9 7 4.659 4.977 0.532 174.144 o
2 9 8 11.556 11.757 0.800 76.868 o
2 9 9 38.401 38.353 1.431 24.053 o
2 9 10 11.452 12.223 0.915 58.751 o
2 9 11 0.249 0.307 0.510 189.446 o
2 10 0 249.127 254.053 2.785 6.349 o
2 10 1 9.258 8.693 0.460 232.216 o
2 10 2 2.704 2.647 0.367 365.007 o
2 10 3 254.729 256.772 2.922 5.768 o
2 10 4 139.351 138.228 1.880 13.927 o
2 10 5 139.268 138.540 1.973 12.643 o
2 10 6 10.382 12.108 0.691 103.207 o
2 10 7 8.806 9.488 0.795 77.932 o
2 10 8 1.208 1.403 0.488 206.857 o
2 10 9 12.303 14.120 1.025 46.856 o
2 10 10 33.009 33.491 1.453 23.332 o
2 10 11 5.789 6.298 0.784 80.127 o
2 11 0 2.111 2.412 0.362 376.152 o
2 11 1 5.154 4.747 0.433 262.541 o
2 11 2 64.495 64.044 1.118 39.372 o
2 11 3 12.148 12.004 0.581 145.827 o
2 11 4 50.084 49.781 1.069 43.090 o
2 11 5 60.001 60.300 1.261 30.974 o
2 11 6 103.433 104.424 1.787 15.418 o
2 11 7 95.165 97.578 2.061 11.590 o
2 11 8 9.780 8.518 0.778 81.260 o
2 11 9 14.961 15.627 1.074 42.652 o
2 11 10 42.419 44.316 1.584 19.618 o
2 11 11 3.539 4.588 0.614 130.622 o
2 12 0 45.558 43.346 0.910 59.461 o
2 12 1 41.767 40.649 0.888 62.434 o
2 12 2 57.797 57.252 1.085 41.795 o
2 12 3 84.926 84.423 1.414 24.616 o
2 12 4 13.074 12.673 0.658 113.786 o
2 12 5 14.684 14.301 0.740 89.905 o
2 12 6 8.228 7.877 0.543 167.179 o
2 12 7 1.371 2.176 0.384 334.391 o
2 12 8 0.463 0.016 0.433 262.541 o
2 12 9 17.138 17.359 1.129 38.611 o
2 12 10 48.154 48.312 1.683 17.385 o
2 13 0 166.800 167.772 2.138 10.773 o
2 13 1 81.605 79.731 1.348 27.076 o
2 13 2 73.724 73.422 1.305 28.927 o
2 13 3 43.299 43.834 1.030 46.359 o
2 13 4 0.432 0.400 0.329 455.144 o
2 13 5 1.373 2.258 0.373 354.351 o
2 13 6 60.665 62.295 1.414 24.616 o
2 13 7 48.562 48.899 1.359 26.641 o
2 13 8 34.007 31.413 1.365 26.427 o
2 13 9 33.710 35.124 1.458 23.157 o
2 13 10 6.658 7.093 0.680 106.563 o
2 14 0 11.975 10.919 0.603 135.415 o
2 14 1 43.255 44.684 1.025 46.856 o
2 14 2 32.369 33.787 0.910 59.461 o
2 14 3 50.160 48.148 1.135 38.239 o
2 14 4 12.554 11.686 0.707 98.463 o
2 14 5 93.500 92.382 1.716 16.725 o
2 14 6 10.854 11.259 0.745 88.588 o
2 14 7 37.975 40.238 1.250 31.520 o
2 14 8 8.486 9.971 0.811 74.805 o
2 14 9 69.433 72.282 1.984 12.504 o
2 14 10 17.059 17.091 1.151 37.155 o
2 15 0 71.422 69.870 1.326 27.978 o
2 15 1 22.054 23.723 0.806 75.826 o
2 15 2 32.915 31.792 0.932 56.696 o
2 15 3 16.757 16.959 0.795 77.932 o
2 15 4 12.678 12.821 0.745 88.588 o
2 15 5 11.829 12.695 0.762 84.805 o
2 15 6 57.660 56.748 1.436 23.870 o
2 15 7 32.396 32.756 1.189 34.796 o
2 15 8 6.859 7.016 0.696 101.588 o
2 15 9 0.366 1.096 0.521 181.553 o
2 15 10 2.699 2.954 0.570 151.490 o
2 16 0 38.918 36.950 1.025 46.856 o
2 16 1 3.480 3.557 0.395 316.072 o
2 16 2 77.222 73.165 1.458 23.157 o
2 16 3 2.347 2.785 0.395 316.072 o
2 16 4 25.020 25.181 0.915 58.751 o
2 16 5 1.071 1.135 0.356 387.815 o
2 16 6 15.052 15.359 0.893 61.670 o
2 16 7 4.494 4.286 0.482 211.585 o
2 16 8 2.337 3.250 0.471 221.541 o
2 16 9 16.029 15.529 1.009 48.397 o
2 17 0 36.259 35.639 1.047 44.914 o
2 17 1 11.479 10.064 0.691 103.207 o
2 17 2 0.116 0.066 0.334 440.343 o
2 17 3 11.140 12.749 0.751 87.299 o
2 17 4 39.966 38.725 1.184 35.119 o
2 17 5 5.407 5.328 0.482 211.585 o
2 17 6 47.092 46.898 1.365 26.427 o
2 17 7 49.781 50.812 1.474 22.644 o
2 17 8 24.173 23.493 1.135 38.239 o
2 17 9 3.817 4.330 0.526 177.790 o
2 18 0 43.166 43.653 1.200 34.163 o
2 18 1 10.293 9.943 0.724 94.038 o
2 18 2 9.678 10.804 0.734 91.252 o
2 18 3 2.785 2.105 0.384 334.391 o
2 18 4 26.674 25.362 1.041 45.388 o
2 18 5 44.692 44.294 1.365 26.427 o
2 18 6 49.593 49.628 1.453 23.332 o
2 18 7 9.215 9.894 0.762 84.805 o
2 18 8 1.666 1.913 0.433 262.541 o
2 19 0 36.184 37.717 1.162 36.457 o
2 19 1 28.905 29.204 1.058 43.988 o
2 19 2 1.257 1.135 0.362 376.152 o
2 19 3 38.804 38.830 1.217 33.246 o
2 19 4 8.760 8.710 0.707 98.463 o
2 19 5 9.649 11.111 0.839 69.995 o
2 19 6 1.462 2.346 0.439 256.018 o
2 19 7 6.026 7.005 0.636 121.768 o
2 19 8 5.872 6.720 0.543 167.179 o
2 20 0 1.665 0.921 0.373 354.351 o
2 20 1 69.769 71.581 1.633 18.451 o
2 20 2 31.064 31.814 1.124 38.989 o
2 20 3 9.097 9.872 0.669 110.086 o
2 20 4 24.812 26.634 1.096 40.963 o
2 20 5 1.342 1.409 0.417 283.677 o
2 20 6 3.780 3.810 0.482 211.585 o
2 20 7 0.362 0.981 0.406 299.218 o
2 21 0 8.425 7.723 0.641 119.696 o
2 21 1 27.215 28.843 1.118 39.372 o
2 21 2 29.282 30.218 1.162 36.457 o
2 21 3 43.401 43.302 1.370 26.216 o
2 21 4 19.806 20.264 1.041 45.388 o
2 21 5 0.982 0.948 0.406 299.218 o
2 21 6 14.071 13.742 0.959 53.503 o
2 21 7 11.537 10.387 0.795 77.932 o
2 22 0 15.739 15.101 0.926 57.369 o
2 22 1 23.596 23.306 1.069 43.090 o
2 22 2 3.260 3.563 0.471 221.541 o
2 22 3 9.007 7.794 0.718 95.479 o
2 22 4 18.438 16.778 1.036 45.870 o
2 22 5 19.786 20.955 1.041 45.388 o
2 22 6 45.923 45.692 1.420 24.426 o
2 23 0 10.636 11.149 0.877 64.005 o
2 23 1 2.919 2.560 0.444 249.736 o
2 23 2 1.771 2.532 0.449 243.682 o
2 23 3 3.991 5.207 0.565 154.446 o
2 23 4 21.323 23.433 1.069 43.090 o
2 23 5 16.904 16.439 1.020 47.361 o
2 24 0 32.999 32.351 1.239 32.080 o
2 24 1 37.753 41.099 1.337 27.521 o
2 24 2 9.100 8.710 0.762 84.805 o
2 24 3 0.014 0.038 0.395 316.072 o
2 24 4 4.505 3.338 0.466 226.784 o
2 25 0 3.122 4.116 0.576 148.618 o
2 25 1 22.449 22.972 1.321 28.211 o
2 25 2 40.879 39.882 1.661 17.847 o
2 25 3 12.560 13.051 1.069 43.090 o
2 26 0 0.952 1.074 0.449 243.682 o
2 26 1 29.650 30.438 1.453 23.332 o
3 0 1 172.986 175.435 1.858 14.258 o
3 0 2 0.115 0.104 0.230 928.864 o
3 0 3 178.830 183.147 2.045 11.777 o
3 0 4 10.829 11.571 0.466 226.784 o
3 0 5 52.199 49.874 0.970 52.300 o
3 0 7 5.840 5.909 1.003 48.927 o
3 0 8 1.949 2.127 1.003 48.927 o
3 0 9 70.306 68.933 2.708 6.714 o
3 0 10 1.058 0.855 1.162 36.457 o
3 0 11 1.564 1.239 1.332 27.748 o
3 0 12 7.445 5.514 1.666 17.730 o
3 1 0 29.570 30.975 0.510 189.446 o
3 1 1 352.085 368.509 3.640 3.716 o
3 1 2 183.525 179.486 1.957 12.856 o
3 1 3 251.786 251.093 2.664 6.937 o
3 1 4 112.872 113.167 1.469 22.813 o
3 1 5 43.610 44.651 0.915 58.751 o
3 1 6 3.568 3.777 0.510 189.446 o
3 1 7 0.426 0.844 0.833 70.919 o
3 1 8 114.451 113.660 3.316 4.477 o
3 1 9 11.758 11.933 1.403 25.002 o
3 1 10 53.795 57.324 2.604 7.262 o
3 1 11 10.691 10.963 1.672 17.614 o
3 1 12 6.621 7.307 1.672 17.614 o
3 2 1 57.145 58.891 0.789 79.018 o
3 2 2 266.143 271.451 2.785 6.349 o
3 2 3 16.411 17.370 0.504 193.587 o
3 2 4 30.495 30.915 0.696 101.588 o
3 2 5 36.562 35.415 0.833 70.919 o
3 2 6 42.043 41.642 1.091 41.376 o
3 2 7 153.092 151.169 3.727 3.544 o
3 2 8 57.794 59.417 2.346 8.945 o
3 2 9 20.082 19.366 1.612 18.956 o
3 2 10 27.347 27.735 1.995 12.367 o
3 2 11 14.194 15.134 1.727 16.513 o
3 2 12 3.380 3.267 1.529 21.049 o
3 3 0 68.269 69.103 0.882 63.212 o
3 3 1 425.810 433.731 4.243 2.735 o
3 3 2 265.303 266.458 2.768 6.425 o
3 3 3 169.710 166.977 1.918 13.376 o
3 3 4 80.258 79.983 1.178 35.447 o
3 3 5 71.637 73.137 1.211 33.548 o
3 3 6 4.523 4.818 0.559 157.489 o
3 3 7 30.537 28.958 1.074 42.652 o
3 3 8 45.604 45.791 2.088 11.288 o
3 3 9 13.619 13.934 1.491 22.147 o
3 3 10 79.172 82.384 3.174 4.888 o
3 3 11 33.999 34.812 2.280 9.468 o
3 3 12 1.650 0.773 1.529 21.049 o
3 4 0 404.063 413.000 4.029 3.033 o
3 4 1 82.048 81.776 1.041 45.388 o
3 4 2 54.649 54.994 0.855 67.329 o
3 4 3 12.748 12.596 0.477 216.477 o
3 4 4 24.617 24.962 0.647 117.676 o
3 4 5 70.521 71.537 1.211 33.548 o
3 4 6 10.010 9.543 0.674 108.303 o
3 4 7 10.550 9.625 0.784 80.127 o
3 4 8 39.827 38.945 1.305 28.927 o
3 4 9 100.294 101.843 3.366 4.346 o
3 4 10 12.804 11.933 1.579 19.755 o
3 4 11 16.238 16.921 1.869 14.091 o
3 4 12 0.688 1.003 1.458 23.157 o
3 5 0 206.324 208.317 2.214 10.039 o
3 5 1 24.083 24.266 0.526 177.790 o
3 5 2 315.552 314.474 3.256 4.644 o
3 5 3 208.447 213.733 2.373 8.739 o
3 5 4 272.938 270.152 2.987 5.516 o
3 5 5 72.787 72.287 1.239 32.080 o
3 5 6 21.612 20.993 0.855 67.329 o
3 5 7 32.737 32.033 1.129 38.611 o
3 5 8 39.721 38.517 1.305 28.927 o
3 5 9 0.061 0.143 0.466 226.784 o
3 5 10 6.589 7.142 1.414 24.616 o
3 5 11 15.488 15.638 1.749 16.102 o
3 6 0 37.593 39.378 0.696 101.588 o
3 6 1 65.731 68.867 0.981 51.138 o
3 6 2 635.796 637.192 6.243 1.263 o
3 6 3 3.392 3.387 0.378 344.154 o
3 6 4 84.665 79.868 1.244 31.798 o
3 6 5 43.118 43.933 0.954 54.119 o
3 6 6 19.409 18.604 0.855 67.329 o
3 6 7 12.517 11.993 0.850 68.201 o
3 6 8 26.556 26.179 1.129 38.611 o
3 6 9 8.171 8.079 0.658 113.786 o
3 6 10 22.769 23.312 1.244 31.798 o
3 6 11 12.075 12.125 1.699 17.050 o
3 7 0 245.261 242.756 2.604 7.262 o
3 7 1 159.691 158.996 1.853 14.342 o
3 7 2 6.086 7.296 0.422 276.356 o
3 7 3 256.714 253.982 2.823 6.178 o
3 7 4 58.206 59.445 1.069 43.090 o
3 7 5 122.426 122.392 1.760 15.902 o
3 7 6 40.399 39.285 1.146 37.511 o
3 7 7 35.474 35.952 1.206 33.854 o
3 7 8 29.628 30.224 1.200 34.163 o
3 7 9 8.353 9.011 0.745 88.588 o
3 7 10 9.979 11.686 0.882 63.212 o
3 7 11 22.263 22.534 1.288 29.670 o
3 8 0 78.402 80.652 1.157 36.803 o
3 8 1 43.355 42.650 0.800 76.868 o
3 8 2 89.397 88.874 1.266 30.706 o
3 8 3 42.415 43.012 0.872 64.812 o
3 8 4 53.670 53.810 1.047 44.914 o
3 8 5 192.698 186.885 2.384 8.659 o
3 8 6 19.422 18.741 0.795 77.932 o
3 8 7 12.863 11.133 0.855 67.329 o
3 8 8 34.353 33.359 1.288 29.670 o
3 8 9 44.847 43.204 1.535 20.899 o
3 8 10 7.822 7.246 0.680 106.563 o
3 8 11 5.834 6.517 0.800 76.868 o
3 9 0 110.193 107.620 1.436 23.870 o
3 9 1 394.169 381.598 4.012 3.058 o
3 9 2 62.985 62.147 1.058 43.988 o
3 9 3 25.347 26.124 0.724 94.038 o
3 9 4 65.639 67.283 1.211 33.548 o
3 9 5 1.798 1.814 0.471 221.541 o
3 9 6 31.538 32.362 0.970 52.300 o
3 9 7 105.388 108.771 2.132 10.828 o
3 9 8 22.773 22.150 1.118 39.372 o
3 9 9 6.472 6.293 0.636 121.768 o
3 9 10 34.232 33.343 1.453 23.332 o
3 9 11 10.982 10.749 0.839 69.995 o
3 10 0 30.071 29.999 0.724 94.038 o
3 10 1 36.949 36.856 0.817 73.804 o
3 10 2 255.995 253.560 2.878 5.945 o
3 10 3 11.663 11.544 0.565 154.446 o
3 10 4 21.690 20.960 0.729 92.629 o
3 10 5 134.521 133.338 1.984 12.504 o
3 10 6 23.788 23.953 0.888 62.434 o
3 10 7 50.083 50.565 1.310 28.685 o
3 10 8 5.353 4.396 0.565 154.446 o
3 10 9 28.010 27.922 1.294 29.419 o
3 10 10 7.755 7.586 0.839 69.995 o
3 10 11 8.534 8.978 0.866 65.635 o
3 11 0 253.993 251.061 2.861 6.013 o
3 11 1 55.242 53.514 1.030 46.359 o
3 11 2 37.114 34.565 0.850 68.201 o
3 11 3 77.213 75.796 1.310 28.685 o
3 11 4 30.040 28.974 0.877 64.005 o
3 11 5 5.487 7.285 0.532 174.144 o
3 11 6 68.830 67.771 1.447 23.509 o
3 11 7 6.221 6.156 0.477 216.477 o
3 11 8 99.796 99.848 2.220 9.989 o
3 11 9 3.868 4.248 0.592 140.476 o
3 11 10 5.132 4.571 0.608 132.986 o
3 11 11 10.515 9.389 2.943 5.682 o
3 12 0 9.588 8.178 0.526 177.790 o
3 12 1 56.325 54.336 1.085 41.795 o
3 12 2 107.434 106.294 1.617 18.828 o
3 12 3 41.573 40.107 0.970 52.300 o
3 12 4 29.130 29.928 0.904 60.184 o
3 12 5 125.343 123.302 1.957 12.856 o
3 12 6 2.813 3.601 0.428 269.316 o
3 12 7 2.488 2.384 0.400 307.472 o
3 12 8 16.668 17.255 1.069 43.090 o
3 12 9 4.102 4.933 0.619 128.320 o
3 12 10 0.797 1.124 0.510 189.446 o
3 13 0 2.981 2.735 0.444 249.736 o
3 13 1 88.811 89.433 1.513 21.510 o
3 13 2 26.301 26.179 0.811 74.805 o
3 13 3 11.067 12.399 0.663 111.913 o
3 13 4 103.458 104.518 1.743 16.203 o
3 13 5 9.848 10.261 0.718 95.479 o
3 13 6 57.319 56.436 1.403 25.002 o
3 13 7 37.523 38.057 1.228 32.655 o
3 13 8 7.345 6.304 0.587 143.114 o
3 13 9 1.682 1.540 0.526 177.790 o
3 13 10 20.135 19.042 1.217 33.246 o
3 14 0 2.847 3.749 0.488 206.857 o
3 14 1 27.344 27.028 0.855 67.329 o
3 14 2 6.755 6.632 0.587 143.114 o
3 14 3 9.459 9.055 0.592 140.476 o
3 14 4 9.905 10.031 0.680 106.563 o
3 14 5 68.280 63.841 1.458 23.157 o
3 14 6 24.336 25.702 1.014 47.875 o
3 14 7 49.119 48.992 1.381 25.802 o
3 14 8 4.460 4.577 0.493 202.286 o
3 14 9 28.775 31.123 1.359 26.641 o
3 14 10 17.645 16.954 1.129 38.611 o
3 15 0 23.166 24.003 0.850 68.201 o
3 15 1 1.560 1.984 0.373 354.351 o
3 15 2 12.728 12.881 0.713 96.954 o
3 15 3 12.383 12.015 0.724 94.038 o
3 15 4 37.978 37.525 1.113 39.761 o
3 15 5 43.786 44.163 1.250 31.520 o
3 15 6 6.976 7.175 0.581 145.827 o
3 15 7 36.967 37.147 1.266 30.706 o
3 15 8 18.108 18.001 0.987 50.572 o
3 15 9 6.676 6.408 0.608 132.986 o
3 16 0 44.411 42.864 1.135 38.239 o
3 16 1 37.818 39.323 1.096 40.963 o
3 16 2 35.491 36.659 1.058 43.988 o
3 16 3 1.697 2.045 0.389 325.038 o
3 16 4 16.321 17.255 0.844 69.089 o
3 16 5 9.728 9.998 0.773 82.416 o
3 16 6 41.484 41.631 1.305 28.927 o
3 16 7 2.902 2.779 0.449 243.682 o
3 16 8 17.423 15.337 0.987 50.572 o
3 16 9 9.879 9.011 0.658 113.786 o
3 17 0 41.586 42.245 1.162 36.457 o
3 17 1 30.998 30.147 1.009 48.397 o
3 17 2 28.206 28.492 0.998 49.466 o
3 17 3 8.622 8.167 0.636 121.768 o
3 17 4 31.896 32.132 1.113 39.761 o
3 17 5 2.835 3.130 0.439 256.018 o
3 17 6 24.000 23.937 1.063 43.536 o
3 17 7 3.168 2.834 0.455 237.845 o
3 17 8 10.435 11.204 0.899 60.920 o
3 17 9 22.029 21.766 1.080 42.220 o
3 18 0 1.608 2.127 0.373 354.351 o
3 18 1 52.490 51.015 1.326 27.978 o
3 18 2 8.818 9.033 0.713 96.954 o
3 18 3 0.344 0.197 0.340 426.253 o
3 18 4 23.874 25.439 1.052 44.448 o
3 18 5 5.524 6.397 0.526 177.790 o
3 18 6 10.481 10.162 0.762 84.805 o
3 18 7 7.708 7.822 0.636 121.768 o
3 18 8 8.842 8.310 0.647 117.676 o
3 19 0 2.632 2.938 0.411 291.292 o
3 19 1 18.777 19.700 0.921 58.054 o
3 19 2 6.427 5.525 0.543 167.179 o
3 19 3 9.673 10.272 0.817 73.804 o
3 19 4 17.498 16.850 0.937 56.035 o
3 19 5 12.405 10.584 0.773 82.416 o
3 19 6 21.446 21.777 1.080 42.220 o
3 19 7 21.182 20.812 1.085 41.795 o
3 19 8 22.085 23.060 1.107 40.156 o
3 20 0 26.032 27.894 1.074 42.652 o
3 20 1 3.876 3.694 0.455 237.845 o
3 20 2 11.640 11.549 0.839 69.995 o
3 20 3 6.994 6.106 0.515 185.436 o
3 20 4 20.761 20.812 1.009 48.397 o
3 20 5 1.947 2.823 0.455 237.845 o
3 20 6 61.671 63.364 1.655 17.965 o
3 20 7 10.379 9.159 0.751 87.299 o
3 21 0 30.037 30.334 1.146 37.511 o
3 21 1 63.656 67.585 1.633 18.451 o
3 21 2 0.768 0.587 0.384 334.391 o
3 21 3 1.866 1.612 0.411 291.292 o
3 21 4 24.007 25.702 1.118 39.372 o
3 21 5 3.271 3.574 0.482 211.585 o
3 21 6 5.069 5.766 0.526 177.790 o
3 21 7 5.205 5.191 0.510 189.446 o
3 22 0 3.929 4.078 0.482 211.585 o
3 22 1 64.810 61.901 1.633 18.451 o
3 22 2 2.810 2.806 0.455 237.845 o
3 22 3 6.575 6.386 0.543 167.179 o
3 22 4 6.974 6.961 0.619 128.320 o
3 22 5 15.458 15.107 0.992 50.014 o
3 22 6 5.944 5.147 0.510 189.446 o
3 23 0 0.026 0.060 0.395 316.072 o
3 23 1 15.100 15.446 0.954 54.119 o
3 23 2 10.112 9.795 0.866 65.635 o
3 23 3 40.294 39.751 1.376 26.008 o
3 23 4 10.014 10.036 0.861 66.474 o
3 23 5 3.008 3.771 0.477 216.477 o
3 24 0 9.055 8.047 0.652 115.706 o
3 24 1 27.637 29.785 1.206 33.854 o
3 24 2 26.741 27.527 1.173 35.779 o
3 24 3 7.065 8.491 0.724 94.038 o
3 24 4 0.972 1.096 0.406 299.218 o
3 25 0 28.245 29.533 1.425 24.238 o
3 25 1 6.471 7.789 0.767 83.598 o
3 25 2 4.570 4.533 0.559 157.489 o
4 0 0 387.543 392.150 3.892 3.250 o
4 0 1 1.497 1.464 0.291 583.310 o
4 0 2 10.841 10.727 0.444 249.736 o
4 0 3 5.003 4.681 0.389 325.038 o
4 0 4 76.879 77.243 1.189 34.796 o
4 0 5 28.010 27.911 0.773 82.416 o
4 0 6 0.429 0.291 0.433 262.541 o
4 0 7 140.268 138.283 2.099 11.170 o
4 0 8 41.718 44.327 2.088 11.288 o
4 0 9 18.707 19.261 1.655 17.965 o
4 0 11 28.569 27.911 2.138 10.773 o
4 1 0 386.215 386.290 3.875 3.278 o
4 1 1 144.481 148.505 1.699 17.050 o
4 1 2 262.860 264.101 2.828 6.154 o
4 1 3 229.739 224.427 2.478 8.020 o
4 1 4 123.873 123.938 1.633 18.451 o
4 1 5 21.660 23.011 0.713 96.954 o
4 1 6 89.819 88.430 1.502 21.825 o
4 1 7 10.581 9.433 0.718 95.479 o
4 1 8 19.335 19.645 1.239 32.080 o
4 1 9 12.800 13.725 1.491 22.147 o
4 1 10 80.568 83.130 3.228 4.723 o
4 1 11 1.836 1.622 1.332 27.748 o
4 2 0 41.137 40.255 0.702 100.007 o
4 2 1 33.990 34.598 0.658 113.786 o
4 2 2 10.614 9.680 0.444 249.736 o
4 2 3 39.181 38.402 0.778 81.260 o
4 2 4 33.987 34.094 0.789 79.018 o
4 2 5 5.825 6.194 0.488 206.857 o
4 2 6 14.042 15.315 0.685 104.865 o
4 2 7 13.451 12.837 0.839 69.995 o
4 2 8 13.838 13.742 0.910 59.461 o
4 2 9 12.483 13.314 1.458 23.157 o
4 2 10 14.191 14.219 1.639 18.328 o
4 2 11 3.097 3.179 1.348 27.076 o
4 3 0 2.285 1.754 0.312 504.314 o
4 3 1 150.633 150.566 1.743 16.203 o
4 3 2 75.506 75.088 1.085 41.795 o
4 3 3 472.341 463.533 4.681 2.247 o
4 3 4 97.027 96.668 1.403 25.002 o
4 3 5 166.029 163.787 2.110 11.054 o
4 3 6 27.341 25.729 0.844 69.089 o
4 3 7 11.721 12.114 0.817 73.804 o
4 3 8 12.195 11.818 0.893 61.670 o
4 3 9 23.518 24.206 1.200 34.163 o
4 3 10 3.959 3.108 1.288 29.670 o
4 3 11 9.860 9.033 1.568 20.032 o
4 4 0 36.616 36.971 0.702 100.007 o
4 4 1 13.621 12.125 0.460 232.216 o
4 4 2 196.391 199.832 2.242 9.795 o
4 4 3 98.022 95.024 1.337 27.521 o
4 4 4 35.389 35.086 0.811 74.805 o
4 4 5 29.068 28.580 0.795 77.932 o
4 4 6 12.351 11.862 0.663 111.913 o
4 4 7 65.432 65.233 1.584 19.618 o
4 4 8 28.151 29.204 1.184 35.119 o
4 4 9 56.159 59.379 1.710 16.832 o
4 4 10 30.749 30.295 1.365 26.427 o
4 4 11 34.337 33.058 2.258 9.653 o
4 5 0 16.206 15.414 0.504 193.587 o
4 5 1 60.990 59.987 0.948 54.747 o
4 5 2 139.036 135.695 1.705 16.941 o
4 5 3 111.374 108.366 1.485 22.311 o
4 5 4 86.219 87.263 1.354 26.857 o
4 5 5 83.934 84.632 1.409 24.808 o
4 5 6 139.766 137.992 2.017 12.099 o
4 5 7 15.406 16.406 0.904 60.184 o
4 5 8 4.318 4.412 0.537 170.608 o
4 5 9 14.347 13.906 1.009 48.397 o
4 5 10 60.086 57.833 1.825 14.776 o
4 5 11 13.154 13.150 1.348 27.076 o
4 6 0 131.739 131.601 1.628 18.575 o
4 6 1 43.573 43.461 0.822 72.823 o
4 6 2 32.111 32.318 0.729 92.629 o
4 6 3 5.178 5.421 0.428 269.316 o
4 6 4 55.587 56.041 1.074 42.652 o
4 6 5 13.252 13.774 0.625 126.079 o
4 6 6 41.450 41.280 1.074 42.652 o
4 6 7 19.885 20.149 0.861 66.474 o
4 6 8 9.855 9.044 0.762 84.805 o
4 6 9 38.204 36.237 1.453 23.332 o
4 6 10 28.484 28.169 1.365 26.427 o
4 6 11 0.325 0.499 0.521 181.553 o
4 7 0 89.003 88.046 1.266 30.706 o
4 7 1 251.639 245.294 2.730 6.607 o
4 7 2 184.596 176.948 2.138 10.773 o
4 7 3 60.304 60.420 1.080 42.220 o
4 7 4 43.679 42.941 0.954 54.119 o
4 7 5 35.346 35.196 0.943 55.385 o
4 7 6 42.300 40.403 1.085 41.795 o
4 7 7 26.930 26.162 0.965 52.896 o
4 7 8 34.314 32.608 1.299 29.171 o
4 7 9 5.087 5.607 0.625 126.079 o
4 7 10 16.923 15.605 1.113 39.761 o
4 7 11 5.483 6.764 0.674 108.303 o
4 8 0 137.648 132.374 1.699 17.050 o
4 8 1 43.424 42.941 0.866 65.635 o
4 8 2 161.726 161.342 2.006 12.232 o
4 8 3 89.601 87.060 1.381 25.802 o
4 8 4 7.998 8.918 0.537 170.608 o
4 8 5 47.350 48.203 1.096 40.963 o
4 8 6 56.319 54.205 1.277 30.181 o
4 8 7 53.111 51.650 1.316 28.447 o
4 8 8 3.935 3.738 0.543 167.179 o
4 8 9 82.772 85.333 2.121 10.940 o
4 8 10 14.216 15.518 1.118 39.372 o
4 8 11 22.084 20.615 1.272 30.442 o
4 9 0 131.951 130.148 1.721 16.619 o
4 9 1 4.034 4.248 0.406 299.218 o
4 9 2 5.331 5.635 0.449 243.682 o
4 9 3 31.061 31.956 0.833 70.919 o
4 9 4 2.225 1.442 0.455 237.845 o
4 9 5 46.341 44.903 1.113 39.761 o
4 9 6 140.024 135.706 2.116 10.997 o
4 9 7 6.446 6.238 0.592 140.476 o
4 9 8 92.319 89.203 2.116 10.997 o
4 9 9 16.106 17.047 1.107 40.156 o
4 9 10 1.365 0.773 0.515 185.436 o
4 9 11 8.755 9.855 0.861 66.474 o
4 10 0 69.240 69.076 1.195 34.478 o
4 10 1 34.750 34.214 0.828 71.862 o
4 10 2 40.221 41.192 0.926 57.369 o
4 10 3 17.394 16.910 0.674 108.303 o
4 10 4 34.775 36.072 0.954 54.119 o
4 10 5 24.391 27.149 0.888 62.434 o
4 10 6 27.944 26.414 0.976 51.714 o
4 10 7 42.615 43.933 1.239 32.080 o
4 10 8 19.258 19.179 0.987 50.572 o
4 10 9 17.826 19.936 1.151 37.155 o
4 10 10 14.353 15.101 1.113 39.761 o
4 11 0 12.719 12.656 0.614 130.622 o
4 11 1 269.689 266.233 3.097 5.133 o
4 11 2 18.323 18.686 0.691 103.207 o
4 11 3 30.270 29.676 0.866 65.635 o
4 11 4 23.008 24.545 0.844 69.089 o
4 11 5 8.912 9.883 0.663 111.913 o
4 11 6 35.135 36.533 1.096 40.963 o
4 11 7 51.417 52.127 1.387 25.598 o
4 11 8 9.977 8.852 0.734 91.252 o
4 11 9 0.111 0.351 0.521 181.553 o
4 11 10 6.567 7.076 0.680 106.563 o
4 12 0 245.228 240.273 2.965 5.598 o
4 12 1 67.854 67.722 1.272 30.442 o
4 12 2 46.867 46.284 1.058 43.988 o
4 12 3 41.899 42.031 1.058 43.988 o
4 12 4 68.785 68.949 1.398 25.198 o
4 12 5 19.473 19.316 0.872 64.812 o
4 12 6 61.649 63.183 1.469 22.813 o
4 12 7 36.881 40.041 1.239 32.080 o
4 12 8 0.331 0.850 0.395 316.072 o
4 12 9 23.683 23.849 1.294 29.419 o
4 12 10 1.475 1.617 0.537 170.608 o
4 13 0 66.915 69.169 1.310 28.685 o
4 13 1 45.102 42.930 1.052 44.448 o
4 13 2 0.030 0.132 0.307 522.486 o
4 13 3 12.339 12.306 0.702 100.007 o
4 13 4 25.768 26.080 0.926 57.369 o
4 13 5 6.191 6.726 0.592 140.476 o
4 13 6 49.396 49.310 1.326 27.978 o
4 13 7 10.571 10.524 0.734 91.252 o
4 13 8 54.093 52.593 1.507 21.666 o
4 13 9 9.162 9.307 0.762 84.805 o
4 13 10 10.125 8.693 0.713 96.954 o
4 14 0 3.352 2.817 0.367 365.007 o
4 14 1 45.825 46.136 1.129 38.611 o
4 14 2 13.875 14.410 0.734 91.252 o
4 14 3 23.671 22.495 0.888 62.434 o
4 14 4 8.455 9.192 0.636 121.768 o
4 14 5 8.911 8.502 0.641 119.696 o
4 14 6 12.722 12.492 0.822 72.823 o
4 14 7 31.230 30.624 1.173 35.779 o
4 14 8 34.147 34.143 1.266 30.706 o
4 14 9 10.119 11.785 0.899 60.920 o
4 15 0 12.305 12.634 0.718 95.479 o
4 15 1 45.495 44.985 1.162 36.457 o
4 15 2 15.171 15.041 0.778 81.260 o
4 15 3 73.972 73.609 1.524 21.201 o
4 15 4 42.755 40.019 1.195 34.478 o
4 15 5 2.149 1.957 0.395 316.072 o
4 15 6 54.222 54.643 1.464 22.984 o
4 15 7 1.430 2.127 0.428 269.316 o
4 15 8 1.915 2.242 0.444 249.736 o
4 15 9 27.490 26.568 1.157 36.803 o
4 16 0 89.820 90.486 1.688 17.272 o
4 16 1 53.470 52.429 1.283 29.924 o
4 16 2 18.115 16.537 0.839 69.995 o
4 16 3 27.237 27.324 1.014 47.875 o
4 16 4 54.277 53.898 1.398 25.198 o
4 16 5 20.594 21.191 0.987 50.572 o
4 16 6 16.884 18.275 0.970 52.300 o
4 16 7 2.899 3.371 0.466 226.784 o
4 16 8 10.969 9.817 0.784 80.127 o
4 16 9 1.490 2.456 0.449 243.682 o
4 17 0 0.953 1.184 0.345 412.829 o
4 17 1 17.513 17.036 0.866 65.635 o
4 17 2 20.385 19.349 0.910 59.461 o
4 17 3 1.547 0.954 0.362 376.152 o
4 17 4 61.257 59.532 1.518 21.355 o
4 17 5 9.662 10.354 0.800 76.868 o
4 17 6 41.167 42.349 1.354 26.857 o
4 17 7 9.811 9.411 0.773 82.416 o
4 17 8 0.031 0.055 0.389 325.038 o
4 18 0 2.021 2.039 0.389 325.038 o
4 18 1 31.691 30.991 1.074 42.652 o
4 18 2 6.002 6.112 0.543 167.179 o
4 18 3 20.716 21.602 0.992 50.014 o
4 18 4 1.867 1.584 0.406 299.218 o
4 18 5 1.815 2.308 0.439 256.018 o
4 18 6 25.947 26.595 1.135 38.239 o
4 18 7 6.343 5.706 0.532 174.144 o
4 18 8 16.231 16.274 0.987 50.572 o
4 19 0 8.817 7.246 0.658 113.786 o
4 19 1 40.309 42.590 1.277 30.181 o
4 19 2 10.662 11.193 0.828 71.862 o
4 19 3 32.518 35.020 1.200 34.163 o
4 19 4 9.052 8.496 0.636 121.768 o
4 19 5 5.416 5.448 0.521 181.553 o
4 19 6 36.649 37.065 1.299 29.171 o
4 19 7 14.450 12.930 0.910 59.461 o
4 20 0 0.461 0.280 0.373 354.351 o
4 20 1 31.653 32.658 1.178 35.447 o
4 20 2 7.643 8.436 0.614 130.622 o
4 20 3 13.085 13.194 0.877 64.005 o
4 20 4 22.966 22.517 1.091 41.376 o
4 20 5 28.944 29.040 1.195 34.478 o
4 20 6 1.110 1.858 0.433 262.541 o
4 20 7 1.399 1.951 0.433 262.541 o
4 21 0 7.285 7.986 0.625 126.079 o
4 21 1 8.008 7.723 0.696 101.588 o
4 21 2 8.037 9.510 0.822 72.823 o
4 21 3 33.900 33.748 1.255 31.245 o
4 21 4 18.925 20.111 1.047 44.914 o
4 21 5 1.503 2.225 0.439 256.018 o
4 21 6 23.210 22.490 1.107 40.156 o
4 22 0 0.010 0.044 0.411 291.292 o
4 22 1 17.451 14.279 0.965 52.896 o
4 22 2 8.587 9.707 0.663 111.913 o
4 22 3 26.938 25.428 1.168 36.115 o
4 22 4 1.927 2.088 0.471 221.541 o
4 22 5 1.079 1.085 0.406 299.218 o
4 23 0 4.136 4.785 0.510 189.446 o
4 23 1 2.404 2.187 0.455 237.845 o
4 23 2 18.409 17.716 1.030 46.359 o
4 23 3 1.026 0.992 0.406 299.218 o
4 23 4 63.930 63.940 1.650 18.085 o
4 24 0 21.600 21.832 1.085 41.795 o
4 24 1 19.566 19.596 1.047 44.914 o
4 24 2 1.704 1.617 0.422 276.356 o
4 24 3 15.258 13.939 0.965 52.896 o
4 25 1 4.926 5.224 0.581 145.827 o
5 0 1 5.442 5.969 0.411 291.292 o
5 0 2 333.164 331.395 3.514 3.988 o
5 0 3 30.640 31.183 0.767 83.598 o
5 0 4 0.166 0.285 0.373 354.351 o
5 0 5 7.543 7.082 0.559 157.489 o
5 0 6 48.294 47.468 1.157 36.803 o
5 0 7 1.209 1.491 0.373 354.351 o
5 0 8 38.031 36.708 1.173 35.779 o
5 0 9 0.095 0.685 0.795 77.932 o
5 0 10 75.972 75.171 3.130 5.025 o
5 0 11 5.316 3.744 1.518 21.355 o
5 1 0 40.845 40.200 0.773 82.416 o
5 1 1 135.211 133.832 1.661 17.847 o
5 1 2 173.334 169.690 2.055 11.652 o
5 1 3 201.779 199.153 2.368 8.780 o
5 1 4 71.429 70.090 1.211 33.548 o
5 1 5 190.153 186.606 2.390 8.619 o
5 1 6 47.148 45.550 1.118 39.372 o
5 1 7 29.785 29.972 0.998 49.466 o
5 1 8 47.755 47.868 1.316 28.447 o
5 1 9 30.920 30.136 1.140 37.873 o
5 1 10 5.437 5.218 0.899 60.920 o
5 1 11 24.459 23.866 2.006 12.232 o
5 2 0 42.656 43.681 0.833 70.919 o
5 2 1 91.719 91.039 1.288 29.670 o
5 2 2 0.452 0.570 0.334 440.343 o
5 2 3 24.282 24.534 0.691 103.207 o
5 2 4 43.725 43.774 0.948 54.747 o
5 2 5 32.765 31.907 0.888 62.434 o
5 2 6 12.422 11.111 0.696 101.588 o
5 2 7 16.873 16.762 0.850 68.201 o
5 2 8 3.056 3.256 0.428 269.316 o
5 2 9 34.763 35.563 1.420 24.426 o
5 2 10 2.501 2.845 0.570 151.490 o
5 2 11 11.312 12.311 1.617 18.828 o
5 3 0 236.497 231.251 2.576 7.417 o
5 3 1 390.231 382.015 3.914 3.214 o
5 3 2 255.846 252.787 2.845 6.083 o
5 3 3 10.011 9.587 0.515 185.436 o
5 3 4 30.022 28.388 0.806 75.826 o
5 3 5 15.725 16.131 0.680 106.563 o
5 3 6 55.365 54.073 1.233 32.366 o
5 3 7 3.992 4.029 0.433 262.541 o
5 3 8 0.467 0.691 0.356 387.815 o
5 3 9 6.762 5.509 0.614 130.622 o
5 3 10 50.625 51.239 1.721 16.619 o
5 3 11 17.260 16.400 1.173 35.779 o
5 4 0 64.541 61.073 1.025 46.856 o
5 4 1 5.129 5.306 0.406 299.218 o
5 4 2 88.328 85.947 1.299 29.171 o
5 4 3 1.233 1.359 0.384 334.391 o
5 4 4 15.937 17.321 0.663 111.913 o
5 4 5 73.102 73.110 1.365 26.427 o
5 4 6 52.490 49.874 1.206 33.854 o
5 4 7 111.205 107.817 1.891 13.766 o
5 4 8 20.660 19.546 0.965 52.896 o
5 4 9 5.066 6.232 0.636 121.768 o
5 4 10 24.594 24.639 1.288 29.670 o
5 4 11 11.942 11.012 0.910 59.461 o
5 5 0 73.091 73.143 1.146 37.511 o
5 5 1 38.090 35.722 0.778 81.260 o
5 5 2 43.575 42.688 0.882 63.212 o
5 5 3 68.772 68.829 1.189 34.796 o
5 5 4 7.231 6.265 0.510 189.446 o
5 5 5 59.974 59.681 1.250 31.520 o
5 5 6 81.507 80.438 1.551 20.459 o
5 5 7 10.184 10.376 0.674 108.303 o
5 5 8 142.187 140.541 2.341 8.987 o
5 5 9 15.351 14.219 1.063 43.536 o
5 5 10 31.595 30.076 1.453 23.332 o
5 5 11 0.039 0.060 0.515 185.436 o
5 6 0 0.040 0.104 0.323 470.703 o
5 6 1 73.626 71.202 1.168 36.115 o
5 6 2 7.090 6.605 0.460 232.216 o
5 6 3 34.307 34.883 0.855 67.329 o
5 6 4 27.535 28.465 0.839 69.995 o
5 6 5 19.358 18.664 0.784 80.127 o
5 6 6 12.835 13.457 0.734 91.252 o
5 6 7 19.307 21.059 0.910 59.461 o
5 6 8 0.538 1.184 0.795 77.932 o
5 6 9 27.496 27.324 1.288 29.670 o
5 6 10 5.715 6.621 0.680 106.563 o
5 6 11 39.033 39.822 1.535 20.899 o
5 7 0 12.234 11.801 0.543 167.179 o
5 7 1 156.475 154.551 1.962 12.784 o
5 7 2 14.525 12.958 0.581 145.827 o
5 7 3 65.275 64.252 1.195 34.478 o
5 7 4 29.984 30.186 0.872 64.812 o
5 7 5 34.639 34.582 0.976 51.714 o
5 7 6 105.758 104.951 1.831 14.688 o
5 7 7 9.194 9.740 0.745 88.588 o
5 7 8 5.121 5.273 0.493 202.286 o
5 7 9 9.508 9.554 0.839 69.995 o
5 7 10 17.895 17.880 1.178 35.447 o
5 7 11 1.945 2.428 0.565 154.446 o
5 8 0 16.230 16.362 0.619 128.320 o
5 8 1 2.626 3.201 0.417 283.677 o
5 8 2 29.653 29.215 0.800 76.868 o
5 8 3 18.194 18.647 0.691 103.207 o
5 8 4 90.071 89.685 1.535 20.899 o
5 8 5 51.957 50.346 1.206 33.854 o
5 8 6 22.477 22.018 0.910 59.461 o
5 8 7 101.179 100.412 1.897 13.687 o
5 8 8 2.642 2.954 0.444 249.736 o
5 8 9 0.609 1.107 0.510 189.446 o
5 8 10 6.069 6.994 0.680 106.563 o
5 9 0 25.979 25.598 0.751 87.299 o
5 9 1 58.983 58.458 1.129 38.611 o
5 9 2 37.947 37.525 0.921 58.054 o
5 9 3 8.739 9.094 0.592 140.476 o
5 9 4 1.918 2.680 0.378 344.154 o
5 9 5 11.855 10.946 0.702 100.007 o
5 9 6 21.119 21.108 0.882 63.212 o
5 9 7 10.174 11.434 0.762 84.805 o
5 9 8 24.489 24.206 1.058 43.988 o
5 9 9 0.647 1.326 0.411 291.292 o
5 9 10 33.901 32.784 1.420 24.426 o
5 10 0 37.733 38.605 0.932 56.696 o
5 10 1 12.353 12.744 0.614 130.622 o
5 10 2 0.613 1.403 0.439 256.018 o
5 10 3 45.137 43.374 1.063 43.536 o
5 10 4 115.656 112.263 1.836 14.600 o
5 10 5 19.704 18.987 0.839 69.995 o
5 10 6 67.444 69.147 1.524 21.201 o
5 10 7 1.987 2.017 0.411 291.292 o
5 10 8 2.032 2.066 0.428 269.316 o
5 10 9 21.182 21.383 1.074 42.652 o
5 10 10 0.569 0.866 0.526 177.790 o
5 11 0 35.800 36.944 0.954 54.119 o
5 11 1 66.541 68.533 1.288 29.670 o
5 11 2 16.440 16.301 0.724 94.038 o
5 11 3 27.497 25.976 0.888 62.434 o
5 11 4 34.827 34.713 1.036 45.870 o
5 11 5 19.984 20.451 0.893 61.670 o
5 11 6 78.225 80.263 1.677 17.499 o
5 11 7 4.417 4.281 0.466 226.784 o
5 11 8 11.176 12.744 0.882 63.212 o
5 11 9 15.383 15.556 0.987 50.572 o
5 11 10 1.168 2.028 0.537 170.608 o
5 12 0 1.434 1.617 0.477 216.477 o
5 12 1 21.970 21.788 0.817 73.804 o
5 12 2 126.756 124.678 1.935 13.149 o
5 12 3 28.394 27.533 0.932 56.696 o
5 12 4 84.503 85.925 1.628 18.575 o
5 12 5 0.404 0.970 0.345 412.829 o
5 12 6 0.447 0.515 0.356 387.815 o
5 12 7 14.058 13.292 0.795 77.932 o
5 12 8 8.391 8.101 0.636 121.768 o
5 12 9 0.962 1.716 0.428 269.316 o
5 12 10 5.326 5.887 0.532 174.144 o
5 13 0 12.285 12.240 0.702 100.007 o
5 13 1 21.363 19.031 0.833 70.919 o
5 13 2 0.426 0.482 0.334 440.343 o
5 13 3 18.917 19.190 0.850 68.201 o
5 13 4 3.583 4.407 0.422 276.356 o
5 13 5 18.004 17.809 0.904 60.184 o
5 13 6 66.838 67.420 1.601 19.217 o
5 13 7 13.502 16.258 0.926 57.369 o
5 13 8 32.336 32.537 1.266 30.706 o
5 13 9 8.402 8.798 0.658 113.786 o
5 14 0 52.097 52.686 1.255 31.245 o
5 14 1 16.213 16.219 0.784 80.127 o
5 14 2 7.122 7.570 0.663 111.913 o
5 14 3 47.379 47.194 1.228 32.655 o
5 14 4 82.121 86.336 1.727 16.513 o
5 14 5 41.337 42.376 1.244 31.798 o
5 14 6 54.411 54.046 1.464 22.984 o
5 14 7 5.549 6.419 0.537 170.608 o
5 14 8 8.524 8.173 0.652 115.706 o
5 14 9 6.719 6.808 0.548 163.852 o
5 15 0 16.161 15.419 0.822 72.823 o
5 15 1 216.813 218.315 2.927 5.746 o
5 15 2 3.380 3.086 0.395 316.072 o
5 15 3 3.300 3.733 0.422 276.356 o
5 15 4 19.672 20.741 0.970 52.300 o
5 15 5 1.348 1.321 0.395 316.072 o
5 15 6 13.529 15.315 0.910 59.461 o
5 15 7 17.993 18.346 1.003 48.927 o
5 15 8 8.282 8.836 0.652 115.706 o
5 15 9 2.110 2.631 0.455 237.845 o
5 16 0 4.594 4.588 0.433 262.541 o
5 16 1 59.962 61.511 1.442 23.689 o
5 16 2 59.536 60.738 1.458 23.157 o
5 16 3 51.155 51.015 1.381 25.802 o
5 16 4 20.585 22.254 0.998 49.466 o
5 16 5 18.285 18.768 0.948 54.747 o
5 16 6 4.972 5.344 0.515 185.436 o
5 16 7 8.702 7.877 0.740 89.905 o
5 16 8 10.791 11.971 0.899 60.920 o
5 17 0 11.505 10.519 0.696 101.588 o
5 17 1 4.222 4.270 0.449 243.682 o
5 17 2 14.765 14.756 0.861 66.474 o
5 17 3 23.387 23.811 1.020 47.361 o
5 17 4 9.105 8.277 0.691 103.207 o
5 17 5 3.095 3.689 0.471 221.541 o
5 17 6 53.593 52.922 1.529 21.049 o
5 17 7 4.214 4.922 0.515 185.436 o
5 17 8 58.807 59.045 1.595 19.349 o
5 18 0 6.326 6.293 0.641 119.696 o
5 18 1 8.187 7.723 0.685 104.865 o
5 18 2 10.947 11.588 0.817 73.804 o
5 18 3 24.077 24.025 1.063 43.536 o
5 18 4 24.277 25.592 1.096 40.963 o
5 18 5 29.104 29.605 1.178 35.447 o
5 18 6 7.784 7.263 0.641 119.696 o
5 18 7 2.571 2.943 0.466 226.784 o
5 19 0 0.002 0.143 0.367 365.007 o
5 19 1 52.827 53.739 1.491 22.147 o
5 19 2 30.540 30.432 1.140 37.873 o
5 19 3 3.829 4.440 0.493 202.286 o
5 19 4 74.461 75.933 1.798 15.230 o
5 19 5 2.788 3.157 0.477 216.477 o
5 19 6 5.129 5.240 0.521 181.553 o
5 20 0 0.104 0.439 0.378 344.154 o
5 20 1 51.281 51.820 1.458 23.157 o
5 20 2 2.014 2.165 0.439 256.018 o
5 20 3 55.240 56.721 1.568 20.032 o
5 20 4 0.445 0.055 0.384 334.391 o
5 20 5 12.779 11.955 0.937 56.035 o
5 20 6 0.003 0.005 0.389 325.038 o
5 21 0 1.090 0.921 0.400 307.472 o
5 21 1 3.881 3.524 0.477 216.477 o
5 21 2 41.375 39.180 1.332 27.748 o
5 21 3 8.198 8.282 0.658 113.786 o
5 21 4 43.152 44.289 1.414 24.616 o
5 21 5 10.030 8.836 0.663 111.913 o
5 22 0 8.546 7.948 0.636 121.768 o
5 22 1 0.714 0.904 0.406 299.218 o
5 22 2 1.033 1.776 0.433 262.541 o
5 22 3 4.439 4.818 0.510 189.446 o
5 22 4 13.423 11.768 0.943 55.385 o
5 23 1 1.691 1.886 0.433 262.541 o
5 23 2 5.972 5.372 0.576 148.618 o
5 23 3 9.269 8.688 0.641 119.696 o
5 24 0 3.298 2.061 0.439 256.018 o
5 24 1 13.480 14.679 0.943 55.385 o
5 24 2 6.612 7.378 0.904 60.184 o
6 0 0 137.844 134.325 1.760 15.902 o
6 0 1 40.241 39.493 0.872 64.812 o
6 0 2 18.806 19.168 0.652 115.706 o
6 0 3 11.951 12.251 0.597 137.911 o
6 0 4 0.660 1.047 0.433 262.541 o
6 0 5 15.461 14.197 0.745 88.588 o
6 0 6 52.618 50.543 1.244 31.798 o
6 0 7 17.273 17.601 0.861 66.474 o
6 0 8 27.686 28.267 1.085 41.795 o
6 0 9 36.421 38.983 1.310 28.685 o
6 0 10 3.520 4.928 0.521 181.553 o
6 0 11 5.956 7.433 0.630 123.895 o
6 1 0 65.989 66.247 1.124 38.989 o
6 1 1 121.012 118.385 1.633 18.451 o
6 1 2 114.162 113.776 1.622 18.701 o
6 1 3 98.454 99.036 1.529 21.049 o
6 1 4 95.910 93.385 1.551 20.459 o
6 1 5 65.095 64.570 1.326 27.978 o
6 1 6 99.726 100.412 1.770 15.705 o
6 1 7 1.808 2.236 0.389 325.038 o
6 1 8 0.957 1.239 0.389 325.038 o
6 1 9 0.973 1.107 0.406 299.218 o
6 1 10 40.948 43.439 1.392 25.397 o
6 1 11 27.946 29.594 1.387 25.598 o
6 2 0 4.581 4.835 0.439 256.018 o
6 2 1 85.685 85.558 1.337 27.521 o
6 2 2 179.476 173.845 2.198 10.190 o
6 2 3 17.746 16.515 0.674 108.303 o
6 2 4 20.213 20.867 0.756 86.038 o
6 2 5 18.412 19.530 0.800 76.868 o
6 2 6 73.421 71.876 1.502 21.825 o
6 2 7 48.909 49.622 1.321 28.211 o
6 2 8 13.842 14.723 0.866 65.635 o
6 2 9 11.008 11.412 0.866 65.635 o
6 2 10 45.112 45.764 1.447 23.509 o
6 2 11 2.991 4.286 0.603 135.415 o
6 3 0 32.468 31.638 0.795 77.932 o
6 3 1 77.871 76.037 1.261 30.974 o
6 3 2 2.934 3.305 0.428 269.316 o
6 3 3 200.874 198.955 2.461 8.128 o
6 3 4 55.864 56.408 1.178 35.447 o
6 3 5 106.848 105.318 1.760 15.902 o
6 3 6 56.201 55.515 1.321 28.211 o
6 3 7 12.276 11.736 0.795 77.932 o
6 3 8 49.228 49.178 1.381 25.802 o
6 3 9 12.357 11.193 0.811 74.805 o
6 3 10 1.147 1.612 0.455 237.845 o
6 4 0 9.226 9.921 0.515 185.436 o
6 4 1 86.254 87.438 1.381 25.802 o
6 4 2 0.904 0.861 0.406 299.218 o
6 4 3 66.188 66.373 1.239 32.080 o
6 4 4 1.873 0.910 0.488 206.857 o
6 4 5 20.139 18.960 0.811 74.805 o
6 4 6 18.775 19.514 0.872 64.812 o
6 4 7 7.688 8.118 0.652 115.706 o
6 4 8 8.374 7.751 0.691 103.207 o
6 4 9 9.062 8.962 0.756 86.038 o
6 4 10 5.638 7.022 0.559 157.489 o
6 5 0 79.337 76.382 1.283 29.924 o
6 5 1 105.898 104.403 1.557 20.315 o
6 5 2 48.930 47.233 1.020 47.361 o
6 5 3 4.268 4.528 0.515 185.436 o
6 5 4 38.031 36.571 0.998 49.466 o
6 5 5 4.091 4.155 0.411 291.292 o
6 5 6 79.054 79.073 1.606 19.086 o
6 5 7 20.482 20.560 0.921 58.054 o
6 5 8 3.266 3.393 0.449 243.682 o
6 5 9 2.529 2.708 0.455 237.845 o
6 5 10 50.000 51.579 1.513 21.510 o
6 6 0 69.873 70.457 1.244 31.798 o
6 6 1 9.729 9.461 0.537 170.608 o
6 6 2 8.901 9.477 0.559 157.489 o
6 6 3 23.810 24.326 0.800 76.868 o
6 6 4 67.692 66.521 1.348 27.076 o
6 6 5 41.966 43.527 1.135 38.239 o
6 6 6 69.891 73.389 1.557 20.315 o
6 6 7 95.998 97.973 1.891 13.766 o
6 6 8 12.040 13.139 0.888 62.434 o
6 6 9 11.187 13.051 0.904 60.184 o
6 6 10 8.177 8.556 0.658 113.786 o
6 7 0 87.172 84.275 1.414 24.616 o
6 7 1 61.343 60.941 1.178 35.447 o
6 7 2 18.515 17.902 0.713 96.954 o
6 7 3 56.494 57.209 1.200 34.163 o
6 7 4 4.949 4.900 0.417 283.677 o
6 7 5 11.185 10.086 0.702 100.007 o
6 7 6 6.817 6.293 0.477 216.477 o
6 7 7 1.585 2.302 0.417 283.677 o
6 7 8 50.753 53.010 1.458 23.157 o
6 7 9 6.578 7.016 0.559 157.489 o
6 7 10 21.374 22.556 1.118 39.372 o
6 8 0 59.787 58.886 1.173 35.779 o
6 8 1 53.150 52.741 1.118 39.372 o
6 8 2 47.448 46.443 1.080 42.220 o
6 8 3 23.642 22.731 0.822 72.823 o
6 8 4 17.263 16.789 0.778 81.260 o
6 8 5 0.156 0.258 0.362 376.152 o
6 8 6 11.553 10.754 0.773 82.416 o
6 8 7 18.619 18.905 0.932 56.696 o
6 8 8 0.250 0.724 0.389 325.038 o
6 8 9 27.495 30.043 1.178 35.447 o
6 8 10 0.897 1.573 0.428 269.316 o
6 9 0 0.064 0.230 0.433 262.541 o
6 9 1 1.585 1.458 0.471 221.541 o
6 9 2 6.585 5.437 0.570 151.490 o
6 9 3 26.302 25.236 0.888 62.434 o
6 9 4 40.891 39.701 1.113 39.761 o
6 9 5 33.683 33.491 1.085 41.795 o
6 9 6 74.640 75.472 1.655 17.965 o
6 9 7 5.226 5.059 0.543 167.179 o
6 9 8 2.612 3.135 0.466 226.784 o
6 9 9 5.087 5.816 0.537 170.608 o
6 9 10 3.858 4.533 0.504 193.587 o
6 10 0 90.007 87.832 1.562 20.173 o
6 10 1 1.015 1.453 0.334 440.343 o
6 10 2 108.301 106.102 1.760 15.902 o
6 10 3 0.823 1.288 0.356 387.815 o
6 10 4 48.688 47.983 1.244 31.798 o
6 10 5 2.001 2.275 0.384 334.391 o
6 10 6 13.114 12.629 0.855 67.329 o
6 10 7 57.205 57.630 1.513 21.510 o
6 10 8 6.569 7.805 0.658 113.786 o
6 10 9 41.585 42.080 1.392 25.397 o
6 11 0 0.103 0.258 0.318 487.074 o
6 11 1 27.195 26.617 0.899 60.920 o
6 11 2 3.263 3.694 0.406 299.218 o
6 11 3 6.532 6.797 0.515 185.436 o
6 11 4 2.299 2.472 0.378 344.154 o
6 11 5 20.576 19.201 0.915 58.751 o
6 11 6 33.841 32.965 1.168 36.115 o
6 11 7 4.937 5.092 0.504 193.587 o
6 11 8 18.296 17.584 1.030 46.359 o
6 11 9 5.693 6.561 0.608 132.986 o
6 12 0 63.943 63.989 1.359 26.641 o
6 12 1 12.705 12.755 0.751 87.299 o
6 12 2 30.186 30.421 1.020 47.361 o
6 12 3 21.946 20.604 0.893 61.670 o
6 12 4 28.072 27.154 1.014 47.875 o
6 12 5 23.255 23.011 0.992 50.014 o
6 12 6 38.804 40.238 1.266 30.706 o
6 12 7 17.103 17.398 1.003 48.927 o
6 12 8 1.355 2.401 0.455 237.845 o
6 12 9 34.778 36.385 1.305 28.927 o
6 13 0 20.731 21.432 0.893 61.670 o
6 13 1 120.458 119.383 1.984 12.504 o
6 13 2 10.003 10.738 0.669 110.086 o
6 13 3 4.217 4.363 0.433 262.541 o
6 13 4 3.782 4.643 0.455 237.845 o
6 13 5 8.581 9.466 0.625 126.079 o
6 13 6 34.690 34.521 1.239 32.080 o
6 13 7 16.816 15.441 0.976 51.714 o
6 13 8 10.168 10.431 0.740 89.905 o
6 13 9 14.425 13.939 0.943 55.385 o
6 14 0 8.881 9.231 0.641 119.696 o
6 14 1 39.321 41.072 1.178 35.447 o
6 14 2 93.144 90.962 1.781 15.513 o
6 14 3 46.648 47.759 1.321 28.211 o
6 14 4 40.485 39.416 1.244 31.798 o
6 14 5 21.305 22.479 1.036 45.870 o
6 14 6 13.761 13.084 0.926 57.369 o
6 14 7 12.239 13.742 0.943 55.385 o
6 14 8 15.111 15.238 0.970 52.300 o
6 15 0 26.690 28.421 1.020 47.361 o
6 15 1 18.266 18.521 0.893 61.670 o
6 15 2 1.192 1.014 0.362 376.152 o
6 15 3 31.686 32.093 1.129 38.611 o
6 15 4 4.224 3.788 0.460 232.216 o
6 15 5 2.103 1.897 0.422 276.356 o
6 15 6 41.527 43.253 1.365 26.427 o
6 15 7 2.925 3.497 0.482 211.585 o
6 15 8 40.179 41.192 1.365 26.427 o
6 16 0 6.770 7.279 0.636 121.768 o
6 16 1 11.020 11.719 0.784 80.127 o
6 16 2 8.261 6.956 0.581 145.827 o
6 16 3 29.843 28.190 1.113 39.761 o
6 16 4 30.341 31.715 1.173 35.779 o
6 16 5 16.656 16.712 0.992 50.014 o
6 16 6 25.862 28.634 1.168 36.115 o
6 16 7 0.072 0.093 0.395 316.072 o
6 16 8 22.078 21.103 1.080 42.220 o
6 17 0 8.175 8.924 0.691 103.207 o
6 17 1 71.281 71.778 1.650 18.085 o
6 17 2 14.175 14.219 0.888 62.434 o
6 17 3 12.394 12.717 0.872 64.812 o
6 17 4 80.056 79.775 1.809 15.046 o
6 17 5 1.542 1.875 0.433 262.541 o
6 17 6 23.144 22.649 1.096 40.963 o
6 17 7 10.770 11.834 0.866 65.635 o
6 18 0 22.049 21.191 1.030 46.359 o
6 18 1 64.312 66.231 1.622 18.701 o
6 18 2 6.917 7.444 0.608 132.986 o
6 18 3 68.875 69.158 1.699 17.050 o
6 18 4 9.971 9.817 0.789 79.018 o
6 18 5 18.082 17.622 0.998 49.466 o
6 18 6 8.136 8.578 0.592 140.476 o
6 18 7 6.871 7.043 0.548 163.852 o
6 19 0 6.133 6.961 0.685 104.865 o
6 19 1 17.555 18.488 0.987 50.572 o
6 19 2 6.257 6.912 0.603 135.415 o
6 19 3 46.495 46.706 1.458 23.157 o
6 19 4 31.568 31.194 1.244 31.798 o
6 19 5 6.304 5.969 0.537 170.608 o
6 19 6 14.475 14.219 0.937 56.035 o
6 20 1 12.365 13.150 0.915 58.751 o
6 20 2 1.434 1.825 0.433 262.541 o
6 20 3 3.618 2.998 0.471 221.541 o
6 20 4 11.935 12.278 0.915 58.751 o
6 20 5 0.281 0.088 0.378 344.154 o
6 21 0 2.484 2.264 0.444 249.736 o
6 21 1 8.889 8.025 0.647 117.676 o
6 21 2 9.620 8.715 0.762 84.805 o
6 21 3 21.188 20.802 1.096 40.963 o
6 21 4 55.312 54.128 1.546 20.604 o
6 22 0 24.336 23.520 1.096 40.963 o
6 22 1 23.062 21.777 1.091 41.376 o
6 22 2 5.759 6.205 0.543 167.179 o
6 22 3 29.069 28.738 1.200 34.163 o
6 23 0 0.130 0.674 0.400 307.472 o
6 23 1 10.369 9.318 0.866 65.635 o
6 23 2 11.716 13.402 1.540 20.751 o
7 0 1 220.643 218.688 2.697 6.769 o
7 0 2 12.154 11.467 0.630 123.895 o
7 0 3 3.708 3.749 0.532 174.144 o
7 0 4 2.060 2.609 0.378 344.154 o
7 0 5 2.583 2.993 0.400 307.472 o
7 0 6 14.287 14.323 0.811 74.805 o
7 0 7 31.111 30.432 1.135 38.239 o
7 0 8 0.844 1.184 0.406 299.218 o
7 0 9 3.857 4.632 0.510 189.446 o
7 0 10 0.258 0.219 0.422 276.356 o
7 1 1 57.246 56.348 1.140 37.873 o
7 1 2 2.022 2.039 0.482 211.585 o
7 1 3 118.371 117.750 1.836 14.600 o
7 1 4 64.204 66.066 1.370 26.216 o
7 1 5 22.259 21.958 0.893 61.670 o
7 1 6 60.565 61.056 1.453 23.332 o
7 1 7 1.122 1.217 0.384 334.391 o
7 1 8 31.737 32.066 1.217 33.246 o
7 1 9 3.903 4.434 0.499 197.865 o
7 1 10 31.175 31.063 1.233 32.366 o
7 2 0 72.186 71.394 1.299 29.171 o
7 2 1 16.868 15.885 0.680 106.563 o
7 2 2 37.598 38.682 0.981 51.138 o
7 2 3 30.536 30.070 0.921 58.054 o
7 2 4 12.413 11.900 0.713 96.954 o
7 2 5 21.450 21.607 0.872 64.812 o
7 2 6 74.116 76.760 1.628 18.575 o
7 2 7 69.034 71.981 1.655 17.965 o
7 2 8 70.205 70.802 1.683 17.385 o
7 2 9 10.048 10.371 0.789 79.018 o
7 2 10 2.878 3.919 0.482 211.585 o
7 3 0 13.435 13.654 0.625 126.079 o
7 3 1 39.896 41.428 0.987 50.572 o
7 3 2 28.732 29.018 0.866 65.635 o
7 3 3 17.575 17.886 0.773 82.416 o
7 3 4 24.399 23.306 0.882 63.212 o
7 3 5 8.014 7.213 0.614 130.622 o
7 3 6 56.286 57.373 1.431 24.053 o
7 3 7 8.255 8.145 0.696 101.588 o
7 3 8 16.673 18.127 0.976 51.714 o
7 3 9 6.959 7.159 0.592 140.476 o
7 3 10 64.167 65.902 1.683 17.385 o
7 4 0 3.808 3.810 0.504 193.587 o
7 4 1 68.615 69.870 1.305 28.927 o
7 4 2 13.475 12.601 0.663 111.913 o
7 4 3 26.439 24.469 0.861 66.474 o
7 4 4 56.670 56.825 1.288 29.670 o
7 4 5 31.861 31.282 1.047 44.914 o
7 4 6 52.827 54.544 1.381 25.802 o
7 4 7 3.294 3.108 0.439 256.018 o
7 4 8 6.134 6.304 0.597 137.911 o
7 4 9 19.152 19.185 1.041 45.388 o
7 4 10 6.759 7.433 0.565 154.446 o
7 5 0 54.622 52.527 1.157 36.803 o
7 5 1 72.008 72.814 1.359 26.641 o
7 5 2 48.421 50.428 1.140 37.873 o
7 5 3 102.411 102.407 1.721 16.619 o
7 5 4 51.089 51.700 1.261 30.974 o
7 5 5 31.593 32.493 1.058 43.988 o
7 5 6 6.298 6.457 0.537 170.608 o
7 5 7 4.556 4.791 0.482 211.585 o
7 5 8 9.311 10.436 0.839 69.995 o
7 5 9 11.684 10.656 0.696 101.588 o
7 5 10 0.329 0.718 0.417 283.677 o
7 6 0 21.628 21.087 0.795 77.932 o
7 6 1 38.921 39.800 1.025 46.856 o
7 6 2 210.305 208.153 2.686 6.824 o
7 6 3 43.185 44.174 1.118 39.372 o
7 6 4 48.233 48.389 1.222 32.949 o
7 6 5 27.119 27.171 1.003 48.927 o
7 6 6 12.824 12.059 0.828 71.862 o
7 6 7 2.946 3.245 0.449 243.682 o
7 6 8 3.581 4.467 0.493 202.286 o
7 6 9 9.177 10.277 0.734 91.252 o
7 6 10 10.305 9.685 0.877 64.005 o
7 7 0 2.227 2.417 0.351 400.029 o
7 7 1 23.084 22.802 0.828 71.862 o
7 7 2 7.691 7.060 0.504 193.587 o
7 7 3 11.297 11.977 0.702 100.007 o
7 7 4 4.950 4.500 0.439 256.018 o
7 7 5 45.699 44.739 1.255 31.245 o
7 7 6 32.351 33.485 1.173 35.779 o
7 7 7 20.354 22.150 1.030 46.359 o
7 7 8 9.183 8.617 0.729 92.629 o
7 7 9 3.175 3.799 0.488 206.857 o
7 8 0 34.045 34.636 0.987 50.572 o
7 8 1 0.852 1.140 0.340 426.253 o
7 8 2 17.657 17.431 0.806 75.826 o
7 8 3 38.448 37.333 1.080 42.220 o
7 8 4 9.426 9.110 0.641 119.696 o
7 8 5 63.040 62.355 1.485 22.311 o
7 8 6 28.058 28.245 1.102 40.556 o
7 8 7 34.078 35.322 1.228 32.655 o
7 8 8 3.694 3.892 0.526 177.790 o
7 8 9 58.069 57.329 1.595 19.349 o
7 9 0 44.366 42.902 1.118 39.372 o
7 9 1 100.934 100.039 1.749 16.102 o
7 9 2 25.226 23.493 0.932 56.696 o
7 9 3 6.126 5.662 0.510 189.446 o
7 9 4 17.727 16.449 0.855 67.329 o
7 9 5 5.123 4.802 0.466 226.784 o
7 9 6 9.790 8.863 0.713 96.954 o
7 9 7 18.239 17.069 0.998 49.466 o
7 9 8 23.863 23.356 1.107 40.156 o
7 9 9 0.481 0.691 0.872 64.812 o
7 10 0 100.658 97.924 1.749 16.102 o
7 10 1 19.612 19.015 0.844 69.089 o
7 10 2 144.913 141.917 2.209 10.089 o
7 10 3 5.925 5.969 0.510 189.446 o
7 10 4 10.976 11.763 0.778 81.260 o
7 10 5 43.342 44.020 1.299 29.171 o
7 10 6 7.516 7.449 0.685 104.865 o
7 10 7 36.196 36.796 1.294 29.419 o
7 10 8 1.949 2.094 0.449 243.682 o
7 10 9 30.962 31.583 1.222 32.949 o
7 11 0 32.595 32.696 1.047 44.914 o
7 11 1 18.736 18.154 0.861 66.474 o
7 11 2 10.495 10.628 0.658 113.786 o
7 11 3 6.416 5.931 0.592 140.476 o
7 11 4 14.079 13.944 0.855 67.329 o
7 11 5 13.179 11.971 0.844 69.089 o
7 11 6 23.902 25.099 1.074 42.652 o
7 11 7 13.367 12.826 0.822 72.823 o
7 11 8 28.492 27.456 1.178 35.447 o
7 11 9 6.157 6.572 0.543 167.179 o
7 12 0 24.075 24.266 0.943 55.385 o
7 12 1 0.287 0.510 0.329 455.144 o
7 12 2 57.954 58.157 1.414 24.616 o
7 12 3 14.405 14.832 0.839 69.995 o
7 12 4 28.142 27.133 1.074 42.652 o
7 12 5 30.669 28.031 1.140 37.873 o
7 12 6 6.969 6.649 0.603 135.415 o
7 12 7 22.202 20.429 1.091 41.376 o
7 12 8 16.062 17.091 0.998 49.466 o
7 13 0 0.077 0.082 0.351 400.029 o
7 13 1 35.907 36.900 1.157 36.803 o
7 13 2 5.656 5.257 0.515 185.436 o
7 13 3 20.792 21.284 0.981 51.138 o
7 13 4 40.377 39.219 1.299 29.171 o
7 13 5 5.127 4.566 0.488 206.857 o
7 13 6 12.434 13.347 0.910 59.461 o
7 13 7 7.532 7.592 0.636 121.768 o
7 13 8 20.797 20.939 1.052 44.448 o
7 14 0 17.805 17.398 0.888 62.434 o
7 14 1 20.442 18.039 0.954 54.119 o
7 14 2 6.317 5.744 0.499 197.865 o
7 14 3 42.660 42.420 1.316 28.447 o
7 14 4 12.022 11.757 0.866 65.635 o
7 14 5 52.381 52.971 1.491 22.147 o
7 14 6 9.329 10.754 0.773 82.416 o
7 14 7 29.233 28.892 1.239 32.080 o
7 14 8 2.517 2.423 0.444 249.736 o
7 15 0 16.337 15.117 0.882 63.212 o
7 15 1 11.560 10.710 0.789 79.018 o
7 15 2 17.267 19.941 0.954 54.119 o
7 15 3 14.728 16.279 0.932 56.696 o
7 15 4 37.414 38.068 1.305 28.927 o
7 15 5 2.611 3.135 0.466 226.784 o
7 15 6 18.203 17.376 1.020 47.361 o
7 15 7 6.721 6.835 0.554 160.623 o
7 16 0 2.881 2.483 0.433 262.541 o
7 16 1 17.934 17.299 0.965 52.896 o
7 16 2 15.589 15.123 0.926 57.369 o
7 16 3 25.488 24.485 1.129 38.611 o
7 16 4 33.380 35.322 1.255 31.245 o
7 16 5 12.742 12.119 0.822 72.823 o
7 16 6 20.271 18.812 1.041 45.388 o
7 16 7 0.007 0.186 0.811 74.805 o
7 17 0 12.654 11.483 0.855 67.329 o
7 17 1 36.325 35.875 1.261 30.974 o
7 17 2 6.686 6.134 0.587 143.114 o
7 17 3 33.171 32.345 1.239 32.080 o
7 17 4 22.136 23.082 1.074 42.652 o
7 17 5 4.060 4.012 0.493 202.286 o
7 17 6 16.700 14.734 0.981 51.138 o
7 18 0 1.630 1.228 0.411 291.292 o
7 18 1 41.537 42.732 1.370 26.216 o
7 18 2 10.582 11.193 0.872 64.812 o
7 18 3 8.531 7.882 0.641 119.696 o
7 18 4 14.551 16.038 0.981 51.138 o
7 18 5 6.679 5.646 0.526 177.790 o
7 18 6 8.014 7.000 0.619 128.320 o
7 19 0 3.166 3.097 0.466 226.784 o
7 19 1 27.474 26.266 1.157 36.803 o
7 19 2 1.340 1.655 0.433 262.541 o
7 19 3 22.632 21.065 1.085 41.795 o
7 19 4 26.370 25.532 1.178 35.447 o
7 19 5 4.726 5.459 0.521 181.553 o
7 20 0 23.005 24.819 1.107 40.156 o
7 20 1 11.136 11.160 0.899 60.920 o
7 20 2 1.144 1.880 0.444 249.736 o
7 20 3 12.450 12.607 0.915 58.751 o
7 20 4 2.846 1.929 0.439 256.018 o
7 21 0 17.912 17.820 1.025 46.856 o
7 21 1 26.163 25.148 1.151 37.155 o
7 21 2 0.929 0.976 0.406 299.218 o
7 21 3 9.217 8.830 0.745 88.588 o
7 22 0 1.181 1.431 0.439 256.018 o
7 22 1 34.077 33.518 1.272 30.442 o
8 0 0 2.687 2.346 0.362 376.152 o
8 0 1 33.802 31.435 0.981 51.138 o
8 0 2 0.224 0.554 0.334 440.343 o
8 0 3 82.221 82.707 1.601 19.217 o
8 0 4 5.314 5.503 0.493 202.286 o
8 0 5 0.456 0.663 0.351 400.029 o
8 0 6 83.137 85.596 1.803 15.138 o
8 0 7 55.559 54.819 1.529 21.049 o
8 0 8 45.750 47.534 1.453 23.332 o
8 0 9 6.589 6.260 0.543 167.179 o
8 1 0 1.211 1.710 0.351 400.029 o
8 1 1 30.361 31.030 0.959 53.503 o
8 1 2 2.397 3.119 0.389 325.038 o
8 1 3 2.024 1.902 0.378 344.154 o
8 1 4 12.993 14.065 0.762 84.805 o
8 1 5 21.171 23.394 0.948 54.747 o
8 1 6 1.959 1.886 0.406 299.218 o
8 1 7 4.825 5.010 0.499 197.865 o
8 1 8 43.093 44.892 1.420 24.426 o
8 1 9 5.499 5.821 0.537 170.608 o
8 2 0 49.459 49.293 1.157 36.803 o
8 2 1 99.617 96.104 1.672 17.614 o
8 2 2 32.666 32.225 0.998 49.466 o
8 2 3 14.360 14.690 0.789 79.018 o
8 2 4 16.059 16.329 0.822 72.823 o
8 2 5 17.799 18.203 0.882 63.212 o
8 2 6 8.792 8.408 0.691 103.207 o
8 2 7 1.072 1.310 0.411 291.292 o
8 2 8 10.319 10.003 0.762 84.805 o
8 2 9 18.784 19.979 1.085 41.795 o
8 3 0 0.087 0.143 0.329 455.144 o
8 3 1 0.735 1.233 0.345 412.829 o
8 3 2 11.345 11.385 0.718 95.479 o
8 3 3 35.908 34.894 1.052 44.448 o
8 3 4 45.077 45.846 1.233 32.366 o
8 3 5 14.277 14.860 0.844 69.089 o
8 3 6 11.857 12.306 0.850 68.201 o
8 3 7 11.751 11.335 0.762 84.805 o
8 3 8 36.275 35.333 1.305 28.927 o
8 3 9 15.799 17.162 1.014 47.875 o
8 4 0 1.974 2.368 0.373 354.351 o
8 4 1 33.376 32.559 0.998 49.466 o
8 4 2 130.237 129.178 2.055 11.652 o
8 4 3 42.812 41.987 1.168 36.115 o
8 4 4 22.785 23.756 0.954 54.119 o
8 4 5 16.101 17.085 0.882 63.212 o
8 4 6 36.071 36.950 1.222 32.949 o
8 4 7 56.985 60.026 1.568 20.032 o
8 4 8 11.652 11.752 0.817 73.804 o
8 4 9 19.437 17.935 1.047 44.914 o
8 5 0 10.037 10.579 0.680 106.563 o
8 5 1 68.403 66.620 1.409 24.808 o
8 5 2 2.964 3.070 0.406 299.218 o
8 5 3 22.929 22.956 0.932 56.696 o
8 5 4 10.728 12.070 0.745 88.588 o
8 5 5 34.226 33.924 1.162 36.457 o
8 5 6 21.373 22.402 1.020 47.361 o
8 5 7 1.255 1.014 0.406 299.218 o
8 5 8 15.065 14.158 0.976 51.714 o
8 5 9 0.567 0.904 0.433 262.541 o
8 6 0 134.358 130.981 2.072 11.467 o
8 6 1 2.281 2.543 0.395 316.072 o
8 6 2 50.999 49.842 1.255 31.245 o
8 6 3 34.120 35.782 1.096 40.963 o
8 6 4 6.258 6.895 0.515 185.436 o
8 6 5 46.087 46.564 1.326 27.978 o
8 6 6 14.498 16.422 0.932 56.696 o
8 6 7 2.848 3.113 0.460 232.216 o
8 6 8 8.996 8.913 0.630 123.895 o
8 6 9 42.123 44.251 1.370 26.216 o
8 7 0 18.215 17.935 0.850 68.201 o
8 7 1 21.632 21.794 0.888 62.434 o
8 7 2 13.786 12.464 0.806 75.826 o
8 7 3 35.096 34.910 1.107 40.156 o
8 7 4 39.122 41.099 1.239 32.080 o
8 7 5 8.290 8.310 0.691 103.207 o
8 7 6 30.712 28.338 1.178 35.447 o
8 7 7 36.520 35.892 1.283 29.924 o
8 7 8 13.040 13.385 0.943 55.385 o
8 7 9 20.745 23.219 1.107 40.156 o
8 8 0 5.437 5.706 0.510 189.446 o
8 8 1 4.527 5.092 0.493 202.286 o
8 8 2 176.848 182.106 2.626 7.141 o
8 8 3 20.847 21.229 0.915 58.751 o
8 8 4 64.930 65.200 1.557 20.315 o
8 8 5 36.459 36.977 1.244 31.798 o
8 8 6 13.037 13.007 0.926 57.369 o
8 8 7 29.054 30.454 1.217 33.246 o
8 8 8 3.177 3.108 0.471 221.541 o
8 8 9 6.273 7.520 0.647 117.676 o
8 9 0 63.671 63.967 1.469 22.813 o
8 9 1 62.568 60.919 1.458 23.157 o
8 9 2 1.974 1.962 0.378 344.154 o
8 9 3 59.077 59.631 1.464 22.984 o
8 9 4 24.264 24.534 1.014 47.875 o
8 9 5 13.446 13.473 0.888 62.434 o
8 9 6 4.693 5.279 0.515 185.436 o
8 9 7 9.410 10.360 0.784 80.127 o
8 9 8 3.154 3.919 0.493 202.286 o
8 10 0 18.094 17.770 0.882 63.212 o
8 10 1 3.874 4.330 0.439 256.018 o
8 10 2 24.794 23.098 0.981 51.138 o
8 10 3 69.636 70.851 1.622 18.701 o
8 10 4 29.180 30.761 1.146 37.511 o
8 10 5 50.423 49.568 1.442 23.689 o
8 10 6 0.045 0.137 0.400 307.472 o
8 10 7 0.139 0.126 0.428 269.316 o
8 10 8 4.066 4.462 0.499 197.865 o
8 11 0 21.495 22.731 0.959 53.503 o
8 11 1 4.216 3.963 0.444 249.736 o
8 11 2 5.002 4.193 0.455 237.845 o
8 11 3 10.731 10.963 0.811 74.805 o
8 11 4 55.564 54.314 1.474 22.644 o
8 11 5 0.567 1.102 0.400 307.472 o
8 11 6 28.349 29.566 1.217 33.246 o
8 11 7 30.338 28.371 1.222 32.949 o
8 11 8 21.189 22.468 1.091 41.376 o
8 12 0 9.084 10.168 0.658 113.786 o
8 12 1 20.535 21.169 0.987 50.572 o
8 12 2 26.791 27.681 1.080 42.220 o
8 12 3 62.659 63.024 1.579 19.755 o
8 12 4 15.007 15.660 0.915 58.751 o
8 12 5 55.212 53.832 1.540 20.751 o
8 12 6 0.089 0.027 0.384 334.391 o
8 12 7 32.766 32.789 1.239 32.080 o
8 13 0 56.295 58.299 1.496 21.985 o
8 13 1 25.962 26.190 1.063 43.536 o
8 13 2 2.811 2.741 0.439 256.018 o
8 13 3 34.029 37.454 1.255 31.245 o
8 13 4 25.002 24.660 1.091 41.376 o
8 13 5 0.894 1.228 0.422 276.356 o
8 13 6 9.023 9.812 0.734 91.252 o
8 13 7 7.444 8.682 0.658 113.786 o
8 14 0 1.460 1.272 0.400 307.472 o
8 14 1 4.378 4.533 0.488 206.857 o
8 14 2 27.059 27.149 1.113 39.761 o
8 14 3 14.972 15.918 0.926 57.369 o
8 14 4 24.743 24.978 1.129 38.611 o
8 14 5 6.778 5.481 0.532 174.144 o
8 14 6 2.649 3.300 0.477 216.477 o
8 14 7 11.788 13.194 0.932 56.696 o
8 15 0 1.545 1.787 0.422 276.356 o
8 15 1 18.920 18.521 0.981 51.138 o
8 15 2 3.657 3.694 0.471 221.541 o
8 15 3 0.792 0.537 0.389 325.038 o
8 15 4 36.484 38.857 1.332 27.748 o
8 15 5 12.840 14.049 0.937 56.035 o
8 15 6 14.287 14.800 0.981 51.138 o
8 16 0 34.439 36.144 1.261 30.974 o
8 16 1 8.483 8.704 0.756 86.038 o
8 16 2 21.748 21.202 1.052 44.448 o
8 16 3 11.349 12.256 0.893 61.670 o
8 16 4 7.493 8.403 0.592 140.476 o
8 16 5 9.454 10.228 0.877 64.005 o
8 16 6 18.351 18.752 1.036 45.870 o
8 17 0 16.308 16.976 0.976 51.714 o
8 17 1 17.186 18.346 1.030 46.359 o
8 17 2 5.132 5.377 0.532 174.144 o
8 17 3 2.354 3.234 0.477 216.477 o
8 17 4 6.751 7.153 0.625 126.079 o
8 17 5 5.326 5.410 0.521 181.553 o
8 18 0 0.172 0.526 0.400 307.472 o
8 18 1 3.405 3.919 0.493 202.286 o
8 18 2 4.107 2.916 0.466 226.784 o
8 18 3 5.163 5.964 0.532 174.144 o
8 18 4 0.426 0.554 0.395 316.072 o
8 19 0 9.715 9.258 0.669 110.086 o
8 19 1 40.179 40.501 1.359 26.641 o
8 19 2 2.122 3.015 0.466 226.784 o
8 19 3 1.472 1.853 0.433 262.541 o
8 20 0 0.669 0.784 0.406 299.218 o
8 20 1 35.310 37.377 1.299 29.171 o
8 20 2 10.225 10.403 0.762 84.805 o
9 0 1 7.250 7.460 0.543 167.179 o
9 0 2 113.260 112.740 1.995 12.367 o
9 0 3 19.346 20.259 0.904 60.184 o
9 0 4 66.466 66.987 1.595 19.349 o
9 0 5 71.057 69.706 1.683 17.385 o
9 0 6 0.385 0.888 0.395 316.072 o
9 0 7 18.797 18.450 1.030 46.359 o
9 0 8 3.974 4.418 0.504 193.587 o
9 1 0 0.481 0.570 0.329 455.144 o
9 1 1 12.159 11.938 0.756 86.038 o
9 1 2 1.404 1.820 0.373 354.351 o
9 1 3 19.753 20.697 0.932 56.696 o
9 1 4 0.801 1.590 0.400 307.472 o
9 1 5 12.320 12.311 0.861 66.474 o
9 1 6 2.695 2.878 0.455 237.845 o
9 1 7 5.500 6.095 0.603 135.415 o
9 1 8 2.294 2.362 0.449 243.682 o
9 2 0 23.582 24.118 0.948 54.747 o
9 2 1 26.254 26.628 0.987 50.572 o
9 2 2 4.874 4.599 0.444 249.736 o
9 2 3 74.388 74.025 1.617 18.828 o
9 2 4 3.059 3.470 0.439 256.018 o
9 2 5 43.532 43.916 1.337 27.521 o
9 2 6 16.125 16.137 0.959 53.503 o
9 2 7 21.463 20.845 1.085 41.795 o
9 2 8 2.948 2.971 0.466 226.784 o
9 3 1 14.195 13.051 0.800 76.868 o
9 3 2 3.025 2.817 0.406 299.218 o
9 3 3 0.218 0.066 0.340 426.253 o
9 3 4 13.502 15.375 0.866 65.635 o
9 3 5 41.660 40.485 1.299 29.171 o
9 3 6 29.855 30.503 1.178 35.447 o
9 3 7 5.249 5.542 0.526 177.790 o
9 3 8 12.926 13.731 0.948 54.747 o
9 4 0 179.700 178.055 2.620 7.171 o
9 4 1 4.678 5.887 0.515 185.436 o
9 4 2 92.028 92.711 1.814 14.955 o
9 4 3 7.722 7.822 0.576 148.618 o
9 4 4 40.920 42.721 1.283 29.924 o
9 4 5 13.753 13.331 0.888 62.434 o
9 4 6 9.768 9.236 0.745 88.588 o
9 4 7 20.699 19.766 1.074 42.652 o
9 4 8 24.021 23.750 1.140 37.873 o
9 5 0 0.058 0.581 0.685 104.865 o
9 5 1 7.631 7.000 0.614 130.622 o
9 5 2 31.661 32.811 1.102 40.556 o
9 5 3 21.418 21.755 0.998 49.466 o
9 5 4 18.545 19.355 0.965 52.896 o
9 5 5 0.564 1.151 0.400 307.472 o
9 5 6 11.059 10.908 0.861 66.474 o
9 5 7 19.018 20.242 1.074 42.652 o
9 5 8 7.588 7.000 0.619 128.320 o
9 6 0 6.131 6.698 0.543 167.179 o
9 6 1 19.327 19.727 0.915 58.751 o
9 6 2 10.867 10.064 0.789 79.018 o
9 6 3 26.893 28.015 1.091 41.376 o
9 6 4 28.659 29.325 1.096 40.963 o
9 6 5 16.944 17.940 0.992 50.014 o
9 6 6 9.131 10.168 0.828 71.862 o
9 6 7 62.870 63.627 1.666 17.730 o
9 6 8 17.100 19.053 1.009 48.397 o
9 7 0 7.761 7.241 0.641 119.696 o
9 7 1 40.272 39.542 1.239 32.080 o
9 7 2 11.797 11.231 0.822 72.823 o
9 7 3 16.688 16.597 0.915 58.751 o
9 7 4 14.178 13.314 0.882 63.212 o
9 7 5 37.283 36.917 1.266 30.706 o
9 7 6 16.125 16.104 0.981 51.138 o
9 7 7 1.084 1.359 0.422 276.356 o
9 7 8 28.719 29.555 1.211 33.548 o
9 8 0 128.207 126.602 2.203 10.139 o
9 8 1 13.529 14.361 0.839 69.995 o
9 8 2 6.472 6.331 0.510 189.446 o
9 8 3 83.920 86.638 1.847 14.428 o
9 8 4 33.473 35.289 1.233 32.366 o
9 8 5 19.831 20.758 1.025 46.856 o
9 8 6 3.298 3.212 0.482 211.585 o
9 8 7 21.542 21.240 1.047 44.914 o
9 8 8 4.373 5.103 0.510 189.446 o
9 9 0 4.857 4.401 0.466 226.784 o
9 9 1 37.618 38.978 1.217 33.246 o
9 9 2 61.896 64.219 1.568 20.032 o
9 9 3 8.826 10.042 0.828 71.862 o
9 9 4 18.721 20.659 1.003 48.927 o
9 9 5 1.594 1.617 0.428 269.316 o
9 9 6 21.779 23.937 1.113 39.761 o
9 9 7 12.013 11.582 0.926 57.369 o
9 10 0 16.593 15.803 0.910 59.461 o
9 10 1 4.598 4.341 0.477 216.477 o
9 10 2 9.033 10.113 0.778 81.260 o
9 10 3 48.401 50.017 1.436 23.870 o
9 10 4 46.014 49.365 1.469 22.813 o
9 10 5 2.630 2.927 0.466 226.784 o
9 10 6 5.443 5.257 0.576 148.618 o
9 10 7 12.383 13.501 0.926 57.369 o
9 11 0 25.752 25.148 1.074 42.652 o
9 11 1 34.685 34.779 1.222 32.949 o
9 11 2 16.042 15.962 0.932 56.696 o
9 11 3 15.215 15.764 0.948 54.747 o
9 11 4 0.415 0.581 0.395 316.072 o
9 11 5 21.103 20.911 1.063 43.536 o
9 11 6 22.339 21.240 1.074 42.652 o
9 11 7 1.255 1.414 0.422 276.356 o
9 12 0 5.585 5.553 0.515 185.436 o
9 12 1 3.440 3.289 0.460 232.216 o
9 12 2 19.727 19.530 1.025 46.856 o
9 12 3 42.977 44.700 1.387 25.598 o
9 12 4 35.580 35.941 1.272 30.442 o
9 12 5 11.102 11.746 0.882 63.212 o
9 12 6 7.955 9.263 0.745 88.588 o
9 13 0 6.210 6.797 0.548 163.852 o
9 13 1 59.723 59.922 1.590 19.483 o
9 13 2 34.311 35.552 1.288 29.670 o
9 13 3 4.401 3.958 0.493 202.286 o
9 13 4 1.176 1.321 0.428 269.316 o
9 13 5 9.281 7.838 0.652 115.706 o
9 13 6 8.155 7.893 0.576 148.618 o
9 14 0 40.481 42.360 1.376 26.008 o
9 14 1 13.779 13.698 0.943 55.385 o
9 14 2 11.370 10.667 0.795 77.932 o
9 14 3 30.753 30.805 1.244 31.798 o
9 14 4 4.369 4.500 0.504 193.587 o
9 14 5 2.305 2.823 0.466 226.784 o
9 15 0 36.553 37.602 1.310 28.685 o
9 15 1 4.048 4.226 0.499 197.865 o
9 15 2 9.923 10.952 0.850 68.201 o
9 15 3 2.513 3.601 0.482 211.585 o
9 15 4 5.243 5.361 0.526 177.790 o
9 15 5 9.492 9.516 0.762 84.805 o
9 16 0 0.082 0.110 0.406 299.218 o
9 16 1 9.692 10.294 0.850 68.201 o
9 16 2 16.980 18.428 1.030 46.359 o
9 16 3 2.041 2.171 0.444 249.736 o
9 16 4 4.652 4.763 0.510 189.446 o
9 17 1 22.888 22.024 1.085 41.795 o
9 17 2 4.345 3.694 0.477 216.477 o
9 17 3 4.819 4.922 0.510 189.446 o
9 18 0 4.634 4.676 0.504 193.587 o
9 18 1 1.251 1.398 0.422 276.356 o
9 18 2 12.866 13.139 0.893 61.670 o
10 0 0 273.806 275.102 3.607 3.784 o
10 0 1 0.646 0.751 0.373 354.351 o
10 0 2 54.277 52.209 1.442 23.689 o
10 0 3 8.600 7.663 0.702 100.007 o
10 0 4 2.791 3.239 0.460 232.216 o
10 0 5 17.023 18.247 1.003 48.927 o
10 0 6 0.099 0.175 0.411 291.292 o
10 0 7 3.033 3.453 0.482 211.585 o
10 1 0 0.000 0.077 0.745 88.588 o
10 1 1 40.166 41.313 1.277 30.181 o
10 1 2 3.826 3.705 0.460 232.216 o
10 1 3 0.680 0.729 0.384 334.391 o
10 1 4 8.464 8.880 0.724 94.038 o
10 1 5 32.128 33.036 1.239 32.080 o
10 1 6 9.745 9.439 0.641 119.696 o
10 1 7 4.826 5.898 0.532 174.144 o
10 2 0 9.923 10.360 0.795 77.932 o
10 2 1 12.390 13.336 0.806 75.826 o
10 2 2 50.276 51.163 1.447 23.509 o
10 2 3 15.599 15.287 0.899 60.920 o
10 2 4 14.194 14.942 0.899 60.920 o
10 2 5 32.878 30.723 1.239 32.080 o
10 2 6 12.145 11.867 0.926 57.369 o
10 2 7 87.711 86.819 1.951 12.929 o
10 3 0 1.291 1.760 0.406 299.218 o
10 3 1 18.907 19.283 0.948 54.747 o
10 3 2 13.402 14.542 0.882 63.212 o
10 3 3 5.144 5.152 0.504 193.587 o
10 3 4 19.106 18.143 1.014 47.875 o
10 3 5 1.063 1.294 0.422 276.356 o
10 3 6 0.163 0.449 0.395 316.072 o
10 3 7 3.521 3.738 0.482 211.585 o
10 4 0 118.769 120.216 2.176 10.396 o
10 4 1 14.001 13.221 0.888 62.434 o
10 4 2 17.113 18.993 0.948 54.747 o
10 4 3 15.745 15.764 0.921 58.054 o
10 4 4 13.559 15.770 0.937 56.035 o
10 4 5 22.836 23.498 1.096 40.963 o
10 4 6 2.031 2.012 0.444 249.736 o
10 4 7 9.000 9.395 0.773 82.416 o
10 5 0 11.679 10.579 0.817 73.804 o
10 5 1 5.770 5.854 0.565 154.446 o
10 5 2 6.044 5.399 0.504 193.587 o
10 5 3 8.544 8.337 0.636 121.768 o
10 5 4 33.963 33.063 1.244 31.798 o
10 5 5 57.160 57.954 1.612 18.956 o
10 5 6 3.461 4.018 0.499 197.865 o
10 5 7 4.569 4.708 0.504 193.587 o
10 6 0 23.615 24.710 1.063 43.536 o
10 6 1 40.858 41.833 1.310 28.685 o
10 6 2 2.462 2.724 0.444 249.736 o
10 6 3 57.224 58.327 1.546 20.604 o
10 6 4 4.555 3.958 0.482 211.585 o
10 6 5 18.243 20.116 1.063 43.536 o
10 6 6 3.482 3.218 0.471 221.541 o
10 6 7 37.316 37.607 1.310 28.685 o
10 7 0 1.009 1.332 0.406 299.218 o
10 7 1 11.600 11.944 0.784 80.127 o
10 7 2 37.215 37.355 1.261 30.974 o
10 7 3 2.356 2.450 0.444 249.736 o
10 7 4 39.792 39.608 1.370 26.216 o
10 7 5 2.642 2.231 0.455 237.845 o
10 7 6 13.409 13.276 0.850 68.201 o
10 7 7 11.685 11.911 0.915 58.751 o
10 8 0 3.363 3.102 0.460 232.216 o
10 8 1 2.052 2.198 0.433 262.541 o
10 8 2 7.892 7.471 0.707 98.463 o
10 8 4 21.195 22.408 1.096 40.963 o
10 8 5 12.091 12.744 0.904 60.184 o
10 8 6 6.086 6.375 0.543 167.179 o
10 9 0 20.393 18.686 0.998 49.466 o
10 9 1 8.825 10.157 0.844 69.089 o
10 9 2 2.290 2.730 0.455 237.845 o
10 9 3 10.792 10.957 0.872 64.812 o
10 9 4 13.568 15.868 0.965 52.896 o
10 9 5 42.798 42.113 1.409 24.808 o
10 9 6 6.886 6.769 0.608 132.986 o
10 10 0 4.328 3.738 0.477 216.477 o
10 10 1 10.923 11.143 0.861 66.474 o
10 10 2 32.871 32.965 1.261 30.974 o
10 10 3 24.305 23.296 1.135 38.239 o
10 10 4 23.006 23.186 1.124 38.989 o
10 10 5 12.489 13.320 0.954 54.119 o
10 10 6 15.102 15.863 0.959 53.503 o
10 11 0 1.852 2.467 0.449 243.682 o
10 11 1 49.408 49.052 1.474 22.644 o
10 11 2 45.340 45.029 1.436 23.870 o
10 11 3 1.707 1.836 0.433 262.541 o
10 11 4 20.530 21.416 1.085 41.795 o
10 11 5 2.292 2.193 0.449 243.682 o
10 12 0 1.076 1.946 0.444 249.736 o
10 12 1 10.480 9.028 0.773 82.416 o
10 12 2 1.571 2.357 0.455 237.845 o
10 12 3 21.064 22.205 1.074 42.652 o
10 12 4 1.026 1.557 0.428 269.316 o
10 12 5 11.212 9.477 0.778 81.260 o
10 13 1 9.574 9.411 0.680 106.563 o
10 13 2 0.539 0.976 0.411 291.292 o
10 13 3 28.076 27.724 1.195 34.478 o
10 13 4 0.792 0.965 0.406 299.218 o
10 14 0 7.326 7.520 0.713 96.954 o
10 14 1 9.502 8.935 0.762 84.805 o
10 14 2 35.843 35.119 1.283 29.924 o
10 14 3 2.123 2.549 0.455 237.845 o
10 14 4 20.816 20.073 1.047 44.914 o
10 15 0 1.275 1.606 0.428 269.316 o
10 15 1 16.797 17.118 1.003 48.927 o
10 15 2 33.686 33.727 1.266 30.706 o
10 15 3 4.070 2.510 0.449 243.682 o
10 16 0 0.415 0.153 0.384 334.391 o
10 16 1 2.197 2.379 0.444 249.736 o
11 0 1 0.048 0.312 0.378 344.154 o
11 0 2 8.971 7.701 0.707 98.463 o
11 0 3 16.587 16.312 0.976 51.714 o
11 0 4 7.915 7.164 0.630 123.895 o
11 0 5 7.775 9.203 0.680 106.563 o
11 0 6 19.781 18.647 1.052 44.448 o
11 1 0 0.568 0.789 0.395 316.072 o
11 1 1 31.748 31.139 1.211 33.548 o
11 1 2 9.553 10.338 0.844 69.089 o
11 1 3 19.121 19.908 1.025 46.856 o
11 1 4 13.644 14.909 0.959 53.503 o
11 1 5 14.926 14.860 0.987 50.572 o
11 1 6 5.255 4.895 0.510 189.446 o
11 2 0 190.369 187.527 2.927 5.746 o
11 2 1 1.423 1.617 0.428 269.316 o
11 2 2 17.071 14.882 0.981 51.138 o
11 2 3 9.493 8.924 0.745 88.588 o
11 2 4 28.148 28.404 1.184 35.119 o
11 2 5 35.763 35.908 1.310 28.685 o
11 2 6 0.435 0.943 0.433 262.541 o
11 3 0 10.664 10.628 0.789 79.018 o
11 3 1 9.767 8.787 0.745 88.588 o
11 3 2 22.587 21.421 1.091 41.376 o
11 3 3 0.896 0.619 0.400 307.472 o
11 3 4 35.228 36.297 1.310 28.685 o
11 3 5 22.788 23.241 1.074 42.652 o
11 3 6 28.722 28.486 1.178 35.447 o
11 4 0 0.830 0.669 0.395 316.072 o
11 4 1 7.958 8.260 0.636 121.768 o
11 4 2 11.006 13.232 0.893 61.670 o
11 4 3 29.048 28.360 1.195 34.478 o
11 4 4 7.544 7.625 0.581 145.827 o
11 4 5 2.341 2.478 0.449 243.682 o
11 4 6 6.635 7.142 0.614 130.622 o
11 5 0 0.462 0.384 0.400 307.472 o
11 5 1 27.359 26.776 1.157 36.803 o
11 5 2 1.051 1.518 0.433 262.541 o
11 5 3 17.405 19.678 1.020 47.361 o
11 5 4 3.474 3.344 0.471 221.541 o
11 5 5 3.631 3.152 0.466 226.784 o
11 6 0 16.830 20.149 1.047 44.914 o
11 6 1 1.633 1.672 0.433 262.541 o
11 6 2 1.829 1.984 0.444 249.736 o
11 6 3 17.696 18.686 1.030 46.359 o
11 6 4 15.647 16.899 0.965 52.896 o
11 6 5 47.781 49.354 1.507 21.666 o
11 7 0 59.631 59.834 1.606 19.086 o
11 7 1 27.516 29.139 1.173 35.779 o
11 7 2 20.257 20.336 1.058 43.988 o
11 7 3 13.635 12.892 0.932 56.696 o
11 7 4 5.314 5.207 0.526 177.790 o
11 7 5 11.188 12.486 0.893 61.670 o
11 8 0 0.416 0.910 0.411 291.292 o
11 8 1 14.691 15.419 0.976 51.714 o
11 8 2 8.723 9.625 0.767 83.598 o
11 8 3 15.902 15.737 1.014 47.875 o
11 8 4 0.996 1.447 0.422 276.356 o
11 8 5 0.049 0.269 0.406 299.218 o
11 9 0 1.141 1.743 0.433 262.541 o
11 9 1 2.892 2.154 0.449 243.682 o
11 9 2 2.156 2.324 0.455 237.845 o
11 9 3 2.647 3.212 0.466 226.784 o
11 9 4 12.591 11.193 0.800 76.868 o
11 10 0 11.301 10.612 0.806 75.826 o
11 10 1 7.228 8.156 0.652 115.706 o
11 10 2 3.227 3.272 0.477 216.477 o
11 10 3 3.708 3.793 0.482 211.585 o
11 10 4 3.949 3.464 0.471 221.541 o
11 11 0 55.134 56.825 1.562 20.173 o
11 11 1 5.466 5.328 0.521 181.553 o
11 11 2 21.816 22.210 1.085 41.795 o
11 11 3 18.405 16.702 1.025 46.856 o
11 12 0 5.107 4.560 0.504 193.587 o
11 12 1 0.742 0.877 0.406 299.218 o
11 12 2 6.801 6.123 0.592 140.476 o
11 13 0 10.942 9.910 0.800 76.868 o
11 13 1 14.094 13.786 0.811 74.805 o
12 0 0 9.814 9.154 0.680 106.563 o
12 0 1 11.962 12.613 0.904 60.184 o
12 0 2 0.883 1.009 0.411 291.292 o
12 0 3 0.200 1.085 0.850 68.201 o
12 0 4 12.345 14.476 0.943 55.385 o
12 1 0 12.900 14.186 0.959 53.503 o
12 1 1 4.816 5.229 0.521 181.553 o
12 1 2 5.324 5.240 0.521 181.553 o
12 1 3 16.590 18.384 0.987 50.572 o
12 1 4 45.340 44.930 1.414 24.616 o
12 2 0 5.209 5.481 0.587 143.114 o
12 2 1 4.785 3.886 0.493 202.286 o
12 2 2 50.300 48.444 1.507 21.666 o
12 2 3 0.363 0.839 0.411 291.292 o
12 2 4 7.816 9.247 0.850 68.201 o
12 3 0 26.068 25.302 1.146 37.511 o
12 3 1 24.741 22.884 1.124 38.989 o
12 3 2 1.177 1.557 0.428 269.316 o
12 3 3 20.684 21.180 1.074 42.652 o
12 3 4 17.173 17.474 1.009 48.397 o
12 4 0 2.086 2.379 0.449 243.682 o
12 4 1 7.460 9.028 0.702 100.007 o
12 4 2 9.428 8.825 0.762 84.805 o
12 4 3 1.148 1.891 0.433 262.541 o
12 5 0 17.797 17.951 1.003 48.927 o
12 5 1 37.779 35.190 1.310 28.685 o
12 5 2 8.026 7.899 0.636 121.768 o
12 5 3 6.749 7.175 0.707 98.463 o
12 6 0 21.188 20.867 1.052 44.448 o
12 6 1 0.223 0.526 0.400 307.472 o
12 6 2 15.914 15.414 0.998 49.466 o
12 6 3 0.987 0.910 0.406 299.218 o
12 7 0 7.834 8.216 0.581 145.827 o
12 7 1 21.369 23.224 1.118 39.372 o
12 7 2 5.063 4.993 0.510 189.446 o
12 8 0 0.574 0.608 0.406 299.218 o
12 8 1 9.008 10.283 0.866 65.635 o
12 8 2 5.783 5.421 0.587 143.114 o
12 9 0 36.628 36.610 1.305 28.927 o
;
_olex2_submission_special_instructions 'No special instructions were received'
loop_
_space_group_symop_id
_space_group_symop_operation_xyz
1 x,y,z
2 x+1/2,-y+1/2,-z
3 -x,y+1/2,-z+1/2
4 -x+1/2,-y,z+1/2
loop_
_atom_site_label
_atom_site_type_symbol
_atom_site_fract_x
_atom_site_fract_y
_atom_site_fract_z
_atom_site_U_iso_or_equiv
_atom_site_adp_type
_atom_site_occupancy
_atom_site_refinement_flags_posn
O1 O 0.72676(4) 0.083782(17) 0.62427(4) 0.00655(3) Uani 1.000000 .
O2 O 0.44091(4) 0.184042(17) 0.76112(4) 0.00637(3) Uani 1.000000 .
N1 N 0.64729(4) 0.13751(2) 0.18294(5) 0.00530(3) Uani 1.000000 .
H1 H 0.7044(11) 0.0606(5) 0.1981(14) 0.0232(19) Uani 1.000000 .
H2 H 0.7785(10) 0.1895(5) 0.2114(14) 0.0209(17) Uani 1.000000 .
H3 H 0.5838(12) 0.1492(5) 0.0164(13) 0.0278(19) Uani 1.000000 .
C1 C 0.46630(4) 0.16109(2) 0.35442(5) 0.00448(4) Uani 1.000000 .
H4 H 0.4225(9) 0.2473(4) 0.3432(11) 0.0175(15) Uani 1.000000 .
C2 C 0.25987(5) 0.09069(2) 0.30332(6) 0.00694(4) Uani 1.000000 .
H5 H 0.1921(10) 0.1103(5) 0.1315(12) 0.0276(19) Uani 1.000000 .
H6 H 0.1278(10) 0.1056(5) 0.4315(13) 0.0245(18) Uani 1.000000 .
H7 H 0.3041(10) 0.0045(5) 0.3082(14) 0.032(2) Uani 1.000000 .
C3 C 0.55403(5) 0.14080(2) 0.59985(5) 0.00423(3) Uani 1.000000 .
loop_
_atom_site_aniso_label
_atom_site_aniso_U_11
_atom_site_aniso_U_22
_atom_site_aniso_U_33
_atom_site_aniso_U_12
_atom_site_aniso_U_13
_atom_site_aniso_U_23
O1 0.00668(7) 0.00706(7) 0.00593(8) 0.00245(6) -0.00064(6) 0.00053(6)
O2 0.00755(7) 0.00762(6) 0.00392(8) 0.00211(6) 0.00060(6) -0.00056(6)
N1 0.00556(7) 0.00610(7) 0.00424(8) 0.00012(6) 0.00067(6) -0.00016(6)
H1 0.025(4) 0.027(4) 0.018(5) 0.005(3) 0.013(4) 0.003(3)
H2 0.013(3) 0.028(4) 0.022(5) 0.003(3) 0.007(4) -0.000(4)
H3 0.036(4) 0.022(4) 0.026(5) -0.009(4) 0.027(4) -0.012(4)
C1 0.00519(8) 0.00473(7) 0.00352(9) 0.00044(6) -0.00044(7) 0.00009(6)
H4 0.023(3) 0.012(3) 0.018(4) 0.008(3) 0.004(3) -0.001(3)
C2 0.00582(9) 0.00887(9) 0.00614(10) -0.00132(8) -0.00059(8) -0.00047(8)
H5 0.019(4) 0.048(5) 0.015(4) -0.010(3) -0.011(3) 0.011(4)
H6 0.011(3) 0.030(4) 0.033(5) -0.003(3) 0.008(4) 0.004(4)
H7 0.032(5) 0.015(3) 0.048(6) -0.004(3) 0.001(4) -0.005(3)
C3 0.00487(7) 0.00426(7) 0.00356(9) 0.00023(7) -0.00019(7) -0.00003(6)
loop_
_atom_type_symbol
_atom_type_scat_dispersion_real
_atom_type_scat_dispersion_imag
_atom_type_scat_source
_atom_type_scat_dispersion_source
C 0.00347 0.00161 'NoSpherA2: Chem.Sci. 2021, DOI:10.1039/D0SC05526C'
'Henke, Gullikson and Davis, At. Data and Nucl. Data Tables, 1993, 54, 2'
H 0.00000 0.00000 'NoSpherA2: Chem.Sci. 2021, DOI:10.1039/D0SC05526C'
'Henke, Gullikson and Davis, At. Data and Nucl. Data Tables, 1993, 54, 2'
N 0.00653 0.00323 'NoSpherA2: Chem.Sci. 2021, DOI:10.1039/D0SC05526C'
'Henke, Gullikson and Davis, At. Data and Nucl. Data Tables, 1993, 54, 2'
O 0.01158 0.00611 'NoSpherA2: Chem.Sci. 2021, DOI:10.1039/D0SC05526C'
'Henke, Gullikson and Davis, At. Data and Nucl. Data Tables, 1993, 54, 2'
loop_
_diffrn_refln_index_h
_diffrn_refln_index_k
_diffrn_refln_index_l
_diffrn_refln_intensity_net
_diffrn_refln_intensity_u
0 2 0 334.87 3.2
0 4 0 9448.91 80.99
0 6 0 163.43 1.9
0 8 0 82.64 1.31
0 10 0 1.46 0.62
0 12 0 424.14 4.85
0 14 0 106.72 2.05
0 16 0 46 1.56
0 18 0 414.8 5.42
0 20 0 0.4 0.62
0 22 0 246.97 4.29
0 24 0 0.42 0.69
0 26 0 11.75 1.12
0 1 1 1320 13.35
0 2 1 217.82 2.22
0 3 1 1291.14 11.66
0 4 1 179.07 1.94
0 5 1 0.42 0.3
0 6 1 865.47 8.34
0 7 1 67.29 1.11
0 8 1 80.83 1.33
0 9 1 58.46 1.21
0 10 1 250.2 3.09
0 11 1 121.57 2.02
0 12 1 139.12 2.24
0 13 1 34.32 1.26
0 14 1 69.07 1.72
0 15 1 165.76 2.84
0 16 1 4.34 16.76
0 17 1 2.06 0.63
0 18 1 109.11 2.49
0 19 1 29.44 1.63
0 20 1 50 1.91
0 21 1 4.9 0.77
0 23 1 3.15 0.77
0 24 1 0.3 0.7
0 25 1 5.45 1.02
0 26 1 36.05 2.25
0 0 2 5179.34 60.69
0 1 2 971.51 11.94
0 2 2 330.85 3.78
0 3 2 102.39 1.45
0 4 2 311.97 3.26
0 5 2 1032.85 9.7
0 6 2 176.23 2.13
0 7 2 9.87 0.62
0 8 2 203.58 2.55
0 9 2 43.16 1.09
0 10 2 84.28 1.57
0 11 2 152.66 2.3
0 12 2 51.48 1.37
0 13 2 39.16 1.27
0 14 2 38.8 1.37
0 15 2 330.4 4.35
0 16 2 8.1 0.74
0 17 2 111.27 2.52
0 18 2 37.18 1.66
0 19 2 218.44 3.81
0 20 2 1.78 0.74
0 21 2 83.71 2.48
0 22 2 67.08 2.35
0 23 2 32.82 1.87
0 24 2 4.54 0.83
0 25 2 40.93 2.3
0 26 2 4.66 0.91
0 1 3 153.04 3.18
0 2 3 287.47 5.33
0 3 3 374.32 4.47
0 4 3 1346.6 14.16
0 5 3 148.17 2.18
0 6 3 496.26 5.18
0 7 3 40.82 1.04
0 8 3 112.33 1.81
0 9 3 260.07 3.25
0 10 3 72.19 1.52
0 11 3 128.23 2.15
0 12 3 216.68 3.09
0 13 3 265.14 3.64
0 14 3 50.69 1.56
0 15 3 164.83 2.89
0 16 3 282.05 4.12
0 17 3 86.03 2.26
0 18 3 49.2 1.81
0 19 3 4.56 0.74
0 20 3 80.97 2.44
0 21 3 1.59 0.7
0 22 3 2.11 0.74
0 23 3 51.31 2.12
0 24 3 23.17 1.66
0 25 3 9.07 1.05
0 0 4 382.05 7.11
0 1 4 72.56 2.19
0 2 4 169.56 3.74
0 3 4 14.58 0.82
0 4 4 418.12 5.17
0 5 4 1.23 0.68
0 6 4 129.25 2.24
0 7 4 53.23 1.42
0 8 4 117.5 1.96
0 9 4 13.11 0.84
0 10 4 164.61 2.52
0 11 4 178.53 2.76
0 12 4 71.07 1.75
0 13 4 20.93 1.18
0 14 4 259.51 3.8
0 15 4 82.48 2.15
0 16 4 172.51 3.17
0 17 4 10.4 0.84
0 18 4 17.55 1.35
0 19 4 6.12 0.8
0 20 4 3.34 0.75
0 21 4 0.34 0.68
0 22 4 7.93 0.9
0 23 4 0.22 0.73
0 24 4 48.42 2.07
0 25 4 5.28 0.93
0 1 5 430.21 8.23
0 2 5 250.13 5.38
0 3 5 89.67 2.8
0 4 5 708.95 8.35
0 5 5 323.83 4.43
0 6 5 1.41 0.75
0 7 5 12.07 0.96
0 8 5 264.62 3.97
0 9 5 126.38 2.6
0 10 5 14.49 1
0 11 5 37.8 1.42
0 12 5 2.71 0.6
0 13 5 144.28 2.74
0 14 5 6.41 0.74
0 15 5 25.69 1.44
0 16 5 24.2 1.45
0 17 5 140.34 3.02
0 18 5 4.25 0.76
0 19 5 24.82 1.63
0 20 5 0.54 0.73
0 21 5 35.78 1.89
0 22 5 10.01 0.96
0 23 5 22.82 1.75
0 24 5 0.47 0.69
0 0 6 1.43 1.14
0 1 6 170.82 4.46
0 2 6 29.52 1.87
0 3 6 2.71 1.18
0 4 6 29.13 1.98
0 5 6 157.17 2.86
0 6 6 20.36 1.19
0 7 6 258.83 4.09
0 8 6 54.67 1.8
0 9 6 26.15 1.41
0 10 6 28.44 1.5
0 11 6 213.56 3.46
0 12 6 11.5 1.01
0 13 6 8.71 0.88
0 14 6 21.3 1.34
0 15 6 0.17 0.62
0 16 6 75.68 2.33
0 17 6 53.06 2.02
0 18 6 14.21 1.25
0 19 6 80.56 2.53
0 20 6 3.35 0.78
0 21 6 38.81 1.98
0 22 6 19.28 1.41
0 23 6 30.98 1.81
0 1 7 107.1 3.74
0 2 7 986.15 17.72
0 3 7 0.85 1.4
0 4 7 21.47 2
0 5 7 43.88 2.61
0 6 7 78.66 2.22
0 7 7 85 2.33
0 8 7 3.55 0.79
0 9 7 9 0.94
0 10 7 16.8 1.47
0 11 7 57.21 2.16
0 12 7 10.64 1.17
0 13 7 21.21 1.45
0 14 7 2.69 0.7
0 16 7 148.86 3.31
0 17 7 1.92 0.73
0 18 7 4.2 0.8
0 19 7 12.5 1.01
0 20 7 246.41 4.46
0 21 7 1.66 0.72
0 0 8 44.6 2.75
0 1 8 6.53 1.73
0 2 8 15.87 2.09
0 3 8 28.64 2.45
0 4 8 3.15 1.73
0 6 8 18.72 1.49
0 7 8 108.66 2.85
0 8 8 159.44 3.51
0 9 8 22.35 1.58
0 10 8 11.92 1.27
0 11 8 73.06 2.56
0 12 8 73.3 2.63
0 13 8 58.58 2.45
0 14 8 22.85 1.79
0 15 8 1.01 0.7
0 16 8 1.82 0.73
0 17 8 11.97 1
0 18 8 1.05 0.73
0 19 8 16.81 1.4
0 20 8 11.22 0.96
0 1 9 15.53 2.12
0 2 9 84.51 4
0 3 9 115.43 4.61
0 4 9 40.49 2.96
0 5 9 3.01 1.75
0 6 9 2.88 1.79
0 7 9 84.78 2.78
0 8 9 145.15 3.54
0 9 9 30.02 1.95
0 10 9 25.24 1.86
0 11 9 4.09 0.96
0 12 9 63.57 2.54
0 13 9 53.11 2.44
0 14 9 0.52 0.89
0 15 9 86.2 2.99
0 16 9 26.34 1.99
0 17 9 28.29 1.8
0 18 9 15.64 1.17
0 0 10 8.76 2.24
0 1 10 0.01 1.83
0 2 10 37.72 3.16
0 3 10 89.22 4.4
0 4 10 51.64 3.54
0 5 10 59.59 3.75
0 6 10 75.83 4.24
0 7 10 99.04 4.74
0 8 10 109.7 3.28
0 9 10 12.27 1.2
0 10 10 3.39 0.95
0 11 10 29.85 2.09
0 12 10 24.46 1.69
0 13 10 22.85 1.91
0 14 10 79.4 2.96
0 15 10 10.67 1.18
0 1 11 0.88 2.22
0 2 11 4.92 2.25
0 3 11 12.38 2.7
0 4 11 1.67 2.35
0 5 11 1.63 2.35
0 6 11 14.07 2.8
0 7 11 5.64 2.46
0 8 11 15.3 2.8
0 9 11 14.58 1.4
0 10 11 2.86 0.98
0 11 11 15.21 1.53
0 12 11 54.96 2.56
0 0 12 4.52 16.76
0 1 12 49.22 4.1
0 2 12 36.82 3.58
0 3 12 211.78 7.21
0 4 12 0.77 2.58
0 5 12 17.82 3.13
0 6 12 101.65 5.02
0 7 12 118.13 5.54
1 1 0 458.35 4.31
1 2 0 9999.99 105.89
1 3 0 107.72 1.26
1 4 0 3059.16 26.92
1 5 0 616.72 5.99
1 6 0 112.77 1.45
1 7 0 35.09 0.8
1 8 0 732.93 7.29
1 9 0 5.94 0.62
1 10 0 78.48 1.46
1 11 0 176.58 2.47
1 12 0 49.06 1.29
1 13 0 104.48 1.97
1 14 0 1.57 0.79
1 15 0 157.31 2.69
1 16 0 44.58 1.55
1 17 0 53.84 1.75
1 18 0 1.7 0.7
1 19 0 61.47 2
1 20 0 73.4 2.27
1 21 0 2.61 0.78
1 22 0 7.28 0.86
1 23 0 12.77 1.1
1 24 0 17.84 1.44
1 26 0 13.34 1.16
1 0 1 139.95 1.52
1 1 1 243.44 2.47
1 2 1 189.77 2.01
1 3 1 1982.27 17.64
1 4 1 286.21 2.99
1 5 1 798.09 7.7
1 6 1 39.89 0.8
1 7 1 618.51 6.21
1 8 1 427.57 4.52
1 9 1 423.38 4.61
1 10 1 239.17 3.05
1 11 1 31.25 1.02
1 12 1 0.65 0.66
1 13 1 232.64 3.23
1 14 1 53.91 1.51
1 15 1 159.71 2.77
1 16 1 112.61 2.35
1 17 1 46.35 1.65
1 18 1 43.35 1.69
1 19 1 27.91 1.51
1 20 1 10.62 0.88
1 21 1 3.76 0.75
1 22 1 63.37 2.2
1 23 1 19.43 1.62
1 24 1 38.16 1.96
1 25 1 17.31 1.49
1 26 1 3.65 0.88
1 0 2 5660.2 65.86
1 1 2 130.63 1.71
1 2 2 1043.4 11.15
1 3 2 353.79 3.69
1 4 2 1939.85 17.55
1 5 2 33.91 0.75
1 6 2 400.08 4.21
1 7 2 295.37 3.32
1 8 2 18.68 0.79
1 9 2 112.66 1.79
1 10 2 108.41 1.82
1 11 2 215 2.9
1 12 2 210.37 2.96
1 13 2 200.9 2.98
1 14 2 99.73 2.07
1 15 2 57.67 1.68
1 16 2 50.36 1.72
1 17 2 138.03 2.78
1 18 2 200.69 3.51
1 19 2 75.12 2.19
1 20 2 17.69 1.28
1 21 2 41.69 1.86
1 22 2 66.68 2.32
1 23 2 79.12 2.59
1 24 2 19.41 1.45
1 25 2 0.28 0.78
1 26 2 8.19 1.01
1 0 3 58.41 1.68
1 1 3 551.52 9.53
1 2 3 409.72 4.81
1 3 3 167.22 2.33
1 4 3 174.39 2.44
1 5 3 41.99 0.96
1 6 3 251.77 2.98
1 7 3 9.44 0.69
1 8 3 469.65 5.12
1 9 3 52.89 1.28
1 10 3 145.26 2.26
1 11 3 30.38 1.09
1 12 3 58.87 1.52
1 13 3 61.62 1.65
1 14 3 209.36 3.25
1 15 3 61.05 1.79
1 16 3 16.94 1.12
1 17 3 45.62 1.72
1 18 3 48.35 1.83
1 19 3 49.62 1.92
1 20 3 14.15 1.2
1 21 3 42.99 1.91
1 22 3 13.12 1.11
1 23 3 5 0.83
1 24 3 14.83 1.17
1 25 3 32.65 2.11
1 0 4 598.64 10.63
1 1 4 474.06 8.62
1 2 4 52.41 1.91
1 3 4 42.68 1.17
1 4 4 199.94 2.86
1 5 4 152.57 2.45
1 6 4 237.65 3.41
1 7 4 152.62 2.24
1 8 4 82.36 1.61
1 9 4 3.97 0.7
1 10 4 41.4 1.28
1 11 4 113.67 2.14
1 12 4 256.82 3.63
1 13 4 49.46 1.56
1 14 4 71.85 1.94
1 15 4 5.43 0.72
1 16 4 42.99 1.66
1 17 4 51.21 1.85
1 18 4 106.8 2.67
1 19 4 74.39 2.28
1 20 4 16.85 1.45
1 21 4 19.69 1.43
1 22 4 39.69 1.91
1 23 4 27.49 1.75
1 24 4 3.9 0.79
1 0 5 518.76 9.67
1 1 5 223.19 4.94
1 2 5 845.41 14.81
1 3 5 321.41 6.63
1 4 5 197.1 3.07
1 5 5 15.61 0.97
1 6 5 418.86 5.49
1 7 5 133.01 2.53
1 8 5 126.4 2.51
1 9 5 164.17 2.66
1 10 5 17.36 1.05
1 11 5 65.37 1.74
1 12 5 45.72 1.57
1 13 5 81.55 2.1
1 14 5 73.29 2.04
1 15 5 54.41 1.87
1 16 5 143.33 2.98
1 17 5 20.89 1.46
1 18 5 12.69 1.18
1 19 5 34.06 1.78
1 20 5 117.9 2.99
1 21 5 45.78 2.03
1 22 5 3.15 0.78
1 23 5 8.35 0.91
1 24 5 31.79 1.82
1 0 6 0.13 1.15
1 1 6 1.63 1.13
1 2 6 13.76 1.52
1 3 6 22.65 1.8
1 4 6 29.17 1.98
1 5 6 24.23 1.22
1 6 6 39.9 1.49
1 7 6 14.18 1.13
1 8 6 16.58 1.24
1 9 6 20.19 1.4
1 10 6 4.43 0.8
1 11 6 17.93 1.24
1 12 6 52.88 1.75
1 13 6 13.75 1.1
1 14 6 51.08 1.83
1 15 6 20.07 1.48
1 16 6 5.44 0.78
1 17 6 39.24 1.83
1 18 6 25.27 1.63
1 19 6 21.52 1.57
1 20 6 57.61 2.27
1 21 6 17.15 1.41
1 22 6 15.73 1.38
1 23 6 21.95 1.61
1 0 7 452.05 9.39
1 1 7 48.96 2.64
1 2 7 111.88 3.86
1 3 7 148.51 4.54
1 4 7 257.66 6.41
1 5 7 55.76 1.9
1 6 7 112.57 2.68
1 7 7 17.35 1.4
1 8 7 102.75 2.65
1 9 7 122.86 2.94
1 10 7 34.21 1.75
1 11 7 39.83 1.66
1 12 7 3.48 0.84
1 13 7 77.22 2.28
1 14 7 44.9 1.91
1 15 7 58.94 2.14
1 16 7 47.16 1.96
1 17 7 37.4 1.85
1 18 7 78.51 2.53
1 19 7 12.31 1.12
1 20 7 28.17 1.8
1 21 7 16.98 1.21
1 0 8 19.05 2.19
1 1 8 64.45 3.26
1 2 8 36.21 2.62
1 3 8 58.58 3.12
1 4 8 59.81 3.2
1 5 8 186.53 5.67
1 6 8 27.45 1.68
1 7 8 166.66 3.57
1 8 8 5.92 0.89
1 9 8 93.47 2.77
1 10 8 72.49 2.52
1 11 8 174.29 3.87
1 12 8 21.47 1.77
1 13 8 51.66 2.31
1 14 8 2.19 0.92
1 15 8 84.44 2.52
1 16 8 10.19 0.95
1 17 8 48.94 2.15
1 18 8 9.96 0.95
1 19 8 4.14 0.8
1 20 8 0.2 0.71
1 0 9 0.07 1.69
1 1 9 4.07 1.82
1 2 9 94.04 4.14
1 3 9 2.98 1.79
1 4 9 5.94 2.07
1 5 9 52.17 3.34
1 6 9 18.34 2.37
1 7 9 28.96 1.85
1 8 9 15.23 1.35
1 9 9 36.19 2.04
1 10 9 53.97 2.39
1 11 9 84.12 2.88
1 12 9 16.32 1.5
1 13 9 29.36 2.07
1 14 9 14.46 1.5
1 15 9 40.58 2.26
1 16 9 78.35 2.89
1 17 9 33.39 1.91
1 18 9 21.11 1.63
1 0 10 6.35 2.14
1 1 10 46.95 3.42
1 2 10 2.85 2.05
1 3 10 36.78 3.13
1 4 10 39.61 3.32
1 5 10 59.66 3.81
1 6 10 75.92 4.21
1 7 10 57.84 3.84
1 8 10 44.75 2.29
1 9 10 13.47 1.48
1 10 10 102.14 3.29
1 11 10 29.74 2.09
1 12 10 83.16 2.99
1 13 10 0.42 0.93
1 14 10 12 1.22
1 15 10 19.22 1.61
1 0 11 1.47 2.35
1 1 11 21.91 2.94
1 2 11 61.71 4.13
1 3 11 42.71 3.56
1 4 11 21.72 2.96
1 5 11 11.21 2.64
1 6 11 7.21 2.46
1 7 11 15.71 2.88
1 8 11 28.52 2.15
1 9 11 42.92 2.39
1 10 11 34.18 2.23
1 11 11 6.58 1.08
1 12 11 2.95 0.97
1 0 12 32.62 3.51
1 1 12 138.68 5.81
1 2 12 15.14 3.17
1 3 12 5.9 2.84
1 4 12 53.01 4.04
1 5 12 125.21 5.68
1 6 12 5.21 2.78
1 7 12 41.72 3.8
2 0 0 76.41 0.98
2 1 0 56.72 0.8
2 2 0 3059.1 26.95
2 3 0 1433.37 13.07
2 4 0 65.32 0.97
2 5 0 166.07 1.97
2 6 0 3792.47 33.67
2 7 0 535.28 5.48
2 8 0 1.39 0.55
2 9 0 428.14 4.71
2 10 0 463.49 5.08
2 11 0 4.4 0.66
2 12 0 79.08 1.66
2 13 0 306.08 3.9
2 14 0 19.92 1.1
2 15 0 127.47 2.42
2 16 0 67.41 1.87
2 17 0 65.02 1.91
2 18 0 79.64 2.19
2 19 0 68.81 2.12
2 20 0 1.68 0.68
2 21 0 14.09 1.17
2 22 0 27.55 1.69
2 23 0 20.34 1.6
2 24 0 59.02 2.26
2 25 0 7.51 1.05
2 26 0 1.96 0.82
2 0 1 2.98 0.29
2 1 1 142.15 1.61
2 2 1 505.52 4.97
2 3 1 977.56 9.2
2 4 1 287.56 3.04
2 5 1 777.71 7.56
2 6 1 41.76 0.88
2 7 1 178.54 2.24
2 8 1 8.82 0.66
2 9 1 497.84 5.36
2 10 1 15.86 0.84
2 11 1 8.66 0.79
2 12 1 74.16 1.62
2 13 1 145.46 2.46
2 14 1 81.52 1.87
2 15 1 43.28 1.47
2 16 1 6.49 0.72
2 17 1 18.36 1.26
2 18 1 18.14 1.32
2 19 1 53.28 1.93
2 20 1 130.59 2.98
2 21 1 52.62 2.04
2 22 1 42.52 1.95
2 23 1 4.67 0.81
2 24 1 74.98 2.44
2 25 1 41.91 2.41
2 26 1 55.53 2.65
2 0 2 7.65 0.41
2 1 2 562.42 5.56
2 2 2 1976.28 17.89
2 3 2 195.16 2.28
2 4 2 162.33 1.99
2 5 2 15.3 0.63
2 6 2 532.33 5.49
2 7 2 255.84 3.03
2 8 2 262.59 3.2
2 9 2 233.54 2.95
2 10 2 4.83 0.67
2 11 2 116.84 2.04
2 12 2 104.45 1.98
2 13 2 133.95 2.38
2 14 2 61.64 1.66
2 15 2 58 1.7
2 16 2 133.48 2.66
2 17 2 0.12 0.61
2 18 2 19.71 1.34
2 19 2 2.07 0.66
2 20 2 58.04 2.05
2 21 2 55.13 2.12
2 22 2 6.5 0.86
2 23 2 4.62 0.82
2 24 2 15.89 1.39
2 25 2 72.76 3.03
2 0 3 240.76 2.79
2 1 3 255.89 2.88
2 2 3 699.31 6.94
2 3 3 817.02 8.08
2 4 3 120.03 1.71
2 5 3 454.6 4.86
2 6 3 165.91 2.24
2 7 3 198 2.58
2 8 3 218.11 2.82
2 9 3 527.67 5.81
2 10 3 468.45 5.33
2 11 3 21.9 1.06
2 12 3 154.02 2.58
2 13 3 79.97 1.88
2 14 3 87.84 2.07
2 15 3 30.94 1.45
2 16 3 5.08 0.72
2 17 3 23.26 1.37
2 18 3 3.84 0.7
2 19 3 70.84 2.22
2 20 3 18.01 1.22
2 21 3 79 2.5
2 22 3 14.22 1.31
2 23 3 9.5 1.03
2 24 3 0.07 0.72
2 25 3 23.81 1.95
2 0 4 103.5 2.79
2 1 4 194.87 2.81
2 2 4 239.11 3.33
2 3 4 243.15 3.37
2 4 4 23.7 1.04
2 5 4 109.08 1.8
2 6 4 197.27 2.65
2 7 4 186.84 2.61
2 8 4 212.38 2.91
2 9 4 88.66 1.78
2 10 4 252.18 3.43
2 11 4 90.82 1.95
2 12 4 23.12 1.2
2 13 4 0.73 0.6
2 14 4 21.32 1.29
2 15 4 23.39 1.36
2 16 4 45.94 1.67
2 17 4 70.65 2.16
2 18 4 46.27 1.9
2 19 4 15.89 1.29
2 20 4 48.59 2
2 21 4 36.97 1.9
2 22 4 30.61 1.89
2 23 4 42.75 1.95
2 24 4 6.09 0.85
2 0 5 263.44 5.66
2 1 5 61.93 2.38
2 2 5 294.15 4.09
2 3 5 57.67 1.54
2 4 5 270.47 3.87
2 5 5 116.22 2.27
2 6 5 22.76 1.16
2 7 5 25.81 1.28
2 8 5 114.39 2.13
2 9 5 47.77 1.47
2 10 5 252.75 3.6
2 11 5 110.01 2.3
2 12 5 26.09 1.35
2 13 5 4.12 0.68
2 14 5 168.54 3.13
2 15 5 23.16 1.39
2 16 5 2.07 0.65
2 17 5 9.72 0.88
2 18 5 80.81 2.49
2 19 5 20.27 1.53
2 20 5 2.57 0.76
2 21 5 1.73 0.74
2 22 5 38.23 1.9
2 23 5 29.99 1.86
2 0 6 139.43 4.02
2 1 6 171.34 4.57
2 2 6 4.21 1.3
2 3 6 4.12 1.05
2 4 6 41.27 1.5
2 5 6 179.76 3.2
2 6 6 1.08 0.88
2 7 6 140.67 2.85
2 8 6 0.42 0.95
2 9 6 8.97 0.88
2 10 6 22.09 1.26
2 11 6 190.51 3.26
2 12 6 14.37 0.99
2 13 6 113.65 2.58
2 14 6 20.54 1.36
2 15 6 103.53 2.62
2 16 6 28.02 1.63
2 17 6 85.56 2.49
2 18 6 90.54 2.65
2 19 6 4.28 0.8
2 20 6 6.95 0.88
2 21 6 25.07 1.75
2 22 6 83.36 2.59
2 0 7 13.53 1.8
2 1 7 80.12 3.31
2 2 7 22.91 2.05
2 3 7 26.41 2.18
2 4 7 237.71 4.87
2 5 7 129.49 2.86
2 6 7 53.48 1.93
2 7 7 152.59 3.24
2 8 7 150.23 3.23
2 9 7 9.08 0.97
2 10 7 17.31 1.45
2 11 7 178.02 3.76
2 12 7 3.97 0.7
2 13 7 89.21 2.48
2 14 7 73.41 2.28
2 15 7 59.76 2.17
2 16 7 7.82 0.88
2 17 7 92.7 2.69
2 18 7 18.05 1.39
2 19 7 12.78 1.16
2 20 7 1.79 0.74
2 21 7 18.95 1.45
2 0 8 98.63 4.01
2 1 8 107.28 4.19
2 2 8 43 2.89
2 3 8 52.95 3.06
2 4 8 29.06 2.52
2 5 8 103.11 2.78
2 6 8 85.82 2.63
2 7 8 76.28 2.49
2 8 8 0.56 0.75
2 9 8 21.45 1.46
2 10 8 2.56 0.89
2 11 8 15.54 1.42
2 12 8 0.03 0.79
2 13 8 57.31 2.49
2 14 8 18.19 1.48
2 15 8 12.8 1.27
2 16 8 5.93 0.86
2 17 8 42.86 2.07
2 18 8 3.49 0.79
2 19 8 12.26 0.99
2 0 9 138.07 5.05
2 1 9 31.89 2.74
2 2 9 199.49 6.26
2 3 9 9.77 2.01
2 4 9 88.97 4.19
2 5 9 20.91 2.53
2 6 9 90.93 2.86
2 7 9 19.27 1.68
2 8 9 6.12 0.98
2 9 9 69.97 2.61
2 10 9 25.76 1.87
2 11 9 28.51 1.96
2 12 9 31.67 2.06
2 13 9 64.08 2.66
2 14 9 131.87 3.62
2 15 9 2 0.95
2 16 9 28.33 1.84
2 17 9 7.9 0.96
2 0 10 90.64 4.46
2 1 10 122.54 5.15
2 2 10 5.22 2.15
2 3 10 11.98 2.43
2 4 10 8.54 2.29
2 5 10 85.12 4.39
2 6 10 30.96 3.04
2 7 10 47.83 2.41
2 8 10 55.44 2.55
2 9 10 22.3 1.67
2 10 10 61.1 2.65
2 11 10 80.85 2.89
2 12 10 88.14 3.07
2 13 10 12.94 1.24
2 14 10 31.18 2.1
2 15 10 5.39 1.04
2 0 11 22.97 3.05
2 1 11 18.09 2.91
2 2 11 6.04 2.49
2 3 11 13.24 2.65
2 4 11 4.15 2.57
2 5 11 1.28 2.38
2 6 11 24.88 3.05
2 7 11 0.94 2.38
2 8 11 10.32 1.19
2 9 11 0.56 0.93
2 10 11 11.49 1.43
2 11 11 8.37 1.12
2 0 12 85.12 4.83
2 1 12 37.52 3.82
2 2 12 11.34 2.96
2 3 12 77.71 4.61
2 4 12 20.4 3.24
2 5 12 4.12 2.78
2 6 12 53.51 4.03
3 1 0 56.51 0.93
3 3 0 126.07 1.61
3 4 0 753.47 7.35
3 5 0 380.05 4.04
3 6 0 71.84 1.27
3 7 0 442.88 4.75
3 8 0 147.14 2.11
3 9 0 196.34 2.62
3 10 0 54.73 1.32
3 11 0 458.03 5.22
3 12 0 14.92 0.96
3 13 0 4.99 0.81
3 14 0 6.84 0.89
3 15 0 43.79 1.55
3 16 0 78.2 2.07
3 17 0 77.07 2.12
3 18 0 3.88 0.68
3 19 0 5.36 0.75
3 20 0 50.89 1.96
3 21 0 55.34 2.09
3 22 0 7.44 0.88
3 23 0 0.11 0.72
3 24 0 14.68 1.19
3 25 0 53.88 2.6
3 0 1 320.06 3.39
3 1 1 672.3 6.64
3 2 1 107.44 1.44
3 3 1 791.29 7.74
3 4 1 149.19 1.9
3 5 1 44.27 0.96
3 6 1 125.64 1.79
3 7 1 290.07 3.38
3 8 1 77.81 1.46
3 9 1 696.18 7.32
3 10 1 67.24 1.49
3 11 1 97.63 1.88
3 12 1 99.13 1.98
3 13 1 163.16 2.76
3 14 1 49.31 1.56
3 15 1 3.62 0.68
3 16 1 71.74 2
3 17 1 55 1.84
3 18 1 93.07 2.42
3 19 1 35.94 1.68
3 20 1 6.74 0.83
3 21 1 123.3 2.98
3 22 1 112.93 2.98
3 23 1 28.18 1.74
3 24 1 54.34 2.2
3 25 1 14.21 1.4
3 0 2 0.19 0.42
3 1 2 327.45 3.57
3 2 2 495.23 5.08
3 3 2 486.12 5.05
3 4 2 100.33 1.56
3 5 2 573.72 5.94
3 6 2 1162.48 11.39
3 7 2 13.31 0.77
3 8 2 162.14 2.31
3 9 2 113.38 1.93
3 10 2 462.59 5.25
3 11 2 63.06 1.55
3 12 2 193.92 2.95
3 13 2 47.76 1.48
3 14 2 12.1 1.07
3 15 2 23.5 1.3
3 16 2 66.88 1.93
3 17 2 51.98 1.82
3 18 2 16.48 1.3
3 19 2 10.08 0.99
3 20 2 21.07 1.53
3 21 2 1.07 0.7
3 22 2 5.12 0.83
3 23 2 17.87 1.58
3 24 2 50.22 2.14
3 25 2 8.27 1.02
3 0 3 334.13 3.73
3 1 3 458.09 4.86
3 2 3 31.69 0.92
3 3 3 304.63 3.5
3 4 3 22.98 0.87
3 5 3 389.93 4.33
3 6 3 6.18 0.69
3 7 3 463.36 5.15
3 8 3 78.47 1.59
3 9 3 47.66 1.32
3 10 3 21.06 1.03
3 11 3 138.28 2.39
3 12 3 73.17 1.77
3 13 3 22.62 1.21
3 14 3 16.52 1.08
3 15 3 21.92 1.32
3 16 3 3.73 0.71
3 17 3 14.9 1.16
3 18 3 0.36 0.62
3 19 3 18.74 1.49
3 20 3 11.14 0.94
3 21 3 2.94 0.75
3 22 3 11.65 0.99
3 23 3 72.52 2.51
3 24 3 15.49 1.32
3 0 4 21.11 0.85
3 1 4 206.46 2.68
3 2 4 56.4 1.27
3 3 4 145.92 2.15
3 4 4 45.54 1.18
3 5 4 492.86 5.45
3 6 4 145.71 2.27
3 7 4 108.45 1.95
3 8 4 98.17 1.91
3 9 4 122.75 2.21
3 10 4 38.24 1.33
3 11 4 52.86 1.6
3 12 4 54.6 1.65
3 13 4 190.68 3.18
3 14 4 18.3 1.24
3 15 4 68.46 2.03
3 16 4 31.48 1.54
3 17 4 58.62 2.03
3 18 4 46.41 1.92
3 19 4 30.74 1.71
3 20 4 37.97 1.84
3 21 4 46.89 2.04
3 22 4 12.7 1.13
3 23 4 18.31 1.57
3 24 4 2 0.74
3 0 5 90.99 1.77
3 1 5 81.46 1.67
3 2 5 64.61 1.52
3 3 5 133.43 2.21
3 4 5 130.51 2.21
3 5 5 131.88 2.26
3 6 5 80.15 1.74
3 7 5 223.29 3.21
3 8 5 340.95 4.35
3 9 5 3.31 0.86
3 10 5 243.26 3.62
3 11 5 13.29 0.97
3 12 5 224.95 3.57
3 13 5 18.72 1.31
3 14 5 116.47 2.66
3 15 5 80.57 2.28
3 16 5 18.24 1.41
3 17 5 5.71 0.8
3 18 5 11.67 0.96
3 19 5 19.31 1.41
3 20 5 5.15 0.83
3 21 5 6.52 0.88
3 22 5 27.56 1.81
3 23 5 6.88 0.87
3 1 6 6.89 0.93
3 2 6 75.97 1.99
3 3 6 8.79 1.02
3 4 6 17.41 1.23
3 5 6 38.3 1.56
3 6 6 33.94 1.56
3 7 6 71.67 2.09
3 8 6 34.19 1.45
3 9 6 59.04 1.77
3 10 6 43.7 1.62
3 11 6 123.64 2.64
3 12 6 6.57 0.78
3 13 6 102.96 2.56
3 14 6 46.89 1.85
3 15 6 13.09 1.06
3 16 6 75.95 2.38
3 17 6 43.67 1.94
3 18 6 18.54 1.39
3 19 6 39.73 1.97
3 20 6 115.6 3.02
3 21 6 10.52 0.96
3 22 6 9.39 0.93
3 0 7 10.78 1.83
3 1 7 1.54 1.52
3 2 7 275.79 6.8
3 3 7 52.83 1.96
3 4 7 17.56 1.43
3 5 7 58.44 2.06
3 6 7 21.88 1.55
3 7 7 65.59 2.2
3 8 7 20.31 1.56
3 9 7 198.44 3.89
3 10 7 92.25 2.39
3 11 7 11.23 0.87
3 12 7 4.35 0.73
3 13 7 69.43 2.24
3 14 7 89.38 2.52
3 15 7 67.77 2.31
3 16 7 5.07 0.82
3 17 7 5.17 0.83
3 18 7 14.27 1.16
3 19 7 37.97 1.98
3 20 7 16.71 1.37
3 21 7 9.47 0.93
3 0 8 3.88 1.83
3 1 8 207.36 6.05
3 2 8 108.4 4.28
3 3 8 83.54 3.81
3 4 8 71.05 2.38
3 5 8 70.27 2.38
3 6 8 47.76 2.06
3 7 8 55.14 2.19
3 8 8 60.86 2.35
3 9 8 40.41 2.04
3 10 8 8.02 1.03
3 11 8 182.16 4.05
3 12 8 31.48 1.95
3 13 8 11.5 1.07
3 14 8 8.35 0.9
3 15 8 32.84 1.8
3 16 8 27.98 1.8
3 17 8 20.44 1.64
3 18 8 15.16 1.18
3 19 8 42.07 2.02
3 0 9 125.76 4.94
3 1 9 21.77 2.56
3 2 9 35.33 2.94
3 3 9 25.42 2.72
3 4 9 185.8 6.14
3 5 9 0.26 0.85
3 6 9 14.74 1.2
3 7 9 16.44 1.36
3 8 9 78.82 2.8
3 9 9 11.48 1.16
3 10 9 50.94 2.36
3 11 9 7.75 1.08
3 12 9 9 1.13
3 13 9 2.81 0.96
3 14 9 56.78 2.48
3 15 9 11.69 1.11
3 16 9 16.44 1.2
3 17 9 39.71 1.97
3 0 10 1.56 2.12
3 1 10 104.58 4.75
3 2 10 50.6 3.64
3 3 10 150.3 5.79
3 4 10 21.77 2.88
3 5 10 13.03 2.58
3 6 10 42.53 2.27
3 7 10 21.32 1.61
3 8 10 13.22 1.24
3 9 10 60.83 2.65
3 10 10 13.84 1.53
3 11 10 8.34 1.11
3 12 10 2.05 0.93
3 13 10 34.74 2.22
3 14 10 30.93 2.06
3 0 11 2.26 2.43
3 1 11 20 3.05
3 2 11 27.61 3.15
3 3 11 63.51 4.16
3 4 11 30.87 3.41
3 5 11 28.53 3.19
3 6 11 22.12 3.1
3 7 11 41.11 2.35
3 8 11 11.89 1.46
3 9 11 19.61 1.53
3 10 11 16.38 1.58
3 11 11 17.13 5.37
3 0 12 10.06 3.04
3 1 12 13.33 3.05
3 2 12 5.96 2.79
3 3 12 1.41 2.79
3 4 12 1.83 2.66
4 0 0 715.43 7.1
4 1 0 704.74 7.07
4 2 0 73.44 1.28
4 3 0 3.2 0.57
4 4 0 67.45 1.28
4 5 0 28.12 0.92
4 6 0 240.09 2.97
4 7 0 160.63 2.31
4 8 0 241.5 3.1
4 9 0 237.44 3.14
4 10 0 126.02 2.18
4 11 0 23.09 1.12
4 12 0 438.35 5.41
4 13 0 126.19 2.39
4 14 0 5.14 0.67
4 15 0 23.05 1.31
4 16 0 165.08 3.08
4 17 0 2.16 0.63
4 18 0 3.72 0.71
4 19 0 13.22 1.2
4 20 0 0.51 0.68
4 21 0 14.57 1.14
4 22 0 0.08 0.75
4 23 0 8.73 0.93
4 24 0 39.83 1.98
4 0 1 2.67 0.53
4 1 1 270.93 3.1
4 2 1 63.12 1.2
4 3 1 274.69 3.18
4 4 1 22.12 0.84
4 5 1 109.44 1.73
4 6 1 79.29 1.5
4 7 1 447.51 4.98
4 8 1 78.34 1.58
4 9 1 7.75 0.74
4 10 1 62.42 1.51
4 11 1 485.71 5.65
4 12 1 123.55 2.32
4 13 1 78.32 1.92
4 14 1 84.17 2.06
4 15 1 82.07 2.12
4 16 1 95.65 2.34
4 17 1 31.08 1.58
4 18 1 56.54 1.96
4 19 1 77.7 2.33
4 20 1 59.58 2.15
4 21 1 14.09 1.27
4 22 1 26.05 1.76
4 23 1 3.99 0.83
4 24 1 35.75 1.91
4 25 1 9.53 1.06
4 0 2 19.57 0.81
4 1 2 481.82 5.16
4 2 2 17.66 0.81
4 3 2 136.99 1.98
4 4 2 364.57 4.09
4 5 2 247.56 3.11
4 6 2 58.96 1.33
4 7 2 322.82 3.9
4 8 2 294.35 3.66
4 9 2 10.28 0.82
4 10 2 75.15 1.69
4 11 2 34.09 1.26
4 12 2 84.44 1.93
4 13 2 0.24 0.56
4 14 2 26.29 1.34
4 15 2 27.44 1.42
4 16 2 30.17 1.53
4 17 2 35.3 1.66
4 18 2 11.15 0.99
4 19 2 20.42 1.51
4 20 2 15.39 1.12
4 21 2 17.35 1.5
4 22 2 17.71 1.21
4 23 2 32.32 1.88
4 24 2 2.95 0.77
4 0 3 8.54 0.71
4 1 3 409.44 4.52
4 2 3 70.06 1.42
4 3 3 845.66 8.54
4 4 3 173.36 2.44
4 5 3 197.7 2.71
4 6 3 9.89 0.78
4 7 3 110.23 1.97
4 8 3 158.83 2.52
4 9 3 58.3 1.52
4 10 3 30.85 1.23
4 11 3 54.14 1.58
4 12 3 76.68 1.93
4 13 3 22.45 1.28
4 14 3 41.04 1.62
4 15 3 134.29 2.78
4 16 3 49.85 1.85
4 17 3 1.74 0.66
4 18 3 39.41 1.81
4 19 3 63.89 2.19
4 20 3 24.07 1.6
4 21 3 61.57 2.29
4 22 3 46.39 2.13
4 23 3 1.81 0.74
4 24 3 25.43 1.76
4 0 4 140.92 2.17
4 1 4 226.11 2.98
4 2 4 62.2 1.44
4 3 4 176.36 2.56
4 4 4 64.01 1.48
4 5 4 159.2 2.47
4 6 4 102.24 1.96
4 7 4 78.34 1.74
4 8 4 16.27 0.98
4 9 4 2.63 0.83
4 10 4 65.81 1.74
4 11 4 44.78 1.54
4 12 4 125.79 2.55
4 13 4 47.58 1.69
4 14 4 16.77 1.16
4 15 4 73.01 2.18
4 16 4 98.33 2.55
4 17 4 108.61 2.77
4 18 4 2.89 0.74
4 19 4 15.5 1.16
4 20 4 41.08 1.99
4 21 4 36.69 1.91
4 22 4 3.81 0.86
4 23 4 116.65 3.01
4 0 5 50.92 1.41
4 1 5 41.98 1.3
4 2 5 11.3 0.89
4 3 5 298.81 3.85
4 4 5 52.14 1.45
4 5 5 154.4 2.57
4 6 5 25.13 1.14
4 7 5 64.21 1.72
4 8 5 87.94 2
4 9 5 81.92 2.03
4 10 5 49.53 1.62
4 11 5 18.03 1.21
4 12 5 35.24 1.59
4 13 5 12.27 1.08
4 14 5 15.51 1.17
4 15 5 3.57 0.72
4 16 5 38.66 1.8
4 17 5 18.89 1.46
4 18 5 4.21 0.8
4 19 5 9.94 0.95
4 20 5 52.98 2.18
4 21 5 4.06 0.8
4 22 5 1.98 0.74
4 0 6 0.53 0.79
4 1 6 161.33 2.74
4 2 6 27.94 1.25
4 3 6 46.94 1.54
4 4 6 21.64 1.21
4 5 6 251.75 3.68
4 6 6 75.31 1.96
4 7 6 73.71 1.98
4 8 6 98.89 2.33
4 9 6 247.58 3.86
4 10 6 48.19 1.78
4 11 6 66.65 2
4 12 6 115.27 2.68
4 13 6 89.96 2.42
4 14 6 22.79 1.5
4 15 6 99.69 2.67
4 16 6 33.34 1.77
4 17 6 77.26 2.47
4 18 6 48.52 2.07
4 19 6 67.62 2.37
4 20 6 3.39 0.79
4 21 6 41.03 2.02
4 0 7 252.28 3.83
4 1 7 17.21 1.31
4 2 7 23.42 1.53
4 3 7 22.1 1.49
4 4 7 119.01 2.89
4 5 7 29.93 1.65
4 6 7 36.76 1.57
4 7 7 47.73 1.76
4 8 7 94.23 2.4
4 9 7 11.38 1.08
4 10 7 80.15 2.26
4 11 7 95.1 2.53
4 12 7 73.05 2.26
4 13 7 19.2 1.34
4 14 7 55.87 2.14
4 15 7 3.88 0.78
4 16 7 6.15 0.85
4 17 7 17.17 1.41
4 18 7 10.41 0.97
4 19 7 23.59 1.66
4 20 7 3.56 0.79
4 0 8 80.87 3.81
4 1 8 35.84 2.26
4 2 8 25.07 1.66
4 3 8 21.56 1.63
4 4 8 53.28 2.16
4 5 8 8.05 0.98
4 6 8 16.5 1.39
4 7 8 59.49 2.37
4 8 8 6.82 0.99
4 9 8 162.74 3.86
4 10 8 34.99 1.8
4 11 8 16.15 1.34
4 12 8 1.55 0.72
4 13 8 95.95 2.75
4 14 8 62.29 2.31
4 15 8 4.09 0.81
4 16 8 17.91 1.43
4 17 8 0.1 0.71
4 18 8 29.69 1.8
4 0 9 35.14 3.02
4 1 9 25.04 2.72
4 2 9 24.29 2.66
4 3 9 44.16 2.19
4 4 9 108.33 3.12
4 5 9 25.37 1.84
4 6 9 66.11 2.65
4 7 9 10.23 1.14
4 8 9 155.68 3.87
4 9 9 31.1 2.02
4 10 9 36.37 2.1
4 11 9 0.64 0.95
4 12 9 43.51 2.36
4 13 9 16.98 1.39
4 14 9 21.5 1.64
4 15 9 48.47 2.11
4 16 9 4.48 0.82
4 1 10 151.66 5.89
4 2 10 25.94 2.99
4 3 10 5.67 2.35
4 4 10 55.27 2.49
4 5 10 105.51 3.33
4 6 10 51.39 2.49
4 7 10 28.47 2.03
4 8 10 28.31 2.04
4 9 10 1.41 0.94
4 10 10 27.55 2.03
4 11 10 12.91 1.24
4 12 10 2.95 0.98
4 13 10 15.86 1.3
4 0 11 50.92 3.9
4 1 11 2.96 2.43
4 2 11 5.8 2.46
4 3 11 16.48 2.86
4 4 11 60.31 4.12
4 5 11 23.99 2.46
4 6 11 0.91 0.95
4 7 11 12.34 1.23
4 8 11 37.61 2.32
4 9 11 17.98 1.57
5 1 0 73.34 1.41
5 2 0 79.69 1.52
5 3 0 421.89 4.7
5 4 0 111.42 1.87
5 5 0 133.44 2.09
5 6 0 0.19 0.59
5 7 0 21.53 0.99
5 8 0 29.85 1.13
5 9 0 46.7 1.37
5 10 0 70.43 1.7
5 11 0 67.4 1.74
5 12 0 2.95 0.87
5 13 0 22.33 1.28
5 14 0 96.12 2.29
5 15 0 28.13 1.5
5 16 0 8.37 0.79
5 17 0 19.19 1.27
5 18 0 11.48 1.17
5 19 0 0.26 0.67
5 20 0 0.8 0.69
5 21 0 1.68 0.73
5 22 0 14.5 1.16
5 24 0 3.76 0.8
5 0 1 10.89 0.75
5 1 1 244.16 3.03
5 2 1 166.09 2.35
5 3 1 696.94 7.14
5 4 1 9.68 0.74
5 5 1 65.17 1.42
5 6 1 129.9 2.13
5 7 1 281.96 3.58
5 8 1 5.84 0.76
5 9 1 106.65 2.06
5 10 1 23.25 1.12
5 11 1 125.03 2.35
5 12 1 39.75 1.49
5 13 1 34.72 1.52
5 14 1 29.59 1.43
5 15 1 398.29 5.34
5 16 1 112.22 2.63
5 17 1 7.79 0.82
5 18 1 14.09 1.25
5 19 1 98.04 2.72
5 20 1 94.54 2.66
5 21 1 6.43 0.87
5 22 1 1.65 0.74
5 23 1 3.44 0.79
5 24 1 26.78 1.72
5 0 2 604.59 6.41
5 1 2 309.58 3.75
5 2 2 1.04 0.61
5 3 2 461.18 5.19
5 4 2 156.8 2.37
5 5 2 77.88 1.61
5 6 2 12.05 0.84
5 7 2 23.64 1.06
5 8 2 53.3 1.46
5 9 2 68.46 1.68
5 10 2 2.56 0.8
5 11 2 29.74 1.32
5 12 2 227.46 3.53
5 13 2 0.88 0.61
5 14 2 13.81 1.21
5 15 2 5.63 0.72
5 16 2 110.81 2.66
5 17 2 26.92 1.57
5 18 2 21.14 1.49
5 19 2 55.52 2.08
5 20 2 3.95 0.8
5 21 2 71.48 2.43
5 22 2 3.24 0.79
5 23 2 9.8 1.05
5 24 2 13.46 1.65
5 0 3 56.89 1.4
5 1 3 363.33 4.32
5 2 3 44.76 1.26
5 3 3 17.49 0.94
5 4 3 2.48 0.7
5 5 3 125.57 2.17
5 6 3 63.64 1.56
5 7 3 117.22 2.18
5 8 3 34.02 1.26
5 9 3 16.59 1.08
5 10 3 79.13 1.94
5 11 3 47.39 1.62
5 12 3 50.23 1.7
5 13 3 35.01 1.55
5 14 3 86.1 2.24
5 15 3 6.81 0.77
5 16 3 93.07 2.52
5 17 3 43.44 1.86
5 18 3 43.83 1.94
5 19 3 8.1 0.9
5 20 3 103.48 2.86
5 21 3 15.11 1.2
5 22 3 8.79 0.93
5 23 3 15.85 1.17
5 0 4 0.52 0.68
5 1 4 127.87 2.21
5 2 4 79.86 1.73
5 3 4 51.79 1.47
5 4 4 31.6 1.21
5 5 4 11.43 0.93
5 6 4 51.93 1.53
5 7 4 55.07 1.59
5 8 4 163.62 2.8
5 9 4 4.89 0.69
5 10 4 204.81 3.35
5 11 4 63.33 1.89
5 12 4 156.76 2.97
5 13 4 8.04 0.77
5 14 4 157.51 3.15
5 15 4 37.84 1.77
5 16 4 40.6 1.82
5 17 4 15.1 1.26
5 18 4 46.69 2
5 19 4 138.53 3.28
5 20 4 0.1 0.7
5 21 4 80.8 2.58
5 22 4 21.47 1.72
5 0 5 12.92 1.02
5 1 5 340.44 4.36
5 2 5 58.21 1.62
5 3 5 29.43 1.24
5 4 5 133.38 2.49
5 5 5 108.88 2.28
5 6 5 34.05 1.43
5 7 5 63.09 1.78
5 8 5 91.85 2.2
5 9 5 19.97 1.28
5 10 5 34.64 1.53
5 11 5 37.31 1.63
5 12 5 1.77 0.63
5 13 5 32.49 1.65
5 14 5 77.31 2.27
5 15 5 2.41 0.72
5 16 5 34.24 1.73
5 17 5 6.73 0.86
5 18 5 54.01 2.15
5 19 5 5.76 0.87
5 20 5 21.81 1.71
5 21 5 16.12 1.21
5 0 6 86.6 2.11
5 1 6 83.1 2.04
5 2 6 20.27 1.27
5 3 6 98.65 2.25
5 4 6 90.99 2.2
5 5 6 146.75 2.83
5 6 6 24.55 1.34
5 7 6 191.47 3.34
5 8 6 40.17 1.66
5 9 6 38.51 1.61
5 10 6 126.15 2.78
5 11 6 146.43 3.06
5 12 6 0.94 0.65
5 13 6 123 2.92
5 14 6 98.6 2.67
5 15 6 27.94 1.66
5 16 6 9.75 0.94
5 17 6 96.55 2.79
5 18 6 13.25 1.17
5 19 6 9.56 0.95
5 20 6 0.01 0.71
5 0 7 2.72 0.68
5 1 7 54.68 1.82
5 2 7 30.58 1.55
5 3 7 7.35 0.79
5 4 7 196.7 3.45
5 5 7 18.93 1.23
5 6 7 38.42 1.66
5 7 7 17.77 1.36
5 8 7 183.19 3.46
5 9 7 20.86 1.39
5 10 7 3.68 0.75
5 11 7 7.81 0.85
5 12 7 24.25 1.45
5 13 7 29.66 1.69
5 14 7 11.71 0.98
5 15 7 33.47 1.83
5 16 7 14.37 1.35
5 17 7 8.98 0.94
5 18 7 5.37 0.85
5 0 8 66.97 2.14
5 1 8 87.33 2.4
5 2 8 5.94 0.78
5 3 8 1.26 0.65
5 4 8 35.66 1.76
5 5 8 256.4 4.27
5 6 8 2.16 1.45
5 7 8 9.62 0.9
5 8 8 5.39 0.81
5 9 8 44.16 1.93
5 10 8 3.77 0.78
5 11 8 23.25 1.61
5 12 8 14.78 1.16
5 13 8 59.36 2.31
5 14 8 14.91 1.19
5 15 8 16.12 1.19
5 16 8 21.84 1.64
5 17 8 107.72 2.91
5 0 9 1.25 1.45
5 1 9 54.98 2.08
5 2 9 64.88 2.59
5 3 9 10.05 1.12
5 4 9 11.37 1.16
5 5 9 25.94 1.94
5 6 9 49.85 2.35
5 7 9 17.43 1.53
5 8 9 2.02 0.93
5 9 9 2.42 0.75
5 10 9 39.01 1.96
5 11 9 28.38 1.8
5 12 9 3.13 0.78
5 13 9 16.05 1.2
5 14 9 12.42 1
5 15 9 4.8 0.83
5 0 10 137.14 5.71
5 1 10 9.52 1.64
5 2 10 5.19 1.04
5 3 10 93.48 3.14
5 4 10 44.95 2.35
5 5 10 54.87 2.65
5 6 10 12.08 1.24
5 7 10 32.62 2.15
5 8 10 12.76 1.24
5 9 10 59.81 2.59
5 10 10 1.58 0.96
5 11 10 3.7 0.98
5 12 10 10.74 0.97
5 0 11 6.83 2.77
5 1 11 43.54 3.66
5 2 11 22.46 2.95
5 3 11 29.92 2.14
5 4 11 20.09 1.66
5 5 11 0.11 0.94
5 6 11 72.65 2.8
5 7 11 4.43 1.03
6 0 0 245.06 3.21
6 1 0 120.86 2.05
6 2 0 8.82 0.8
6 3 0 57.72 1.45
6 4 0 18.1 0.94
6 5 0 139.35 2.34
6 6 0 128.54 2.27
6 7 0 153.75 2.58
6 8 0 107.43 2.14
6 9 0 0.42 0.79
6 10 0 160.24 2.85
6 11 0 0.47 0.58
6 12 0 116.74 2.48
6 13 0 39.1 1.63
6 14 0 16.84 1.17
6 15 0 51.85 1.86
6 16 0 13.28 1.16
6 17 0 16.28 1.26
6 18 0 38.66 1.88
6 19 0 12.7 1.25
6 21 0 4.13 0.81
6 22 0 42.91 2
6 23 0 1.23 0.73
6 0 1 72.05 1.59
6 1 1 215.98 2.98
6 2 1 156.09 2.44
6 3 1 138.72 2.3
6 4 1 159.52 2.52
6 5 1 190.47 2.84
6 6 1 17.26 0.98
6 7 1 111.18 2.15
6 8 1 96.22 2.04
6 9 1 2.66 0.86
6 10 1 2.65 0.61
6 11 1 48.56 1.64
6 12 1 23.27 1.37
6 13 1 217.8 3.62
6 14 1 74.93 2.15
6 15 1 33.79 1.63
6 16 1 21.38 1.43
6 17 1 130.95 3.01
6 18 1 120.83 2.96
6 19 1 33.73 1.8
6 20 1 23.99 1.67
6 21 1 14.64 1.18
6 22 1 39.73 1.99
6 23 1 17 1.58
6 0 2 34.97 1.19
6 1 2 207.57 2.96
6 2 2 317.16 4.01
6 3 2 6.03 0.78
6 4 2 1.57 0.74
6 5 2 86.17 1.86
6 6 2 17.29 1.02
6 7 2 32.66 1.3
6 8 2 84.73 1.97
6 9 2 9.92 1.04
6 10 2 193.57 3.21
6 11 2 6.74 0.74
6 12 2 55.5 1.86
6 13 2 19.59 1.22
6 14 2 165.95 3.25
6 15 2 1.85 0.66
6 16 2 12.69 1.06
6 17 2 25.94 1.62
6 18 2 13.58 1.11
6 19 2 12.61 1.1
6 20 2 3.33 0.79
6 21 2 15.9 1.39
6 22 2 11.32 0.99
6 23 2 24.45 2.81
6 0 3 22.35 1.09
6 1 3 180.68 2.79
6 2 3 30.13 1.23
6 3 3 362.97 4.49
6 4 3 121.09 2.26
6 5 3 8.26 0.94
6 6 3 44.38 1.46
6 7 3 104.37 2.19
6 8 3 41.47 1.5
6 9 3 46.04 1.62
6 10 3 2.35 0.65
6 11 3 12.4 0.94
6 12 3 37.59 1.63
6 13 3 7.96 0.79
6 14 3 87.13 2.41
6 15 3 58.55 2.06
6 16 3 51.43 2.03
6 17 3 23.2 1.59
6 18 3 126.17 3.1
6 19 3 85.21 2.66
6 20 3 5.47 0.86
6 21 3 37.95 2
6 22 3 52.43 2.19
6 0 4 1.91 0.79
6 1 4 170.37 2.83
6 2 4 38.07 1.38
6 3 4 102.91 2.15
6 4 4 1.66 0.89
6 5 4 66.72 1.82
6 6 4 121.36 2.46
6 7 4 8.94 0.76
6 8 4 30.63 1.42
6 9 4 72.43 2.03
6 10 4 87.54 2.27
6 11 4 4.51 0.69
6 12 4 49.54 1.85
6 13 4 8.47 0.83
6 14 4 71.91 2.27
6 15 4 6.91 0.84
6 16 4 57.86 2.14
6 17 4 145.54 3.3
6 18 4 17.91 1.44
6 19 4 56.91 2.27
6 20 4 22.4 1.67
6 21 4 98.75 2.82
6 0 5 25.9 1.36
6 1 5 117.8 2.42
6 2 5 35.63 1.46
6 3 5 192.14 3.21
6 4 5 34.59 1.48
6 5 5 7.58 0.75
6 6 5 79.41 2.07
6 7 5 18.4 1.28
6 8 5 0.47 0.66
6 9 5 61.1 1.98
6 10 5 4.15 0.7
6 11 5 35.03 1.67
6 12 5 41.98 1.81
6 13 5 17.27 1.14
6 14 5 41.01 1.89
6 15 5 3.46 0.77
6 16 5 30.49 1.81
6 17 5 3.42 0.79
6 18 5 32.15 1.82
6 19 5 10.89 0.98
6 20 5 0.16 0.69
6 0 6 92.21 2.27
6 1 6 183.19 3.23
6 2 6 131.13 2.74
6 3 6 101.28 2.41
6 4 6 35.6 1.59
6 5 6 144.26 2.93
6 6 6 133.89 2.84
6 7 6 11.48 0.87
6 8 6 19.62 1.41
6 9 6 137.69 3.02
6 10 6 23.04 1.56
6 11 6 60.14 2.13
6 12 6 73.41 2.31
6 13 6 62.98 2.26
6 14 6 23.87 1.69
6 15 6 78.91 2.49
6 16 6 52.24 2.13
6 17 6 41.32 2
6 18 6 15.65 1.08
6 19 6 25.94 1.71
6 0 7 32.11 1.57
6 1 7 4.08 0.71
6 2 7 90.53 2.41
6 3 7 21.41 1.45
6 4 7 14.81 1.19
6 5 7 37.51 1.68
6 6 7 178.74 3.45
6 7 7 4.2 0.76
6 8 7 34.49 1.7
6 9 7 9.23 0.99
6 10 7 105.14 2.76
6 11 7 9.29 0.92
6 12 7 31.74 1.83
6 13 7 28.17 1.78
6 14 7 25.07 1.72
6 15 7 6.38 0.88
6 16 7 0.17 0.72
6 17 7 21.59 1.58
6 18 7 12.85 1
6 0 8 51.57 1.98
6 1 8 2.26 0.71
6 2 8 26.86 1.58
6 3 8 89.72 2.52
6 4 8 14.14 1.26
6 5 8 6.19 0.82
6 6 8 23.97 1.62
6 7 8 96.71 2.66
6 8 8 1.32 0.71
6 9 8 5.72 0.85
6 10 8 14.24 1.2
6 11 8 32.08 1.88
6 12 8 4.38 0.83
6 13 8 19.03 1.35
6 14 8 27.8 1.77
6 15 8 75.15 2.49
6 16 8 38.5 1.97
6 0 9 71.12 2.39
6 1 9 2.02 0.74
6 2 9 20.82 1.58
6 3 9 20.42 1.48
6 4 9 16.35 1.38
6 5 9 4.94 0.83
6 6 9 23.81 1.65
6 7 9 12.8 1.02
6 8 9 54.81 2.15
6 9 9 10.61 0.98
6 10 9 76.77 2.54
6 11 9 11.97 1.11
6 12 9 66.38 2.38
6 13 9 25.43 1.72
6 0 10 8.99 0.95
6 1 10 79.25 2.54
6 2 10 83.49 2.64
6 3 10 2.94 0.83
6 4 10 12.81 1.02
6 5 10 94.1 2.76
6 6 10 15.61 1.2
6 7 10 41.15 2.04
6 8 10 2.87 0.78
6 9 10 8.27 0.92
6 0 11 13.56 1.15
6 1 11 53.99 2.53
6 2 11 7.82 1.1
7 2 0 130.25 2.37
7 3 0 24.91 1.14
7 4 0 6.95 0.92
7 5 0 95.83 2.11
7 6 0 38.47 1.45
7 7 0 4.41 0.64
7 8 0 63.19 1.8
7 9 0 78.27 2.04
7 10 0 178.65 3.19
7 11 0 59.65 1.91
7 12 0 44.27 1.72
7 13 0 0.15 0.64
7 14 0 31.74 1.62
7 15 0 27.58 1.61
7 16 0 4.53 0.79
7 17 0 20.95 1.56
7 18 0 2.24 0.75
7 19 0 5.65 0.85
7 20 0 45.28 2.02
7 21 0 32.51 1.87
7 22 0 2.61 0.8
7 0 1 398.97 4.92
7 1 1 102.8 2.08
7 2 1 28.98 1.24
7 3 1 75.58 1.8
7 4 1 127.47 2.38
7 5 1 132.84 2.48
7 6 1 72.61 1.87
7 7 1 41.6 1.51
7 8 1 2.08 0.62
7 9 1 182.51 3.19
7 10 1 34.69 1.54
7 11 1 33.12 1.57
7 12 1 0.93 0.6
7 13 1 67.32 2.11
7 14 1 32.91 1.74
7 15 1 19.54 1.44
7 16 1 31.56 1.76
7 17 1 65.45 2.3
7 18 1 77.96 2.5
7 19 1 47.92 2.11
7 20 1 20.36 1.64
7 21 1 45.88 2.1
7 22 1 61.15 2.32
7 0 2 20.92 1.15
7 1 2 3.72 0.88
7 2 2 70.57 1.79
7 3 2 52.94 1.58
7 4 2 22.99 1.21
7 5 2 92 2.08
7 6 2 379.75 4.9
7 7 2 12.88 0.92
7 8 2 31.8 1.47
7 9 2 42.86 1.7
7 10 2 258.91 4.03
7 11 2 19.39 1.2
7 12 2 106.1 2.58
7 13 2 9.59 0.94
7 14 2 10.48 0.91
7 15 2 36.38 1.74
7 16 2 27.59 1.69
7 17 2 11.19 1.07
7 18 2 20.42 1.59
7 19 2 3.02 0.79
7 20 2 3.43 0.81
7 21 2 1.78 0.74
7 0 3 6.84 0.97
7 1 3 214.82 3.35
7 2 3 54.86 1.68
7 3 3 32.63 1.41
7 4 3 44.64 1.57
7 5 3 186.83 3.14
7 6 3 80.59 2.04
7 7 3 21.85 1.28
7 8 3 68.11 1.97
7 9 3 10.33 0.93
7 10 3 10.89 0.93
7 11 3 10.82 1.08
7 12 3 27.06 1.53
7 13 3 38.83 1.79
7 14 3 77.39 2.4
7 15 3 29.7 1.7
7 16 3 44.67 2.06
7 17 3 59.01 2.26
7 18 3 14.38 1.17
7 19 3 38.43 1.98
7 20 3 23 1.67
7 21 3 16.11 1.36
7 0 4 4.76 0.69
7 1 4 120.53 2.5
7 2 4 21.71 1.3
7 3 4 42.52 1.61
7 4 4 103.67 2.35
7 5 4 94.32 2.3
7 6 4 88.28 2.23
7 7 4 8.21 0.8
7 8 4 16.62 1.17
7 9 4 30.01 1.56
7 10 4 21.46 1.42
7 11 4 25.44 1.56
7 12 4 49.5 1.96
7 13 4 71.55 2.37
7 14 4 21.45 1.58
7 15 4 69.45 2.38
7 16 4 64.44 2.29
7 17 4 42.11 1.96
7 18 4 29.26 1.79
7 19 4 46.58 2.15
7 20 4 3.52 0.8
7 0 5 5.46 0.73
7 1 5 40.06 1.63
7 2 5 39.42 1.59
7 3 5 13.16 1.12
7 4 5 57.07 1.91
7 5 5 59.28 1.93
7 6 5 49.57 1.83
7 7 5 81.62 2.29
7 8 5 113.76 2.71
7 9 5 8.76 0.85
7 10 5 80.31 2.37
7 11 5 21.84 1.54
7 12 5 51.14 2.08
7 13 5 8.33 0.89
7 14 5 96.64 2.72
7 15 5 5.72 0.85
7 16 5 22.11 1.5
7 17 5 7.32 0.9
7 18 5 10.3 0.96
7 19 5 9.96 0.95
7 0 6 26.13 1.48
7 1 6 111.39 2.65
7 2 6 140.04 2.97
7 3 6 104.67 2.61
7 4 6 99.51 2.52
7 5 6 11.78 0.98
7 6 6 22 1.51
7 7 6 61.09 2.14
7 8 6 51.53 2.01
7 9 6 16.17 1.3
7 10 6 13.59 1.25
7 11 6 45.79 1.96
7 12 6 12.13 1.1
7 13 6 24.35 1.66
7 14 6 19.62 1.41
7 15 6 31.7 1.86
7 16 6 34.32 1.9
7 17 6 26.88 1.79
7 18 6 12.77 1.13
7 0 7 55.52 2.07
7 1 7 2.22 0.7
7 2 7 131.32 3.02
7 3 7 14.86 1.27
7 4 7 5.67 0.8
7 5 7 8.74 0.88
7 6 7 5.92 0.82
7 7 7 40.41 1.88
7 8 7 64.44 2.24
7 9 7 31.14 1.82
7 10 7 67.13 2.36
7 11 7 23.4 1.5
7 12 7 37.27 1.99
7 13 7 13.85 1.16
7 14 7 52.71 2.26
7 15 7 12.47 1.01
7 16 7 0.34 1.48
7 0 8 2.16 0.74
7 1 8 58.5 2.22
7 2 8 129.17 3.07
7 3 8 33.07 1.78
7 4 8 11.5 1.09
7 5 8 19.04 1.53
7 6 8 8.15 0.9
7 7 8 15.72 1.33
7 8 8 7.1 0.96
7 9 8 42.61 2.02
7 10 8 3.82 0.82
7 11 8 50.09 2.15
7 12 8 31.18 1.82
7 13 8 38.2 1.92
7 14 8 4.42 0.81
7 0 9 8.45 0.93
7 1 9 8.09 0.91
7 2 9 18.92 1.44
7 3 9 13.06 1.08
7 4 9 35 1.9
7 5 9 19.44 1.27
7 6 9 18.75 1.34
7 7 9 6.93 0.89
7 8 9 104.59 2.91
7 9 9 1.26 1.59
7 10 9 57.62 2.23
7 11 9 11.99 0.99
7 0 10 0.4 0.77
7 1 10 56.67 2.25
7 2 10 7.15 0.88
7 3 10 120.23 3.07
7 4 10 13.56 1.03
7 5 10 1.31 0.76
7 6 10 17.67 1.6
8 0 0 4.28 0.66
8 1 0 3.12 0.64
8 2 0 89.93 2.11
8 3 0 0.26 0.6
8 4 0 4.32 0.68
8 5 0 19.3 1.24
8 6 0 238.96 3.78
8 7 0 32.72 1.55
8 8 0 10.41 0.93
8 9 0 116.7 2.68
8 10 0 32.42 1.61
8 11 0 41.47 1.75
8 12 0 18.55 1.2
8 13 0 106.36 2.73
8 14 0 2.32 0.73
8 15 0 3.26 0.77
8 16 0 65.94 2.3
8 17 0 30.97 1.78
8 18 0 0.96 0.73
8 19 0 16.89 1.22
8 20 0 1.43 0.74
8 0 1 57.35 1.79
8 1 1 56.61 1.75
8 2 1 175.33 3.05
8 3 1 2.25 0.63
8 4 1 59.4 1.82
8 5 1 121.54 2.57
8 6 1 4.64 0.72
8 7 1 39.76 1.62
8 8 1 9.29 0.9
8 9 1 111.14 2.66
8 10 1 7.9 0.8
8 11 1 7.23 0.81
8 12 1 38.62 1.8
8 13 1 47.78 1.94
8 14 1 8.27 0.89
8 15 1 33.79 1.79
8 16 1 15.88 1.38
8 17 1 33.47 1.88
8 18 1 7.15 0.9
8 19 1 73.89 2.48
8 20 1 68.19 2.37
8 0 2 1.01 0.61
8 1 2 5.69 0.71
8 2 2 58.79 1.82
8 3 2 20.77 1.31
8 4 2 235.67 3.75
8 5 2 5.6 0.74
8 6 2 90.93 2.29
8 7 2 22.74 1.47
8 8 2 332.23 4.79
8 9 2 3.58 0.69
8 10 2 42.14 1.79
8 11 2 7.65 0.83
8 12 2 50.5 1.97
8 13 2 5 0.8
8 14 2 49.53 2.03
8 15 2 6.74 0.86
8 16 2 38.68 1.92
8 17 2 9.81 0.97
8 18 2 5.32 0.85
8 19 2 5.5 0.85
8 20 2 18.98 1.39
8 0 3 150.89 2.92
8 1 3 3.47 0.69
8 2 3 26.8 1.44
8 3 3 63.66 1.92
8 4 3 76.6 2.13
8 5 3 41.88 1.7
8 6 3 65.28 2
8 7 3 63.69 2.02
8 8 3 38.73 1.67
8 9 3 108.79 2.67
8 10 3 129.26 2.96
8 11 3 20 1.48
8 12 3 114.98 2.88
8 13 3 68.33 2.29
8 14 3 29.04 1.69
8 15 3 0.98 0.71
8 16 3 22.36 1.63
8 17 3 5.9 0.87
8 18 3 10.88 0.97
8 19 3 3.38 0.79
8 0 4 10.04 0.9
8 1 4 25.66 1.39
8 2 4 29.79 1.5
8 3 4 83.64 2.25
8 4 4 43.34 1.74
8 5 4 22.02 1.36
8 6 4 12.58 0.94
8 7 4 74.98 2.26
8 8 4 118.95 2.84
8 9 4 44.76 1.85
8 10 4 56.12 2.09
8 11 4 99.09 2.69
8 12 4 28.57 1.67
8 13 4 44.99 1.99
8 14 4 45.57 2.06
8 15 4 70.89 2.43
8 16 4 15.33 1.08
8 17 4 13.05 1.14
8 18 4 1.01 0.72
8 0 5 1.21 0.64
8 1 5 42.68 1.73
8 2 5 33.21 1.61
8 3 5 27.11 1.54
8 4 5 31.17 1.61
8 5 5 61.89 2.12
8 6 5 84.95 2.42
8 7 5 15.16 1.26
8 8 5 67.46 2.27
8 9 5 24.58 1.62
8 10 5 90.43 2.63
8 11 5 2.01 0.73
8 12 5 98.21 2.81
8 13 5 2.24 0.77
8 14 5 10 0.97
8 15 5 25.63 1.71
8 16 5 18.66 1.6
8 17 5 9.87 0.95
8 0 6 156.16 3.29
8 1 6 3.44 0.74
8 2 6 15.34 1.26
8 3 6 22.45 1.55
8 4 6 67.41 2.23
8 5 6 40.87 1.86
8 6 6 29.96 1.7
8 7 6 51.7 2.15
8 8 6 23.73 1.69
8 9 6 9.63 0.94
8 10 6 0.25 0.73
8 11 6 53.94 2.22
8 12 6 0.05 0.7
8 13 6 17.9 1.34
8 14 6 6.02 0.87
8 15 6 27 1.79
8 16 6 34.21 1.89
8 0 7 100.01 2.79
8 1 7 9.14 0.91
8 2 7 2.39 0.75
8 3 7 20.68 1.39
8 4 7 109.51 2.86
8 5 7 1.85 0.74
8 6 7 5.68 0.84
8 7 7 65.48 2.34
8 8 7 55.56 2.22
8 9 7 18.9 1.43
8 10 7 0.23 0.78
8 11 7 51.76 2.23
8 12 7 59.82 2.26
8 13 7 15.84 1.2
8 14 7 24.07 1.7
8 0 8 86.72 2.65
8 1 8 81.9 2.59
8 2 8 18.25 1.39
8 3 8 64.46 2.38
8 4 8 21.44 1.49
8 5 8 25.83 1.78
8 6 8 16.26 1.15
8 7 8 24.42 1.72
8 8 8 5.67 0.86
8 9 8 7.15 0.9
8 10 8 8.14 0.91
8 11 8 40.99 1.99
8 0 9 11.42 0.99
8 1 9 10.62 0.98
8 2 9 36.45 1.98
8 3 9 31.31 1.85
8 4 9 32.72 1.91
8 5 9 1.65 0.79
8 6 9 80.73 2.5
8 7 9 42.36 2.02
8 8 9 13.72 1.18
9 1 0 1.04 0.6
9 2 0 44 1.73
9 4 0 324.84 4.78
9 5 0 1.06 1.25
9 6 0 12.22 0.99
9 7 0 13.21 1.17
9 8 0 230.97 4.02
9 9 0 8.03 0.85
9 10 0 28.83 1.66
9 11 0 45.88 1.96
9 12 0 10.13 0.94
9 13 0 12.4 1
9 14 0 77.28 2.51
9 15 0 68.6 2.39
9 16 0 0.2 0.74
9 18 0 8.53 0.92
9 0 1 13.61 0.99
9 1 1 21.78 1.38
9 2 1 48.58 1.8
9 3 1 23.81 1.46
9 4 1 10.74 0.94
9 5 1 12.77 1.12
9 6 1 35.99 1.67
9 7 1 72.14 2.26
9 8 1 26.2 1.53
9 9 1 71.11 2.22
9 10 1 7.92 0.87
9 11 1 63.45 2.23
9 12 1 6 0.84
9 13 1 109.32 2.9
9 14 1 24.99 1.72
9 15 1 7.71 0.91
9 16 1 18.78 1.55
9 17 1 40.18 1.98
9 18 1 2.55 0.77
9 0 2 205.68 3.64
9 1 2 3.32 0.68
9 2 2 8.39 0.81
9 3 2 5.14 0.74
9 4 2 169.14 3.31
9 5 2 59.86 2.01
9 6 2 18.36 1.44
9 7 2 20.49 1.5
9 8 2 11.55 0.93
9 9 2 117.16 2.86
9 10 2 18.45 1.42
9 11 2 29.12 1.7
9 12 2 35.63 1.87
9 13 2 64.86 2.35
9 14 2 19.46 1.45
9 15 2 19.98 1.55
9 16 2 33.62 1.88
9 17 2 6.74 0.87
9 18 2 23.97 1.63
9 0 3 36.96 1.65
9 1 3 37.76 1.7
9 2 3 135.05 2.95
9 3 3 0.12 0.62
9 4 3 14.27 1.05
9 5 3 39.69 1.82
9 6 3 51.11 1.99
9 7 3 30.28 1.67
9 8 3 158.06 3.37
9 9 3 18.32 1.51
9 10 3 91.25 2.62
9 11 3 28.76 1.73
9 12 3 81.55 2.53
9 13 3 7.22 0.9
9 14 3 56.2 2.27
9 15 3 6.57 0.88
9 16 3 3.96 0.81
9 17 3 8.98 0.93
9 0 4 122.21 2.91
9 1 4 2.9 0.73
9 2 4 6.33 0.8
9 3 4 28.05 1.58
9 4 4 77.94 2.34
9 5 4 35.31 1.76
9 6 4 53.5 2
9 7 4 24.29 1.61
9 8 4 64.38 2.25
9 9 4 37.69 1.83
9 10 4 90.06 2.68
9 11 4 1.06 0.72
9 12 4 65.57 2.32
9 13 4 2.41 0.78
9 14 4 8.21 0.92
9 15 4 9.78 0.96
9 16 4 8.69 0.93
9 0 5 127.17 3.07
9 1 5 22.46 1.57
9 2 5 80.12 2.44
9 3 5 73.86 2.37
9 4 5 24.32 1.62
9 5 5 2.1 0.73
9 6 5 32.73 1.81
9 7 5 67.35 2.31
9 8 5 37.87 1.87
9 9 5 2.95 0.78
9 10 5 5.34 0.85
9 11 5 38.15 1.94
9 12 5 21.43 1.61
9 13 5 14.3 1.19
9 14 5 5.15 0.85
9 15 5 17.36 1.39
9 0 6 1.62 0.72
9 1 6 5.25 0.83
9 2 6 29.44 1.75
9 3 6 55.65 2.15
9 4 6 16.85 1.36
9 5 6 19.9 1.57
9 6 6 18.55 1.51
9 7 6 29.38 1.79
9 8 6 5.86 0.88
9 9 6 43.67 2.03
9 10 6 9.59 1.05
9 11 6 38.75 1.96
9 12 6 16.9 1.36
9 13 6 14.4 1.05
9 0 7 33.66 1.88
9 1 7 11.12 1.1
9 2 7 38.03 1.98
9 3 7 10.11 0.96
9 4 7 36.06 1.96
9 5 7 36.93 1.96
9 6 7 116.08 3.04
9 7 7 2.48 0.77
9 8 7 38.75 1.91
9 9 7 21.13 1.69
9 10 7 24.63 1.69
9 11 7 2.58 0.77
9 0 8 8.06 0.92
9 1 8 4.31 0.82
9 2 8 5.42 0.85
9 3 8 25.05 1.73
9 4 8 43.33 2.08
9 5 8 12.77 1.13
9 6 8 34.76 1.84
9 7 8 53.92 2.21
9 8 8 9.31 0.93
10 0 0 501.89 6.58
10 1 0 0.14 1.36
10 2 0 18.9 1.45
10 3 0 3.21 0.74
10 4 0 219.32 3.97
10 5 0 19.3 1.49
10 6 0 45.08 1.94
10 7 0 2.43 0.74
10 8 0 5.66 0.84
10 9 0 34.09 1.82
10 10 0 6.82 0.87
10 11 0 4.5 0.82
10 12 0 3.55 0.81
10 14 0 13.72 1.3
10 15 0 2.93 0.78
10 16 0 0.28 0.7
10 0 1 1.37 0.68
10 1 1 75.37 2.33
10 2 1 24.33 1.47
10 3 1 35.18 1.73
10 4 1 24.12 1.62
10 5 1 10.68 1.03
10 6 1 76.32 2.39
10 7 1 21.79 1.43
10 8 1 4.01 0.79
10 9 1 18.53 1.54
10 10 1 20.33 1.57
10 11 1 89.49 2.69
10 12 1 16.47 1.41
10 13 1 17.17 1.24
10 14 1 16.3 1.39
10 15 1 31.23 1.83
10 16 1 4.34 0.81
10 0 2 95.25 2.63
10 1 2 6.76 0.84
10 2 2 93.34 2.64
10 3 2 26.53 1.61
10 4 2 34.65 1.73
10 5 2 9.85 0.92
10 6 2 4.97 0.81
10 7 2 68.15 2.3
10 8 2 13.63 1.29
10 9 2 4.98 0.83
10 10 2 60.14 2.3
10 11 2 82.15 2.62
10 12 2 4.3 0.83
10 13 2 1.78 0.75
10 14 2 64.07 2.34
10 15 2 61.53 2.31
10 0 3 13.98 1.28
10 1 3 1.33 0.7
10 2 3 27.89 1.64
10 3 3 9.4 0.92
10 4 3 28.76 1.68
10 5 3 15.21 1.16
10 6 3 106.41 2.82
10 7 3 4.47 0.81
10 9 3 19.99 1.59
10 10 3 42.5 2.07
10 11 3 3.35 0.79
10 12 3 40.51 1.96
10 13 3 50.58 2.18
10 14 3 4.65 0.83
10 15 3 4.58 0.82
10 0 4 5.91 0.84
10 1 4 16.2 1.32
10 2 4 27.26 1.64
10 3 4 33.1 1.85
10 4 4 28.77 1.71
10 5 4 60.32 2.27
10 6 4 7.22 0.88
10 7 4 72.26 2.5
10 8 4 40.88 2
10 9 4 28.95 1.76
10 10 4 42.3 2.05
10 11 4 39.07 1.98
10 12 4 2.84 0.78
10 13 4 1.76 0.74
10 14 4 36.62 1.91
10 0 5 33.29 1.83
10 1 5 60.27 2.26
10 2 5 56.05 2.26
10 3 5 2.36 0.77
10 4 5 42.87 2
10 5 5 105.73 2.94
10 6 5 36.7 1.94
10 7 5 4.07 0.83
10 8 5 23.25 1.65
10 9 5 76.83 2.57
10 10 5 24.3 1.74
10 11 5 4 0.82
10 12 5 17.29 1.42
10 0 6 0.32 0.75
10 1 6 17.22 1.17
10 2 6 21.65 1.69
10 3 6 0.82 0.72
10 4 6 3.67 0.81
10 5 6 7.33 0.91
10 6 6 5.87 0.86
10 7 6 24.22 1.55
10 8 6 11.63 0.99
10 9 6 12.35 1.11
10 10 6 28.94 1.75
10 0 7 6.3 0.88
10 1 7 10.76 0.97
10 2 7 158.39 3.56
10 3 7 6.82 0.88
10 4 7 17.14 1.41
10 5 7 8.59 0.92
10 6 7 68.61 2.39
10 7 7 21.73 1.67
11 1 0 1.44 0.72
11 2 0 342.12 5.34
11 3 0 19.39 1.44
11 4 0 1.22 0.72
11 5 0 0.7 0.73
11 6 0 36.76 1.91
11 7 0 109.16 2.93
11 8 0 1.66 0.75
11 9 0 3.18 0.79
11 10 0 19.36 1.47
11 11 0 103.67 2.85
11 12 0 8.32 0.92
11 13 0 18.08 1.46
11 0 1 0.57 0.69
11 1 1 56.81 2.21
11 2 1 2.95 0.78
11 3 1 16.03 1.36
11 4 1 15.07 1.16
11 5 1 48.85 2.11
11 6 1 3.05 0.79
11 7 1 53.16 2.14
11 8 1 28.13 1.78
11 9 1 3.93 0.82
11 10 1 14.88 1.19
11 11 1 9.72 0.95
11 12 1 1.6 0.74
11 13 1 25.15 1.48
11 0 2 14.05 1.29
11 1 2 18.86 1.54
11 2 2 27.15 1.79
11 3 2 39.08 1.99
11 4 2 24.14 1.63
11 5 2 2.77 0.79
11 6 2 3.62 0.81
11 7 2 37.1 1.93
11 8 2 17.56 1.4
11 9 2 4.24 0.83
11 10 2 5.97 0.87
11 11 2 40.52 1.98
11 12 2 11.17 1.08
11 0 3 29.76 1.78
11 1 3 36.32 1.87
11 2 3 16.28 1.36
11 3 3 1.13 0.73
11 4 3 51.74 2.18
11 5 3 35.9 1.86
11 6 3 34.09 1.88
11 7 3 23.52 1.7
11 8 3 28.71 1.85
11 9 3 5.86 0.85
11 10 3 6.92 0.88
11 11 3 30.47 1.87
11 0 4 13.07 1.15
11 1 4 27.2 1.75
11 2 4 51.82 2.16
11 3 4 66.22 2.39
11 4 4 13.91 1.06
11 5 4 6.1 0.86
11 6 4 30.83 1.76
11 7 4 9.5 0.96
11 8 4 2.64 0.77
11 9 4 20.42 1.46
11 10 4 6.32 0.86
11 0 5 16.79 1.24
11 1 5 27.11 1.8
11 2 5 65.51 2.39
11 3 5 42.4 1.96
11 4 5 4.52 0.82
11 5 5 5.75 0.85
11 6 5 90.04 2.75
11 7 5 22.78 1.63
11 8 5 0.49 0.74
11 0 6 34.02 1.92
11 1 6 8.93 0.93
11 2 6 1.72 0.79
11 3 6 51.97 2.15
11 4 6 13.03 1.12
12 0 0 16.7 1.24
12 1 0 25.88 1.75
12 2 0 10 1.07
12 3 0 46.16 2.09
12 4 0 4.34 0.82
12 5 0 32.75 1.83
12 6 0 38.07 1.92
12 7 0 14.99 1.06
12 8 0 1.11 0.74
12 9 0 66.79 2.38
12 0 1 23.01 1.65
12 1 1 9.54 0.95
12 2 1 7.09 0.9
12 3 1 41.75 2.05
12 4 1 16.47 1.28
12 5 1 64.2 2.39
12 6 1 0.96 0.73
12 7 1 42.37 2.04
12 8 1 18.76 1.58
12 0 2 1.84 0.75
12 1 2 9.56 0.95
12 2 2 88.38 2.75
12 3 2 2.84 0.78
12 4 2 16.1 1.39
12 5 2 14.41 1.16
12 6 2 28.12 1.82
12 7 2 9.11 0.93
12 8 2 9.89 1.07
12 0 3 1.98 1.55
12 1 3 33.54 1.8
12 2 3 1.53 0.75
12 3 3 38.64 1.96
12 4 3 3.45 0.79
12 5 3 13.09 1.29
12 6 3 1.66 0.74
12 0 4 26.41 1.72
12 1 4 81.97 2.58
12 2 4 16.87 1.55
12 3 4 31.88 1.84
loop_
_geom_angle_atom_site_label_1
_geom_angle_atom_site_label_2
_geom_angle_atom_site_label_3
_geom_angle
_geom_angle_site_symmetry_1
_geom_angle_site_symmetry_3
_geom_angle_publ_flag
H2 N1 H1 108.4(5) . . ?
H3 N1 H1 109.3(6) . . ?
H3 N1 H2 109.8(5) . . ?
C1 N1 H1 111.5(4) . . ?
C1 N1 H2 108.7(4) . . ?
C1 N1 H3 109.2(4) . . ?
H4 C1 N1 108.6(3) . . ?
C2 C1 N1 109.76(2) . . ?
C2 C1 H4 110.2(3) . . ?
C3 C1 N1 110.02(2) . . ?
C3 C1 H4 107.0(3) . . ?
C3 C1 C2 111.09(2) . . ?
H5 C2 C1 110.1(3) . . ?
H6 C2 C1 110.3(3) . . ?
H6 C2 H5 108.4(4) . . ?
H7 C2 C1 110.5(3) . . ?
H7 C2 H5 108.9(5) . . ?
H7 C2 H6 108.5(5) . . ?
O2 C3 O1 125.83(3) . . ?
C1 C3 O1 118.30(2) . . ?
C1 C3 O2 115.88(2) . . ?
loop_
_geom_bond_atom_site_label_1
_geom_bond_atom_site_label_2
_geom_bond_distance
_geom_bond_site_symmetry_2
_geom_bond_publ_flag
O1 C3 1.2478(4) . ?
O2 C3 1.2664(4) . ?
N1 H1 1.006(6) . ?
N1 H2 1.019(6) . ?
N1 H3 1.045(8) . ?
N1 C1 1.4906(4) . ?
C1 H4 1.090(5) . ?
C1 C2 1.5264(4) . ?
C1 C3 1.5344(5) . ?
C2 H5 1.100(7) . ?
C2 H6 1.094(7) . ?
C2 H7 1.089(6) . ?
loop_
_geom_torsion_atom_site_label_1
_geom_torsion_atom_site_label_2
_geom_torsion_atom_site_label_3
_geom_torsion_atom_site_label_4
_geom_torsion
_geom_torsion_site_symmetry_1
_geom_torsion_site_symmetry_2
_geom_torsion_site_symmetry_3
_geom_torsion_site_symmetry_4
_geom_torsion_publ_flag
O1 C3 C1 N1 -18.19(3) . . . . ?
O1 C3 C1 C2 103.55(3) . . . . ?
O2 C3 C1 N1 162.16(2) . . . . ?
O2 C3 C1 C2 -76.10(3) . . . . ?
