#------------------------------------------------------------------------------
#$Date: 2022-02-02 12:37:17 +0200 (Wed, 02 Feb 2022) $
#$Revision: 272427 $
#$URL: file:///home/coder/svn-repositories/cod/cif/1/56/62/1566264.cif $
#------------------------------------------------------------------------------
#
# This file is available in the Crystallography Open Database (COD),
# http://www.crystallography.net/
#
# All data on this site have been placed in the public domain by the
# contributors.
#
data_1566264
loop_
_publ_author_name
'Jakub Plasil'
_publ_section_title
;
 Crystal structure refinement of pseudojohannite,
 Cu3(OH)2[(UO2)4O4(SO4)2](H2O)12, from the type locality - Jachymov, Czech
 Republic
;
_journal_name_full               'Journal of GeoSciences'
_journal_page_first              123
_journal_page_last               127
_journal_paper_doi               10.3190/jgeosci.190
_journal_volume                  60
_journal_year                    2015
_chemical_absolute_configuration .
_chemical_formula_sum            'Cu3 H26 O34 S2 U4'
_chemical_formula_weight         1777.07
_space_group_IT_number           2
_space_group_name_Hall           '-P 1'
_space_group_name_H-M_alt        'P -1'
_symmetry_cell_setting           triclinic
_symmetry_Int_Tables_number      2
_symmetry_space_group_name_Hall  '-P 1'
_symmetry_space_group_name_H-M   'P -1'
_cell_angle_alpha                72.103(6)
_cell_angle_beta                 70.512(5)
_cell_angle_gamma                76.070(5)
_cell_formula_units_Z            1
_cell_length_a                   8.6653(4)
_cell_length_b                   8.8499(5)
_cell_length_c                   9.9908(6)
_cell_measurement_reflns_used    2818
_cell_measurement_temperature    293
_cell_measurement_theta_max      29.3
_cell_measurement_theta_min      3.05
_cell_volume                     679.12(7)
_computing_cell_refinement
;
CrysAlisPro, Agilent Technologies,
Version 1.171.36.24 (release 03-12-2012 CrysAlis171 .NET)
(compiled Dec  3 2012,18:21:49)
;
_computing_data_collection
;
CrysAlisPro, Agilent Technologies,
Version 1.171.36.24 (release 03-12-2012 CrysAlis171 .NET)
(compiled Dec  3 2012,18:21:49)
;
_computing_data_reduction
;
CrysAlisPro, Agilent Technologies,
Version 1.171.36.24 (release 03-12-2012 CrysAlis171 .NET)
(compiled Dec  3 2012,18:21:49)
;
_diffrn_ambient_temperature      293
_diffrn_detector_area_resol_mean 10.3784
_diffrn_measured_fraction_theta_full 0.98
_diffrn_measured_fraction_theta_max 0.82
_diffrn_measurement_device       'four-cycle diffractometer'
_diffrn_measurement_device_type  'Xcalibur, Atlas, Gemini ultra'
_diffrn_measurement_method       '\w scans'
_diffrn_radiation_monochromator  graphite
_diffrn_radiation_probe          x-ray
_diffrn_radiation_source         'Enhance (Mo) X-ray Source'
_diffrn_radiation_type           'Mo K\a'
_diffrn_radiation_wavelength     0.7107
_diffrn_reflns_av_R_equivalents  0.0418
_diffrn_reflns_av_unetI/netI     0.0592
_diffrn_reflns_limit_h_max       8
_diffrn_reflns_limit_h_min       -11
_diffrn_reflns_limit_k_max       10
_diffrn_reflns_limit_k_min       -11
_diffrn_reflns_limit_l_max       9
_diffrn_reflns_limit_l_min       -12
_diffrn_reflns_number            4779
_diffrn_reflns_theta_full        26.78
_diffrn_reflns_theta_max         29.51
_diffrn_reflns_theta_min         2.87
_exptl_absorpt_coefficient_mu    26.344
_exptl_absorpt_correction_T_max  0.605
_exptl_absorpt_correction_T_min  0.192
_exptl_absorpt_correction_type   analytical
_exptl_absorpt_process_details
;
CrysAlisPro, Agilent Technologies,
Version 1.171.36.24 (release 03-12-2012 CrysAlis171 .NET)
(compiled Dec  3 2012,18:21:49)
Analytical numeric absorption correction using a multifaceted crystal
			model based on expressions derived by R.C. Clark & J.S. Reid.
(Clark, R. C. & Reid, J. S. (1995). Acta Cryst. A51, 887-897)
;
_exptl_crystal_colour
;
;
_exptl_crystal_density_diffrn    4.3451
_exptl_crystal_description
;
;
_exptl_crystal_F_000             759
_exptl_crystal_size_max          0.139
_exptl_crystal_size_mid          0.052
_exptl_crystal_size_min          0.021
_refine_diff_density_max         1.71
_refine_diff_density_min         -2.81
_refine_ls_extinction_coef       210(30)
_refine_ls_extinction_method
'B-C type 1 Gaussian isotropic (Becker & Coppens, 1974)'
_refine_ls_goodness_of_fit_gt    1.30
_refine_ls_goodness_of_fit_ref   1.23
_refine_ls_number_constraints    0
_refine_ls_number_parameters     198
_refine_ls_number_reflns         2550
_refine_ls_number_restraints     0
_refine_ls_R_factor_all          0.0476
_refine_ls_R_factor_gt           0.0385
_refine_ls_shift/su_max          0.0090
_refine_ls_shift/su_mean         0.0005
_refine_ls_structure_factor_coef Fsqd
_refine_ls_weighting_details     w=1/(\s^2^(I)+0.0004I^2^)
_refine_ls_weighting_scheme      sigma
_refine_ls_wR_factor_gt          0.0818
_refine_ls_wR_factor_ref         0.0865
_reflns_number_gt                2072
_reflns_number_total             2550
_reflns_threshold_expression     I>3\s(I)
_cod_data_source_file            jgeosci.190_plasil_supplement.cif
_cod_data_source_block           I
_cod_original_formula_sum        'Cu3 O34 S2 U4 H26'
_cod_database_code               1566264
loop_
_symmetry_equiv_pos_site_id
_symmetry_equiv_pos_as_xyz
1 x,y,z
2 -x,-y,-z
loop_
_atom_site_label
_atom_site_type_symbol
_atom_site_fract_x
_atom_site_fract_y
_atom_site_fract_z
_atom_site_adp_type
_atom_site_U_iso_or_equiv
_atom_site_site_symmetry_multiplicity
_atom_site_occupancy
_atom_site_calc_flag
_atom_site_refinement_flags
_atom_site_disorder_assembly
_atom_site_disorder_group
U1 U 0.09002(5) 0.67634(5) 0.47191(5) Uani 0.01312(18) 2 1 d . . .
U2 U 0.42813(5) 0.34282(5) 0.46461(5) Uani 0.01266(18) 2 1 d . . .
Cu1 Cu 0.5 0 0 Uani 0.0196(8) 1 1 d . . .
Cu2 Cu -0.00721(17) 0.1679(2) -0.00697(18) Uani 0.0228(6) 2 1 d . . .
S1 S 0.2504(3) -0.0039(4) 0.5035(3) Uani 0.0146(11) 2 1 d . . .
O1 O 0.5708(10) 0.0789(11) 0.1290(9) Uani 0.024(4) 2 1 d . . .
O2 O 0.1179(9) 0.0142(11) -0.1191(9) Uani 0.021(3) 2 1 d . . .
O3 O 0.4798(9) 0.4238(10) 0.2700(8) Uani 0.017(3) 2 1 d . . .
O4 O 0.2050(10) 0.1179(12) 0.1152(9) Uani 0.026(4) 2 1 d . . .
O5 O 0.3814(9) 0.2372(10) 0.6566(9) Uani 0.018(3) 2 1 d . . .
O6 O 0.4759(9) -0.2106(11) 0.1359(9) Uani 0.021(4) 2 1 d . . .
O7 O 0.3140(12) 0.4205(14) 0.0613(12) Uani 0.044(5) 2 1 d . . .
O8 O 0.1473(9) 0.4095(10) 0.5026(10) Uani 0.020(4) 2 1 d . . .
O9 O 0.6463(8) 0.4102(10) 0.4982(9) Uani 0.013(3) 2 1 d . . .
O10 O -0.1609(11) 0.3209(12) 0.1016(10) Uani 0.034(4) 2 1 d . . .
O11 O 0.1616(9) 0.7034(11) 0.2748(8) Uani 0.019(3) 2 1 d . . .
O12 O 0.2052(9) -0.0737(10) 0.4083(9) Uani 0.019(3) 2 1 d . . .
O13 O 0.3331(9) -0.1304(11) 0.6016(9) Uani 0.023(4) 2 1 d . . .
O14 O 0.3573(9) 0.1167(10) 0.4077(9) Uani 0.018(3) 2 1 d . . .
O15 O 0.1003(10) 0.3496(12) -0.1466(10) Uani 0.030(4) 2 1 d . . .
O16 O 0.0167(9) 0.6718(11) 0.6628(9) Uani 0.023(4) 2 1 d . . .
O17 O 0.1035(9) 0.0748(11) 0.5952(9) Uani 0.021(4) 2 1 d . . .
loop_
_atom_site_aniso_label
_atom_site_aniso_type_symbol
_atom_site_aniso_U_11
_atom_site_aniso_U_22
_atom_site_aniso_U_33
_atom_site_aniso_U_12
_atom_site_aniso_U_13
_atom_site_aniso_U_23
U1 U 0.0094(2) 0.0117(2) 0.0187(3) -0.00079(16) -0.00470(16) -0.00427(18)
U2 U 0.0099(2) 0.0117(2) 0.0170(3) -0.00097(15) -0.00450(16) -0.00413(18)
Cu1 Cu 0.0218(11) 0.0199(12) 0.0193(11) -0.0062(8) -0.0087(8) -0.0023(9)
Cu2 Cu 0.0200(8) 0.0224(9) 0.0241(9) -0.0031(6) -0.0014(6) -0.0085(7)
S1 S 0.0079(14) 0.0148(15) 0.0217(16) 0.0003(10) -0.0060(11) -0.0051(13)
O1 O 0.030(5) 0.028(6) 0.020(5) -0.010(4) -0.010(4) -0.009(4)
O2 O 0.020(4) 0.024(5) 0.018(5) -0.006(3) -0.001(3) -0.006(4)
O3 O 0.020(4) 0.009(4) 0.013(4) -0.003(3) 0.000(3) 0.004(3)
O4 O 0.033(5) 0.027(6) 0.017(5) -0.003(4) -0.009(4) -0.006(4)
O5 O 0.021(4) 0.018(5) 0.014(4) -0.005(3) -0.010(3) 0.004(4)
O6 O 0.020(5) 0.020(5) 0.019(5) -0.005(4) -0.002(3) -0.001(4)
O7 O 0.054(7) 0.046(8) 0.037(6) -0.004(5) -0.029(5) -0.004(6)
O8 O 0.012(4) 0.014(5) 0.034(5) -0.002(3) -0.002(3) -0.010(4)
O9 O 0.010(4) 0.012(4) 0.023(5) 0.003(3) -0.013(3) -0.008(3)
O10 O 0.042(6) 0.028(6) 0.023(5) 0.005(4) 0.004(4) -0.017(5)
O11 O 0.018(4) 0.027(5) 0.012(4) 0.001(3) -0.004(3) -0.008(4)
O12 O 0.022(5) 0.016(5) 0.021(5) -0.002(3) -0.010(3) -0.005(4)
O13 O 0.020(5) 0.026(5) 0.024(5) 0.008(4) -0.010(3) -0.014(4)
O14 O 0.018(4) 0.016(5) 0.022(5) -0.003(3) 0.002(3) -0.014(4)
O15 O 0.028(5) 0.026(6) 0.029(6) -0.007(4) 0.001(4) -0.006(4)
O16 O 0.018(4) 0.026(5) 0.026(5) -0.002(4) -0.005(3) -0.009(4)
O17 O 0.019(5) 0.019(5) 0.023(5) 0.002(3) -0.006(3) -0.006(4)
loop_
_atom_type_symbol
_atom_type_scat_dispersion_real
_atom_type_scat_dispersion_imag
_atom_type_scat_source
Cu 0.3201 1.2651 'International Tables Vol C tables 4.2.6.8 and 6.1.1.1'
O 0.0106 0.0060 'International Tables Vol C tables 4.2.6.8 and 6.1.1.1'
S 0.1246 0.1234 'International Tables Vol C tables 4.2.6.8 and 6.1.1.1'
U -9.6767 9.6646 'International Tables Vol C tables 4.2.6.8 and 6.1.1.1'
loop_
_geom_bond_atom_site_label_1
_geom_bond_atom_site_label_2
_geom_bond_site_symmetry_1
_geom_bond_site_symmetry_2
_geom_bond_distance
U1 O8 . . 2.236(9)
U1 O8 . 2_566 2.269(9)
U1 O9 . 2_666 2.319(8)
U1 O11 . . 1.815(8)
U1 O12 . 1_565 2.464(10)
U1 O16 . . 1.781(9)
U1 O17 . 2_566 2.482(8)
U2 O3 . . 1.793(8)
U2 O5 . . 1.809(8)
U2 O8 . . 2.292(8)
U2 O9 . . 2.263(9)
U2 O9 . 2_666 2.236(9)
U2 O13 . 2_656 2.495(8)
U2 O14 . . 2.495(11)
Cu1 O1 . . 1.953(12)
Cu1 O1 . 2_655 1.953(12)
Cu1 O4 . . 2.538(8)
Cu1 O4 . 2_655 2.538(8)
Cu1 O6 . . 1.950(8)
Cu1 O6 . 2_655 1.950(8)
Cu2 Cu2 . 2_555 2.906(3)
Cu2 O2 . . 1.923(9)
Cu2 O2 . 2_555 1.948(9)
Cu2 O4 . . 2.420(11)
Cu2 O10 . . 1.962(10)
Cu2 O15 . . 1.972(9)
S1 O12 . . 1.476(12)
S1 O13 . . 1.465(9)
S1 O14 . . 1.472(8)
S1 O17 . . 1.459(8)
O1 O2 . 2_655 2.602(12)
O1 O5 . 2_656 2.992(11)
O1 O6 . . 2.851(15)
O1 O6 . 2_655 2.665(13)
O1 O14 . . 2.850(11)
O2 O2 . 2_555 2.557(10)
O2 O10 . 2_555 2.856(15)
O2 O15 . . 2.866(15)
O2 O17 . 1_554 2.782(13)
O3 O7 . . 2.906(17)
O3 O9 . 2_666 2.894(13)
O3 O13 . 2_656 2.883(11)
O3 O14 . . 2.922(12)
O4 O7 . . 2.887(17)
O4 O12 . . 2.889(12)
O5 O6 . 2_656 2.680(14)
O5 O8 . . 2.824(12)
O5 O9 . . 2.811(11)
O5 O15 . 1_556 2.759(11)
O6 O7 . 2_655 2.981(15)
O6 O11 . 1_545 2.782(11)
O7 O10 . 2_565 2.709(14)
O8 O8 . 2_566 2.669(11)
O8 O9 . 2_666 2.668(14)
O8 O11 . . 2.879(11)
O8 O16 . 2_566 2.830(16)
O8 O17 . . 2.898(13)
O9 O9 . 2_666 2.642(10)
O9 O12 . 2_656 2.943(11)
O9 O13 . 2_656 2.886(15)
O9 O16 . 2_666 2.859(10)
O10 O15 . . 2.738(11)
O11 O12 . 1_565 2.848(15)
O11 O17 . 2_566 2.866(11)
O12 O13 . . 2.411(14)
O12 O14 . . 2.376(15)
O12 O17 . . 2.419(14)
O12 O17 . 2_556 2.685(13)
O13 O14 . . 2.433(11)
O13 O14 . 2_656 2.678(13)
O13 O17 . . 2.357(11)
O14 O17 . . 2.387(10)
O15 O16 . 1_554 2.977(12)
loop_
_refln_index_h
_refln_index_k
_refln_index_l
_refln_F_squared_calc
_refln_F_squared_meas
_refln_F_squared_sigma
_refln_observed_status
_jana_refln_twin_domain
0 0 2 161530.00 168356.00 4217.36 o -2
0 0 2 161530.00 168356.00 4217.36 o 1
0 0 3 40298.40 41366.50 1112.33 o -2
0 0 3 40298.40 41366.50 1112.33 o 1
0 0 4 38398.60 37400.50 1048.48 o -2
0 0 4 38398.60 37400.50 1048.48 o 1
0 0 5 13096.10 12121.00 427.84 o -2
0 0 5 13096.10 12121.00 427.84 o 1
0 0 6 14546.30 13893.10 413.29 o -2
0 0 6 14546.30 13893.10 413.29 o 1
0 0 7 157.91 114.89 53.76 < -2
0 0 7 157.91 114.89 53.76 < 1
0 0 8 4191.18 4388.59 260.69 o -2
0 0 8 4191.18 4388.59 260.69 o 1
0 0 9 1641.00 1874.43 279.04 o -2
0 0 9 1641.00 1874.43 279.04 o 1
0 0 10 144.77 262.24 122.59 < -2
0 0 10 144.77 262.24 122.59 < 1
0 0 11 3198.21 4059.96 463.05 o -2
0 0 11 3198.21 4059.96 463.05 o 1
0 1 -11 1710.53 1566.67 291.94 o 1
0 1 -10 3000.82 3441.85 415.43 o 1
0 1 -9 243.62 191.66 70.92 < 1
0 1 -8 733.96 676.59 107.93 o 1
0 1 -7 893.97 894.23 185.54 o 1
0 1 -6 278.90 319.11 58.49 o 1
0 1 -5 11696.60 10764.50 417.79 o 1
0 1 -4 7065.16 7034.54 421.68 o 1
0 1 -3 21411.80 20057.80 858.77 o 1
0 1 -2 3095.28 3104.45 199.59 o 1
0 1 -1 27016.30 23451.90 891.74 o 1
0 1 1 28769.20 27497.40 713.08 o 1
0 1 2 1968.96 2313.20 93.72 o 1
0 1 3 10478.00 8880.86 226.07 o 1
0 1 4 6790.44 6938.25 203.73 o 1
0 1 5 9885.97 9636.40 294.21 o 1
0 1 6 33.92 66.84 31.61 < 1
0 1 7 3866.42 3564.99 177.45 o 1
0 1 8 2619.11 2450.31 180.89 o 1
0 1 9 528.42 565.40 95.96 o 1
0 1 10 2198.91 2547.70 351.30 o 1
0 1 11 347.13 278.11 135.42 < 1
0 3 -10 2484.15 2930.31 400.54 o 1
0 3 -9 1600.09 1895.70 309.97 o 1
0 3 -8 398.34 453.54 152.88 < 1
0 3 -7 333.58 148.30 62.41 < 1
0 3 -6 707.88 566.92 152.45 o 1
0 3 -5 11422.00 12191.80 497.68 o 1
0 3 -4 15783.90 16622.50 846.59 o 1
0 3 -3 35077.20 37297.30 1538.29 o 1
0 3 -2 39606.00 39594.80 1575.55 o 1
0 3 -1 48751.80 41814.00 1629.42 o 1
0 3 0 75183.50 74805.40 2765.05 o 1
0 3 1 107261.00 114987.00 4159.56 o 1
0 3 2 48010.90 47663.10 1817.52 o 1
0 3 3 70519.60 73096.90 1911.63 o 1
0 3 4 24861.30 24296.90 727.06 o 1
0 3 5 37039.60 35921.60 828.64 o 1
0 3 6 13330.90 13170.30 379.12 o 1
0 3 7 5831.53 6148.08 239.62 o 1
0 3 8 549.12 549.82 163.26 o 1
0 3 9 252.64 312.38 129.73 < 1
0 3 10 686.54 1000.99 215.67 o 1
0 3 11 1219.37 1247.16 253.95 o 1
0 3 12 2580.07 2645.56 379.74 o 1
0 4 -9 319.91 373.51 156.63 < 1
0 4 -8 232.49 247.80 119.98 < 1
0 4 -7 8.94 31.40 71.70 < 1
0 4 -6 47.86 91.14 90.85 < 1
0 4 -5 50.67 -81.66 86.51 < 1
0 4 -4 726.97 630.17 100.60 o 1
0 4 -3 6380.71 6485.03 443.69 o 1
0 4 -2 5177.82 5226.89 372.45 o 1
0 4 -1 9846.72 10560.10 566.77 o 1
0 4 0 17062.90 17437.10 807.41 o 1
0 4 1 14398.40 14182.40 690.78 o 1
0 4 2 17756.60 19186.10 613.17 o 1
0 4 3 5926.60 5830.42 266.96 o 1
0 4 4 3988.06 4319.87 221.67 o 1
0 4 5 3318.91 3696.83 214.82 o 1
0 4 6 230.83 201.88 45.74 o 1
0 4 7 27.03 70.34 44.67 < 1
0 4 8 135.34 185.62 65.07 < 1
0 4 9 120.51 151.46 64.60 < 1
0 4 10 88.97 146.26 105.40 < 1
0 4 11 221.53 175.60 116.77 < 1
0 4 12 101.15 197.04 130.06 < 1
0 5 -8 1742.62 1752.82 301.36 o 1
0 5 -7 1.72 -123.76 98.50 < 1
0 5 -6 1335.72 1382.86 241.35 o 1
0 5 -5 501.66 463.70 135.67 o 1
0 5 -4 755.46 838.92 166.54 o 1
0 5 -3 1209.37 1125.85 129.78 o 1
0 5 -2 161.25 180.85 67.37 < 1
0 5 -1 8794.54 9445.50 575.04 o 1
0 5 0 3303.25 3425.24 209.00 o 1
0 5 1 21560.50 22307.30 726.03 o 1
0 5 2 7015.48 7232.46 326.85 o 1
0 5 3 17257.10 16962.10 593.07 o 1
0 5 4 1245.01 1241.82 122.97 o 1
0 5 5 4581.57 4710.66 261.27 o 1
0 5 6 110.89 245.03 71.65 o 1
0 5 7 726.82 944.33 113.37 o 1
0 5 8 15.86 -0.60 54.80 < 1
0 5 9 9.80 -15.70 55.17 < 1
0 5 10 566.89 677.39 195.47 o 1
0 5 11 319.88 329.33 157.24 < 1
0 5 12 1578.48 1512.07 308.39 o 1
0 6 -7 1453.75 1443.52 281.40 o 1
0 6 -6 1226.09 1243.53 236.71 o 1
0 6 -5 23.49 -9.72 64.70 < 1
0 6 -4 8684.28 9184.16 635.94 o 1
0 6 -3 7680.65 7614.55 384.39 o 1
0 6 -2 24669.40 25291.40 1191.42 o 1
0 6 -1 15106.20 16058.40 831.50 o 1
0 6 0 41393.80 45476.80 1339.77 o 1
0 6 1 13506.50 15170.40 571.76 o 1
0 6 2 54135.40 61424.50 1735.43 o 1
0 6 3 14233.80 16570.20 612.36 o 1
0 6 4 37762.00 44001.50 1312.16 o 1
0 6 5 15477.20 14437.30 824.45 o 1
0 6 6 22655.50 24788.10 1227.89 o 1
0 6 7 4189.78 4314.46 260.17 o 1
0 6 8 5917.97 6363.18 334.32 o 1
0 6 9 98.00 305.70 147.27 < 1
0 6 10 568.16 256.47 138.17 < 1
0 6 11 2010.74 1909.96 343.42 o 1
0 7 -6 341.19 90.13 96.86 < 1
0 7 -5 14.76 136.82 102.89 < 1
0 7 -4 321.26 292.66 123.07 < 1
0 7 -3 1930.06 2048.40 200.07 o 1
0 7 -2 1017.41 1085.54 201.04 o 1
0 7 -1 4714.30 5218.40 428.21 o 1
0 7 0 1429.72 1456.39 215.66 o 1
0 7 1 7994.40 8635.37 570.37 o 1
0 7 2 1049.72 957.85 199.61 o 1
0 7 3 8234.80 7842.03 563.50 o 1
0 7 4 239.34 375.00 146.47 < 1
0 7 5 3146.65 3285.35 357.23 o 1
0 7 6 235.19 213.11 116.46 < 1
0 7 7 485.25 307.38 143.19 < 1
0 7 8 936.06 960.58 136.54 o 1
0 7 9 49.69 90.98 108.27 < 1
0 7 10 1006.17 1057.64 248.71 o 1
0 7 11 123.58 102.45 116.40 < 1
0 8 -5 6.86 2.85 62.43 < 1
0 8 -4 213.79 263.65 136.78 < 1
0 8 -3 297.85 390.85 101.88 o 1
0 8 -2 974.20 1051.71 206.26 o 1
0 8 -1 2050.12 1917.45 271.87 o 1
0 8 0 3831.07 4351.82 412.90 o 1
0 8 1 3832.50 3797.29 380.82 o 1
0 8 2 4356.72 4236.54 404.14 o 1
0 8 3 5185.65 4920.75 444.42 o 1
0 8 4 5142.09 5249.46 483.36 o 1
0 8 5 5293.55 4720.41 464.34 o 1
0 8 6 2860.92 3234.60 384.31 o 1
0 8 7 1689.47 2033.81 318.74 o 1
0 8 8 838.24 698.26 125.88 o 1
0 8 9 312.06 261.86 148.27 < 1
0 8 10 62.42 -36.39 120.55 < 1
0 10 -1 1484.24 1649.73 286.26 o 1
0 10 0 913.68 846.33 206.24 o 1
0 10 1 1217.09 1369.44 258.73 o 1
0 10 2 959.54 1159.58 235.22 o 1
0 10 3 865.42 821.84 208.46 o 1
0 10 4 1235.71 1421.05 277.88 o 1
0 10 5 324.14 336.75 170.11 < 1
0 10 6 1070.21 786.34 209.36 o 1
0 10 7 574.89 456.34 173.13 < 1
0 10 8 166.99 176.45 150.85 < 1
0 -11 -4 1330.62 1162.03 249.50 o -2
0 11 2 1330.62 1162.03 249.50 o 1
0 -11 -3 3353.45 2222.58 340.59 o -2
0 11 3 3353.45 2222.58 340.59 o 1
0 -11 -2 1737.36 1167.03 254.51 o -2
0 11 4 1737.36 1167.03 254.51 o 1
0 -11 -1 4855.33 3543.45 447.41 o -2
0 11 5 4855.33 3543.45 447.41 o 1
1 -11 -4 234.15 136.85 114.60 < 1
1 -11 -3 2.09 -11.99 99.08 < 1
1 -10 -8 3252.24 2080.71 342.44 o 1
1 -10 -7 1217.77 807.08 223.89 o 1
1 -10 -6 2912.85 2935.55 398.41 o 1
1 -10 -5 466.55 476.76 180.33 < 1
1 -10 -4 955.88 851.53 218.79 o 1
1 -10 -3 70.62 64.00 105.77 < 1
1 -10 -2 61.07 69.56 105.64 < 1
1 -10 -1 834.79 792.54 201.43 o 1
1 -10 0 423.28 420.83 168.58 < 1
1 -10 1 2081.23 1491.56 281.17 o 1
1 -9 -9 370.80 319.46 194.36 < 1
1 -9 -8 1833.10 1353.36 282.73 o 1
1 -9 -7 164.09 259.18 146.86 < 1
1 -9 -6 1799.06 1959.12 308.03 o 1
1 -9 -5 150.91 208.14 128.86 < 1
1 -9 -4 2360.59 1987.13 301.31 o 1
1 -9 -3 225.97 147.75 107.29 < 1
1 -9 -2 274.66 355.11 151.23 < 1
1 -9 -1 1297.06 1334.56 238.28 o 1
1 -9 0 83.40 121.65 102.21 < 1
1 -9 1 2139.93 2497.82 335.05 o 1
1 -9 2 387.70 372.47 162.38 < 1
1 -9 3 5281.74 6312.91 604.71 o 1
1 -8 -10 6170.92 4325.56 522.82 o 1
1 -8 -9 9749.49 8796.41 745.69 o 1
1 -8 -8 7213.54 6448.38 384.77 o 1
1 -8 -7 11774.80 12636.20 569.75 o 1
1 -8 -6 4942.46 5267.18 498.48 o 1
1 -8 -5 9548.41 9842.15 701.57 o 1
1 -8 -4 1893.69 1933.02 295.09 o 1
1 -8 -3 2596.12 2926.51 330.92 o 1
1 -8 -2 338.32 466.07 146.35 o 1
1 -8 -1 1077.55 925.40 187.63 o 1
1 -8 0 7113.54 8338.02 601.34 o 1
1 -8 1 5414.95 5810.99 492.74 o 1
1 -8 2 14509.20 17270.70 993.73 o 1
1 -8 3 6920.46 8320.82 668.39 o 1
1 -8 4 15843.60 16972.30 1057.09 o 1
1 -8 5 7254.18 6057.97 584.42 o 1
1 -7 -11 3423.38 3050.56 451.22 o 1
1 -7 -10 5013.23 4468.08 517.96 o 1
1 -7 -9 7249.81 7482.25 650.45 o 1
1 -7 -8 4376.07 4247.46 290.80 o 1
1 -7 -7 6362.18 6815.74 375.68 o 1
1 -7 -6 3073.82 3017.68 354.76 o 1
1 -7 -5 2673.55 2769.52 326.00 o 1
1 -7 -4 942.12 1161.46 209.95 o 1
1 -7 -3 55.14 -67.89 103.70 < 1
1 -7 -2 11.36 61.99 92.55 < 1
1 -7 -1 13.48 -27.90 93.49 < 1
1 -7 0 162.70 309.37 122.44 < 1
1 -7 1 1317.50 1445.76 219.82 o 1
1 -7 2 1287.93 1196.27 207.48 o 1
1 -7 3 3236.71 3614.39 269.95 o 1
1 -7 4 1420.48 1789.67 282.77 o 1
1 -7 5 2725.60 3045.32 379.23 o 1
1 -7 6 1862.29 2085.75 325.96 o 1
1 -6 -11 810.91 920.97 240.15 o 1
1 -6 -10 655.21 724.76 213.78 o 1
1 -6 -9 2093.29 2260.27 333.30 o 1
1 -6 -8 933.58 980.10 133.59 o 1
1 -6 -7 3954.60 4032.89 261.57 o 1
1 -6 -6 628.57 679.21 111.87 o 1
1 -6 -5 964.47 880.15 194.67 o 1
1 -6 -4 649.83 649.29 80.11 o 1
1 -6 -3 911.58 1025.25 122.81 o 1
1 -6 -2 134.50 269.14 72.80 o 1
1 -6 -1 3.36 -73.09 61.93 < 1
1 -6 0 4005.56 4014.77 249.85 o 1
1 -6 1 167.76 292.89 103.05 < 1
1 -6 2 2831.51 2589.91 284.38 o 1
1 -6 3 1954.32 2303.45 196.84 o 1
1 -6 4 5542.32 5708.49 478.90 o 1
1 -6 5 5490.25 6172.67 522.92 o 1
1 -6 6 5867.33 6643.51 574.53 o 1
1 -6 7 4029.48 4307.75 477.21 o 1
1 -6 8 4404.44 3757.18 462.74 o 1
1 -4 -11 1866.16 1968.05 322.87 o 1
1 -4 -10 7316.60 7309.42 615.85 o 1
1 -4 -9 3810.57 4072.80 261.46 o 1
1 -4 -8 9097.13 9881.56 358.98 o 1
1 -4 -7 4451.68 4284.75 243.66 o 1
1 -4 -6 16472.50 17306.10 487.68 o 1
1 -4 -5 2997.71 3430.34 163.62 o 1
1 -4 -4 14653.30 15227.80 521.98 o 1
1 -4 -3 121.01 149.00 40.93 o 1
1 -4 -2 2825.55 2671.25 165.57 o 1
1 -4 -1 1551.89 1482.76 121.32 o 1
1 -4 0 1181.89 1149.40 106.41 o 1
1 -4 1 6007.62 6601.79 287.51 o 1
1 -4 2 548.64 504.12 78.52 o 1
1 -4 3 9215.77 9576.76 397.97 o 1
1 -4 4 4047.87 4057.77 247.46 o 1
1 -4 5 4100.90 3872.10 357.36 o 1
1 -4 6 1512.26 1435.26 231.39 o 1
1 -4 7 2673.15 2802.49 339.63 o 1
1 -4 8 416.89 424.33 151.15 < 1
1 -4 9 1556.66 1446.69 273.51 o 1
-1 3 -10 202.63 219.50 123.23 < -2
1 -3 -11 202.63 219.50 123.23 < 1
-1 3 -9 3319.88 3634.29 422.27 o -2
1 -3 -10 3319.88 3634.29 422.27 o 1
-1 3 -8 457.76 500.13 160.72 o -2
1 -3 -9 457.76 500.13 160.72 o 1
-1 3 -7 4174.18 4583.44 266.54 o -2
1 -3 -8 4174.18 4583.44 266.54 o 1
-1 3 -6 806.01 740.48 99.55 o -2
1 -3 -7 806.01 740.48 99.55 o 1
-1 3 -5 12691.30 13057.40 388.52 o -2
1 -3 -6 12691.30 13057.40 388.52 o 1
-1 3 -4 162.97 161.64 39.06 o -2
1 -3 -5 162.97 161.64 39.06 o 1
-1 3 -3 19920.30 19671.10 495.10 o -2
1 -3 -4 19920.30 19671.10 495.10 o 1
-1 3 -2 350.23 341.60 53.03 o -2
1 -3 -3 350.23 341.60 53.03 o 1
-1 3 -1 18754.20 19755.10 595.23 o -2
1 -3 -2 18754.20 19755.10 595.23 o 1
-1 3 0 43.20 60.25 39.14 < -2
1 -3 -1 43.20 60.25 39.14 < 1
-1 3 1 276.93 460.18 61.44 o -2
1 -3 0 276.93 460.18 61.44 o 1
-1 3 2 13218.70 12973.00 426.74 o -2
1 -3 1 13218.70 12973.00 426.74 o 1
-1 3 3 840.98 676.90 113.49 o -2
1 -3 2 840.98 676.90 113.49 o 1
-1 3 4 20196.50 22334.60 1003.49 o -2
1 -3 3 20196.50 22334.60 1003.49 o 1
-1 3 5 768.11 1057.52 166.53 o -2
1 -3 4 768.11 1057.52 166.53 o 1
-1 3 6 22315.50 22749.10 773.57 o -2
1 -3 5 22315.50 22749.10 773.57 o 1
-1 3 7 2251.84 2749.34 301.13 o -2
1 -3 6 2251.84 2749.34 301.13 o 1
-1 3 8 10634.60 11461.80 734.33 o -2
1 -3 7 10634.60 11461.80 734.33 o 1
-1 3 9 2349.91 2913.39 358.03 o -2
1 -3 8 2349.91 2913.39 358.03 o 1
-1 3 10 7947.82 8650.20 687.19 o -2
1 -3 9 7947.82 8650.20 687.19 o 1
-1 3 11 1533.72 1401.79 279.44 o -2
1 -3 10 1533.72 1401.79 279.44 o 1
1 -2 -11 7569.15 7384.00 653.45 o 1
1 -2 -10 10613.70 11728.70 812.29 o 1
1 -2 -9 17794.80 19565.10 1084.67 o 1
1 -2 -8 15481.00 16716.30 932.37 o 1
1 -2 -7 31201.50 33575.60 846.05 o 1
1 -2 -6 24757.50 26007.20 668.03 o 1
1 -2 -5 41253.80 41577.50 955.07 o 1
1 -2 -4 8677.07 8446.64 253.74 o 1
1 -2 -3 16312.60 14351.40 360.85 o 1
1 -2 -2 176.38 141.83 32.32 o 1
1 -2 -1 6434.80 5946.91 212.44 o 1
1 -2 0 4158.19 3474.20 144.30 o 1
1 -2 1 235.77 194.91 52.18 o 1
1 -2 2 15402.70 14809.90 658.10 o 1
1 -2 3 3240.34 3179.58 249.61 o 1
1 -2 4 48105.30 49313.30 1390.78 o 1
1 -2 5 18375.50 18984.40 663.56 o 1
1 -2 6 45577.50 45551.90 1924.95 o 1
1 -2 7 15657.20 15821.60 896.19 o 1
1 -2 8 21330.30 16960.90 625.31 o 1
1 -2 9 12290.30 12781.80 847.22 o 1
1 -2 10 11952.60 13048.20 897.81 o 1
1 0 -11 372.42 551.67 182.42 o 1
1 0 -10 293.22 525.10 160.79 o 1
1 0 -9 1516.07 1907.95 285.96 o 1
1 0 -8 787.06 806.35 113.79 o 1
1 0 -7 3469.84 3477.33 345.02 o 1
1 0 -6 1979.01 1942.75 129.64 o 1
1 0 -5 10128.90 10036.70 323.59 o 1
1 0 -4 2615.98 2502.22 110.23 o 1
1 0 -3 5459.26 5459.95 160.65 o 1
1 0 -2 1015.01 966.04 53.09 o 1
1 0 -1 3145.91 2537.34 83.67 o 1
1 0 2 6580.35 5735.92 292.99 o 1
1 0 3 1723.96 1774.24 161.65 o 1
1 0 4 9058.56 8625.06 475.73 o 1
1 0 5 12475.80 12275.50 653.14 o 1
1 0 6 12964.20 12215.10 435.55 o 1
1 0 7 8225.19 8363.35 361.41 o 1
1 0 8 7815.10 7220.02 342.65 o 1
1 0 9 4535.24 4368.03 265.51 o 1
1 0 10 6776.60 7822.59 632.15 o 1
1 0 11 2597.34 3167.66 401.50 o 1
1 1 -11 4102.54 4009.47 472.35 o 1
1 1 -10 8375.70 9273.81 726.91 o 1
1 1 -9 14074.00 16750.00 1007.80 o 1
1 1 -8 12502.50 12236.80 526.91 o 1
1 1 -7 21346.80 21481.80 757.62 o 1
1 1 -6 19748.60 21846.70 755.88 o 1
1 1 -5 41025.90 41135.10 979.74 o 1
1 1 -4 36598.70 36221.60 857.13 o 1
1 1 -3 22456.70 21858.90 541.35 o 1
1 1 -2 15091.40 14373.10 315.15 o 1
1 1 -1 10034.50 9147.80 394.43 o 1
1 1 0 1176.66 924.77 75.14 o 1
1 1 1 704.58 507.29 54.02 o 1
1 1 2 6440.60 5895.51 280.16 o 1
1 1 3 17157.90 16862.90 714.38 o 1
1 1 4 16265.60 14664.00 682.64 o 1
1 1 5 39458.50 33129.70 860.52 o 1
1 1 6 34372.80 32289.40 862.67 o 1
1 1 7 28625.10 27279.30 667.73 o 1
1 1 8 15767.20 14654.50 509.83 o 1
1 1 9 16564.00 15974.20 547.14 o 1
1 1 10 11581.70 12967.40 857.69 o 1
1 1 11 9770.23 11933.90 849.94 o 1
1 1 12 4292.44 4090.48 483.05 o 1
1 2 -10 5838.87 5810.33 570.71 o 1
1 2 -9 2709.18 3056.22 382.45 o 1
1 2 -8 10742.90 12632.00 821.47 o 1
1 2 -7 5095.02 4837.70 303.24 o 1
1 2 -6 14438.90 13433.80 540.61 o 1
1 2 -5 7258.74 7258.33 284.60 o 1
1 2 -4 19162.50 17529.20 497.04 o 1
1 2 -3 849.90 707.27 82.90 o 1
1 2 -2 7032.64 6314.50 357.07 o 1
1 2 -1 25.54 -22.05 48.87 < 1
1 2 0 5198.97 4148.33 242.61 o 1
1 2 1 2909.99 2988.22 196.62 o 1
1 2 2 372.49 381.64 45.21 o 1
1 2 3 5698.03 4911.22 278.74 o 1
1 2 4 103.38 70.38 46.68 < 1
1 2 5 5902.75 5719.22 370.84 o 1
1 2 6 2297.10 2166.47 231.35 o 1
1 2 7 8324.25 8541.20 397.65 o 1
1 2 8 1422.39 1477.42 234.84 o 1
1 2 9 3889.09 4315.70 424.25 o 1
1 2 10 649.42 1018.72 214.02 o 1
1 2 11 1132.38 906.63 223.40 o 1
1 2 12 63.24 82.91 104.15 < 1
1 3 -10 1581.53 1451.90 281.56 o 1
1 3 -9 38.90 121.78 97.01 < 1
1 3 -8 2986.26 3263.61 384.81 o 1
1 3 -7 865.79 886.05 187.52 o 1
1 3 -6 4228.01 3876.30 267.11 o 1
1 3 -5 1329.16 1311.22 118.91 o 1
1 3 -4 16094.20 15996.30 578.25 o 1
1 3 -3 461.48 444.19 110.39 o 1
1 3 -2 21708.50 22146.90 969.39 o 1
1 3 -1 6760.76 7514.57 417.41 o 1
1 3 0 3255.14 2871.18 223.07 o 1
1 3 1 758.04 379.02 84.46 o 1
1 3 2 666.95 407.62 83.56 o 1
1 3 3 2734.82 2153.57 177.01 o 1
1 3 4 603.44 734.35 108.79 o 1
1 3 5 23259.50 23970.80 687.48 o 1
1 3 6 1927.17 1732.17 116.87 o 1
1 3 7 22361.40 23808.10 798.56 o 1
1 3 8 5052.19 5231.19 449.03 o 1
1 3 9 11584.90 12827.30 817.01 o 1
1 3 10 4359.01 4825.51 484.85 o 1
1 3 11 7758.67 8851.31 703.57 o 1
1 3 12 1601.24 1686.91 305.42 o 1
1 4 -9 9016.09 9524.89 758.04 o 1
1 4 -8 8386.20 9314.87 717.38 o 1
1 4 -7 16286.30 17369.50 1013.85 o 1
1 4 -6 13240.10 14658.70 858.66 o 1
1 4 -5 26705.60 29075.90 1353.08 o 1
1 4 -4 21870.00 21780.20 1044.14 o 1
1 4 -3 37405.00 38772.60 1150.64 o 1
1 4 -2 8862.18 9446.17 550.00 o 1
1 4 -1 23183.80 25009.40 1102.62 o 1
1 4 0 2414.03 2583.80 235.87 o 1
1 4 1 2419.00 2154.02 211.59 o 1
1 4 2 2147.46 2221.49 212.38 o 1
1 4 3 3822.53 4328.99 308.97 o 1
1 4 4 22316.80 24161.30 1039.86 o 1
1 4 5 5032.42 5288.95 259.54 o 1
1 4 6 46275.90 48519.60 1109.38 o 1
1 4 7 12422.20 12319.50 432.48 o 1
1 4 9 10938.80 11046.20 729.41 o 1
1 4 10 14270.80 16199.90 982.85 o 1
1 4 11 7222.31 7672.36 639.82 o 1
1 4 12 8889.82 9115.86 745.36 o 1
1 5 -8 3432.75 3678.83 440.30 o 1
1 5 -7 6606.33 6160.09 553.04 o 1
1 5 -6 4578.68 5154.49 477.06 o 1
1 5 -5 7196.32 7983.15 576.00 o 1
1 5 -4 7241.30 6446.99 481.25 o 1
1 5 -3 4422.22 4225.51 253.99 o 1
1 5 -2 2978.52 3010.82 205.73 o 1
1 5 -1 1958.47 2566.87 266.71 o 1
1 5 0 3214.50 3429.94 304.78 o 1
1 5 1 909.33 1031.44 164.46 o 1
1 5 2 19.61 175.12 86.72 < 1
1 5 3 2608.40 2992.07 273.10 o 1
1 5 4 1131.01 1163.44 98.50 o 1
1 5 5 1402.85 1435.38 137.59 o 1
1 5 6 1100.07 1140.29 129.28 o 1
1 5 7 3365.71 3479.26 203.88 o 1
1 5 8 1942.06 1859.73 153.56 o 1
1 5 9 2187.95 2419.65 330.67 o 1
1 5 10 1050.71 1150.22 241.22 o 1
1 5 11 1176.25 1235.88 184.68 o 1
1 5 12 251.58 191.30 94.96 < 1
1 7 -6 10416.80 9493.50 753.14 o 1
1 7 -5 15917.10 17105.00 1035.68 o 1
1 7 -4 13345.20 13887.90 882.47 o 1
1 7 -3 16588.90 17745.00 700.84 o 1
1 7 -2 13041.30 12855.90 766.42 o 1
1 7 -1 7254.26 7961.73 548.03 o 1
1 7 0 7108.53 7666.95 527.31 o 1
1 7 1 2155.47 1983.16 254.75 o 1
1 7 2 259.62 379.68 133.44 < 1
1 7 3 202.08 402.74 155.20 < 1
1 7 4 4046.18 4548.17 414.59 o 1
1 7 5 4273.39 4180.11 402.56 o 1
1 7 6 8152.05 8935.93 640.91 o 1
1 7 7 13611.20 13800.00 867.45 o 1
1 7 8 11573.50 12755.40 529.45 o 1
1 7 9 16719.80 20467.40 1191.36 o 1
1 7 10 10116.80 11248.50 844.62 o 1
1 7 11 10095.90 10282.00 841.19 o 1
-1 -8 -10 1742.23 1738.44 304.48 o -2
1 8 -5 1742.23 1738.44 304.48 o 1
-1 -8 -9 6669.90 6673.03 605.66 o -2
1 8 -4 6669.90 6673.03 605.66 o 1
-1 -8 -8 2009.84 2031.20 217.65 o -2
1 8 -3 2009.84 2031.20 217.65 o 1
-1 -8 -7 5665.93 6388.67 519.51 o -2
1 8 -2 5665.93 6388.67 519.51 o 1
-1 -8 -6 814.21 879.91 184.52 o -2
1 8 -1 814.21 879.91 184.52 o 1
-1 -8 -5 3554.45 3923.25 381.35 o -2
1 8 0 3554.45 3923.25 381.35 o 1
-1 -8 -4 384.64 482.10 143.57 o -2
1 8 1 384.64 482.10 143.57 o 1
-1 -8 -3 1771.20 1668.07 261.70 o -2
1 8 2 1771.20 1668.07 261.70 o 1
-1 -8 -2 1653.93 1592.38 255.64 o -2
1 8 3 1653.93 1592.38 255.64 o 1
-1 -8 -1 281.73 330.00 155.07 < -2
1 8 4 281.73 330.00 155.07 < 1
-1 -8 0 2728.47 2665.45 340.93 o -2
1 8 5 2728.47 2665.45 340.93 o 1
-1 -8 1 702.06 689.40 193.21 o -2
1 8 6 702.06 689.40 193.21 o 1
-1 -8 2 2271.70 2223.78 327.01 o -2
1 8 7 2271.70 2223.78 327.01 o 1
-1 -8 3 1262.49 1237.49 262.67 o -2
1 8 8 1262.49 1237.49 262.67 o 1
-1 -8 4 2465.08 2563.50 385.04 o -2
1 8 9 2465.08 2563.50 385.04 o 1
-1 -8 5 429.91 691.37 214.46 o -2
1 8 10 429.91 691.37 214.46 o 1
-1 -8 6 1506.51 1258.29 288.23 o -2
1 8 11 1506.51 1258.29 288.23 o 1
1 9 -3 476.97 419.21 115.18 o 1
1 9 -2 4073.51 4834.45 473.69 o 1
1 9 -1 510.02 468.86 157.16 < 1
1 9 0 4396.39 4374.89 440.66 o 1
1 9 1 14.49 148.32 110.57 < 1
1 9 2 912.96 1230.95 237.60 o 1
1 9 3 512.81 519.93 167.70 o 1
1 9 4 32.29 46.84 95.94 < 1
1 9 5 3753.11 4597.99 470.32 o 1
1 9 6 636.35 1082.01 248.09 o 1
1 9 7 6464.34 6435.24 595.31 o 1
1 9 8 1161.19 1312.38 283.44 o 1
1 9 9 5871.25 5330.85 577.56 o 1
1 9 10 2159.05 1693.90 344.89 o 1
1 11 2 359.83 191.38 125.16 < 1
1 11 3 18.35 -36.60 91.95 < 1
1 11 4 85.03 0.42 88.00 < 1
1 11 5 179.03 235.86 154.36 < 1
1 11 6 395.41 287.17 169.18 < 1
2 -10 -7 3219.36 2057.97 231.91 o 1
2 -10 -6 6630.76 4697.42 498.44 o 1
2 -10 -5 8701.54 8263.18 677.95 o 1
2 -10 -4 11804.00 10234.20 749.65 o 1
2 -10 -3 12960.70 11349.50 782.09 o 1
2 -10 -2 11601.30 11417.50 793.61 o 1
2 -10 -1 12760.90 12583.80 860.05 o 1
2 -10 0 10391.20 10037.60 755.58 o 1
2 -10 1 7810.01 6108.90 576.12 o 1
2 -9 -8 170.49 -43.18 101.77 < 1
2 -9 -7 976.40 844.06 144.12 o 1
2 -9 -6 1164.28 750.90 201.42 o 1
2 -9 -5 3523.22 3723.74 415.08 o 1
2 -9 -4 2362.50 2696.45 342.31 o 1
2 -9 -3 4733.80 4902.87 463.26 o 1
2 -9 -2 1499.65 1624.83 267.97 o 1
2 -9 -1 3199.45 3303.73 377.13 o 1
2 -9 0 2162.22 2215.48 314.09 o 1
2 -9 1 1786.93 1979.23 302.20 o 1
2 -9 2 599.94 622.89 130.55 o 1
2 -9 3 269.89 412.27 180.14 < 1
2 -7 -10 59.37 -43.20 98.82 < 1
2 -7 -9 860.12 804.22 221.63 o 1
2 -7 -8 621.15 531.15 115.29 o 1
2 -7 -7 6738.92 6966.08 389.02 o 1
2 -7 -6 6353.47 6737.77 372.80 o 1
2 -7 -5 23069.80 24704.90 1249.19 o 1
2 -7 -4 15583.90 16902.80 931.69 o 1
2 -7 -3 34232.00 37478.70 1667.21 o 1
2 -7 -2 23652.20 24322.90 1184.76 o 1
2 -7 -1 32615.30 33892.50 1516.09 o 1
2 -7 0 23580.40 26595.30 1262.71 o 1
2 -7 1 24764.40 26896.80 1284.40 o 1
2 -7 2 13121.70 13975.60 824.95 o 1
2 -7 3 14538.00 16653.40 975.60 o 1
2 -7 4 2314.26 2863.59 361.56 o 1
2 -7 5 2974.96 3542.57 415.64 o 1
2 -7 6 84.40 -23.48 85.55 < 1
-2 6 -9 1113.05 719.91 214.18 o -2
2 -6 -11 1113.05 719.91 214.18 o 1
-2 6 -8 43.17 203.64 138.10 < -2
2 -6 -10 43.17 203.64 138.10 < 1
-2 6 -7 508.76 618.80 188.47 o -2
2 -6 -9 508.76 618.80 188.47 o 1
-2 6 -6 1717.03 1664.15 177.90 o -2
2 -6 -8 1717.03 1664.15 177.90 o 1
-2 6 -5 55.10 -17.58 65.49 < -2
2 -6 -7 55.10 -17.58 65.49 < 1
-2 6 -4 6661.91 7118.89 368.95 o -2
2 -6 -6 6661.91 7118.89 368.95 o 1
-2 6 -3 452.77 598.65 101.61 o -2
2 -6 -5 452.77 598.65 101.61 o 1
-2 6 -2 11646.10 12486.00 500.42 o -2
2 -6 -4 11646.10 12486.00 500.42 o 1
-2 6 -1 4222.88 4327.00 256.02 o -2
2 -6 -3 4222.88 4327.00 256.02 o 1
-2 6 0 16012.70 16422.40 599.44 o -2
2 -6 -2 16012.70 16422.40 599.44 o 1
-2 6 1 3666.00 3454.46 227.84 o -2
2 -6 -1 3666.00 3454.46 227.84 o 1
-2 6 2 17985.60 18688.90 663.08 o -2
2 -6 0 17985.60 18688.90 663.08 o 1
-2 6 3 1415.73 1473.39 215.03 o -2
2 -6 1 1415.73 1473.39 215.03 o 1
-2 6 4 10900.80 11275.10 677.91 o -2
2 -6 2 10900.80 11275.10 677.91 o 1
-2 6 5 100.16 124.12 88.69 < -2
2 -6 3 100.16 124.12 88.69 < 1
-2 6 6 3066.43 3058.33 340.74 o -2
2 -6 4 3066.43 3058.33 340.74 o 1
-2 6 7 19.11 10.24 64.57 < -2
2 -6 5 19.11 10.24 64.57 < 1
-2 6 8 474.94 394.94 143.60 < -2
2 -6 6 474.94 394.94 143.60 < 1
-2 6 9 695.21 573.84 175.47 o -2
2 -6 7 695.21 573.84 175.47 o 1
-2 6 10 98.75 -52.06 105.58 < -2
2 -6 8 98.75 -52.06 105.58 < 1
2 -5 -11 293.81 334.50 144.93 < 1
2 -5 -10 12.93 170.86 133.87 < 1
2 -5 -9 265.00 231.40 78.92 < 1
2 -5 -8 44.27 130.08 68.73 < 1
2 -5 -7 1034.83 947.28 125.76 o 1
2 -5 -6 1193.13 1212.90 136.12 o 1
2 -5 -5 273.04 298.23 58.70 o 1
2 -5 -4 4062.10 4117.42 234.62 o 1
2 -5 -3 1535.15 1673.52 142.55 o 1
2 -5 -2 6517.97 7348.98 324.83 o 1
2 -5 -1 2956.93 2969.40 191.61 o 1
2 -5 0 13534.00 13684.00 500.37 o 1
2 -5 1 655.55 753.38 103.47 o 1
2 -5 2 11773.40 11616.90 466.26 o 1
2 -5 3 1002.32 929.94 169.88 o 1
2 -5 4 3808.24 4590.63 398.15 o 1
2 -5 5 32.09 -11.26 55.12 < 1
2 -5 6 58.89 122.90 87.48 < 1
2 -5 7 701.59 680.19 181.63 o 1
2 -5 8 118.98 86.78 86.59 < 1
2 -3 -11 734.33 824.76 215.80 o 1
2 -3 -10 1531.56 1672.95 279.05 o 1
2 -3 -9 70.55 214.30 75.88 < 1
2 -3 -8 0.10 126.27 65.09 < 1
2 -3 -7 618.68 504.00 88.02 o 1
2 -3 -6 2417.20 2313.20 139.69 o 1
2 -3 -5 4651.23 4566.15 190.85 o 1
2 -3 -4 2596.57 2692.13 132.60 o 1
2 -3 -3 17452.90 17048.30 440.68 o 1
2 -3 -2 5240.09 4803.89 206.04 o 1
2 -3 -1 30446.30 29746.70 834.58 o 1
2 -3 0 17236.70 17538.10 530.67 o 1
2 -3 1 13432.20 12981.00 426.63 o 1
2 -3 2 7515.56 7138.90 288.53 o 1
2 -3 3 4809.07 4918.48 345.68 o 1
2 -3 4 277.83 201.86 63.93 o 1
2 -3 5 3624.62 3472.52 229.57 o 1
2 -3 6 23.51 121.96 84.35 < 1
2 -3 7 217.29 240.77 122.67 < 1
2 -3 8 72.21 78.52 91.61 < 1
2 -3 9 643.98 561.09 174.13 o 1
2 -3 10 286.32 311.64 144.38 < 1
2 -2 -11 1158.63 882.14 228.99 o 1
2 -2 -10 159.78 61.28 79.25 < 1
2 -2 -9 665.25 729.27 182.54 o 1
2 -2 -8 39.90 54.20 58.15 < 1
2 -2 -7 192.63 194.56 67.87 < 1
2 -2 -6 396.61 376.41 60.01 o 1
2 -2 -5 1070.38 951.57 81.38 o 1
2 -2 -4 909.46 773.26 66.85 o 1
2 -2 -3 2034.41 1926.64 82.30 o 1
2 -2 -2 2834.71 2740.66 111.87 o 1
2 -2 -1 3275.17 2810.51 123.17 o 1
2 -2 0 9275.64 8747.15 277.07 o 1
2 -2 1 5592.03 4980.85 191.79 o 1
2 -2 2 3714.77 3566.04 166.00 o 1
2 -2 3 3847.27 3508.38 185.62 o 1
2 -2 4 3089.22 2920.18 263.11 o 1
2 -2 5 2426.71 2159.18 139.22 o 1
2 -2 6 39.24 69.80 68.02 < 1
2 -2 7 23.72 51.75 76.93 < 1
2 -2 8 208.84 209.14 106.87 < 1
2 -2 9 458.35 502.06 164.16 o 1
2 -2 10 1358.70 1234.64 250.19 o 1
2 -2 11 1959.81 1744.64 310.36 o 1
2 -1 -11 1624.68 1676.95 292.74 o 1
2 -1 -10 3248.64 3551.49 418.92 o 1
2 -1 -9 31.20 91.08 112.27 < 1
2 -1 -8 809.87 1016.51 129.30 o 1
2 -1 -7 2396.50 2662.37 161.53 o 1
2 -1 -6 558.20 638.41 79.14 o 1
2 -1 -5 16033.10 15661.90 382.71 o 1
2 -1 -4 13324.50 13137.20 320.85 o 1
2 -1 -3 49246.20 47316.30 901.71 o 1
2 -1 -2 16145.50 13988.00 301.43 o 1
2 -1 -1 118171.00 120868.00 2428.24 o 1
2 -1 0 69792.20 67506.10 1421.30 o 1
2 -1 1 113636.00 109078.00 2717.20 o 1
2 -1 2 58287.90 57678.60 1497.33 o 1
2 -1 3 32549.10 27280.10 786.81 o 1
2 -1 4 23356.20 21924.80 686.25 o 1
2 -1 5 25858.60 25329.70 1135.01 o 1
2 -1 6 2553.03 2529.26 191.29 o 1
2 -1 7 4094.95 4324.70 391.52 o 1
2 -1 8 59.85 25.08 74.76 < 1
2 -1 9 97.40 64.44 92.50 < 1
2 -1 10 1583.10 1850.06 295.86 o 1
2 -1 11 2343.40 2634.31 374.97 o 1
2 0 -11 3425.56 2754.75 390.97 o 1
2 0 -10 1155.41 1229.42 244.64 o 1
2 0 -9 3577.91 4295.47 437.97 o 1
2 0 -8 52.14 45.66 46.65 < 1
2 0 -7 2149.49 2127.25 183.66 o 1
2 0 -6 4985.34 5410.03 294.82 o 1
2 0 -5 32.41 29.91 39.18 < 1
2 0 -4 13668.10 14030.20 349.13 o 1
2 0 -3 2325.30 2325.85 102.19 o 1
2 0 -2 12116.60 10419.70 246.04 o 1
2 0 -1 1958.51 2266.79 83.92 o 1
2 0 0 36519.10 35586.30 1352.94 o 1
2 0 1 887.85 898.46 43.67 o 1
2 0 2 28734.70 25998.30 709.27 o 1
2 0 3 303.20 323.18 51.42 o 1
2 0 4 12025.80 10985.90 569.94 o 1
2 0 5 94.24 92.94 56.29 < 1
2 0 6 6638.19 7238.63 485.17 o 1
2 0 7 1360.64 1346.25 213.58 o 1
2 0 8 872.56 612.67 95.16 o 1
2 0 9 1846.65 1510.28 156.89 o 1
2 0 10 89.03 31.58 75.57 < 1
2 0 11 1677.80 1825.84 304.49 o 1
2 1 -10 394.76 414.61 158.49 < 1
2 1 -9 1333.06 1377.78 258.92 o 1
2 1 -8 161.76 177.60 117.24 < 1
2 1 -7 723.10 804.74 120.76 o 1
2 1 -6 338.65 409.73 67.24 o 1
2 1 -5 98.45 117.55 50.76 < 1
2 1 -4 5974.48 5893.88 199.55 o 1
2 1 -3 127.70 143.70 29.13 o 1
2 1 -2 9425.06 9514.62 213.46 o 1
2 1 -1 392.04 365.73 34.23 o 1
2 1 0 21770.90 20975.60 469.99 o 1
2 1 1 2504.11 2409.53 84.26 o 1
2 1 2 31051.50 30637.40 571.77 o 1
2 1 3 207.28 206.24 29.39 o 1
2 1 4 16814.80 14748.30 426.51 o 1
2 1 5 1508.88 1426.54 169.34 o 1
2 1 7 117.14 102.03 37.56 < 1
2 1 8 713.18 488.27 82.90 o 1
2 1 9 1607.33 1765.39 271.69 o 1
2 1 10 37.24 166.68 115.12 < 1
2 1 11 4379.05 4043.96 461.00 o 1
2 1 12 830.84 697.67 202.14 o 1
2 2 -10 2267.17 2150.30 341.85 o 1
2 2 -9 2440.63 2623.06 359.10 o 1
2 2 -8 366.62 448.46 144.91 o 1
2 2 -7 3.04 57.07 70.29 < 1
2 2 -6 538.57 490.85 92.80 o 1
2 2 -5 4445.83 3919.57 206.75 o 1
2 2 -4 10552.30 10507.60 418.83 o 1
2 2 -3 23722.80 24213.50 618.63 o 1
2 2 -2 29953.30 28524.70 813.79 o 1
2 2 -1 34605.40 31408.30 861.72 o 1
2 2 0 88947.90 91072.40 2318.82 o 1
2 2 1 92536.40 93011.50 2369.02 o 1
2 2 2 96474.10 99089.10 2510.17 o 1
2 2 3 55936.50 57099.00 1482.07 o 1
2 2 4 23512.80 21420.20 908.91 o 1
2 2 5 33945.20 32772.80 1355.82 o 1
2 2 6 11292.30 11405.00 627.50 o 1
2 2 7 7070.70 7014.75 352.33 o 1
2 2 8 890.31 1221.89 209.53 o 1
2 2 9 262.74 374.03 143.13 < 1
2 2 10 568.87 672.67 182.04 o 1
2 2 11 581.97 1042.36 231.99 o 1
2 2 12 3982.00 4297.79 484.56 o 1
2 4 -9 568.72 625.55 190.58 o 1
2 4 -8 122.09 273.81 131.26 < 1
2 4 -7 568.23 583.61 178.09 o 1
2 4 -6 0.57 -25.39 67.21 < 1
2 4 -5 100.53 43.99 64.50 < 1
2 4 -4 602.50 578.14 139.96 o 1
2 4 -3 964.21 1038.13 122.11 o 1
2 4 -2 2591.42 2696.50 179.23 o 1
2 4 -1 4466.08 5069.85 366.27 o 1
2 4 0 10065.30 10440.70 570.88 o 1
2 4 1 18569.00 19955.90 911.07 o 1
2 4 2 19688.90 21979.40 983.17 o 1
2 4 3 17590.40 18330.20 852.01 o 1
2 4 4 8483.97 8602.16 477.71 o 1
2 4 5 8403.94 8520.78 495.12 o 1
2 4 6 1909.52 1883.95 156.02 o 1
2 4 7 4712.22 4596.20 375.17 o 1
2 4 8 452.70 533.21 156.38 o 1
2 4 9 200.09 309.37 136.23 < 1
2 4 10 26.65 328.42 150.46 < 1
2 4 11 886.20 978.87 218.92 o 1
2 4 12 922.10 812.75 217.30 o 1
-2 -5 -12 2788.48 3132.40 409.25 o -2
2 5 -8 2788.48 3132.40 409.25 o 1
-2 -5 -11 30.60 -42.86 78.08 < -2
2 5 -7 30.60 -42.86 78.08 < 1
-2 -5 -10 245.89 127.03 89.78 < -2
2 5 -6 245.89 127.03 89.78 < 1
-2 -5 -9 3421.57 3159.47 344.54 o -2
2 5 -5 3421.57 3159.47 344.54 o 1
-2 -5 -8 3148.40 2972.47 313.73 o -2
2 5 -4 3148.40 2972.47 313.73 o 1
-2 -5 -7 20499.00 19684.70 687.69 o -2
2 5 -3 20499.00 19684.70 687.69 o 1
-2 -5 -6 20572.20 21183.00 718.33 o -2
2 5 -2 20572.20 21183.00 718.33 o 1
-2 -5 -5 47104.20 48865.80 1394.59 o -2
2 5 -1 47104.20 48865.80 1394.59 o 1
-2 -5 -4 28140.30 30889.60 1376.50 o -2
2 5 0 28140.30 30889.60 1376.50 o 1
-2 -5 -3 75685.90 80276.10 3096.91 o -2
2 5 1 75685.90 80276.10 3096.91 o 1
-2 -5 -2 45341.60 49840.20 2018.48 o -2
2 5 2 45341.60 49840.20 2018.48 o 1
-2 -5 -1 71546.10 86387.10 3289.27 o -2
2 5 3 71546.10 86387.10 3289.27 o 1
-2 -5 0 33471.50 36872.60 1091.10 o -2
2 5 4 33471.50 36872.60 1091.10 o 1
-2 -5 1 45301.50 47519.10 1375.36 o -2
2 5 5 45301.50 47519.10 1375.36 o 1
-2 -5 2 21074.70 23120.20 778.43 o -2
2 5 6 21074.70 23120.20 778.43 o 1
-2 -5 3 22077.50 22484.00 1124.67 o -2
2 5 7 22077.50 22484.00 1124.67 o 1
-2 -5 4 3288.71 3055.44 342.13 o -2
2 5 8 3288.71 3055.44 342.13 o 1
-2 -5 5 2929.49 2737.18 352.20 o -2
2 5 9 2929.49 2737.18 352.20 o 1
-2 -5 6 36.53 1.18 96.50 < -2
2 5 10 36.53 1.18 96.50 < 1
-2 -5 7 32.61 17.76 95.08 < -2
2 5 11 32.61 17.76 95.08 < 1
-2 -5 8 1517.61 1548.09 214.54 o -2
2 5 12 1517.61 1548.09 214.54 o 1
2 6 -7 985.20 1050.60 236.55 o 1
2 6 -6 406.92 369.42 151.46 < 1
2 6 -5 1712.74 1460.12 254.93 o 1
2 6 -4 1242.42 1067.86 202.72 o 1
2 6 -3 90.02 138.50 63.63 < 1
2 6 -2 5980.82 6157.82 446.51 o 1
2 6 -1 1779.74 1835.83 224.04 o 1
2 6 0 10727.80 11406.90 475.09 o 1
2 6 1 946.02 1057.81 132.43 o 1
2 6 2 22395.30 24643.40 825.93 o 1
2 6 3 564.21 655.98 106.08 o 1
2 6 4 11611.00 12496.50 505.61 o 1
2 6 5 584.78 305.09 139.62 < 1
2 6 6 4302.01 4479.61 402.61 o 1
2 6 7 30.13 38.63 77.37 < 1
2 6 8 557.53 628.82 104.16 o 1
2 6 9 1679.68 1783.33 286.24 o 1
2 6 10 272.46 281.29 162.07 < 1
2 6 11 614.69 760.47 211.48 o 1
2 6 12 32.03 -64.28 108.14 < 1
2 8 -5 60.35 -0.84 82.91 < 1
2 8 -4 626.60 587.68 182.07 o 1
2 8 -3 2705.64 3213.81 273.13 o 1
2 8 -2 6706.72 7123.20 549.86 o 1
2 8 -1 14654.10 15727.00 898.81 o 1
2 8 0 19451.50 20763.60 1084.21 o 1
2 8 1 25181.90 28027.90 1340.28 o 1
2 8 2 27890.10 32222.40 1505.65 o 1
2 8 3 29542.00 32418.10 1538.37 o 1
2 8 4 25977.20 28166.70 1395.17 o 1
2 8 5 25181.80 26176.30 1338.24 o 1
2 8 6 16297.60 16438.30 980.96 o 1
2 8 7 13905.20 14845.40 941.85 o 1
2 8 8 5535.78 6043.58 568.27 o 1
2 8 9 2591.59 2894.27 401.82 o 1
2 8 10 480.59 530.27 203.48 < 1
2 8 11 169.64 167.60 145.06 < 1
2 9 -3 349.52 409.01 113.58 o 1
2 9 -2 458.41 468.33 158.31 < 1
2 9 -1 3746.33 3424.96 386.65 o 1
2 9 0 1846.86 1998.98 285.07 o 1
2 9 1 3616.12 4146.99 419.71 o 1
2 9 2 2521.42 2944.43 352.83 o 1
2 9 3 3787.37 4350.37 438.26 o 1
2 9 4 2202.64 2158.04 312.23 o 1
2 9 5 2839.87 3130.76 388.93 o 1
2 9 6 1203.52 1324.24 269.11 o 1
2 9 7 2232.68 1968.13 320.33 o 1
2 9 8 425.55 320.54 149.32 < 1
2 9 9 218.60 184.29 131.21 < 1
2 9 10 34.08 -191.08 166.00 < 1
2 10 -1 436.43 481.33 161.86 < 1
2 10 0 1168.09 1227.39 244.80 o 1
2 10 1 1529.43 1544.84 269.49 o 1
2 10 2 2402.29 2212.07 326.95 o 1
2 10 3 1556.70 1314.30 253.60 o 1
2 10 4 2140.81 2270.92 334.14 o 1
2 10 5 3319.81 3743.84 438.96 o 1
2 10 6 2203.10 2374.78 357.84 o 1
2 10 7 2717.09 2557.05 373.99 o 1
2 10 8 806.24 770.25 237.93 o 1
2 11 2 8870.14 7334.91 634.26 o 1
2 11 3 14779.00 13828.20 932.60 o 1
2 11 4 11261.50 10867.30 806.95 o 1
2 11 5 13679.10 11795.00 867.46 o 1
2 11 6 9202.69 7132.55 659.50 o 1
3 -10 -4 79.15 73.32 80.77 < 1
3 -10 -3 435.35 470.02 157.29 < 1
3 -10 -2 68.30 244.08 137.79 < 1
3 -10 -1 14.63 71.86 98.48 < 1
3 -10 0 911.78 913.30 210.29 o 1
3 -10 1 273.70 264.28 128.21 < 1
-3 9 -4 5157.27 3828.13 434.49 o -2
3 -9 -7 5157.27 3828.13 434.49 o 1
-3 9 -3 8114.79 6170.03 394.77 o -2
3 -9 -6 8114.79 6170.03 394.77 o 1
-3 9 -2 3041.05 2202.42 316.93 o -2
3 -9 -5 3041.05 2202.42 316.93 o 1
-3 9 -1 5514.56 5058.93 477.67 o -2
3 -9 -4 5514.56 5058.93 477.67 o 1
-3 9 0 220.19 52.96 90.03 < -2
3 -9 -3 220.19 52.96 90.03 < 1
-3 9 1 941.74 698.72 170.47 o -2
3 -9 -2 941.74 698.72 170.47 o 1
-3 9 2 2124.36 2186.75 312.98 o -2
3 -9 -1 2124.36 2186.75 312.98 o 1
-3 9 3 921.16 735.07 182.70 o -2
3 -9 0 921.16 735.07 182.70 o 1
-3 9 4 7338.43 6561.66 576.25 o -2
3 -9 1 7338.43 6561.66 576.25 o 1
-3 9 5 4533.24 4967.01 539.22 o -2
3 -9 2 4533.24 4967.01 539.22 o 1
-3 9 6 10635.60 11003.00 848.80 o -2
3 -9 3 10635.60 11003.00 848.80 o 1
3 -8 -7 4482.23 4059.08 304.32 o 1
3 -8 -6 1697.17 1453.11 176.86 o 1
3 -8 -5 3797.83 3776.54 285.83 o 1
3 -8 -4 174.28 248.29 114.49 < 1
3 -8 -3 1172.55 1026.56 200.31 o 1
3 -8 -2 361.11 258.36 117.82 < 1
3 -8 -1 154.26 310.77 120.16 < 1
3 -8 0 767.05 1032.64 199.71 o 1
3 -8 1 120.00 77.22 84.22 < 1
3 -8 2 2561.17 3128.20 271.65 o 1
3 -8 3 598.58 762.09 207.14 o 1
3 -8 4 2714.84 2984.76 389.56 o 1
3 -8 5 696.18 738.14 206.62 o 1
3 -6 -9 9022.31 7022.18 620.12 o 1
3 -6 -8 7899.54 7412.21 405.22 o 1
3 -6 -7 14427.10 15110.50 626.53 o 1
3 -6 -6 7647.13 8667.78 421.10 o 1
3 -6 -5 14341.70 14534.10 586.57 o 1
3 -6 -4 5975.59 6031.64 261.85 o 1
3 -6 -3 6535.18 7104.53 275.11 o 1
3 -6 -2 2486.35 2694.26 195.05 o 1
3 -6 -1 39.07 -4.34 57.68 < 1
3 -6 0 2555.41 2604.28 197.33 o 1
3 -6 1 4116.58 4477.67 374.43 o 1
3 -6 2 12823.30 13707.70 788.95 o 1
3 -6 3 10048.20 11960.80 743.26 o 1
3 -6 4 14971.60 17111.70 966.33 o 1
3 -6 5 13625.40 15975.10 951.74 o 1
3 -6 6 11830.10 14199.20 926.38 o 1
3 -6 7 9900.77 10395.70 795.30 o 1
3 -5 -9 4704.30 4999.16 492.26 o 1
3 -5 -8 6410.21 6148.61 354.50 o 1
3 -5 -7 7677.74 8256.49 408.16 o 1
3 -5 -6 5383.73 5840.85 323.53 o 1
3 -5 -5 6955.66 6717.02 273.49 o 1
3 -5 -4 3985.55 4372.75 205.38 o 1
3 -5 -3 1415.23 1398.45 126.31 o 1
3 -5 -2 396.12 440.10 78.11 o 1
3 -5 -1 11.69 164.41 59.22 < 1
3 -5 0 4.05 -19.25 47.15 < 1
3 -5 1 336.55 350.90 75.39 o 1
3 -5 2 505.75 498.82 91.70 o 1
3 -5 3 4326.88 4999.35 400.93 o 1
3 -5 4 2250.09 2199.92 270.11 o 1
3 -5 5 3635.62 4189.51 401.26 o 1
3 -5 6 2707.62 2697.25 336.90 o 1
3 -5 7 1866.88 1905.88 298.99 o 1
3 -5 8 1593.29 1516.92 279.52 o 1
3 -4 -10 77.30 44.38 68.54 < 1
3 -4 -9 1554.34 1591.91 177.38 o 1
3 -4 -8 114.99 184.73 71.60 < 1
3 -4 -7 3644.28 3856.45 252.83 o 1
3 -4 -6 367.83 505.87 72.26 o 1
3 -4 -5 5349.68 5381.80 225.95 o 1
3 -4 -4 200.91 213.61 52.17 o 1
3 -4 -3 2852.05 3083.73 153.82 o 1
3 -4 -2 1537.93 1527.35 115.87 o 1
3 -4 -1 2161.36 2183.24 140.54 o 1
3 -4 0 1126.22 1064.56 102.03 o 1
3 -4 1 110.17 120.16 50.15 < 1
3 -4 2 8779.40 9121.26 370.53 o 1
3 -4 3 322.59 421.33 79.21 o 1
3 -4 4 6791.26 6953.25 339.85 o 1
3 -4 5 4348.47 4708.95 406.41 o 1
3 -4 6 7327.62 7616.54 572.92 o 1
3 -4 7 4059.30 4454.49 442.29 o 1
3 -4 8 5647.25 6244.46 562.19 o 1
3 -4 9 2783.21 2811.27 385.34 o 1
3 -3 -11 2235.58 2158.30 335.09 o 1
3 -3 -10 11726.80 12496.90 852.62 o 1
3 -3 -9 7351.60 6951.19 388.93 o 1
3 -3 -8 22574.20 22288.20 798.60 o 1
3 -3 -7 11948.70 12798.90 424.36 o 1
3 -3 -6 31525.60 33648.40 845.66 o 1
3 -3 -5 13597.70 13959.90 411.95 o 1
3 -3 -4 23509.90 24660.30 617.99 o 1
3 -3 -3 1076.60 1075.30 81.85 o 1
3 -3 -2 13727.50 13426.40 365.86 o 1
3 -3 -1 1254.52 1217.79 87.98 o 1
3 -3 0 3461.61 3418.82 161.63 o 1
3 -3 1 9645.39 9308.05 333.46 o 1
3 -3 2 582.23 572.25 71.96 o 1
3 -3 3 15650.10 16512.30 785.51 o 1
3 -3 4 8314.27 7954.97 353.27 o 1
3 -3 5 31562.90 33503.90 1050.14 o 1
3 -3 6 17084.80 16313.80 895.31 o 1
3 -3 7 26496.90 28937.50 1411.25 o 1
3 -3 8 10897.40 12087.50 805.69 o 1
3 -3 9 17909.30 18279.10 1107.14 o 1
3 -3 10 6006.73 5914.67 574.60 o 1
3 -2 -11 3423.14 3062.50 407.75 o 1
3 -2 -10 2792.77 2812.02 370.38 o 1
3 -2 -9 6641.07 7695.42 617.37 o 1
3 -2 -8 2701.01 2854.52 225.25 o 1
3 -2 -7 7906.79 9377.66 432.98 o 1
3 -2 -6 4354.94 4445.85 209.04 o 1
3 -2 -5 13578.40 13625.30 401.39 o 1
3 -2 -4 7522.39 7204.18 245.70 o 1
3 -2 -3 16194.20 15005.80 395.10 o 1
3 -2 -2 1138.99 1129.13 72.53 o 1
3 -2 -1 8611.98 8450.33 198.87 o 1
3 -2 0 1542.93 1531.26 83.51 o 1
3 -2 1 600.62 446.19 69.04 o 1
3 -2 2 5497.97 5250.71 213.49 o 1
3 -2 3 2125.41 2116.64 140.67 o 1
3 -2 4 13805.70 14839.30 744.93 o 1
3 -2 5 1846.23 1927.51 163.52 o 1
3 -2 6 11683.40 11507.00 687.51 o 1
3 -2 7 81.01 125.49 100.10 < 1
3 -2 8 4051.27 4421.58 432.67 o 1
3 -2 9 51.19 145.73 98.74 < 1
3 -2 10 1583.53 2007.70 316.03 o 1
3 -2 11 160.01 254.64 135.65 < 1
3 -1 -11 58.49 -20.45 68.83 < 1
3 -1 -10 308.79 502.16 163.14 o 1
3 -1 -9 936.63 999.65 208.49 o 1
3 -1 -8 539.17 670.81 163.38 o 1
3 -1 -7 653.02 764.98 92.70 o 1
3 -1 -6 2717.01 2869.31 144.32 o 1
3 -1 -5 1489.68 1519.84 98.12 o 1
3 -1 -4 5994.15 6155.29 221.67 o 1
3 -1 -3 3816.87 3514.40 145.29 o 1
3 -1 -2 2424.72 2484.71 97.03 o 1
3 -1 -1 9857.88 9854.48 322.43 o 1
3 -1 0 103.67 67.61 55.85 < 1
3 -1 1 25.42 86.80 30.41 < 1
3 -1 2 5643.34 5495.89 208.80 o 1
3 -1 3 6738.07 6534.06 259.57 o 1
3 -1 4 7180.74 6379.44 279.76 o 1
3 -1 5 7744.35 7570.66 473.41 o 1
3 -1 6 12360.90 12092.50 492.33 o 1
3 -1 7 4863.04 4667.31 409.41 o 1
3 -1 8 6743.06 7742.67 587.06 o 1
3 -1 9 3563.28 3508.43 396.19 o 1
3 -1 10 5277.68 5502.98 528.48 o 1
3 -1 11 3267.39 3034.72 398.40 o 1
3 1 -10 1943.78 2214.62 335.99 o 1
3 1 -9 4787.62 5332.42 510.28 o 1
3 1 -8 6785.70 7038.27 574.53 o 1
3 1 -7 6164.98 7235.84 559.80 o 1
3 1 -6 8991.01 9176.28 306.56 o 1
3 1 -5 10709.10 10818.20 322.50 o 1
3 1 -4 10912.30 10761.50 274.00 o 1
3 1 -3 9231.72 9139.73 250.47 o 1
3 1 -2 2448.89 2508.14 111.21 o 1
3 1 -1 2406.76 2344.53 103.41 o 1
3 1 0 397.13 303.47 38.85 o 1
3 1 1 0.56 23.85 21.97 < 1
3 1 2 11.35 12.96 19.54 < 1
3 1 3 2843.63 2673.19 92.12 o 1
3 1 4 601.89 579.83 54.77 o 1
3 1 5 3580.65 3296.26 165.55 o 1
3 1 6 6127.21 5588.32 209.76 o 1
3 1 7 3726.62 3661.89 172.01 o 1
3 1 8 3465.31 3349.43 350.58 o 1
3 1 9 2540.26 2522.34 314.90 o 1
3 1 10 621.65 1109.00 231.63 o 1
3 1 11 1945.55 2128.09 329.76 o 1
3 1 12 148.57 27.95 75.91 < 1
-3 -2 -13 185.81 228.25 130.61 < -2
3 2 -10 185.81 228.25 130.61 < 1
-3 -2 -12 2181.57 2434.00 352.55 o -2
3 2 -9 2181.57 2434.00 352.55 o 1
-3 -2 -11 984.82 1221.25 244.56 o -2
3 2 -8 984.82 1221.25 244.56 o 1
-3 -2 -10 3994.84 4891.21 453.49 o -2
3 2 -7 3994.84 4891.21 453.49 o 1
-3 -2 -9 2038.58 2619.77 308.49 o -2
3 2 -6 2038.58 2619.77 308.49 o 1
-3 -2 -8 9724.69 9751.73 364.89 o -2
3 2 -5 9724.69 9751.73 364.89 o 1
-3 -2 -7 1746.93 1659.40 127.20 o -2
3 2 -4 1746.93 1659.40 127.20 o 1
-3 -2 -6 15929.20 15930.70 458.42 o -2
3 2 -3 15929.20 15930.70 458.42 o 1
-3 -2 -5 308.07 382.04 59.47 o -2
3 2 -2 308.07 382.04 59.47 o 1
-3 -2 -4 2247.78 2033.37 90.82 o -2
3 2 -1 2247.78 2033.37 90.82 o 1
-3 -2 -3 177.37 183.31 47.62 o -2
3 2 0 177.37 183.31 47.62 o 1
-3 -2 -2 57.50 186.42 43.29 o -2
3 2 1 57.50 186.42 43.29 o 1
-3 -2 -1 332.11 269.52 34.04 o -2
3 2 2 332.11 269.52 34.04 o 1
-3 -2 0 894.42 1057.80 58.23 o -2
3 2 3 894.42 1057.80 58.23 o 1
-3 -2 1 4949.68 4849.51 138.38 o -2
3 2 4 4949.68 4849.51 138.38 o 1
-3 -2 2 481.15 340.82 49.51 o -2
3 2 5 481.15 340.82 49.51 o 1
-3 -2 3 15276.90 14896.80 541.01 o -2
3 2 6 15276.90 14896.80 541.01 o 1
-3 -2 4 9231.03 9584.19 425.36 o -2
3 2 7 9231.03 9584.19 425.36 o 1
-3 -2 5 12018.10 12900.70 775.02 o -2
3 2 8 12018.10 12900.70 775.02 o 1
-3 -2 6 7068.82 6830.00 549.37 o -2
3 2 9 7068.82 6830.00 549.37 o 1
-3 -2 7 8460.32 9551.18 701.66 o -2
3 2 10 8460.32 9551.18 701.66 o 1
-3 -2 8 4445.92 4923.11 503.07 o -2
3 2 11 4445.92 4923.11 503.07 o 1
-3 -2 9 4996.54 4402.88 488.18 o -2
3 2 12 4996.54 4402.88 488.18 o 1
3 3 -9 3590.11 3356.21 431.20 o 1
3 3 -8 14637.70 15569.70 990.52 o 1
3 3 -7 7779.50 7588.57 603.54 o 1
3 3 -6 16971.30 18837.20 1022.07 o 1
3 3 -5 12309.40 12832.00 743.13 o 1
3 3 -4 37917.10 38485.70 978.01 o 1
3 3 -3 15737.50 15384.80 466.65 o 1
3 3 -2 49271.50 50482.40 1171.92 o 1
3 3 -1 4174.01 4223.37 206.38 o 1
3 3 0 26371.60 25885.90 756.17 o 1
3 3 1 216.71 326.01 53.79 o 1
3 3 2 426.37 376.23 50.59 o 1
3 3 3 19120.70 19723.00 491.96 o 1
3 3 4 2659.25 2637.90 121.56 o 1
3 3 5 46038.80 46037.60 1237.09 o 1
3 3 6 11114.40 10958.40 427.77 o 1
3 3 7 45422.20 46336.40 1366.93 o 1
3 3 8 14871.00 14859.40 847.09 o 1
3 3 9 19287.30 22444.60 1182.20 o 1
3 3 10 8054.33 9054.99 679.46 o 1
3 3 11 14757.60 14047.60 927.74 o 1
3 3 12 5022.31 5107.46 534.28 o 1
3 5 -8 505.20 515.56 181.64 < 1
3 5 -7 1073.27 885.13 218.98 o 1
3 5 -6 1159.05 1247.19 237.88 o 1
3 5 -5 2120.62 2034.86 284.21 o 1
3 5 -4 2556.62 2329.64 282.88 o 1
3 5 -3 2771.27 2528.43 277.23 o 1
3 5 -2 5046.84 5362.80 294.98 o 1
3 5 -1 1207.88 1260.64 134.12 o 1
3 5 0 873.15 810.70 105.41 o 1
3 5 1 98.87 105.27 59.85 < 1
3 5 2 315.20 439.89 82.66 o 1
3 5 3 438.92 442.22 79.32 o 1
3 5 4 926.21 1023.56 110.20 o 1
3 5 5 901.78 1045.07 120.94 o 1
3 5 6 4705.02 5149.72 217.38 o 1
3 5 7 6185.35 5895.13 276.49 o 1
3 5 8 9289.33 10142.30 679.75 o 1
3 5 9 5049.78 5639.84 510.84 o 1
3 5 10 8663.61 9784.37 513.01 o 1
3 5 11 3698.66 4224.02 337.64 o 1
3 5 12 5015.84 4873.47 526.58 o 1
3 6 -7 8682.08 7972.14 700.16 o 1
3 6 -6 10768.80 10463.00 777.25 o 1
3 6 -5 15697.70 15309.30 944.32 o 1
3 6 -4 13495.10 13332.20 822.35 o 1
3 6 -3 23518.30 22571.60 803.60 o 1
3 6 -2 13034.40 12435.30 701.86 o 1
3 6 -1 13203.30 13062.70 715.04 o 1
3 6 0 7165.35 6828.55 466.14 o 1
3 6 1 3396.29 3633.85 242.53 o 1
3 6 2 1078.18 1294.88 143.78 o 1
3 6 3 42.34 149.18 67.03 < 1
3 6 4 4963.30 5224.67 296.16 o 1
3 6 5 2537.54 2431.17 291.17 o 1
3 6 6 14006.30 15068.60 855.18 o 1
3 6 7 10176.80 10922.30 708.12 o 1
3 6 8 18900.60 19055.70 648.90 o 1
3 6 9 15924.40 18145.20 1064.67 o 1
3 6 10 12639.00 15910.00 1015.08 o 1
3 6 11 10781.50 11862.40 890.13 o 1
3 6 12 8515.80 8447.34 768.82 o 1
3 7 -6 2939.91 2714.59 384.40 o 1
3 7 -5 3979.97 3726.46 432.73 o 1
3 7 -4 3774.08 3449.48 396.54 o 1
3 7 -3 5078.53 5122.71 323.83 o 1
3 7 -2 4505.75 4723.03 415.12 o 1
3 7 -1 2933.12 3281.91 331.73 o 1
3 7 0 2596.80 2562.87 278.85 o 1
3 7 1 2885.82 3339.35 335.84 o 1
3 7 2 1256.07 1363.50 214.94 o 1
3 7 3 164.52 228.55 110.53 < 1
3 7 4 707.10 459.43 143.94 o 1
3 7 5 4184.19 3760.24 380.48 o 1
3 7 6 951.97 766.16 192.47 o 1
3 7 7 1883.78 1737.07 284.83 o 1
3 7 8 2236.75 2810.52 361.62 o 1
3 7 9 1110.22 1446.00 271.38 o 1
3 7 10 1071.10 1472.38 292.95 o 1
3 7 11 809.25 920.37 246.63 o 1
3 8 -5 1215.98 923.35 233.72 o 1
3 8 -4 519.00 536.23 173.26 o 1
3 8 -3 2382.04 2287.71 229.72 o 1
3 8 -2 670.67 842.45 186.82 o 1
3 8 -1 5667.15 5677.24 480.11 o 1
3 8 0 1103.65 1329.52 218.31 o 1
3 8 1 3380.05 3331.82 356.58 o 1
3 8 2 10.14 32.83 75.46 < 1
3 8 3 358.03 247.86 135.53 < 1
3 8 4 949.20 1158.19 225.67 o 1
3 8 5 492.30 375.65 151.58 < 1
3 8 6 5161.36 4996.27 474.04 o 1
3 8 7 2762.64 3080.52 385.25 o 1
3 8 8 5638.42 5841.73 557.52 o 1
3 8 9 2605.65 2826.18 388.26 o 1
3 8 10 4179.62 4658.31 524.60 o 1
3 8 11 2883.01 2687.53 413.88 o 1
3 9 -3 8200.32 6664.58 630.77 o 1
3 9 -2 14447.90 14155.50 894.99 o 1
3 9 -1 3626.67 3990.35 415.73 o 1
3 9 0 11809.40 12273.00 796.63 o 1
3 9 1 817.72 842.93 196.97 o 1
3 9 2 4093.05 4359.71 430.13 o 1
3 9 3 23.31 -54.38 90.80 < 1
3 9 4 9.69 52.63 103.18 < 1
3 9 5 2416.02 2487.41 338.81 o 1
3 9 6 795.85 875.66 216.56 o 1
3 9 7 8683.76 8452.55 685.30 o 1
3 9 8 3049.67 2763.33 391.70 o 1
3 9 9 13248.50 12148.40 908.83 o 1
3 9 10 6951.89 7055.16 693.05 o 1
3 10 -1 3614.11 3149.88 390.82 o 1
3 10 0 474.14 554.25 180.62 o 1
3 10 1 2482.02 2980.04 373.34 o 1
3 10 2 141.83 236.32 126.87 < 1
3 10 3 784.61 1053.72 240.52 o 1
3 10 4 239.66 141.92 99.06 < 1
3 10 5 103.63 206.15 152.00 < 1
3 10 6 1983.75 1685.87 314.76 o 1
3 10 7 27.85 155.94 128.62 < 1
3 10 8 2903.08 2574.75 395.35 o 1
4 -9 -6 36.26 -27.01 99.39 < 1
4 -9 -5 209.64 134.69 112.82 < 1
4 -9 -4 466.10 363.41 150.16 < 1
4 -9 -3 404.77 324.85 125.47 < 1
4 -9 -2 2710.83 1985.13 284.93 o 1
4 -9 -1 888.58 711.90 179.88 o 1
4 -9 0 2259.99 1805.87 279.43 o 1
4 -9 1 850.88 773.02 195.24 o 1
4 -9 2 719.60 621.65 198.37 o 1
4 -9 3 406.13 262.04 140.60 < 1
4 -8 -7 1826.65 1481.13 270.44 o 1
4 -8 -6 4935.24 4506.11 476.84 o 1
4 -8 -5 8414.54 9249.71 702.39 o 1
4 -8 -4 11849.50 11019.00 524.64 o 1
4 -8 -3 15286.20 14122.30 817.59 o 1
4 -8 -2 13016.30 12979.20 779.69 o 1
4 -8 -1 16568.60 17402.70 962.65 o 1
4 -8 0 12567.10 13335.00 827.04 o 1
4 -8 1 12773.20 14358.80 876.21 o 1
4 -8 2 11737.80 12830.30 866.51 o 1
4 -8 3 6224.99 6446.34 589.75 o 1
4 -8 4 3898.30 3625.79 438.27 o 1
4 -8 5 1485.15 1529.96 299.76 o 1
4 -7 -8 15.98 4.68 74.60 < 1
4 -7 -7 1144.30 1125.39 229.67 o 1
4 -7 -6 393.20 358.13 143.89 < 1
4 -7 -5 3027.05 3001.72 245.54 o 1
4 -7 -4 1964.96 1950.91 193.94 o 1
4 -7 -3 6774.12 7158.36 508.03 o 1
4 -7 -2 3197.55 3492.37 331.35 o 1
4 -7 -1 6781.92 8155.82 556.74 o 1
4 -7 0 2571.70 2638.47 304.55 o 1
4 -7 1 5589.14 6500.90 513.90 o 1
4 -7 2 1798.17 2209.83 296.90 o 1
4 -7 3 1694.82 2061.43 293.76 o 1
4 -7 4 200.13 225.96 118.07 < 1
4 -7 5 285.17 347.49 138.40 < 1
4 -7 6 1.27 17.74 84.95 < 1
4 -6 -8 557.88 435.00 145.17 < 1
4 -6 -7 153.52 122.43 101.98 < 1
4 -6 -6 335.78 264.37 84.06 o 1
4 -6 -5 2692.23 2676.05 221.27 o 1
4 -6 -4 59.80 46.18 61.96 < 1
4 -6 -3 3414.73 3652.50 194.35 o 1
4 -6 -2 140.62 186.51 58.88 o 1
4 -6 -1 4460.92 5089.53 277.34 o 1
4 -6 0 385.41 484.97 90.02 o 1
4 -6 1 4954.35 4690.12 396.67 o 1
4 -6 2 303.85 587.36 147.18 o 1
4 -6 3 5194.25 6463.78 512.52 o 1
4 -6 4 267.87 305.72 127.53 < 1
4 -6 5 1352.54 1592.77 264.41 o 1
4 -6 6 476.19 277.44 123.07 < 1
4 -6 7 66.47 145.37 112.24 < 1
4 -5 -8 512.07 493.64 140.29 o 1
4 -5 -7 40.93 -30.12 49.89 < 1
4 -5 -6 4110.73 4140.48 275.02 o 1
4 -5 -5 3857.67 3909.59 204.15 o 1
4 -5 -4 16736.30 17466.10 513.86 o 1
4 -5 -3 13775.70 14384.20 437.00 o 1
4 -5 -2 33439.50 38438.30 1104.47 o 1
4 -5 -1 23014.70 24215.00 760.52 o 1
4 -5 0 46201.90 49178.70 1396.28 o 1
4 -5 1 20247.80 22200.00 737.90 o 1
4 -5 2 31531.10 35055.40 1081.78 o 1
4 -5 3 10193.40 11232.80 671.40 o 1
4 -5 4 13881.50 14760.30 837.76 o 1
4 -5 5 1873.54 2090.64 286.18 o 1
4 -5 6 2281.82 2346.50 316.81 o 1
4 -5 7 54.38 -75.86 93.72 < 1
4 -5 8 85.64 104.90 99.08 < 1
4 -4 -8 110.57 113.47 62.80 < 1
4 -4 -7 60.86 70.66 57.39 < 1
4 -4 -6 939.72 931.62 97.30 o 1
4 -4 -5 2230.71 2465.95 153.65 o 1
4 -4 -4 3551.85 3345.21 171.32 o 1
4 -4 -3 3454.79 3760.45 174.57 o 1
4 -4 -2 5466.91 5831.22 222.49 o 1
4 -4 -1 5265.45 5322.47 232.25 o 1
4 -4 0 3559.53 3599.33 191.21 o 1
4 -4 1 5038.74 4972.81 245.03 o 1
4 -4 2 2184.09 2067.43 151.18 o 1
4 -4 3 2347.85 2501.83 175.66 o 1
4 -4 4 837.70 642.37 99.78 o 1
4 -4 5 1231.63 1345.34 211.90 o 1
4 -4 6 90.18 142.91 89.31 < 1
4 -4 7 352.80 330.17 138.27 < 1
4 -4 8 765.06 893.93 214.37 o 1
4 -4 9 359.10 265.46 136.89 < 1
4 -2 -10 1438.08 1073.35 230.28 o 1
4 -2 -9 780.01 893.74 138.78 o 1
4 -2 -8 15.30 39.23 55.87 < 1
4 -2 -7 203.52 307.70 83.83 o 1
4 -2 -6 1881.11 1951.53 136.40 o 1
4 -2 -5 6538.14 6486.12 214.82 o 1
4 -2 -4 16276.30 16630.10 460.79 o 1
4 -2 -3 23448.00 23381.40 581.17 o 1
4 -2 -2 30065.00 30325.20 700.84 o 1
4 -2 -1 47776.60 47824.50 1047.58 o 1
4 -2 0 48368.40 47617.40 1291.38 o 1
4 -2 1 78722.50 80465.80 1709.01 o 1
4 -2 2 41143.10 40146.50 1089.52 o 1
4 -2 3 34129.10 33722.90 967.47 o 1
4 -2 4 27364.30 29608.10 1272.69 o 1
4 -2 5 15051.20 14950.80 557.61 o 1
4 -2 6 8330.65 8175.99 563.58 o 1
4 -2 7 3318.87 3775.14 379.73 o 1
4 -2 8 31.30 4.70 68.78 < 1
4 -2 9 42.15 112.06 110.28 < 1
4 -2 10 772.54 729.47 204.46 o 1
4 -2 11 1749.98 1320.96 269.89 o 1
-4 1 -12 2707.94 2257.76 338.15 o -2
4 -1 -10 2707.94 2257.76 338.15 o 1
-4 1 -11 465.88 476.19 153.53 o -2
4 -1 -9 465.88 476.19 153.53 o 1
-4 1 -10 1880.88 2206.34 210.88 o -2
4 -1 -8 1880.88 2206.34 210.88 o 1
-4 1 -9 147.55 253.36 80.04 o -2
4 -1 -7 147.55 253.36 80.04 o 1
-4 1 -8 182.22 228.07 55.12 o -2
4 -1 -6 182.22 228.07 55.12 o 1
-4 1 -7 2054.13 1951.92 116.50 o -2
4 -1 -5 2054.13 1951.92 116.50 o 1
-4 1 -6 771.28 651.18 65.83 o -2
4 -1 -4 771.28 651.18 65.83 o 1
-4 1 -5 5574.74 5319.75 178.31 o -2
4 -1 -3 5574.74 5319.75 178.31 o 1
-4 1 -4 1452.47 1355.79 75.38 o -2
4 -1 -2 1452.47 1355.79 75.38 o 1
-4 1 -3 17220.80 15942.20 492.99 o -2
4 -1 -1 17220.80 15942.20 492.99 o 1
-4 1 -2 5514.66 5175.02 360.25 o -2
4 -1 0 5514.66 5175.02 360.25 o 1
-4 1 -1 30142.20 29374.40 648.39 o -2
4 -1 1 30142.20 29374.40 648.39 o 1
-4 1 0 6087.66 5828.97 191.98 o -2
4 -1 2 6087.66 5828.97 191.98 o 1
-4 1 1 10473.30 10364.40 522.16 o -2
4 -1 3 10473.30 10364.40 522.16 o 1
-4 1 2 651.69 629.77 78.94 o -2
4 -1 4 651.69 629.77 78.94 o 1
-4 1 3 3133.35 2748.45 261.42 o -2
4 -1 5 3133.35 2748.45 261.42 o 1
-4 1 4 140.77 170.49 58.01 < -2
4 -1 6 140.77 170.49 58.01 < 1
-4 1 5 830.12 1034.42 192.72 o -2
4 -1 7 830.12 1034.42 192.72 o 1
-4 1 6 147.54 223.16 120.68 < -2
4 -1 8 147.54 223.16 120.68 < 1
-4 1 7 186.42 -8.41 95.79 < -2
4 -1 9 186.42 -8.41 95.79 < 1
-4 1 8 825.75 960.29 227.04 o -2
4 -1 10 825.75 960.29 227.04 o 1
-4 1 9 514.65 554.37 179.81 o -2
4 -1 11 514.65 554.37 179.81 o 1
4 0 -10 757.37 713.36 193.96 o 1
4 0 -9 2.62 107.93 93.57 < 1
4 0 -8 576.64 560.51 156.44 o 1
4 0 -7 458.50 512.61 138.93 o 1
4 0 -6 1518.04 1641.98 116.61 o 1
4 0 -5 2027.27 2211.92 124.95 o 1
4 0 -4 1182.61 1192.87 77.12 o 1
4 0 -3 8710.40 8601.42 217.28 o 1
4 0 -2 88.82 104.41 23.67 o 1
4 0 -1 14243.00 12206.10 388.27 o 1
4 0 0 4286.58 4059.75 308.39 o 1
4 0 1 36423.60 36283.30 946.48 o 1
4 0 2 6780.92 6864.21 200.58 o 1
4 0 3 24576.10 23823.50 569.37 o 1
4 0 4 1278.40 1290.69 88.35 o 1
4 0 5 11405.90 11685.80 428.20 o 1
4 0 6 285.08 248.23 51.83 o 1
4 0 7 2832.15 2359.27 286.43 o 1
4 0 8 561.03 606.83 162.03 o 1
4 0 9 455.34 464.65 88.41 o 1
4 0 10 1061.70 1030.61 221.83 o 1
4 0 11 52.76 66.69 90.01 < 1
4 2 -9 1569.32 1809.25 307.74 o 1
4 2 -8 402.29 235.09 116.46 < 1
4 2 -7 451.14 382.41 140.71 < 1
4 2 -6 3.26 43.18 79.77 < 1
4 2 -5 84.94 68.94 49.97 < 1
4 2 -4 630.33 543.97 90.71 o 1
4 2 -3 4461.00 4121.46 176.77 o 1
4 2 -2 4570.76 4475.37 176.49 o 1
4 2 -1 9436.86 9059.78 238.74 o 1
4 2 0 10692.60 10461.30 302.16 o 1
4 2 1 22450.40 23454.90 498.61 o 1
4 2 2 18638.80 19727.40 426.26 o 1
4 2 3 17460.60 17740.70 388.09 o 1
4 2 4 5419.21 5395.41 160.04 o 1
4 2 5 4982.40 4792.89 222.59 o 1
4 2 6 1484.83 1478.55 101.71 o 1
4 2 7 685.56 897.27 114.91 o 1
4 2 8 18.91 134.21 96.99 < 1
4 2 9 6.20 15.46 62.77 < 1
4 2 10 356.52 503.69 161.39 o 1
4 2 11 13.33 13.14 85.86 < 1
4 2 12 743.05 707.80 207.15 o 1
4 3 -9 559.34 528.00 188.54 < 1
4 3 -8 156.43 137.69 107.68 < 1
4 3 -7 1374.62 1536.14 261.98 o 1
4 3 -6 0.19 9.90 73.06 < 1
4 3 -5 138.43 90.10 80.51 < 1
4 3 -4 54.63 52.79 52.71 < 1
4 3 -3 636.35 761.38 100.93 o 1
4 3 -2 1203.87 1213.62 103.18 o 1
4 3 -1 340.72 284.01 60.95 o 1
4 3 0 10501.20 10190.30 363.31 o 1
4 3 1 1642.47 1754.24 102.20 o 1
4 3 2 21050.00 21254.10 475.09 o 1
4 3 3 7608.13 8163.82 226.44 o 1
4 3 4 5699.99 5556.10 239.04 o 1
4 3 5 4381.93 3857.38 188.06 o 1
4 3 6 2378.86 2224.06 164.11 o 1
4 3 7 1252.94 1142.57 128.45 o 1
4 3 8 987.73 910.68 181.26 o 1
4 3 9 12.22 53.13 95.66 < 1
4 3 10 48.82 78.36 108.32 < 1
4 3 11 704.54 1125.97 249.03 o 1
4 3 12 1238.58 1346.89 277.93 o 1
4 4 -8 1325.74 1249.96 258.76 o 1
4 4 -7 499.85 699.14 192.90 o 1
4 4 -6 11.93 30.82 62.30 < 1
4 4 -5 494.63 518.66 140.97 o 1
4 4 -4 2888.09 2852.81 303.67 o 1
4 4 -3 7753.08 7900.95 378.51 o 1
4 4 -2 18088.60 17308.10 494.63 o 1
4 4 -1 23979.50 23920.60 842.53 o 1
4 4 0 29471.00 29655.10 1294.38 o 1
4 4 1 53495.40 61484.30 1753.17 o 1
4 4 2 59113.80 63836.30 1781.69 o 1
4 4 3 62072.70 62277.40 1719.80 o 1
4 4 4 46453.00 48198.60 1335.51 o 1
4 4 5 26125.10 26656.80 661.29 o 1
4 4 6 22676.40 24231.10 622.49 o 1
4 4 7 16369.10 16203.80 604.89 o 1
4 4 8 3478.58 3889.26 362.39 o 1
4 4 9 3396.14 3662.06 377.32 o 1
4 4 10 11.78 209.10 117.28 < 1
4 4 11 18.16 42.29 95.66 < 1
4 4 12 647.12 544.53 188.47 < 1
4 5 -8 2114.21 2134.12 350.76 o 1
4 5 -7 117.67 217.59 117.97 < 1
4 5 -6 972.87 1095.03 236.22 o 1
4 5 -5 519.15 399.84 135.90 < 1
4 5 -4 231.17 117.29 92.81 < 1
4 5 -3 2952.96 2640.56 296.18 o 1
4 5 -2 2788.14 2428.36 160.43 o 1
4 5 -1 9442.81 10514.10 441.36 o 1
4 5 0 3425.57 3347.94 197.78 o 1
4 5 1 11167.30 11292.20 401.73 o 1
4 5 2 2795.81 3355.42 194.90 o 1
4 5 3 10687.60 11239.40 381.98 o 1
4 5 4 2608.57 2669.40 154.19 o 1
4 5 5 5435.43 5355.01 225.26 o 1
4 5 6 2900.71 2992.33 160.33 o 1
4 5 7 4505.76 4532.98 237.88 o 1
4 5 8 201.98 -64.11 116.93 < 1
4 5 9 286.03 369.90 139.55 < 1
4 5 10 271.47 326.04 99.50 o 1
4 5 11 2.42 -139.85 107.70 < 1
4 5 12 368.54 397.05 183.23 < 1
4 6 -7 262.52 239.78 133.75 < 1
4 6 -6 1861.34 1906.95 318.95 o 1
4 6 -5 213.94 193.78 107.99 < 1
4 6 -4 859.17 674.71 175.63 o 1
4 6 -3 2441.71 2231.85 287.35 o 1
4 6 -2 33.60 3.71 53.29 < 1
4 6 -1 2493.14 2649.62 278.06 o 1
4 6 0 301.47 215.05 107.94 < 1
4 6 1 6292.01 6618.04 343.18 o 1
4 6 2 213.15 301.72 75.99 o 1
4 6 3 13918.60 15535.10 515.13 o 1
4 6 4 266.17 319.34 85.74 o 1
4 6 5 10623.70 10284.50 456.45 o 1
4 6 6 657.82 760.35 113.68 o 1
4 6 7 5158.45 5784.85 300.04 o 1
4 6 8 349.37 418.61 78.74 o 1
4 6 9 2555.43 2609.57 341.49 o 1
4 6 10 206.83 89.68 101.33 < 1
4 6 11 24.74 -61.59 113.63 < 1
4 6 12 1881.26 1422.43 303.11 o 1
4 7 -6 75.54 -0.94 60.99 < 1
4 7 -5 325.59 452.22 156.61 < 1
4 7 -4 823.63 762.29 197.20 o 1
4 7 -3 252.90 206.58 112.12 < 1
4 7 -2 6940.46 6375.29 362.70 o 1
4 7 -1 6832.85 7296.16 523.57 o 1
4 7 0 20667.30 20819.00 1040.09 o 1
4 7 1 16291.00 17754.20 924.92 o 1
4 7 2 37149.10 40875.30 1773.76 o 1
4 7 3 21418.60 22507.80 1129.71 o 1
4 7 4 43522.40 47547.70 2036.26 o 1
4 7 5 14610.30 14996.00 619.85 o 1
4 7 6 25057.70 24836.20 874.02 o 1
4 7 7 8217.23 8441.03 416.48 o 1
4 7 8 8547.42 9409.68 697.53 o 1
4 7 9 826.50 1114.39 240.42 o 1
4 7 10 1441.78 1727.94 308.37 o 1
4 7 11 239.28 239.57 159.61 < 1
4 9 -3 4.46 31.55 85.57 < 1
4 9 -2 188.94 88.79 77.56 < 1
4 9 -1 247.46 129.62 94.22 < 1
4 9 0 1017.89 1152.47 220.68 o 1
4 9 1 1517.36 1528.90 253.82 o 1
4 9 2 3920.44 4274.28 433.34 o 1
4 9 3 2314.40 2264.69 311.46 o 1
4 9 4 5196.73 5709.09 523.22 o 1
4 9 5 3211.41 3519.78 410.30 o 1
4 9 6 4641.38 5277.41 513.97 o 1
4 9 7 2348.58 2192.56 336.51 o 1
4 9 8 1599.27 1459.61 282.25 o 1
4 9 9 647.16 710.37 223.92 o 1
4 9 10 509.25 236.89 153.87 < 1
-4 -10 -9 3741.03 3161.92 393.54 o -2
4 10 -1 3741.03 3161.92 393.54 o 1
-4 -10 -8 8124.09 7784.76 637.72 o -2
4 10 0 8124.09 7784.76 637.72 o 1
-4 -10 -7 11882.90 12160.60 822.11 o -2
4 10 1 11882.90 12160.60 822.11 o 1
-4 -10 -6 13402.90 12182.10 816.77 o -2
4 10 2 13402.90 12182.10 816.77 o 1
-4 -10 -5 16793.30 17689.30 1052.01 o -2
4 10 3 16793.30 17689.30 1052.01 o 1
-4 -10 -4 14540.30 16333.00 1002.54 o -2
4 10 4 14540.30 16333.00 1002.54 o 1
-4 -10 -3 16353.50 16095.20 1021.29 o -2
4 10 5 16353.50 16095.20 1021.29 o 1
-4 -10 -2 14505.20 13050.20 912.18 o -2
4 10 6 14505.20 13050.20 912.18 o 1
-4 -10 -1 11775.00 12583.20 905.38 o -2
4 10 7 11775.00 12583.20 905.38 o 1
-4 -10 0 8455.45 7989.72 713.70 o -2
4 10 8 8455.45 7989.72 713.70 o 1
4 11 3 2501.38 2035.99 324.56 o 1
4 11 4 1305.32 916.01 233.33 o 1
4 11 5 2292.49 2031.92 337.93 o 1
5 -9 1 1418.21 1191.84 249.85 o 1
5 -9 2 353.78 157.47 120.77 < 1
5 -8 -6 1346.87 738.27 206.29 o 1
5 -8 -5 120.24 160.41 130.79 < 1
5 -8 -4 905.85 863.27 219.80 o 1
5 -8 -3 37.08 180.47 114.96 < 1
5 -8 -1 80.26 138.00 97.98 < 1
5 -8 0 0.83 -88.05 88.08 < 1
5 -8 1 1637.42 2003.11 301.50 o 1
5 -8 2 97.11 76.56 84.58 < 1
5 -8 3 2182.30 1726.95 290.85 o 1
5 -8 4 734.90 635.21 196.31 o 1
5 -7 -7 7179.23 5289.63 538.55 o 1
5 -7 -6 7266.36 6064.82 578.17 o 1
5 -7 -5 6125.41 5681.52 545.26 o 1
5 -7 -4 4086.62 4416.01 466.62 o 1
5 -7 -3 3259.90 2853.43 367.74 o 1
5 -7 -2 1090.54 1216.11 155.49 o 1
5 -7 -1 113.44 100.05 69.67 < 1
5 -7 0 497.07 310.17 116.12 < 1
5 -7 1 2017.05 2374.03 300.62 o 1
5 -7 2 5163.33 5731.55 493.23 o 1
5 -7 3 5303.17 4954.23 477.57 o 1
5 -7 4 9273.79 9327.64 710.95 o 1
5 -7 5 8048.03 6946.00 625.86 o 1
5 -7 6 9791.80 9302.25 768.65 o 1
5 -5 -8 732.69 485.12 157.80 o 1
5 -5 -7 754.54 670.41 178.93 o 1
5 -5 -6 1226.61 1147.69 235.50 o 1
5 -5 -5 1845.29 2010.57 301.11 o 1
5 -5 -4 248.89 245.03 71.21 o 1
5 -5 -3 1222.53 1249.68 109.20 o 1
5 -5 -2 441.13 427.42 67.95 o 1
5 -5 -1 467.56 493.21 71.56 o 1
5 -5 0 229.79 255.32 59.59 o 1
5 -5 1 1253.42 1227.41 124.96 o 1
5 -5 2 1106.85 1166.17 130.02 o 1
5 -5 3 760.60 688.44 145.63 o 1
5 -5 4 3457.72 3963.13 381.30 o 1
5 -5 5 1744.82 2209.28 295.57 o 1
5 -5 6 5263.31 5440.14 507.72 o 1
5 -5 7 3867.24 3749.93 436.16 o 1
5 -5 8 2831.54 2784.52 390.98 o 1
-5 4 -9 7689.68 6306.55 545.17 o -2
5 -4 -8 7689.68 6306.55 545.17 o 1
-5 4 -8 16211.90 15697.60 945.63 o -2
5 -4 -7 16211.90 15697.60 945.63 o 1
-5 4 -7 11201.50 11106.10 755.92 o -2
5 -4 -6 11201.50 11106.10 755.92 o 1
-5 4 -6 19145.60 18305.30 664.94 o -2
5 -4 -5 19145.60 18305.30 664.94 o 1
-5 4 -5 9549.03 9230.54 322.52 o -2
5 -4 -4 9549.03 9230.54 322.52 o 1
-5 4 -4 12101.40 12307.40 378.00 o -2
5 -4 -3 12101.40 12307.40 378.00 o 1
-5 4 -3 3123.89 3303.33 162.39 o -2
5 -4 -2 3123.89 3303.33 162.39 o 1
-5 4 -2 4895.92 5086.24 173.26 o -2
5 -4 -1 4895.92 5086.24 173.26 o 1
-5 4 -1 157.88 290.95 77.28 o -2
5 -4 0 157.88 290.95 77.28 o 1
-5 4 0 363.56 348.31 90.70 o -2
5 -4 1 363.56 348.31 90.70 o 1
-5 4 1 6649.84 7065.29 314.96 o -2
5 -4 2 6649.84 7065.29 314.96 o 1
-5 4 2 6634.66 6824.69 321.56 o -2
5 -4 3 6634.66 6824.69 321.56 o 1
-5 4 3 13118.80 14065.10 551.49 o -2
5 -4 4 13118.80 14065.10 551.49 o 1
-5 4 4 14010.90 14683.20 848.56 o -2
5 -4 5 14010.90 14683.20 848.56 o 1
-5 4 5 19530.50 21401.70 1144.37 o -2
5 -4 6 19530.50 21401.70 1144.37 o 1
-5 4 6 12802.80 12788.50 844.84 o -2
5 -4 7 12802.80 12788.50 844.84 o 1
-5 4 7 16492.30 16486.30 1035.96 o -2
5 -4 8 16492.30 16486.30 1035.96 o 1
-5 4 8 8567.92 8175.90 708.29 o -2
5 -4 9 8567.92 8175.90 708.29 o 1
5 -3 -8 8245.91 7083.92 590.87 o 1
5 -3 -7 2476.62 2663.01 333.70 o 1
5 -3 -6 10161.40 10629.70 465.60 o 1
5 -3 -5 3805.26 3799.13 192.07 o 1
5 -3 -4 10421.00 10096.30 330.83 o 1
5 -3 -3 1988.86 2055.47 119.53 o 1
5 -3 -2 7219.01 7410.29 246.56 o 1
5 -3 -1 460.90 481.23 59.38 o 1
5 -3 0 2752.85 2949.62 182.52 o 1
5 -3 1 2265.96 2376.74 130.04 o 1
5 -3 2 531.46 624.63 75.19 o 1
5 -3 3 4300.87 4143.25 309.29 o 1
5 -3 4 624.92 742.76 98.71 o 1
5 -3 5 8686.27 8303.06 393.42 o 1
5 -3 6 1085.32 985.40 187.43 o 1
5 -3 7 6115.66 5797.31 504.45 o 1
5 -3 8 648.07 588.58 175.33 o 1
5 -3 9 2607.05 3181.83 401.55 o 1
5 -3 10 365.84 293.00 137.57 < 1
5 -1 -8 9956.88 10406.00 516.01 o 1
5 -1 -7 11165.00 12502.60 555.86 o 1
5 -1 -6 16269.30 17629.00 539.92 o 1
5 -1 -5 17471.80 17107.70 431.07 o 1
5 -1 -4 22141.30 21285.90 481.42 o 1
5 -1 -3 18407.70 18814.60 409.79 o 1
5 -1 -2 7054.23 6577.60 246.03 o 1
5 -1 -1 6561.76 5862.08 436.16 o 1
5 -1 0 1857.31 1688.81 221.38 o 1
5 -1 1 6.88 -5.33 44.93 < 1
5 -1 2 990.37 1057.40 75.45 o 1
5 -1 3 4470.92 4302.54 176.26 o 1
5 -1 4 12304.00 11845.60 453.57 o 1
5 -1 5 9364.98 9772.29 407.59 o 1
5 -1 6 31500.20 32565.10 834.00 o 1
5 -1 7 17314.40 17807.00 973.10 o 1
5 -1 8 21356.30 21903.20 1168.95 o 1
5 -1 9 11888.90 11969.90 808.57 o 1
5 -1 10 11767.80 12475.10 864.63 o 1
5 -1 11 7775.07 8190.19 696.91 o 1
5 0 -8 4371.20 4362.45 433.28 o 1
5 0 -7 5761.29 6662.77 384.47 o 1
5 0 -6 5574.31 5742.44 268.71 o 1
5 0 -5 8892.01 9140.73 288.59 o 1
5 0 -4 6000.13 6051.30 243.11 o 1
5 0 -3 12672.30 13175.00 377.67 o 1
5 0 -2 2572.95 2506.63 113.15 o 1
5 0 -1 3973.60 3691.39 235.57 o 1
5 0 0 436.56 403.79 119.50 o 1
5 0 1 105.92 160.16 59.69 < 1
5 0 2 288.15 324.39 59.64 o 1
5 0 3 234.56 302.23 44.83 o 1
5 0 4 3072.35 2767.29 138.35 o 1
5 0 5 1982.82 2023.20 153.20 o 1
5 0 6 5870.62 5917.24 244.36 o 1
5 0 7 3074.21 3052.66 205.61 o 1
5 0 8 3912.16 3861.62 241.89 o 1
5 0 9 1225.34 1404.47 146.46 o 1
5 0 10 1639.17 2015.58 311.50 o 1
5 0 11 910.45 874.20 214.97 o 1
5 1 -8 611.18 658.74 168.66 o 1
5 1 -7 919.78 950.77 188.22 o 1
5 1 -6 1361.02 1498.00 220.96 o 1
5 1 -5 1266.72 1460.83 128.04 o 1
5 1 -4 2998.51 3077.85 171.26 o 1
5 1 -3 3558.91 3656.53 175.69 o 1
5 1 -2 844.14 917.69 75.75 o 1
5 1 -1 3217.15 3008.98 126.09 o 1
5 1 0 185.36 217.43 103.97 < 1
5 1 1 418.48 385.94 56.72 o 1
5 1 2 6.16 -21.68 22.86 < 1
5 1 3 1246.38 1334.27 72.82 o 1
5 1 4 1896.23 1955.95 111.19 o 1
5 1 5 1376.59 1430.32 126.40 o 1
5 1 6 8479.21 8550.52 298.19 o 1
5 1 7 5040.97 5200.85 227.67 o 1
5 1 8 7243.24 8018.35 357.73 o 1
5 1 9 5461.25 5184.95 284.05 o 1
5 1 10 3698.31 4194.83 453.91 o 1
5 1 11 4898.10 4905.41 509.64 o 1
5 1 12 3362.18 3805.03 466.08 o 1
5 2 -8 6103.98 6299.56 562.54 o 1
5 2 -7 13186.10 14409.10 891.56 o 1
5 2 -6 8856.23 9920.23 670.79 o 1
5 2 -5 19802.00 20388.00 740.19 o 1
5 2 -4 14768.50 14992.40 559.51 o 1
5 2 -3 33721.50 35009.80 879.78 o 1
5 2 -2 12115.40 12966.10 396.12 o 1
5 2 -1 15529.40 15504.50 394.85 o 1
5 2 0 3210.72 3290.97 119.37 o 1
5 2 1 4540.28 4643.21 160.18 o 1
5 2 2 849.58 874.42 65.57 o 1
5 2 3 40.68 66.19 26.93 < 1
5 2 4 12206.60 11613.60 293.11 o 1
5 2 5 5287.93 5177.92 244.73 o 1
5 2 6 19605.90 20001.20 533.88 o 1
5 2 7 24178.00 24625.60 645.21 o 1
5 2 8 22902.00 18656.90 568.59 o 1
5 2 9 15189.40 16188.10 947.73 o 1
5 2 10 14598.00 16582.10 1004.06 o 1
5 2 11 8153.82 8824.74 701.10 o 1
5 2 12 9466.57 9262.49 752.15 o 1
5 3 -8 6057.27 5983.23 578.42 o 1
5 3 -7 2024.20 2087.78 311.07 o 1
5 3 -6 10472.70 11429.40 759.65 o 1
5 3 -5 2786.17 3376.73 350.04 o 1
5 3 -4 13218.70 13415.50 548.21 o 1
5 3 -3 4328.98 4359.37 254.11 o 1
5 3 -2 11245.90 11922.40 452.88 o 1
5 3 -1 281.62 308.76 48.72 o 1
5 3 0 8074.92 8009.43 257.14 o 1
5 3 1 490.50 506.45 59.49 o 1
5 3 2 3948.77 3985.78 158.76 o 1
5 3 3 4106.93 4180.01 157.56 o 1
5 3 4 30.10 84.97 33.85 < 1
5 3 5 4827.84 4755.13 167.53 o 1
5 3 6 222.69 276.31 52.04 o 1
5 3 7 6850.78 6837.69 336.14 o 1
5 3 8 1015.19 841.15 176.43 o 1
5 3 9 6238.01 6144.94 520.42 o 1
5 3 10 244.32 322.07 145.92 < 1
5 3 11 3226.66 3675.57 431.25 o 1
5 3 12 90.40 111.15 114.39 < 1
5 4 -8 825.97 602.59 182.93 o 1
5 4 -7 136.78 63.53 85.58 < 1
5 4 -6 1918.66 1911.51 291.31 o 1
5 4 -5 549.03 479.55 147.08 o 1
5 4 -4 3083.20 3621.68 358.52 o 1
5 4 -3 1790.94 1841.77 172.08 o 1
5 4 -2 5773.68 5652.19 301.73 o 1
5 4 -1 461.15 398.39 61.24 o 1
5 4 0 5339.27 5279.09 320.42 o 1
5 4 1 1695.66 1836.14 171.74 o 1
5 4 2 3302.51 3521.38 224.11 o 1
5 4 3 2450.17 2424.22 169.84 o 1
5 4 4 286.33 343.12 56.17 o 1
5 4 5 2964.33 2866.23 150.02 o 1
5 4 6 1214.15 1181.91 95.05 o 1
5 4 7 11578.60 11512.70 430.89 o 1
5 4 8 2614.98 2601.87 288.91 o 1
5 4 9 13540.10 13548.90 815.40 o 1
5 4 10 1871.29 1981.15 295.24 o 1
5 4 11 7595.26 7633.30 643.14 o 1
5 4 12 2530.38 2308.49 354.08 o 1
5 6 -6 3606.00 2648.37 385.87 o 1
5 6 -5 4265.00 3940.99 447.97 o 1
5 6 -4 3886.65 3256.48 387.08 o 1
5 6 -3 8111.50 6264.37 519.36 o 1
5 6 -2 3027.61 2737.49 214.35 o 1
5 6 -1 5635.33 5899.26 436.07 o 1
5 6 0 1318.07 1383.55 195.21 o 1
5 6 1 2071.89 1852.45 227.89 o 1
5 6 2 1170.89 1494.83 156.66 o 1
5 6 3 150.03 276.48 71.26 o 1
5 6 4 1328.68 1342.90 152.15 o 1
5 6 5 594.01 523.34 104.11 o 1
5 6 6 2121.39 2208.29 187.47 o 1
5 6 7 980.97 1166.51 133.18 o 1
5 6 8 1789.11 2236.06 178.29 o 1
5 6 9 2383.77 2489.14 347.20 o 1
5 6 10 1662.38 1706.55 302.74 o 1
5 6 11 927.85 981.41 249.30 o 1
5 6 12 1082.47 952.67 254.04 o 1
-5 -7 -12 1210.90 642.74 192.79 o -2
5 7 -5 1210.90 642.74 192.79 o 1
-5 -7 -11 1657.32 1478.78 275.13 o -2
5 7 -4 1657.32 1478.78 275.13 o 1
-5 -7 -10 1819.06 1478.83 262.72 o -2
5 7 -3 1819.06 1478.83 262.72 o 1
-5 -7 -9 2449.94 2247.59 206.75 o -2
5 7 -2 2449.94 2247.59 206.75 o 1
-5 -7 -8 3355.68 3081.98 320.70 o -2
5 7 -1 3355.68 3081.98 320.70 o 1
-5 -7 -7 2405.53 2641.06 295.65 o -2
5 7 0 2405.53 2641.06 295.65 o 1
-5 -7 -6 1425.52 1471.91 225.49 o -2
5 7 1 1425.52 1471.91 225.49 o 1
-5 -7 -5 340.01 366.89 133.17 < -2
5 7 2 340.01 366.89 133.17 < 1
-5 -7 -4 19.57 35.58 104.57 < -2
5 7 3 19.57 35.58 104.57 < 1
-5 -7 -3 105.15 18.55 94.45 < -2
5 7 4 105.15 18.55 94.45 < 1
-5 -7 -2 170.20 271.11 88.98 o -2
5 7 5 170.20 271.11 88.98 o 1
-5 -7 -1 2959.86 2839.49 228.63 o -2
5 7 6 2959.86 2839.49 228.63 o 1
-5 -7 0 2449.20 2746.59 220.47 o -2
5 7 7 2449.20 2746.59 220.47 o 1
-5 -7 1 5659.33 6588.07 569.61 o -2
5 7 8 5659.33 6588.07 569.61 o 1
-5 -7 2 4586.21 5105.76 507.55 o -2
5 7 9 4586.21 5105.76 507.55 o 1
-5 -7 3 4727.77 4520.36 509.65 o -2
5 7 10 4727.77 4520.36 509.65 o 1
-5 -7 4 3985.45 3574.53 461.27 o -2
5 7 11 3985.45 3574.53 461.27 o 1
5 8 -4 7971.98 6226.83 607.62 o 1
5 8 -3 13329.90 11095.10 825.64 o 1
5 8 -2 8458.09 7937.75 444.00 o 1
5 8 -1 14105.30 14677.60 869.18 o 1
5 8 0 5159.36 5399.60 461.50 o 1
5 8 1 6625.58 6867.48 523.28 o 1
5 8 2 2048.24 2259.36 286.56 o 1
5 8 3 1262.39 1449.63 241.45 o 1
5 8 4 205.56 224.45 126.90 < 1
5 8 5 437.20 343.93 139.32 < 1
5 8 6 5281.56 5187.11 488.94 o 1
5 8 7 3362.55 3525.79 411.55 o 1
5 8 8 9706.93 10015.70 762.81 o 1
5 8 9 8614.08 9108.07 742.39 o 1
5 8 10 11467.30 11767.10 888.53 o 1
5 8 11 8801.44 7404.60 710.34 o 1
5 10 0 2179.49 1897.07 299.13 o 1
5 10 1 285.09 235.97 140.33 < 1
5 10 2 2032.23 2161.51 312.43 o 1
5 10 3 33.45 53.57 83.12 < 1
5 10 4 391.96 351.41 152.56 < 1
5 10 5 289.24 223.74 151.72 < 1
5 10 6 74.18 -126.66 142.88 < 1
5 10 7 2153.70 1472.32 287.69 o 1
5 10 8 809.09 469.67 180.48 < 1
-6 7 -5 61.92 247.87 131.58 < -2
6 -7 -5 61.92 247.87 131.58 < 1
-6 7 -4 1414.97 910.94 234.31 o -2
6 -7 -4 1414.97 910.94 234.31 o 1
-6 7 -3 570.54 408.99 155.04 < -2
6 -7 -3 570.54 408.99 155.04 < 1
-6 7 -2 2225.85 1702.22 308.85 o -2
6 -7 -2 2225.85 1702.22 308.85 o 1
-6 7 -1 1521.02 1398.27 269.82 o -2
6 -7 -1 1521.02 1398.27 269.82 o 1
-6 7 0 3640.17 3364.59 267.85 o -2
6 -7 0 3640.17 3364.59 267.85 o 1
-6 7 1 1670.96 2023.07 271.38 o -2
6 -7 1 1670.96 2023.07 271.38 o 1
-6 7 2 2603.02 2578.34 318.95 o -2
6 -7 2 2603.02 2578.34 318.95 o 1
-6 7 3 1000.01 845.50 190.68 o -2
6 -7 3 1000.01 845.50 190.68 o 1
-6 7 4 1732.45 1340.57 256.97 o -2
6 -7 4 1732.45 1340.57 256.97 o 1
-6 7 5 153.52 173.97 109.11 < -2
6 -7 5 153.52 173.97 109.11 < 1
-6 7 6 129.87 33.72 80.17 < -2
6 -7 6 129.87 33.72 80.17 < 1
6 -6 -7 1165.79 821.93 214.74 o 1
6 -6 -6 821.83 422.12 167.81 < 1
6 -6 -5 6861.97 6317.62 602.90 o 1
6 -6 -4 5509.27 5551.38 548.43 o 1
6 -6 -3 19250.60 18383.20 1111.58 o 1
6 -6 -2 11253.30 11489.90 819.31 o 1
6 -6 -1 26324.90 24506.00 1324.55 o 1
6 -6 0 15451.50 15670.60 643.67 o 1
6 -6 1 24379.40 28218.20 1309.13 o 1
6 -6 2 13606.00 13918.90 802.86 o 1
6 -6 3 17556.70 16989.90 956.48 o 1
6 -6 4 6688.04 5967.08 512.78 o 1
6 -6 5 7447.79 7032.42 601.69 o 1
6 -6 6 766.47 724.41 197.46 o 1
6 -6 7 1088.40 786.44 208.99 o 1
6 -4 -8 87.46 49.42 78.08 < 1
6 -4 -7 51.32 76.20 86.83 < 1
6 -4 -6 2.99 52.01 72.59 < 1
6 -4 -5 52.76 23.30 84.50 < 1
6 -4 -4 1105.47 1269.49 240.93 o 1
6 -4 -3 1985.13 2389.36 327.24 o 1
6 -4 -2 1428.69 1520.22 145.27 o 1
6 -4 -1 1427.54 1499.15 146.78 o 1
6 -4 0 2228.87 2547.79 143.45 o 1
6 -4 1 1176.94 1196.75 105.59 o 1
6 -4 2 3025.32 3596.70 241.47 o 1
6 -4 3 1309.43 1371.39 133.92 o 1
6 -4 4 3331.28 3156.15 222.92 o 1
6 -4 5 2069.74 2116.22 272.23 o 1
6 -4 6 1110.56 1164.87 221.41 o 1
6 -4 7 10.18 -67.65 85.21 < 1
6 -4 8 11.29 105.01 101.93 < 1
6 -4 9 291.58 385.73 155.30 < 1
6 -3 -8 73.41 -9.59 76.07 < 1
6 -3 -7 1.70 -23.46 97.85 < 1
6 -3 -6 2046.34 2077.65 306.45 o 1
6 -3 -5 1414.59 1534.08 259.66 o 1
6 -3 -4 8822.91 8784.18 662.61 o 1
6 -3 -3 12254.40 12038.00 481.49 o 1
6 -3 -2 20747.00 21453.80 713.00 o 1
6 -3 -1 23678.70 24373.10 769.73 o 1
6 -3 0 41076.90 42843.00 972.68 o 1
6 -3 1 33982.90 34807.10 837.27 o 1
6 -3 2 40451.10 42272.20 1001.03 o 1
6 -3 3 23986.10 23702.30 800.24 o 1
6 -3 4 18818.80 19442.00 566.66 o 1
6 -3 5 11791.10 10748.60 666.27 o 1
6 -3 6 6300.85 6121.46 498.88 o 1
6 -3 7 1934.91 1734.05 275.38 o 1
6 -3 8 497.82 522.17 155.28 o 1
6 -3 9 21.31 -15.31 86.02 < 1
6 -3 10 156.80 88.58 88.14 < 1
6 -2 -8 591.49 394.30 144.00 < 1
6 -2 -7 33.43 18.99 68.07 < 1
6 -2 -6 10.14 -25.86 76.74 < 1
6 -2 -5 1609.56 1590.34 268.30 o 1
6 -2 -4 2180.23 2059.13 170.36 o 1
6 -2 -3 3384.69 3464.70 214.08 o 1
6 -2 -2 6639.81 7391.16 563.08 o 1
6 -2 -1 5454.00 6110.11 502.44 o 1
6 -2 0 7937.43 7600.56 562.75 o 1
6 -2 1 11893.80 11509.90 322.39 o 1
6 -2 2 4664.32 4670.01 191.29 o 1
6 -2 3 8662.98 8782.46 302.20 o 1
6 -2 4 2754.77 2875.66 204.98 o 1
6 -2 5 1966.89 2079.58 148.80 o 1
6 -2 6 1704.86 1825.47 181.76 o 1
6 -2 7 780.79 811.00 131.63 o 1
6 -2 8 53.43 133.95 74.73 < 1
6 -2 9 16.74 17.84 61.52 < 1
6 -2 10 740.65 892.11 222.15 o 1
6 -1 -8 0.91 45.35 89.86 < 1
6 -1 -7 495.64 401.89 154.39 < 1
6 -1 -6 3.79 22.33 60.44 < 1
6 -1 -5 755.12 801.98 191.74 o 1
6 -1 -4 236.03 195.53 60.97 o 1
6 -1 -3 26.95 20.87 88.94 < 1
6 -1 -2 2688.41 2969.34 336.28 o 1
6 -1 -1 278.58 226.81 106.74 < 1
6 -1 0 4108.04 4220.55 389.47 o 1
6 -1 1 2385.78 2549.09 299.89 o 1
6 -1 2 5588.75 5347.20 186.60 o 1
6 -1 3 2490.75 2607.01 134.39 o 1
6 -1 4 3577.07 3794.23 184.50 o 1
6 -1 5 1106.40 1193.51 207.69 o 1
6 -1 6 3412.54 3444.03 193.27 o 1
6 -1 7 40.54 74.81 63.34 < 1
6 -1 8 93.70 95.34 59.51 < 1
6 -1 9 369.94 414.71 96.32 o 1
6 -1 10 236.97 288.24 140.80 < 1
6 -1 11 746.38 465.38 168.14 < 1
6 0 -7 3.74 63.11 113.99 < 1
6 0 -6 21.68 55.69 62.74 < 1
6 0 -5 3154.90 3304.75 242.95 o 1
6 0 -4 1960.28 1795.17 162.12 o 1
6 0 -3 23459.30 22051.00 722.95 o 1
6 0 -2 8584.41 8167.69 588.54 o 1
6 0 -1 36927.40 34959.10 1585.62 o 1
6 0 0 15296.90 15735.80 861.11 o 1
6 0 1 51074.40 49343.00 2066.93 o 1
6 0 2 28017.80 28333.10 663.20 o 1
6 0 3 47599.30 49913.80 1379.29 o 1
6 0 4 12815.10 13171.20 382.36 o 1
6 0 5 30428.30 30755.40 953.18 o 1
6 0 6 7831.65 7699.94 295.12 o 1
6 0 7 14885.00 15526.90 591.48 o 1
6 0 8 1221.18 1207.54 138.05 o 1
6 0 9 1468.93 1870.88 173.75 o 1
6 0 10 240.81 487.37 169.14 < 1
6 0 11 242.39 277.37 139.94 < 1
6 1 -6 22.33 130.50 66.90 < 1
6 1 -5 440.06 408.61 97.47 o 1
6 1 -4 1954.07 1965.15 138.34 o 1
6 1 -3 85.97 151.79 45.90 o 1
6 1 -2 6108.32 6216.03 225.80 o 1
6 1 -1 872.50 799.93 174.57 o 1
6 1 0 9970.33 9997.83 642.03 o 1
6 1 1 7035.35 6584.21 338.08 o 1
6 1 2 19018.40 18803.30 512.41 o 1
6 1 3 5584.00 5520.36 179.74 o 1
6 1 4 12303.50 12334.40 360.55 o 1
6 1 5 104.97 165.80 57.44 < 1
6 1 6 4225.39 4419.14 203.45 o 1
6 1 7 408.59 404.10 68.81 o 1
6 1 8 662.01 701.39 104.17 o 1
6 1 9 709.91 962.78 120.83 o 1
6 1 10 30.66 137.74 117.34 < 1
6 1 11 1013.59 1348.02 266.61 o 1
6 1 12 4.17 -48.74 100.15 < 1
6 3 -6 7.57 8.72 59.45 < 1
6 3 -5 0.53 71.23 67.84 < 1
6 3 -4 1994.30 2445.03 275.44 o 1
6 3 -3 5190.99 5112.42 282.50 o 1
6 3 -2 12801.10 14004.00 449.80 o 1
6 3 -1 16188.90 16803.80 498.80 o 1
6 3 0 25349.70 26680.60 585.47 o 1
6 3 1 22121.10 21733.30 514.79 o 1
6 3 2 46319.70 47697.60 965.24 o 1
6 3 3 37395.00 38853.10 805.20 o 1
6 3 4 33959.70 34096.90 837.70 o 1
6 3 5 21062.00 21973.30 502.64 o 1
6 3 6 20560.40 22011.80 594.52 o 1
6 3 7 11003.20 12102.10 387.74 o 1
6 3 8 9661.86 9726.57 620.71 o 1
6 3 9 1652.11 1509.24 249.26 o 1
6 3 10 330.99 586.05 167.09 o 1
6 3 11 10.08 83.22 112.27 < 1
6 3 12 1066.67 1036.46 247.25 o 1
-6 -4 -12 354.53 273.98 121.37 < -2
6 4 -6 354.53 273.98 121.37 < 1
-6 -4 -11 134.21 125.49 80.22 < -2
6 4 -5 134.21 125.49 80.22 < 1
-6 -4 -10 87.96 18.23 57.73 < -2
6 4 -4 87.96 18.23 57.73 < 1
-6 -4 -9 506.20 491.60 98.61 o -2
6 4 -3 506.20 491.60 98.61 o 1
-6 -4 -8 1202.94 1117.92 132.48 o -2
6 4 -2 1202.94 1117.92 132.48 o 1
-6 -4 -7 3397.03 3515.88 175.01 o -2
6 4 -1 3397.03 3515.88 175.01 o 1
-6 -4 -6 3578.87 3146.16 299.78 o -2
6 4 0 3578.87 3146.16 299.78 o 1
-6 -4 -5 4433.46 4656.41 354.14 o -2
6 4 1 4433.46 4656.41 354.14 o 1
-6 -4 -4 4021.10 4357.89 262.97 o -2
6 4 2 4021.10 4357.89 262.97 o 1
-6 -4 -3 8133.40 8907.90 380.74 o -2
6 4 3 8133.40 8907.90 380.74 o 1
-6 -4 -2 2897.79 3043.02 162.44 o -2
6 4 4 2897.79 3043.02 162.44 o 1
-6 -4 -1 3440.32 3784.17 183.26 o -2
6 4 5 3440.32 3784.17 183.26 o 1
-6 -4 0 2070.82 2292.79 140.31 o -2
6 4 6 2070.82 2292.79 140.31 o 1
-6 -4 1 1341.62 1384.38 129.62 o -2
6 4 7 1341.62 1384.38 129.62 o 1
-6 -4 2 506.30 465.15 142.49 o -2
6 4 8 506.30 465.15 142.49 o 1
-6 -4 3 78.51 271.25 127.96 < -2
6 4 9 78.51 271.25 127.96 < 1
-6 -4 4 285.55 323.28 135.49 < -2
6 4 10 285.55 323.28 135.49 < 1
-6 -4 5 85.91 232.41 138.89 < -2
6 4 11 85.91 232.41 138.89 < 1
-6 -4 6 449.99 315.90 148.66 < -2
6 4 12 449.99 315.90 148.66 < 1
6 5 -6 20.99 -95.03 91.69 < 1
6 5 -5 625.87 1025.12 221.64 o 1
6 5 -4 392.11 246.42 111.76 < 1
6 5 -3 116.19 119.90 73.59 < 1
6 5 -2 1712.25 1867.32 246.34 o 1
6 5 -1 796.55 780.19 91.81 o 1
6 5 0 4510.68 4605.67 267.35 o 1
6 5 1 710.92 733.55 105.37 o 1
6 5 2 9529.71 9986.75 422.71 o 1
6 5 3 2787.45 2696.89 165.46 o 1
6 5 4 8156.76 8507.70 312.93 o 1
6 5 5 4767.91 4991.88 228.26 o 1
6 5 6 4369.18 4907.00 228.16 o 1
6 5 7 2794.39 3065.19 208.55 o 1
6 5 8 4009.89 4233.42 244.55 o 1
6 5 9 724.06 860.37 199.19 o 1
6 5 10 924.56 735.54 202.51 o 1
6 5 11 5.18 -87.82 113.50 < 1
6 5 12 270.01 108.12 104.57 < 1
6 7 -5 326.00 188.40 125.13 < 1
6 7 -4 17.19 55.14 81.97 < 1
6 7 -3 128.30 149.55 106.00 < 1
6 7 -2 1691.36 1714.64 186.61 o 1
6 7 -1 406.94 547.22 143.34 o 1
6 7 0 7247.43 7476.49 523.78 o 1
6 7 1 1283.78 1434.58 209.02 o 1
6 7 2 5370.82 5857.88 458.37 o 1
6 7 3 1531.69 1534.38 231.96 o 1
6 7 4 5061.63 5461.96 464.55 o 1
6 7 5 505.96 619.63 173.47 o 1
6 7 6 5564.16 5439.34 329.58 o 1
6 7 7 190.45 261.12 79.73 o 1
6 7 8 4835.49 5308.25 512.18 o 1
6 7 9 12.25 295.80 152.21 < 1
6 7 10 314.54 272.46 136.94 < 1
6 7 11 235.53 158.33 124.87 < 1
6 8 -4 60.36 105.22 93.70 < 1
6 8 -3 2.91 82.73 88.50 < 1
6 8 -2 468.14 353.33 95.38 o 1
6 8 -1 200.07 66.19 90.17 < 1
6 8 0 1246.49 1526.24 240.52 o 1
6 8 1 1439.94 1686..73 246.81 o 1
6 8 2 2391.74 2425.37 298.92 o 1
6 8 3 3216.03 3528.93 371.17 o 1
6 8 4 3669.51 3937.82 407.33 o 1
6 8 5 2974.09 2888.31 355.46 o 1
6 8 6 5368.51 4878.53 475.60 o 1
6 8 7 1606.88 1902.66 305.90 o 1
6 8 8 3450.19 3206.07 408.09 o 1
6 8 9 842.67 549.73 210.14 < 1
6 8 10 969.29 996.85 254.06 o 1
6 9 -2 1150.81 996.60 163.09 o 1
6 9 -1 3532.16 3291.93 288.40 o 1
6 9 0 7188.46 7388.49 586.62 o 1
6 9 1 10146.20 10581.90 723.19 o 1
6 9 2 17208.00 17404.50 998.66 o 1
6 9 3 13773.80 15992.70 960.10 o 1
6 9 4 20755.80 23338.50 1253.78 o 1
6 9 5 17600.20 18893.80 1101.73 o 1
6 9 6 15694.20 16006.50 1001.50 o 1
6 9 7 14675.10 13904.30 937.26 o 1
6 9 8 10128.50 9156.75 746.64 o 1
6 9 9 5663.79 4394.47 515.46 o 1
6 10 1 1781.77 1610.27 273.70 o 1
6 10 2 1877.88 1795.86 290.67 o 1
6 10 3 3433.56 3204.65 384.97 o 1
6 10 4 2605.88 2498.63 345.69 o 1
6 10 5 3480.31 3227.21 409.35 o 1
6 10 6 2258.63 2080.15 331.52 o 1
6 10 7 1321.94 1270.17 273.34 o 1
6 10 8 965.53 715.67 216.49 o 1
7 -6 -3 232.83 59.90 94.67 < 1
7 -6 -2 1053.05 723.86 209.33 o 1
7 -6 -1 479.57 249.46 136.84 < 1
7 -6 0 191.67 322.09 167.37 < 1
7 -6 1 237.13 217.00 151.12 < 1
7 -6 2 489.46 642.63 209.18 o 1
7 -6 3 1692.04 1604.08 298.53 o 1
7 -5 -5 8598.04 7032.61 657.01 o 1
7 -5 -4 5955.28 5258.23 544.92 o 1
7 -5 -3 5362.56 5258.43 551.66 o 1
7 -5 -2 1786.76 1759.80 308.99 o 1
7 -5 -1 1651.68 1426.78 273.73 o 1
7 -5 0 39.92 21.13 86.54 < 1
7 -5 1 175.53 161.77 118.75 < 1
7 -5 2 1694.21 1606.48 178.90 o 1
7 -5 3 3041.15 2827.23 247.21 o 1
7 -5 4 5490.01 5170.80 350.68 o 1
7 -5 5 6465.88 5359.35 489.35 o 1
7 -5 6 9278.10 7521.06 625.26 o 1
7 -5 7 9297.18 7211.15 636.41 o 1
7 -5 8 8851.69 6129.09 604.75 o 1
7 -4 -6 3158.81 2623.77 379.94 o 1
7 -4 -5 5403.89 5217.33 540.92 o 1
7 -4 -4 2744.18 2433.45 359.07 o 1
7 -4 -3 4958.03 5608.05 551.95 o 1
7 -4 -2 1251.10 1247.37 253.27 o 1
7 -4 -1 1713.12 1486.39 275.29 o 1
7 -4 0 4.41 -19.20 76.30 < 1
7 -4 1 99.33 73.95 59.92 < 1
7 -4 2 419.23 556.73 185.22 o 1
7 -4 3 264.16 408.77 101.02 o 1
7 -4 4 2484.94 2362.23 218.54 o 1
7 -4 5 1770.77 1900.72 208.25 o 1
7 -4 6 2646.25 2585.55 251.13 o 1
7 -4 7 1556.40 1732.99 212.44 o 1
7 -4 8 1507.68 1139.48 176.67 o 1
7 -4 9 912.38 769.97 211.13 o 1
7 -3 -7 1597.74 929.17 230.13 o 1
7 -3 -6 91.99 34.82 91.29 < 1
7 -3 -5 3577.91 3653.63 437.72 o 1
7 -3 -4 75.01 223.97 127.76 < 1
7 -3 -3 2496.48 2818.93 368.03 o 1
7 -3 -2 27.86 -28.34 82.36 < 1
7 -3 -1 1470.10 1431.40 260.85 o 1
7 -3 0 10.05 -41.43 99.81 < 1
7 -3 1 685.37 643.07 96.22 o 1
7 -3 2 1708.37 1566.53 117.37 o 1
7 -3 3 17.00 27.53 46.55 < 1
7 -3 4 3255.80 3018.02 184.14 o 1
7 -3 5 184.34 222.56 82.91 < 1
7 -3 6 4673.06 4751.99 328.61 o 1
7 -3 7 1930.01 1954.20 211.58 o 1
7 -3 8 5087.49 4968.23 350.50 o 1
7 -3 9 2018.58 1805.23 210.35 o 1
7 -3 10 4107.20 3035.82 415.66 o 1
7 -2 -7 5343.78 4551.45 509.30 o 1
7 -2 -6 10441.90 9870.42 769.90 o 1
7 -2 -5 7471.12 7637.90 647.32 o 1
7 -2 -4 16260.90 16363.00 1019.63 o 1
7 -2 -3 7734.16 8223.81 653.51 o 1
7 -2 -2 12369.50 13733.10 886.12 o 1
7 -2 -1 3238.80 3441.21 398.55 o 1
7 -2 0 5294.65 5443.12 501.01 o 1
7 -2 1 19.56 192.67 128.60 < 1
7 -2 2 70.19 28.76 53.44 < 1
7 -2 3 9191.39 9437.77 318.80 o 1
7 -2 4 2316.48 2396.22 197.64 o 1
7 -2 5 17001.80 17255.80 534.24 o 1
7 -2 6 9238.16 9253.04 466.07 o 1
7 -2 7 17637.40 17979.40 729.47 o 1
7 -2 8 10059.60 9802.07 499.28 o 1
7 -2 9 11388.30 11086.90 544.59 o 1
7 -2 10 5447.44 5041.96 518.21 o 1
7 0 -7 491.31 700.67 216.54 o 1
7 0 -6 1100.04 1187.54 251.25 o 1
7 0 -5 1212.48 1262.47 253.16 o 1
7 0 -4 2516.93 2931.49 374.62 o 1
7 0 -3 776.54 891.08 212.41 o 1
7 0 -2 2632.58 2689.67 346.27 o 1
7 0 -1 32.78 47.83 97.15 < 1
7 0 0 868.04 956.96 199.02 o 1
7 0 1 101.62 21.24 78.63 < 1
7 0 2 4.44 59.53 79.75 < 1
7 0 3 355.62 332.95 50.81 o 1
7 0 4 443.09 467.40 79.26 o 1
7 0 5 1586.78 1543.37 152.81 o 1
7 0 6 1463.14 1478.65 122.33 o 1
7 0 7 4546.97 4621.36 234.72 o 1
7 0 8 5409.33 5532.03 328.78 o 1
7 0 9 4548.88 4862.72 308.67 o 1
7 0 10 4701.07 4547.92 484.68 o 1
7 0 11 3918.93 3924.29 472.49 o 1
-7 -1 -11 10125.80 10374.10 805.52 o -2
7 1 -6 10125.80 10374.10 805.52 o 1
-7 -1 -10 10997.50 11997.50 865.60 o -2
7 1 -5 10997.50 11997.50 865.60 o 1
-7 -1 -9 16302.80 17668.90 1063.06 o -2
7 1 -4 16302.80 17668.90 1063.06 o 1
-7 -1 -8 19550.50 19329.10 675.71 o -2
7 1 -3 19550.50 19329.10 675.71 o 1
-7 -1 -7 14000.60 15105.60 936.34 o -2
7 1 -2 14000.60 15105.60 936.34 o 1
-7 -1 -6 13688.80 14971.60 905.78 o -2
7 1 -1 13688.80 14971.60 905.78 o 1
-7 -1 -5 3846.65 4056.59 399.67 o -2
7 1 0 3846.65 4056.59 399.67 o 1
-7 -1 -4 3038.06 2792.20 325.49 o -2
7 1 1 3038.06 2792.20 325.49 o 1
-7 -1 -3 389.05 375.34 75.99 o -2
7 1 2 389.05 375.34 75.99 o 1
-7 -1 -2 1232.99 1225.83 88.87 o -2
7 1 3 1232.99 1225.83 88.87 o 1
-7 -1 -1 3731.05 3701.47 170.31 o -2
7 1 4 3731.05 3701.47 170.31 o 1
-7 -1 0 5604.03 5665.82 227.03 o -2
7 1 5 5604.03 5665.82 227.03 o 1
-7 -1 1 17093.80 17384.10 507.18 o -2
7 1 6 17093.80 17384.10 507.18 o 1
-7 -1 2 14061.10 14160.70 452.83 o -2
7 1 7 14061.10 14160.70 452.83 o 1
-7 -1 3 23395.50 24999.30 849.81 o -2
7 1 8 23395.50 24999.30 849.81 o 1
-7 -1 4 15606.80 15837.40 618.03 o -2
7 1 9 15606.80 15837.40 618.03 o 1
-7 -1 5 11040.90 12155.50 836.42 o -2
7 1 10 11040.90 12155.50 836.42 o 1
-7 -1 6 10407.80 9954.91 774.46 o -2
7 1 11 10407.80 9954.91 774.46 o 1
-7 -1 7 8005.02 6472.44 630.73 o -2
7 1 12 8005.02 6472.44 630.73 o 1
7 2 -4 3582.46 3944.05 465.05 o 1
7 2 -3 8975.50 9348.44 446.53 o 1
7 2 -2 3866.22 4260.75 265.59 o 1
7 2 -1 6207.32 5760.04 221.81 o 1
7 2 0 1252.64 1200.63 229.49 o 1
7 2 1 2105.79 2195.00 163.69 o 1
7 2 2 3.30 -53.47 39.97 < 1
7 2 3 74.29 15.28 32.73 < 1
7 2 4 1833.05 1814.58 107.32 o 1
7 2 5 517.47 483.74 86.27 o 1
7 2 6 3382.47 3265.79 171.49 o 1
7 2 7 2097.68 2050.47 140.31 o 1
7 2 8 3969.78 4156.89 249.04 o 1
7 2 9 1683.86 1781.85 164.40 o 1
7 2 10 2314.33 2314.85 339.93 o 1
7 2 11 521.18 576.93 194.63 < 1
7 2 12 1046.79 804.20 223.68 o 1
7 4 -4 15746.90 13915.40 827.99 o 1
7 4 -3 11177.10 11018.20 677.15 o 1
7 4 -2 19861.60 21301.80 1024.71 o 1
7 4 -1 8149.24 7486.78 344.13 o 1
7 4 0 9431.82 9190.49 378.43 o 1
7 4 1 811.47 784.26 126.75 o 1
7 4 2 3730.44 3781.04 252.96 o 1
7 4 3 833.57 760.34 118.73 o 1
7 4 4 86.51 131.68 45.50 < 1
7 4 5 5745.25 5868.14 219.05 o 1
7 4 6 1593.59 1716.66 110.10 o 1
7 4 7 13289.00 13254.00 515.60 o 1
7 4 8 9081.24 9726.66 664.27 o 1
7 4 9 22552.50 25201.90 1319.52 o 1
7 4 10 9567.38 10184.80 528.23 o 1
7 4 11 15729.70 14773.40 961.15 o 1
7 4 12 6386.84 5552.13 569.45 o 1
7 5 -4 3776.75 3085.62 366.91 o 1
7 5 -3 4176.02 4004.24 398.50 o 1
7 5 -2 5818.04 5706.33 457.93 o 1
7 5 -1 4488.93 4658.15 262.17 o 1
7 5 0 2199.65 2126.34 174.99 o 1
7 5 1 3819.77 3852.34 233.38 o 1
7 5 2 527.86 553.00 85.27 o 1
7 5 3 937.23 1125.56 120.48 o 1
7 5 4 664.78 752.42 105.66 o 1
7 5 5 932.33 978.91 102.71 o 1
7 5 6 2772.80 3064.50 221.88 o 1
7 5 7 1296.44 1300.41 141.66 o 1
7 5 8 3444.23 3376.39 373.87 o 1
7 5 9 1379.33 1368.44 259.84 o 1
7 5 10 2689.76 3025.44 399.09 o 1
7 5 11 559.53 794.16 218.79 o 1
7 5 12 1160.16 981.32 257.26 o 1
7 6 -3 702.99 711.92 179.32 o 1
7 6 -2 2367.40 2460.58 312.67 o 1
7 6 -1 1011.28 888.35 122.12 o 1
7 6 0 3151.08 3359.76 314.72 o 1
7 6 1 740.72 1036.75 165.07 o 1
7 6 2 415.62 424.31 116.07 o 1
7 6 3 25.67 46.60 85.99 < 1
7 6 4 3.74 65.72 63.63 < 1
7 6 5 588.65 742.52 176.69 o 1
7 6 6 340.44 401.76 94.88 o 1
7 6 7 3097.46 3326.77 244.37 o 1
7 6 8 3169.38 3217.70 381.57 o 1
7 6 9 4075.95 4825.59 498.73 o 1
7 6 10 3998.12 4311.35 486.96 o 1
7 6 11 2872.14 2923.74 414.85 o 1
7 7 -3 8727.43 7146.04 627.41 o 1
7 7 -2 10032.10 8082.37 650.91 o 1
7 7 -1 11314.40 10117.20 489.16 o 1
7 7 0 7289.53 7221.53 518.28 o 1
7 7 1 6784.62 7590.74 532.01 o 1
7 7 2 3007.98 3245.69 331.04 o 1
7 7 3 1292.24 1336.21 215.71 o 1
7 7 4 72.30 101.06 103.99 < 1
7 7 5 921.84 1042.24 215.16 o 1
7 7 6 3078.98 3027.86 353.46 o 1
7 7 7 3992.45 4411.39 454.99 o 1
7 7 8 8700.76 9580.60 729.67 o 1
7 7 9 8269.71 8767.73 709.93 o 1
7 7 10 10621.50 9878.41 793.77 o 1
7 7 11 8564.54 7768.82 714.95 o 1
7 8 -3 4166.66 2769.04 396.55 o 1
7 8 -2 2566.67 1871.03 315.91 o 1
7 8 -1 5036.83 4224.99 313.12 o 1
7 8 0 835.18 892.48 183.88 o 1
7 8 1 2009.74 2082.87 277.31 o 1
7 8 2 313.58 208.25 118.36 < 1
7 8 3 796.80 876.70 195.77 o 1
7 8 4 4.59 55.98 95.89 < 1
7 8 5 18.07 -1.28 98.92 < 1
7 8 6 1023.27 952.99 212.68 o 1
7 8 7 211.28 182.15 140.57 < 1
7 8 8 927.25 1166.52 261.09 o 1
7 8 9 808.29 597.71 199.16 o 1
7 8 10 1580.63 1037.70 265.44 o 1
7 9 -1 2056.19 1725.63 208.36 o 1
7 9 0 245.12 217.73 107.52 < 1
7 9 1 2155.93 1849.56 273.10 o 1
7 9 2 22.23 66.97 86.28 < 1
7 9 3 677.77 745.93 184.45 o 1
7 9 4 182.59 142.13 106.42 < 1
7 9 5 279.43 216.98 136.62 < 1
7 9 6 702.85 788.29 216.48 o 1
7 9 7 22.16 -17.97 84.42 < 1
7 9 8 2712.66 2024.64 341.20 o 1
7 9 9 707.43 391.02 186.56 < 1
8 -5 -1 2038.78 1524.40 312.48 o 1
8 -5 0 166.03 4.47 117.60 < 1
8 -5 1 2996.30 2221.11 355.60 o 1
8 -5 2 560.61 730.02 211.37 o 1
8 -5 3 1562.51 1500.27 295.93 o 1
8 -5 4 559.51 838.44 239.20 o 1
8 -5 5 1359.79 1055.23 268.19 o 1
8 -3 -4 936.31 854.03 225.08 o 1
8 -3 -3 896.56 793.00 229.78 o 1
8 -3 -2 1932.20 2060.97 341.10 o 1
8 -3 -1 2468.41 2717.56 387.20 o 1
8 -3 0 4839.98 5143.89 545.44 o 1
8 -3 1 2744.00 3165.22 414.47 o 1
8 -3 2 5592.60 5566.45 552.72 o 1
8 -3 3 2342.14 2234.22 344.17 o 1
8 -3 4 2152.21 2355.85 354.03 o 1
8 -3 5 893.66 918.12 229.60 o 1
8 -3 6 284.07 194.54 89.34 < 1
8 -3 7 94.15 123.24 70.66 < 1
8 -3 8 32.56 32.08 53.76 < 1
8 -3 9 123.26 113.00 93.96 < 1
-8 2 -9 161.18 6.77 73.40 < -2
8 -2 -5 161.18 6.77 73.40 < 1
-8 2 -8 77.60 66.51 93.18 < -2
8 -2 -4 77.60 66.51 93.18 < 1
-8 2 -7 389.00 463.22 179.62 < -2
8 -2 -3 389.00 463.22 179.62 < 1
-8 2 -6 1300.45 1141.83 246.92 o -2
8 -2 -2 1300.45 1141.83 246.92 o 1
-8 2 -5 1697.94 2041.68 328.42 o -2
8 -2 -1 1697.94 2041.68 328.42 o 1
-8 2 -4 2349.26 2712.83 369.93 o -2
8 -2 0 2349.26 2712.83 369.93 o 1
-8 2 -3 2054.63 2320.90 344.10 o -2
8 -2 1 2054.63 2320.90 344.10 o 1
-8 2 -2 4993.52 6291.73 581.36 o -2
8 -2 2 4993.52 6291.73 581.36 o 1
-8 2 -1 2178.70 2647.72 363.47 o -2
8 -2 3 2178.70 2647.72 363.47 o 1
-8 2 0 3195.72 3176.40 237.91 o -2
8 -2 4 3195.72 3176.40 237.91 o 1
-8 2 1 2557.87 2591.85 225.64 o -2
8 -2 5 2557.87 2591.85 225.64 o 1
-8 2 2 1758.28 1856.08 200.07 o -2
8 -2 6 1758.28 1856.08 200.07 o 1
-8 2 3 846.31 923.16 144.88 o -2
8 -2 7 846.31 923.16 144.88 o 1
-8 2 4 81.72 139.31 69.90 < -2
8 -2 8 81.72 139.31 69.90 < 1
-8 2 5 110.58 114.36 90.51 < -2
8 -2 9 110.58 114.36 90.51 < 1
-8 2 6 9.93 -81.37 92.73 < -2
8 -2 10 9.93 -81.37 92.73 < 1
8 -1 -5 195.09 72.52 120.29 < 1
8 -1 -4 3677.88 3384.51 438.28 o 1
8 -1 -3 4100.00 4072.38 468.78 o 1
8 -1 -2 13919.90 14695.00 972.19 o 1
8 -1 -1 12120.70 13501.40 913.10 o 1
8 -1 0 21311.30 24210.20 1315.68 o 1
8 -1 1 21926.70 22708.90 1261.67 o 1
8 -1 2 31492.20 35020.10 1722.89 o 1
8 -1 4 22330.20 22665.30 752.98 o 1
8 -1 5 12395.60 13269.50 884.20 o 1
8 -1 6 11873.90 12573.90 556.76 o 1
8 -1 7 5744.07 6123.79 370.08 o 1
8 -1 8 3068.64 3156.88 259.08 o 1
8 -1 9 564.19 469.38 104.05 o 1
8 -1 10 57.13 38.87 68.31 < 1
8 -1 11 200.31 219.40 139.83 < 1
8 1 -5 149.63 -233.71 144.09 < 1
8 1 -4 154.49 132.86 123.09 < 1
8 1 -3 648.31 791.10 213.34 o 1
8 1 -2 159.58 153.10 118.88 < 1
8 1 -1 3169.60 3534.92 417.92 o 1
8 1 0 256.55 439.13 153.50 < 1
8 1 1 7215.63 7405.06 610.65 o 1
8 1 2 801.64 567.54 174.09 o 1
8 1 3 10279.60 9688.10 408.08 o 1
8 1 4 1554.08 1496.87 147.79 o 1
8 1 5 5218.26 5327.35 297.93 o 1
8 1 6 1361.52 1382.40 145.05 o 1
8 1 7 3932.02 4574.84 278.26 o 1
8 1 8 161.85 200.28 70.09 < 1
8 1 9 1303.64 1395.97 159.42 o 1
8 1 10 321.36 630.95 175.89 o 1
8 1 11 82.67 101.77 116.32 < 1
8 2 -4 1172.29 1412.03 292.14 o 1
8 2 -3 2995.69 3644.14 457.31 o 1
8 2 -2 9454.79 10634.80 799.06 o 1
8 2 -1 13021.50 14092.80 938.43 o 1
8 2 0 18475.00 20031.20 1161.82 o 1
8 2 1 21408.80 21519.70 1203.76 o 1
8 2 2 34475.80 33304.30 982.63 o 1
8 2 3 32885.10 32983.90 1030.87 o 1
8 2 4 35354.60 36305.40 891.07 o 1
8 2 5 20923.80 21015.40 739.92 o 1
8 2 6 18245.00 18350.90 544.62 o 1
8 2 7 10614.30 11225.00 470.67 o 1
8 2 8 9986.43 10404.30 450.90 o 1
8 2 9 1538.14 1669.40 163.14 o 1
8 2 10 1957.81 1870.19 298.23 o 1
8 2 11 48.57 -17.16 100.25 < 1
8 2 12 24.57 -7.24 89.44 < 1
8 3 -2 2103.61 2759.84 395.66 o 1
8 3 -1 2693.61 3258.07 419.21 o 1
8 3 0 3623.69 4259.84 463.66 o 1
8 3 1 4267.27 4188.35 190.32 o 1
8 3 2 6962.46 7218.00 262.03 o 1
8 3 3 5296.60 5781.11 240.86 o 1
8 3 4 7679.75 7932.05 384.97 o 1
8 3 5 3255.14 3357.51 185.01 o 1
8 3 6 2691.52 2890.31 176.04 o 1
8 3 7 1745.95 1912.40 176.33 o 1
8 3 8 785.77 830.46 120.83 o 1
8 3 9 298.00 177.45 96.29 < 1
8 3 10 23.76 -8.20 72.12 < 1
8 3 11 28.98 115.30 117.47 < 1
8 3 12 33.34 -59.14 120.42 < 1
8 4 0 353.52 497.05 105.15 o 1
8 4 1 1600.67 1551.31 169.63 o 1
8 4 2 2259.15 2260.59 198.81 o 1
8 4 3 2074.40 2181.29 200.24 o 1
8 4 4 7192.41 7183.60 293.32 o 1
8 4 5 1404.81 1290.94 118.32 o 1
8 4 6 3149.28 3309.66 195.80 o 1
8 4 7 1610.32 1867.22 180.74 o 1
8 4 8 737.11 757.22 178.39 o 1
8 4 9 843.56 863.93 207.39 o 1
8 4 10 163.30 124.42 115.56 < 1
8 4 11 36.41 -30.43 90.56 < 1
8 4 12 30.37 40.17 80.38 < 1
8 5 0 14197.40 14027.60 517.79 o 1
8 5 1 11867.20 11564.80 620.12 o 1
8 5 2 22726.40 24561.20 1091.16 o 1
8 5 3 23005.50 23553.40 754.91 o 1
8 5 4 29981.20 30554.20 949.19 o 1
8 5 5 22020.20 22257.50 761.60 o 1
8 5 6 20143.00 21829.80 1118.14 o 1
8 5 7 10341.20 11651.60 740.93 o 1
8 5 8 12645.90 14199.40 886.26 o 1
8 5 9 3562.06 3763.05 432.72 o 1
8 5 10 2443.79 2870.74 391.16 o 1
8 5 11 402.30 179.13 130.62 < 1
8 6 0 742.59 753.76 110.46 o 1
8 6 1 6540.62 6665.92 460.08 o 1
8 6 2 1530.40 1775.32 220.26 o 1
8 6 3 7265.44 8038.89 532.39 o 1
8 6 4 2138.12 2534.79 290.27 o 1
8 6 5 6826.19 6981.81 526.49 o 1
8 6 6 870.71 826.33 188.74 o 1
8 6 7 4382.92 4310.12 428.46 o 1
8 6 8 409.43 650.04 185.61 o 1
8 6 9 1481.95 1795.07 304.08 o 1
8 6 10 24.86 247.99 138.05 < 1
8 6 11 38.32 110.10 109.24 < 1
8 8 -1 1327.19 1011.24 204.22 o 1
8 8 0 5160.98 4616.61 323.90 o 1
8 8 1 6914.87 6567.31 525.22 o 1
8 8 2 10623.40 10974.00 707.90 o 1
8 8 3 11741.40 11922.60 753.55 o 1
8 8 4 16633.70 17361.00 988.55 o 1
8 8 5 13115.90 14155.40 889.52 o 1
8 8 6 16467.30 16924.40 1007.66 o 1
8 8 7 9110.74 9445.60 721.55 o 1
8 8 8 10011.40 9654.33 760.35 o 1
8 8 9 4749.13 4107.65 492.77 o 1
8 8 10 3079.50 1829.85 344.78 o 1
-8 -9 -10 512.12 412.26 105.77 o -2
8 9 0 512.12 412.26 105.77 o 1
-8 -9 -9 1237.01 819.05 190.78 o -2
8 9 1 1237.01 819.05 190.78 o 1
-8 -9 -8 2120.03 2086.44 290.08 o -2
8 9 2 2120.03 2086.44 290.08 o 1
-8 -9 -7 1538.08 1407.28 243.72 o -2
8 9 3 1538.08 1407.28 243.72 o 1
-8 -9 -6 2926.69 2538.00 339.79 o -2
8 9 4 2926.69 2538.00 339.79 o 1
-8 -9 -5 1915.50 1977.51 300.17 o -2
8 9 5 1915.50 1977.51 300.17 o 1
-8 -9 -4 2077.94 2238.13 333.13 o -2
8 9 6 2077.94 2238.13 333.13 o 1
-8 -9 -3 1219.23 718.33 215.65 o -2
8 9 7 1219.23 718.33 215.65 o 1
-8 -9 -2 1115.11 745.16 231.28 o -2
8 9 8 1115.11 745.16 231.28 o 1
8 10 3 1437.17 1074.76 227.98 o 1
8 10 4 1968.08 1923.19 297.63 o 1
8 10 5 1542.43 1709.52 292.19 o 1
8 10 6 2744.76 2159.42 340.67 o 1
9 -4 2 4.43 352.61 173.26 < 1
9 -4 3 1064.35 783.09 239.30 o 1
9 -4 4 527.17 273.15 155.46 < 1
9 -4 5 1307.90 1318.80 295.26 o 1
9 -2 -2 5342.17 5236.87 572.67 o 1
9 -2 -1 556.60 533.31 187.86 < 1
9 -2 0 1218.96 1432.88 289.85 o 1
9 -2 1 13.12 79.62 116.29 < 1
9 -2 2 79.63 91.76 128.68 < 1
9 -2 3 563.72 698.16 221.56 o 1
9 -2 4 33.81 313.80 184.68 < 1
9 -2 5 2838.47 3116.21 430.54 o 1
9 -2 6 396.79 402.59 185.79 < 1
9 -2 7 3734.70 3694.60 464.11 o 1
9 -2 8 965.18 687.97 194.85 o 1
9 -1 -3 1016.48 936.69 253.62 o 1
9 -1 -2 737.05 588.74 196.20 o 1
9 -1 -1 151.41 317.36 149.37 < 1
9 -1 0 402.54 519.05 183.34 < 1
9 -1 1 42.89 -100.41 125.57 < 1
9 -1 2 158.96 280.73 161.98 < 1
9 -1 3 331.54 445.06 176.33 < 1
9 -1 4 131.88 74.08 126.61 < 1
9 -1 5 1154.20 1409.43 281.95 o 1
9 -1 6 356.00 469.75 182.73 < 1
9 -1 7 2608.32 2149.81 335.58 o 1
9 -1 8 2021.20 2128.46 323.58 o 1
9 0 -3 8773.93 7635.44 705.26 o 1
9 0 -2 10784.80 11370.00 872.56 o 1
9 0 -1 5151.03 5267.10 551.92 o 1
9 0 0 5830.00 6527.34 613.90 o 1
9 0 1 1466.16 1665.99 309.65 o 1
9 0 2 581.87 275.41 157.64 < 1
9 0 3 257.98 137.93 118.54 < 1
9 0 4 1756.44 1686.09 304.30 o 1
9 0 5 5094.11 5625.25 550.16 o 1
9 0 6 6258.77 5781.84 559.02 o 1
9 0 7 10610.90 11725.10 825.82 o 1
9 0 8 11246.50 10754.40 763.73 o 1
9 1 -3 4638.64 3972.97 491.09 o 1
9 1 -2 4145.75 4333.13 509.27 o 1
9 1 -1 4234.22 4585.35 515.11 o 1
9 1 0 770.17 663.35 201.20 o 1
9 1 1 1140.93 990.97 233.85 o 1
9 1 2 13.97 30.30 101.19 < 1
9 1 3 6.01 38.69 98.06 < 1
9 1 4 55.40 143.07 116.92 < 1
9 1 5 539.68 412.82 163.23 < 1
9 1 6 1134.49 1041.08 139.82 o 1
9 1 7 1317.80 1147.54 139.64 o 1
9 1 8 3153.27 3004.63 230.04 o 1
9 1 9 1834.93 1413.63 226.44 o 1
9 1 10 2010.19 1684.33 276.91 o 1
9 1 11 1108.90 877.65 216.39 o 1
9 2 -3 449.72 549.23 206.48 < 1
9 2 -2 1870.12 2225.66 365.81 o 1
9 2 -1 766.69 926.85 244.96 o 1
9 2 0 1155.27 1163.15 257.13 o 1
9 2 1 203.16 100.94 108.20 < 1
9 2 2 674.11 1045.63 248.48 o 1
9 2 3 57.57 99.94 111.51 < 1
9 2 4 2.52 70.29 60.84 < 1
9 2 5 936.63 840.79 217.36 o 1
9 2 6 685.05 700.46 115.01 o 1
9 2 7 1979.46 1883.69 184.54 o 1
9 2 8 2900.50 2763.41 227.39 o 1
9 2 9 3521.94 3279.72 346.63 o 1
9 2 10 2541.82 2603.25 334.60 o 1
9 2 11 2900.06 2824.10 383.03 o 1
9 3 -2 7759.17 8007.13 737.70 o 1
9 3 -1 13562.30 16509.70 1116.96 o 1
9 3 0 3195.86 3831.19 477.83 o 1
9 3 1 5465.04 6558.00 621.98 o 1
9 3 2 143.12 353.04 166.63 < 1
9 3 3 1208.26 1044.43 131.85 o 1
9 3 4 1396.01 1446.61 277.72 o 1
9 3 5 245.89 274.13 85.24 o 1
9 3 6 5467.09 5836.51 341.01 o 1
9 3 7 3101.44 3280.83 247.88 o 1
9 3 8 12799.60 13631.30 582.12 o 1
9 3 9 8278.96 8066.06 639.06 o 1
9 3 10 13400.20 13035.90 902.29 o 1
9 3 11 6157.62 5727.87 546.30 o 1
9 3 12 8053.22 6015.22 585.69 o 1
9 5 2 1056.04 1182.46 159.02 o 1
9 5 3 45.02 -11.96 57.23 < 1
9 5 4 23.62 -17.97 65.77 < 1
9 5 5 319.17 294.57 110.24 < 1
9 5 6 270.74 233.72 107.00 < 1
9 5 7 2752.83 2752.40 335.13 o 1
9 5 8 1350.97 1685.40 273.03 o 1
9 5 9 5014.05 5339.95 519.47 o 1
9 5 10 2058.28 1944.45 326.41 o 1
9 5 11 3064.76 2614.16 396.53 o 1
-9 -6 -7 3596.19 3472.00 307.67 o -2
9 6 2 3596.19 3472.00 307.67 o 1
-9 -6 -6 1028.53 862.46 160.59 o -2
9 6 3 1028.53 862.46 160.59 o 1
-9 -6 -5 184.92 79.23 75.81 < -2
9 6 4 184.92 79.23 75.81 < 1
-9 -6 -4 310.30 289.85 116.95 < -2
9 6 5 310.30 289.85 116.95 < 1
-9 -6 -3 1398.52 1189.19 213.43 o -2
9 6 6 1398.52 1189.19 213.43 o 1
-9 -6 -2 3385.49 2899.51 361.75 o -2
9 6 7 3385.49 2899.51 361.75 o 1
-9 -6 -1 5295.71 4810.42 490.87 o -2
9 6 8 5295.71 4810.42 490.87 o 1
-9 -6 0 8900.47 9238.39 726.16 o -2
9 6 9 8900.47 9238.39 726.16 o 1
-9 -6 1 9938.40 8390.62 724.79 o -2
9 6 10 9938.40 8390.62 724.79 o 1
-9 -6 2 9882.35 7259.65 693.88 o -2
9 6 11 9882.35 7259.65 693.88 o 1
9 7 2 339.17 341.43 110.14 o 1
9 7 3 1298.73 1240.62 199.45 o 1
9 7 4 95.56 37.04 72.36 < 1
9 7 5 51.81 113.63 91.29 < 1
9 7 6 248.55 286.28 127.35 < 1
9 7 7 757.90 616.36 178.62 o 1
9 7 8 847.94 712.52 205.40 o 1
9 7 9 531.83 288.54 144.70 < 1
9 7 10 1685.32 1322.63 283.94 o 1
9 9 2 2661.59 2077.08 291.08 o 1
9 9 3 4106.31 3244.67 371.60 o 1
9 9 4 322.87 409.42 149.79 < 1
9 9 5 636.30 521.03 165.27 o 1
9 9 6 1176.11 1153.71 239.67 o 1
9 9 7 803.66 713.65 208.09 o 1
9 9 8 4359.60 2981.70 414.87 o 1
10 -2 2 14837.40 12410.90 972.10 o 1
10 -2 3 13804.20 11970.70 954.08 o 1
10 -2 4 13285.60 12366.90 976.59 o 1
10 -2 5 8879.96 8323.50 777.46 o 1
10 -2 6 9117.31 7610.58 751.86 o 1
10 -2 7 4865.77 4553.12 554.40 o 1
10 -1 0 3810.37 3262.18 466.18 o 1
10 -1 2 5849.94 6144.16 644.00 o 1
10 -1 3 3865.10 3688.17 488.16 o 1
10 -1 4 4267.59 4771.10 558.22 o 1
10 -1 5 2256.02 2333.77 389.72 o 1
10 -1 6 1343.00 1342.07 298.24 o 1
10 -1 7 461.42 505.31 189.48 < 1
10 -1 8 482.29 430.44 170.46 < 1
10 0 0 1815.36 1746.08 340.19 o 1
10 0 1 68.99 89.94 122.30 < 1
10 0 2 2676.89 3190.72 453.86 o 1
10 0 3 441.36 688.02 214.53 o 1
10 0 4 2206.93 1938.28 340.23 o 1
10 0 5 537.72 520.71 203.98 < 1
10 0 6 1625.94 1762.42 337.56 o 1
10 0 7 329.13 373.80 161.52 < 1
10 0 8 1135.60 1127.02 246.83 o 1
10 2 0 2911.72 3398.72 464.94 o 1
10 2 1 1957.91 2639.90 412.52 o 1
10 2 2 3535.59 4027.33 499.85 o 1
10 2 3 2334.39 2214.79 366.35 o 1
10 2 4 3896.14 3991.34 483.32 o 1
10 2 5 1472.19 1533.13 292.01 o 1
10 2 6 2111.64 2177.45 345.63 o 1
10 2 7 630.01 468.63 165.42 < 1
10 2 8 1186.36 943.60 204.59 o 1
-10 -3 -8 695.10 810.33 247.24 o -2
10 3 0 695.10 810.33 247.24 o 1
-10 -3 -7 1051.57 1114.63 273.58 o -2
10 3 1 1051.57 1114.63 273.58 o 1
-10 -3 -6 825.76 1098.68 274.18 o -2
10 3 2 825.76 1098.68 274.18 o 1
-10 -3 -5 2360.64 2715.91 408.29 o -2
10 3 3 2360.64 2715.91 408.29 o 1
-10 -3 -4 1438.95 1722.97 332.05 o -2
10 3 4 1438.95 1722.97 332.05 o 1
-10 -3 -3 2233.06 2439.39 378.33 o -2
10 3 5 2233.06 2439.39 378.33 o 1
-10 -3 -2 1458.80 1245.86 267.63 o -2
10 3 6 1458.80 1245.86 267.63 o 1
-10 -3 -1 1141.01 1383.52 259.75 o -2
10 3 7 1141.01 1383.52 259.75 o 1
-10 -3 0 1433.29 1332.15 240.60 o -2
10 3 8 1433.29 1332.15 240.60 o 1
-10 -3 1 700.84 683.46 178.87 o -2
10 3 9 700.84 683.46 178.87 o 1
-10 -3 2 231.96 119.53 99.94 < -2
10 3 10 231.96 119.53 99.94 < 1
10 4 0 6853.11 7596.58 728.67 o 1
10 4 1 8951.96 9458.32 829.05 o 1
10 4 2 11484.60 14046.40 1050.01 o 1
10 4 3 15925.60 19003.60 1249.18 o 1
10 4 4 20389.70 22643.40 1381.77 o 1
10 4 5 16188.60 16950.70 1118.52 o 1
10 4 6 14460.80 16884.70 1063.38 o 1
10 4 7 8501.67 7917.35 432.43 o 1
10 4 8 6772.06 6315.53 378.97 o 1
10 4 9 3628.53 3280.09 390.42 o 1
10 4 10 1727.26 1421.07 272.05 o 1
10 4 11 217.18 122.83 107.44 < 1
10 6 6 4943.85 4127.53 402.92 o 1
10 6 7 1048.43 862.73 196.58 o 1
10 6 8 2426.32 1783.32 289.43 o 1
10 6 9 274.95 101.93 100.18 < 1
10 6 10 979.19 773.61 223.96 o 1
10 7 6 9672.81 7953.45 611.11 o 1
10 7 7 13097.80 11550.90 796.93 o 1
10 7 8 6746.50 5692.27 542.33 o 1
10 7 9 8745.48 6976.51 636.91 o 1
10 7 10 2658.17 1607.84 311.60 o 1
10 8 6 3139.67 2599.98 347.45 o 1
10 8 7 992.07 805.73 198.43 o 1
10 8 8 1516.71 1192.75 251.21 o 1
10 8 9 317.55 7.18 88.50 < 1
-11 0 -3 22.84 17.95 114.75 < -2
11 0 4 22.84 17.95 114.75 < 1
-11 0 -2 394.95 407.82 176.98 < -2
11 0 5 394.95 407.82 176.98 < 1
-11 0 -1 606.68 483.26 194.61 < -2
11 0 6 606.68 483.26 194.61 < 1
-11 0 0 1711.77 1366.92 303.20 o -2
11 0 7 1711.77 1366.92 303.20 o 1
11 1 3 0.92 12.54 133.43 < 1
11 1 4 1.54 -43.86 99.81 < 1
11 1 5 627.99 566.18 232.22 < 1
11 1 6 496.85 486.64 190.81 < 1
11 1 7 1178.37 1226.71 277.30 o 1
11 3 3 475.87 512.84 207.95 < 1
11 3 4 73.65 210.51 149.54 < 1
11 3 5 11.14 49.73 111.54 < 1
11 3 6 1186.96 1114.03 269.98 o 1
11 3 7 122.43 84.66 121.15 < 1
11 4 3 308.17 286.07 176.90 < 1
11 4 4 69.93 87.38 105.64 < 1
11 4 5 51.60 99.52 121.72 < 1
11 4 6 1119.44 1457.56 316.25 o 1
11 4 7 23.20 -67.29 99.05 < 1
loop_
_jana_cell_twin_matrix_id
_jana_cell_twin_volume_fraction
_jana_cell_twin_matrix_1_1
_jana_cell_twin_matrix_1_2
_jana_cell_twin_matrix_1_3
_jana_cell_twin_matrix_2_1
_jana_cell_twin_matrix_2_2
_jana_cell_twin_matrix_2_3
_jana_cell_twin_matrix_3_1
_jana_cell_twin_matrix_3_2
_jana_cell_twin_matrix_3_3
1 0.889(5) 1 0 0 0 1 0 0 0 1
2 0.111(5) -1 0 -0.6357 0 -0.9989 -0.5454 -0.001 -0.0031 0.9986
