#------------------------------------------------------------------------------
#$Date: 2022-02-01 10:54:27 +0200 (Tue, 01 Feb 2022) $
#$Revision: 272380 $
#$URL: file:///home/coder/svn-repositories/cod/cif/1/56/62/1566227.cif $
#------------------------------------------------------------------------------
#
# This file is available in the Crystallography Open Database (COD),
# http://www.crystallography.net/
#
# All data on this site have been placed in the public domain by the
# contributors.
#
data_1566227
loop_
_publ_author_name
'Vladislav V. Gurzhiy'
'Alina R. Izatulina'
'Maria G. Krzhizhanovskaya'
'Mikhail N. Murashko'
'Dar-ya V. Spiridonova'
'Vladimir V. Shilovskikh'
'Sergey V. Krivovichev'
_publ_section_title
;
 Thermal behavior of uranyl selenite minerals derriksite and
 demesmaekerite
;
_journal_name_full               'Journal of GeoSciences'
_journal_page_first              249
_journal_page_last               259
_journal_paper_doi               10.3190/jgeosci.315
_journal_volume                  65
_journal_year                    2020
_chemical_formula_moiety         'Cu4 H6 O14 Se2 U'
_chemical_formula_sum            'Cu4 H6 O14 Se2 U'
_chemical_formula_weight         880.16
_space_group_crystal_system      orthorhombic
_space_group_IT_number           31
_space_group_name_Hall           'P 2ac -2'
_space_group_name_H-M_alt        'P m n 21'
_atom_sites_solution_hydrogens   difmap
_cell_angle_alpha                90
_cell_angle_beta                 90
_cell_angle_gamma                90
_cell_formula_units_Z            2
_cell_length_a                   5.9702(2)
_cell_length_b                   5.5629(3)
_cell_length_c                   19.0733(8)
_cell_measurement_reflns_used    2487
_cell_measurement_temperature    233(2)
_cell_measurement_theta_max      30.5550
_cell_measurement_theta_min      3.8040
_cell_volume                     633.46(5)
_computing_cell_refinement       'CrysAlisPro 1.171.39.44a (Rigaku OD, 2018)'
_computing_data_collection       'CrysAlisPro 1.171.39.44a (Rigaku OD, 2018)'
_computing_data_reduction        'CrysAlisPro 1.171.39.44a (Rigaku OD, 2018)'
_computing_molecular_graphics    'Olex2 1.3 (Dolomanov et al., 2009)'
_computing_publication_material  'Olex2 1.3 (Dolomanov et al., 2009)'
_computing_structure_refinement  'SHELXL 2018/3 (Sheldrick, 2015)'
_computing_structure_solution    'SHELXT 2018/3 (Sheldrick, 2015)'
_diffrn_ambient_environment      N~2~
_diffrn_ambient_temperature      233(2)
_diffrn_detector                 'CCD plate'
_diffrn_detector_area_resol_mean 10.3829
_diffrn_detector_type            Atlas
_diffrn_measured_fraction_theta_full 0.998
_diffrn_measured_fraction_theta_max 0.999
_diffrn_measurement_details
;
List of Runs (angles in degrees, time in seconds):

  # Type    Start    End  Width  t~exp~   \w     \q     \k     \f   Frames
--------------------------------------------------------------------------
  1  \w    -47.00   3.00   1.00   22.50    --  -14.99  77.00-180.00   50
  2  \w    -27.00  19.00   1.00   22.50    --  -14.99 -77.00-150.00   46
  3  \w     42.00  83.00   1.00   22.50    --   16.86 178.00 -30.00   41
  4  \w     31.00  59.00   1.00   22.50    --   16.86 -99.00 120.00   28
  5  \w     -4.00  93.00   1.00   22.50    --   16.86  38.00 120.00   97
  6  \w     -8.00  93.00   1.00   22.50    --   16.86  38.00  30.00  101
;
_diffrn_measurement_device       'four-circle diffractometer'
_diffrn_measurement_device_type  'SuperNova, Dual, Cu at home/near, Atlas'
_diffrn_measurement_method       '\w scans'
_diffrn_orient_matrix_type
'CrysAlisPro convention (1999,Acta A55,543-557)'
_diffrn_orient_matrix_UB_11      0.1097603000
_diffrn_orient_matrix_UB_12      0.0391996000
_diffrn_orient_matrix_UB_13      0.0084410000
_diffrn_orient_matrix_UB_21      -0.0303399000
_diffrn_orient_matrix_UB_22      0.1196510000
_diffrn_orient_matrix_UB_23      -0.0085824000
_diffrn_orient_matrix_UB_31      -0.0338260000
_diffrn_orient_matrix_UB_32      0.0197864000
_diffrn_orient_matrix_UB_33      0.0351315000
_diffrn_radiation_monochromator  mirror
_diffrn_radiation_probe          x-ray
_diffrn_radiation_type           'Mo K\a'
_diffrn_radiation_wavelength     0.71073
_diffrn_reflns_av_R_equivalents  0.0431
_diffrn_reflns_av_unetI/netI     0.0401
_diffrn_reflns_Laue_measured_fraction_full 0.998
_diffrn_reflns_Laue_measured_fraction_max 0.999
_diffrn_reflns_limit_h_max       6
_diffrn_reflns_limit_h_min       -7
_diffrn_reflns_limit_k_max       6
_diffrn_reflns_limit_k_min       -7
_diffrn_reflns_limit_l_max       22
_diffrn_reflns_limit_l_min       -24
_diffrn_reflns_number            5136
_diffrn_reflns_point_group_measured_fraction_full 0.973
_diffrn_reflns_point_group_measured_fraction_max 0.970
_diffrn_reflns_theta_full        25.242
_diffrn_reflns_theta_max         27.472
_diffrn_reflns_theta_min         3.576
_diffrn_source                   'micro-focus sealed X-ray tube'
_diffrn_source_type              'SuperNova (Mo) X-ray Source'
_exptl_absorpt_coefficient_mu    25.163
_exptl_absorpt_correction_T_max  0.995
_exptl_absorpt_correction_T_min  0.990
_exptl_absorpt_correction_type   analytical
_exptl_absorpt_process_details
;
CrysAlisPro 1.171.39.44a (Rigaku Oxford Diffraction, 2018)
Analytical numeric absorption correction using a multifaceted crystal
			model based on expressions derived by R.C. Clark & J.S. Reid.
(Clark, R. C. & Reid, J. S. (1995). Acta Cryst. A51, 887-897)
Empirical absorption correction using spherical harmonics,
 implemented in SCALE3 ABSPACK scaling algorithm.
;
_exptl_crystal_colour            green
_exptl_crystal_density_diffrn    4.614
_exptl_crystal_description       prism
_exptl_crystal_F_000             788
_exptl_crystal_size_max          0.108
_exptl_crystal_size_mid          0.06
_exptl_crystal_size_min          0.041
_refine_diff_density_max         1.271
_refine_diff_density_min         -1.267
_refine_diff_density_rms         0.232
_refine_ls_abs_structure_details
;
 Flack x determined using 667 quotients [(I+)-(I-)]/[(I+)+(I-)]
 (Parsons, Flack and Wagner, Acta Cryst. B69 (2013) 249-259).
;
_refine_ls_abs_structure_Flack   -0.034(19)
_refine_ls_extinction_coef       .
_refine_ls_extinction_method     none
_refine_ls_goodness_of_fit_ref   1.043
_refine_ls_hydrogen_treatment    refxyz
_refine_ls_matrix_type           full
_refine_ls_number_parameters     117
_refine_ls_number_reflns         1546
_refine_ls_number_restraints     7
_refine_ls_restrained_S_all      1.041
_refine_ls_R_factor_all          0.0380
_refine_ls_R_factor_gt           0.0368
_refine_ls_shift/su_max          0.000
_refine_ls_shift/su_mean         0.000
_refine_ls_structure_factor_coef Fsqd
_refine_ls_weighting_details
'w=1/[\s^2^(Fo^2^)+(0.0639P)^2^] where P=(Fo^2^+2Fc^2^)/3'
_refine_ls_weighting_scheme      calc
_refine_ls_wR_factor_gt          0.0902
_refine_ls_wR_factor_ref         0.0913
_reflns_Friedel_coverage         0.888
_reflns_Friedel_fraction_full    0.946
_reflns_Friedel_fraction_max     0.940
_reflns_number_gt                1493
_reflns_number_total             1546
_reflns_threshold_expression     'I > 2\s(I)'
_cod_data_source_file            Derriksite_SN_-40C_last.cif
_cod_data_source_block           derriksite_sn_-40C
_cod_database_code               1566227
_chemical_oxdiff_formula         'Cu4 U Se2 O14'
_shelx_space_group_comment
;
The symmetry employed for this shelxl refinement is uniquely defined
by the following loop, which should always be used as a source of
symmetry information in preference to the above space-group names.
They are only intended as comments.
;
_reflns_odcompleteness_completeness 99.70
_reflns_odcompleteness_iscentric 1
_reflns_odcompleteness_theta     28.51
_olex2_refinement_description
;
1. Fixed Uiso
 At 1.5 times of:
  All O(H) groups
2. Restrained distances
 O9-H9
 1 with sigma of 0.02
 H9-O5_$5
 2.15 with sigma of 0.02
 O7-H7
 0.9 with sigma of 0.02
 O10-H10
 0.9 with sigma of 0.02
 O8-H8
 0.95 with sigma of 0.02
 H8-O1_$3
 2.1 with sigma of 0.02
3. Uiso/Uaniso restraints and constraints
Uanis(O7) = Uanis(O10)
4. Others
 Fixed Sof: H9(0.5)
;
_shelx_res_file
;
TITL Derriksite_SN_233K in Pmn2(1)
    derriksite_sn_233k.res
    created by SHELXL-2018/3 at 11:40:34 on 05-Sep-2020
REM Pmn2(1) (#31, found as Pnm2(1) in ba-c setting)
CELL 0.71073 5.970189 5.562922 19.073328 90 90 90
ZERR 2 0.000243 0.000326 0.000793 0 0 0
LATT -1
SYMM 0.5-X,-Y,0.5+Z
SYMM 0.5+X,-Y,0.5+Z
SYMM -X,+Y,+Z
SFAC Cu H O Se U
UNIT 8 12 28 4 2
EQIV $1 1+X,+Y,+Z
EQIV $2 0.5-X,-Y,-0.5+Z
EQIV $3 -X,+Y,+Z
EQIV $4 -1-X,+Y,+Z
EQIV $5 -0.5+X,1-Y,-0.5+Z
DFIX 1 O9 H9
DFIX 2.15 H9 O5_$5
DFIX 0.9 O7 H7
DFIX 0.9 O10 H10
DFIX 0.95 O8 H8
DFIX 2.1 H8 O1_$3
EADP O7 O10

L.S. 20
PLAN  20
CONF
HTAB O7 O3_$3
HTAB O10 O5_$2
FREE Cu2 Cu3_$1
FREE Cu2 Cu3_$3
FREE Cu2 Cu3_$4
FREE Cu2 Cu3
FREE Cu1 Cu1_$4
list 4
MORE -1
BOND $H
fmap 2
acta
OMIT -4 55
REM <olex2.extras>
REM <HklSrc "%.\\Derriksite_SN_233K.hkl">
REM </olex2.extras>

WGHT    0.063900
FVAR       1.01421
U1    5    0.500000    0.185234    0.606521    10.50000    0.01222    0.02587 =
         0.00943   -0.00399    0.00000    0.00000
SE1   4    0.000000   -0.140260    0.527355    10.50000    0.01578    0.02691 =
         0.01110    0.00168    0.00000    0.00000
SE2   4    1.000000    0.508522    0.689920    10.50000    0.01469    0.02300 =
         0.01020    0.00205    0.00000    0.00000
CU1   1   -0.250123    0.605541    0.361738    11.00000    0.00570    0.00662 =
         0.01474    0.00023    0.00160    0.00079
CU2   1    0.000000    0.110070    0.353823    10.50000    0.00281    0.00688 =
         0.01445   -0.00086    0.00000    0.00000
CU3   1   -0.500000    0.101102    0.356153    10.50000    0.00226    0.00587 =
         0.01509   -0.00207    0.00000    0.00000
O1    3    0.500000    0.460438    0.556808    10.50000    0.05378    0.02593 =
         0.01944    0.00163    0.00000    0.00000
O2    3    0.500000   -0.083684    0.655624    10.50000    0.04272    0.03516 =
         0.01673    0.00580    0.00000    0.00000
O3    3    0.218601    0.059750    0.534519    11.00000    0.02204    0.04401 =
         0.01308   -0.01142   -0.00324   -0.00472
O4    3    0.000000   -0.202614    0.442614    10.50000    0.01030    0.01566 =
         0.01131   -0.00122    0.00000    0.00000
O5    3    0.779708    0.310414    0.682191    11.00000    0.02793    0.03559 =
         0.01931   -0.00279   -0.00495   -0.00821
O6    3    1.000000    0.557465    0.775370    10.50000    0.00885    0.01608 =
         0.01463   -0.00562    0.00000    0.00000
O7    3   -0.253424    0.276249    0.402201    11.00000    0.00299    0.00825 =
         0.01381    0.00026    0.00136   -0.00086
H7    2   -0.235851    0.253675    0.448374    11.00000   -1.50000
O8    3   -0.500000    0.721971    0.414693    10.50000    0.00897    0.01108 =
         0.00753   -0.00116    0.00000    0.00000
H8    2   -0.500000    0.624950    0.456708    10.50000   -1.50000
O9    3    0.000000    0.487006    0.308537    10.50000    0.00375    0.01348 =
         0.01225    0.00338    0.00000    0.00000
H9    2    0.069680    0.551230    0.264624    10.50000   -1.50000
O10   3   -0.248365   -0.071992    0.312519    11.00000    0.00299    0.00825 =
         0.01381    0.00026    0.00136   -0.00086
H10   2   -0.242823   -0.088337    0.265861    11.00000   -1.50000
HKLF 4




REM  Derriksite_SN_233K in Pmn2(1)
REM wR2 = 0.0913, GooF = S = 1.043, Restrained GooF = 1.041 for all data
REM R1 = 0.0368 for 1493 Fo > 4sig(Fo) and 0.0380 for all 1546 data
REM 117 parameters refined using 7 restraints

END

WGHT      0.0639      0.0000

REM Highest difference peak  1.271,  deepest hole -1.267,  1-sigma level  0.232
Q1    1   0.0000  0.1181  0.4785  10.50000  0.05    1.27
Q2    1   1.0000  0.2531  0.7347  10.50000  0.05    1.06
Q3    1   0.5000  0.0354  0.6099  10.50000  0.05    0.99
Q4    1   0.5000  0.6666  0.6036  10.50000  0.05    0.98
Q5    1   0.5000  0.4708  0.6080  10.50000  0.05    0.95
Q6    1  -0.5000  0.8637  0.3990  10.50000  0.05    0.94
Q7    1   0.3962  0.3603  0.6096  11.00000  0.05    0.87
Q8    1  -0.5709  0.1076  0.3570  11.00000  0.05    0.84
Q9    1  -0.5000  0.3041  0.4104  10.50000  0.05    0.83
Q10   1   0.3193  0.4452  0.6026  11.00000  0.05    0.83
Q11   1   1.0000  0.8509  0.6866  10.50000  0.05    0.83
Q12   1   0.3386  0.1855  0.6281  11.00000  0.05    0.82
Q13   1   0.0000 -0.4610  0.5295  10.50000  0.05    0.81
Q14   1   0.5000  0.0817  0.5369  10.50000  0.05    0.81
Q15   1   0.5000 -0.1033  0.5512  10.50000  0.05    0.81
Q16   1   0.3254  0.1862  0.5927  11.00000  0.05    0.80
Q17   1   1.0000  0.6647  0.6840  10.50000  0.05    0.80
Q18   1   0.5000  0.3640  0.5589  10.50000  0.05    0.79
Q19   1   0.3312 -0.2568  0.6069  11.00000  0.05    0.78
Q20   1  -0.2021  0.6041  0.3484  11.00000  0.05    0.78
;
_shelx_res_checksum              14298
_shelx_hkl_file
;
   0   0 -26 1271.62 347.697   2
   0   0 -25 202.911 119.884   6
   0   0 -25 152.877 140.470   2
   0   0 -24 22074.1 1325.93   2
   0   0 -24 29236.3 1000.86   6
   0   0 -23 383.237 213.375   2
   0   0 -23 318.752 109.146   6
   0   0 -22 740.118 236.061   2
   0   0 -22 955.707 167.416   6
   0   0 -21 371.380 163.787   2
   0   0 -21 166.785 104.610   6
   0   0 -20 13558.7 596.520   6
   0   0 -20 12164.3 842.364   2
   0   0 -19 323.322 113.944   6
   0   0 -18 8282.20 423.845   1
   0   0 -18 6783.94 390.047   6
   0   0 -17 119.536 74.8068   1
   0   0 -17 203.323 86.6693   6
   0   0 -16 37527.1 1004.07   1
   0   0 -16 32979.2 975.798   6
   0   0 -15 126.382 68.0029   6
   0   0 -15 124.192 63.5921   1
   0   0 -14 4973.25 277.154   1
   0   0 -14 4152.03 261.853   6
   0   0 -13 71.4215 42.0434   1
   0   0 -13 142.935 66.1995   3
   0   0 -13 138.956 61.4221   6
   0   0 -13 120.004 63.6081   4
   0   0 -12 106434. 2385.19   4
   0   0 -12 105181. 2220.92   6
   0   0 -12 111494. 2211.99   1
   0   0 -11 10.0607 27.1776   4
   0   0 -11 46.1153 40.4770   1
   0   0 -11 89.5514 57.1420   6
   0   0 -10 695.940 99.1912   3
   0   0 -10 666.587 84.3694   1
   0   0 -10 598.331 88.4520   6
   0   0 -10 648.735 105.958   4
   0   0  -9 4.88931 27.8497   6
   0   0  -9-1.95228 26.1554   3
   0   0  -9 23.8180 27.6832   1
   0   0  -9 6.70238 22.6691   4
   0   0  -8 18582.9 513.570   6
   0   0  -8 19557.0 514.851   1
   0   0  -8 19894.2 594.877   4
   0   0  -7 43.6617 26.9623   1
   0   0  -7 32.2325 30.5426   4
   0   0  -7 36.9008 31.9443   6
   0   0  -6 31946.4 771.032   4
   0   0  -6 31539.5 707.940   1
   0   0  -6 30997.9 699.879   6
   0   0  -5 37.7190 25.8753   6
   0   0  -5 18.6125 21.2241   1
   0   0  -4 106609. 1990.29   1
   0   0  -3 11.9508 13.5592   1
   0   0   4 108879. 2083.36   4
   0   0   5 16.9601 25.1470   4
   0  -1 -26 1021.96 348.030   2
   0   1 -26 387.233 119.082   6
   0  -1 -25 929.902 291.590   2
   0   1 -25 944.370 295.154   2
   0   1 -25 856.425 194.233   6
   0   1 -24 358.563 138.800   6
   0   1 -24 327.831 177.179   2
   0  -1 -24 75.2087 120.009   2
   0   1 -23 3815.09 512.701   2
   0  -1 -23 3149.78 494.691   2
   0  -1 -23 4836.11 332.325   6
   0   1 -23 4270.12 362.172   6
   0  -1 -22 3553.26 510.476   2
   0  -1 -22 4308.66 411.461   5
   0   1 -22 3984.42 343.622   6
   0   1 -22 3864.82 497.713   2
   0  -1 -22 3835.80 288.521   6
   0  -1 -21 2872.62 243.525   6
   0  -1 -21 2919.76 326.847   5
   0   1 -21 2591.11 388.772   2
   0   1 -21 3121.75 292.255   6
   0   1 -20 1048.66 166.931   6
   0   1 -20 684.840 198.812   2
   0  -1 -20 1020.81 145.294   6
   0  -1 -20 982.490 191.519   5
   0   1 -19 12533.5 577.570   6
   0  -1 -19 12067.7 500.727   6
   0  -1 -19 11628.4 604.082   5
   0   1 -19 10820.3 764.488   2
   0   1 -18 1408.90 129.081   5
   0   1 -18 1465.23 186.668   6
   0  -1 -18 1512.43 162.691   6
   0   1 -18 1388.29 256.157   2
   0   1 -17 3409.65 269.726   6
   0   1 -17 3264.27 194.777   5
   0  -1 -17 3305.91 231.756   6
   0   1 -17 3455.21 393.139   2
   0   1 -16 9673.32 642.606   2
   0   1 -16 9443.41 441.990   6
   0  -1 -16 9956.98 398.030   6
   0  -1 -15 14858.6 485.925   6
   0   1 -15 14066.0 535.766   6
   0   1 -14 3431.47 185.040   5
   0  -1 -14 3798.91 225.848   6
   0  -1 -14 4183.41 305.986   1
   0  -1 -13 2439.38 226.467   1
   0  -1 -13 2215.48 165.212   6
   0   1 -13 2174.46 138.497   5
   0   1 -13 2209.48 199.916   3
   0  -1 -12 912.311 134.548   1
   0   1 -12 771.792 136.719   4
   0  -1 -12 947.441 104.610   6
   0   1 -12 762.710 78.8619   5
   0   1 -12 999.224 127.775   3
   0   1 -11 10595.5 331.884   5
   0  -1 -11 11365.4 482.265   1
   0  -1 -11 10914.3 371.538   6
   0   1 -11 11577.9 507.082   4
   0   1 -10 15450.4 412.438   5
   0  -1 -10 14905.5 441.836   6
   0  -1 -10 15550.4 566.637   1
   0   1  -9 15877.1 410.723   5
   0  -1  -9 14931.2 560.512   1
   0  -1  -9 15666.5 439.754   6
   0   1  -9 16187.5 510.264   3
   0  -1  -8 4223.06 184.442   6
   0   1  -8 4137.86 219.991   3
   0   1  -8 4156.98 165.811   5
   0  -1  -8 3890.11 251.385   1
   0  -1  -7 15419.9 402.711   6
   0   1  -7 14701.7 376.790   5
   0   1  -7 15341.6 457.001   3
   0  -1  -7 13943.5 507.727   1
   0  -1  -6 3391.95 148.303   6
   0   1  -6 3279.20 136.572   5
   0  -1  -5 22205.6 514.852   6
   0   1  -5 22732.6 512.902   5
   0  -1  -4 19128.6 454.182   6
   0   1  -4 20129.1 466.764   5
   0  -1  -4 19315.4 551.842   5
   0   1  -3 23098.4 530.901   5
   0  -1  -3 22665.7 508.777   6
   0  -1  -3 22210.8 606.152   5
   0  -1  -2 13515.1 344.504   6
   0  -1  -2 13248.0 427.571   5
   0  -1  -1 14819.4 395.453   6
   0  -1  -1 15813.0 466.004   5
   0  -1   0 2347.03 152.060   5
   0  -1   0 2579.82 126.877   2
   0  -1   1 16305.2 450.667   2
   0  -1   1 15353.2 430.384   5
   0  -1   2 12022.0 335.214   5
   0  -1   3 26576.5 590.608   5
   0   1   4 17665.3 426.424   6
   0  -1   4 17648.5 469.488   3
   0  -1   4 18388.3 425.267   5
   0  -1   5 23473.3 586.209   3
   0   1   5 22077.6 528.747   6
   0  -1   5 23796.6 520.177   5
   0   1   6 4853.46 192.328   6
   0  -1   6 4754.23 217.129   3
   0  -1   6 4955.30 158.213   1
   0  -1   7 16473.2 484.630   3
   0   1   7 16173.8 441.660   6
   0  -1   7 15932.9 387.933   1
   0   1   8 5206.85 286.252   4
   0   1   8 5352.20 229.871   6
   0  -1   8 5491.22 262.009   3
   0  -1   8 5631.53 202.293   1
   0   1   9 17562.0 600.173   4
   0  -1   9 17215.7 465.064   1
   0  -1   9 16672.6 534.044   3
   0   1   9 15789.7 479.157   6
   0  -1  10 20637.1 561.581   1
   0   1  10 20322.7 695.386   4
   0  -1  10 20197.9 618.790   3
   0   1  10 18490.2 551.320   6
   0  -1  11 10530.3 433.711   3
   0  -1  11 11383.7 408.161   1
   0   1  11 11414.6 507.184   4
   0   1  12 826.688 138.562   4
   0   1  13 3218.09 282.256   4
   0   1  14 3713.12 317.079   4
   0   1  15 19113.7 809.950   4
   0   2 -26 2575.80 298.214   6
   0  -2 -26 2558.08 559.309   2
   0   2 -25 1573.60 237.482   6
   0  -2 -25 1715.36 406.161   2
   0  -2 -24-285.769 181.383   2
   0   2 -24 48.5513 76.2048   6
   0   2 -24 38.6626 150.711   2
   0  -2 -23 306.181 176.984   2
   0   2 -23 748.247 154.241   6
   0  -2 -23 1030.69 225.088   5
   0   2 -23 582.324 224.911   2
   0   2 -22 1814.17 233.261   6
   0  -2 -22 2239.16 204.748   6
   0  -2 -22 2372.23 318.233   5
   0   2 -22 2568.30 421.587   2
   0   2 -21 8444.53 508.811   6
   0  -2 -21 9247.65 425.629   6
   0   2 -21 9707.26 790.366   2
   0  -2 -21 10352.4 661.211   5
   0   2 -20 1728.15 325.172   2
   0   2 -20 1249.79 189.282   6
   0  -2 -20 1265.47 229.050   5
   0  -2 -20 1278.93 154.027   6
   0   2 -19 6281.50 405.459   6
   0  -2 -19 6054.95 324.223   6
   0   2 -19 6059.02 576.197   2
   0  -2 -19 5735.18 458.351   5
   0  -2 -18 6608.21 475.861   5
   0   2 -18 6254.69 573.813   2
   0  -2 -18 6105.94 321.042   6
   0  -2 -17 11558.8 450.819   6
   0   2 -17 11452.6 752.714   2
   0  -2 -17 11698.4 628.356   5
   0   2 -17 11818.7 431.015   5
   0  -2 -16 4501.19 259.038   6
   0   2 -16 4715.63 250.359   5
   0  -2 -16 4620.14 378.187   5
   0   2 -16 4593.75 456.304   2
   0  -2 -15 15401.3 691.421   5
   0   2 -15 16569.8 843.342   2
   0  -2 -15 16045.2 510.249   6
   0  -2 -14 5435.87 384.553   5
   0  -2 -14 5339.43 270.201   6
   0   2 -14 3927.03 224.751   5
   0   2 -14 5471.10 463.612   2
   0   2 -13 13573.7 451.152   5
   0  -2 -13 13522.4 462.935   6
   0   2 -13 13829.0 735.729   2
   0  -2 -13 13065.1 615.474   5
   0   2 -12 1935.15 259.594   2
   0   2 -12 1610.37 135.328   5
   0  -2 -12 1298.89 181.003   5
   0  -2 -12 1389.28 133.774   6
   0   2 -11 16500.5 760.494   2
   0  -2 -11 15233.1 646.501   5
   0  -2 -11 15693.3 493.308   6
   0   2 -11 15446.4 483.865   5
   0  -2 -10 11347.4 532.246   5
   0   2 -10 10849.2 387.610   5
   0  -2 -10 10427.5 564.845   1
   0  -2 -10 11477.3 394.211   6
   0  -2  -9 49840.8 1356.42   5
   0  -2  -9 52596.4 1145.32   6
   0   2  -9 49142.8 1144.23   5
   0   2  -8 5036.29 245.087   5
   0  -2  -8 5158.28 337.072   5
   0  -2  -8 5144.51 239.430   6
   0   2  -7 34092.0 846.513   5
   0  -2  -7 33719.0 815.512   6
   0  -2  -7 33981.3 1012.64   5
   0  -2  -6 29717.8 751.721   6
   0   2  -6 31432.6 802.441   5
   0   2  -6 32746.0 1006.59   2
   0  -2  -6 31515.6 945.464   5
   0  -2  -5 51146.6 1162.04   6
   0   2  -5 51392.4 1219.11   5
   0  -2  -5 53463.9 1366.83   5
   0  -2  -4 3647.65 265.197   5
   0   2  -4 3084.01 248.323   2
   0  -2  -4 3175.17 185.605   6
   0   2  -4 3175.22 208.753   5
   0  -2  -3 36133.5 914.648   6
   0   2  -3 38438.4 991.845   5
   0  -2  -3 39762.5 1085.27   5
   0   2  -3 40876.1 1043.62   2
   0  -2  -2 19047.0 662.229   5
   0   2  -2 17950.2 607.532   5
   0   2  -2 18097.5 589.444   2
   0  -2  -1 24457.4 631.138   2
   0  -2  -1 26056.0 801.480   5
   0   2  -1 24549.7 680.258   2
   0  -2   0 106.484 47.5490   5
   0  -2   0 125.331 45.4131   2
   0  -2   1 21420.7 653.919   2
   0  -2   1 20469.2 669.814   5
   0  -2   2 15314.8 548.895   2
   0  -2   2 14092.6 504.279   5
   0   2   3 44328.1 1047.15   6
   0  -2   3 44678.7 1074.12   5
   0   2   4 6749.39 284.905   6
   0  -2   4 6576.99 296.723   5
   0   2   5 49788.2 1101.23   6
   0  -2   5 48497.2 1114.78   5
   0   2   6 30225.5 744.457   6
   0  -2   6 29680.7 747.542   5
   0  -2   7 44168.5 1089.90   3
   0   2   7 41712.5 983.772   6
   0  -2   7 43051.4 984.692   5
   0  -2   8 6846.35 278.613   5
   0   2   8 6490.72 278.137   6
   0  -2   8 6904.03 344.135   3
   0  -2   9 49689.4 1245.23   3
   0   2   9 50538.2 1148.29   6
   0  -2   9 50021.1 1113.96   5
   0  -2  10 12120.4 348.916   1
   0  -2  10 12565.6 502.516   3
   0   2  10 12406.3 437.732   6
   0   2  11 21308.1 653.005   6
   0  -2  11 21482.5 541.016   1
   0  -2  11 22253.9 730.584   3
   0   2  12 678.739 103.272   6
   0   2  12 731.268 147.313   4
   0  -2  12 792.497 141.132   3
   0  -2  12 905.362 88.3570   1
   0   2  13 13439.8 645.052   4
   0  -2  13 14127.5 447.914   1
   0  -2  13 13582.4 576.559   3
   0   2  14 6978.88 470.107   4
   0  -2  14 6957.11 410.716   3
   0  -2  14 7718.93 333.398   1
   0  -2  15 24580.5 869.722   3
   0   2  15 24397.5 961.506   4
   0   2  16 4524.78 392.659   4
   0   2  17 10992.1 649.475   4
   0   2  18 10081.6 639.504   4
   0   2  19 11746.7 714.548   4
   0   3 -25 1396.12 215.486   6
   0   3 -24 4790.55 408.623   6
   0  -3 -23-3.45252 113.557   5
   0   3 -23-2.58112 123.759   2
   0  -3 -23-120.460 154.017   2
   0   3 -23-56.2055 111.719   6
   0  -3 -22 3380.13 419.515   5
   0   3 -22 3032.24 314.158   6
   0   3 -22 3831.00 527.520   2
   0  -3 -21 1817.76 296.812   5
   0   3 -21 1499.33 331.958   2
   0   3 -20 1631.33 338.826   2
   0  -3 -20 1876.91 193.568   6
   0  -3 -20 1912.46 298.981   5
   0  -3 -19 258.858 78.9823   6
   0  -3 -19 184.004 95.2926   5
   0   3 -18 638.482 201.694   2
   0  -3 -18 629.875 128.800   6
   0  -3 -18 484.245 185.347   5
   0   3 -17 1340.70 282.139   2
   0  -3 -17 1663.43 256.062   5
   0  -3 -17 1452.36 164.639   6
   0  -3 -16 1973.90 286.765   5
   0  -3 -16 2124.70 192.991   6
   0   3 -16 2031.17 336.729   2
   0  -3 -15 929.935 138.750   6
   0  -3 -15 872.104 181.654   5
   0   3 -15 927.137 134.954   5
   0   3 -15 858.071 230.930   2
   0  -3 -14 8393.22 390.386   6
   0  -3 -14 8269.58 550.896   5
   0   3 -14 8595.92 644.831   2
   0   3 -14 7644.37 387.864   5
   0   3 -13 4167.71 277.705   5
   0  -3 -13 4384.70 272.046   6
   0   3 -13 4098.98 445.041   2
   0  -3 -13 4382.79 392.450   5
   0  -3 -12 18137.8 583.748   6
   0   3 -12 18880.9 910.864   2
   0  -3 -12 18534.8 811.702   5
   0   3 -11 1325.02 155.454   5
   0  -3 -11 1689.22 238.187   5
   0  -3 -11 1568.76 162.363   6
   0   3 -11 1468.32 249.303   2
   0   3 -10 10683.4 635.593   2
   0  -3 -10 9785.99 413.189   6
   0   3 -10 8659.01 427.419   5
   0  -3 -10 9169.75 563.024   5
   0  -3  -9 2383.17 193.696   6
   0   3  -9 2419.39 212.646   5
   0   3  -9 2568.32 301.708   2
   0  -3  -9 2714.11 284.551   5
   0   3  -8 4579.27 307.378   5
   0   3  -8 4832.15 398.725   2
   0  -3  -8 4692.34 373.227   5
   0  -3  -8 4281.76 262.385   6
   0   3  -7 34.8195 51.6406   5
   0  -3  -7-5.36216 47.0606   6
   0  -3  -7 52.1674 69.4845   5
   0   3  -6 1905.44 200.241   5
   0  -3  -6 2164.61 245.334   5
   0  -3  -6 1544.75 160.611   6
   0  -3  -5 573.360 131.050   5
   0   3  -5 785.077 137.920   5
   0  -3  -4 5805.11 405.334   5
   0   3  -4 5894.19 376.073   2
   0   3  -4 5936.24 374.853   5
   0  -3  -3 1761.85 221.080   5
   0   3  -3 1532.82 198.798   5
   0  -3  -3 1271.79 116.145   2
   0   3  -3 1769.81 197.741   2
   0  -3  -2 17404.0 549.266   2
   0  -3  -2 18957.1 755.155   5
   0   3  -2 18561.9 735.939   5
   0   3  -2 18249.5 645.462   2
   0   3  -1 3532.87 307.881   5
   0  -3  -1 3442.48 296.660   5
   0  -3  -1 3082.01 213.852   2
   0  -3   0 26532.4 918.770   5
   0  -3   0 26038.0 805.942   2
   0  -3   1 3036.99 241.477   2
   0  -3   1 2772.76 262.983   5
   0  -3   2 17136.5 690.866   2
   0  -3   2 17486.3 682.928   5
   0  -3   3 2455.00 231.481   5
   0   3   3 2505.51 210.751   6
   0   3   4 4316.00 279.414   6
   0  -3   4 4210.08 293.360   5
   0   3   5 978.931 128.932   6
   0  -3   5 745.493 124.499   5
   0  -3   6 2281.63 202.860   5
   0   3   6 2350.30 193.547   6
   0  -3   7 67.8971 46.6589   5
   0  -3   8 3839.92 249.639   5
   0  -3   9 2803.29 212.723   5
   0  -3   9 2867.83 267.621   3
   0  -3  10 10782.2 443.226   5
   0  -3  10 10949.7 545.082   3
   0  -3  11 814.492 156.399   3
   0  -3  11 1137.32 138.663   5
   0  -3  12 18321.7 727.626   3
   0  -3  12 20702.8 616.193   5
   0   3  13 5843.47 329.086   6
   0  -3  13 5867.78 397.415   3
   0  -3  14 9747.15 544.411   3
   0   3  14 9620.75 441.053   6
   0  -3  15 459.463 132.465   3
   0   3  15 632.127 158.012   4
   0  -3  15 456.544 71.0845   1
   0   3  16 2487.34 313.831   4
   0  -3  16 2512.63 286.115   3
   0  -3  17 1825.16 255.134   3
   0   3  17 1534.15 258.219   4
   0  -3  18 640.046 171.030   3
   0   3  18 743.886 188.363   4
   0  -3  19 262.304 130.666   3
   0   3  19 215.933 109.504   4
   0   3  20 1941.08 307.255   4
   0   3  21 1804.80 319.833   4
   0   3  22 5892.41 579.802   4
   0  -4 -23 3237.94 431.324   5
   0  -4 -22 2286.55 354.157   5
   0   4 -22 2469.46 459.631   2
   0   4 -21 3209.98 498.705   2
   0  -4 -21 3848.25 465.934   5
   0  -4 -20 3734.68 449.029   5
   0   4 -20 3147.68 500.856   2
   0   4 -19 5624.46 623.965   2
   0  -4 -19 5858.00 543.298   5
   0  -4 -18 2481.82 356.566   5
   0  -4 -18 2342.81 240.964   6
   0   4 -18 1980.96 365.164   2
   0  -4 -17 5501.47 371.257   6
   0   4 -17 5697.94 588.133   2
   0  -4 -17 6025.18 538.692   5
   0  -4 -16 5852.64 524.290   5
   0   4 -16 5724.14 580.234   2
   0  -4 -16 5353.41 363.450   6
   0  -4 -15 5709.62 512.091   5
   0  -4 -15 5158.53 355.684   6
   0   4 -15 5028.00 533.975   2
   0  -4 -14 6930.79 407.468   6
   0  -4 -14 6234.86 525.807   5
   0   4 -14 6269.37 575.223   2
   0   4 -13 2030.94 323.572   2
   0  -4 -13 2204.01 228.385   6
   0  -4 -13 2314.74 314.899   5
   0   4 -12 9973.43 683.854   2
   0  -4 -12 9579.87 647.170   5
   0  -4 -12 9190.23 472.763   6
   0  -4 -11 8181.45 583.095   5
   0   4 -11 8198.80 606.624   2
   0  -4 -11 7623.14 428.181   6
   0  -4 -10 12527.5 561.864   6
   0  -4 -10 13920.6 763.484   5
   0   4 -10 13531.9 762.653   2
   0   4  -9 7274.46 537.947   2
   0  -4  -9 7465.11 541.749   5
   0   4  -8 18935.7 869.486   2
   0  -4  -8 18200.0 872.692   5
   0  -4  -7 21302.0 950.204   5
   0   4  -7 23476.5 956.179   2
   0   4  -6 14562.9 707.455   2
   0  -4  -6 13030.9 705.741   5
   0  -4  -5 7720.12 335.253   2
   0  -4  -5 10149.4 600.289   5
   0  -4  -4 16394.9 543.171   2
   0  -4  -4 17712.7 816.602   5
   0  -4  -3 15202.3 532.279   2
   0  -4  -3 16200.8 767.917   5
   0  -4  -2 13013.5 681.202   5
   0  -4  -2 12675.9 505.042   2
   0  -4  -1 4595.13 301.411   2
   0  -4  -1 4253.37 376.891   5
   0  -4   0 11822.6 625.124   5
   0  -4   0 11726.2 529.534   2
   0  -4   1 6500.78 453.265   5
   0  -4   2 11749.4 612.415   5
   0  -4   3 15197.2 700.293   5
   0  -4   4 20518.7 820.376   5
   0  -4   5 13408.7 637.722   5
   0  -4   6 12577.2 597.559   5
   0  -4   7 19065.8 743.171   5
   0  -4   8 15822.7 647.265   5
   0  -4   9 8985.66 461.172   5
   0  -4  10 14326.1 595.440   5
   0  -4  10 12679.7 693.147   3
   0  -4  11 4953.24 423.428   3
   0  -4  11 5772.89 360.629   5
   0  -4  12 8865.25 572.971   3
   0  -4  12 8973.20 461.693   5
   0  -4  13 3576.96 365.547   3
   0  -4  13 3807.35 291.232   5
   0  -4  14 7194.39 409.694   5
   0  -4  14 6878.40 507.785   3
   0  -4  15 4300.37 409.309   3
   0  -4  16 6657.41 523.166   3
   0   4  17 6224.12 556.204   4
   0  -4  17 7192.38 563.488   3
   0   4  18 2577.15 361.787   4
   0  -4  18 2437.96 328.610   3
   0  -4  19 5409.37 500.734   3
   0   4  19 5355.07 534.512   4
   0   4  20 3189.25 426.398   4
   0  -4  20 3988.42 442.592   3
   0   4  21 4729.23 521.071   4
   0  -4  21 4680.04 486.757   3
   0   4  22 2751.01 408.896   4
   0  -5 -21 333.207 175.114   5
   0  -5 -20 2079.13 347.992   5
   0   5 -20 2423.42 440.232   2
   0  -5 -19 1213.95 295.163   5
   0   5 -19 1086.07 291.381   2
   0  -5 -18 5969.61 584.593   5
   0   5 -18 7369.84 707.938   2
   0   5 -17 1141.24 284.552   2
   0  -5 -17 1114.61 281.172   5
   0   5 -16 1996.16 378.988   2
   0  -5 -16 1914.93 322.575   5
   0   5 -15 959.096 255.179   2
   0  -5 -15 991.310 235.187   5
   0  -5 -14 3418.68 424.514   5
   0   5 -14 2144.67 361.040   2
   0  -5 -13 186.710 141.247   5
   0   5 -13-59.5417 97.4268   2
   0   5 -12 1294.18 277.616   2
   0  -5 -12 1574.90 296.035   5
   0   5 -11 1460.46 276.086   2
   0  -5 -11 1437.73 285.859   5
   0   5 -10 828.177 217.084   2
   0  -5 -10 934.426 229.642   5
   0   5  -9 1558.76 265.683   2
   0  -5  -9 1481.83 275.702   5
   0  -5  -8 9689.63 676.444   5
   0   5  -8 9120.10 620.209   2
   0   5  -7 3515.88 371.277   2
   0  -5  -7 4129.93 424.409   5
   0  -5  -6 9677.96 642.945   5
   0   5  -6 9770.59 603.051   2
   0  -5  -5 1165.76 126.545   2
   0  -5  -5 1196.66 236.593   5
   0  -5  -4 4750.68 436.255   5
   0  -5  -4 3567.06 241.083   2
   0  -5  -3 1947.40 298.349   5
   0  -5  -3 2123.68 188.581   2
   0  -5  -2 3562.10 372.253   5
   0  -5  -1 194.599 84.2446   5
   0  -5   0 63.9319 87.7383   5
   0  -5   1 761.128 165.478   5
   0  -5   2 2826.51 320.123   5
   0  -5   3 2876.91 321.619   5
   0  -5   4 4752.17 417.093   5
   0  -5   5 2073.19 274.050   5
   0  -5   6 9527.38 582.545   5
   0  -5   7 4120.66 369.582   5
   0  -5   8 8686.64 533.688   5
   0  -5   9 911.735 173.921   5
   0  -5  10 722.879 156.005   5
   0  -5  10 620.531 161.290   3
   0  -5  11 959.883 213.757   3
   0  -5  11 981.496 173.256   5
   0  -5  12 1495.46 269.984   3
   0  -5  12 1633.83 225.308   5
   0  -5  13 169.869 98.4887   5
   0  -5  13 332.987 139.433   3
   0  -5  14 1864.72 239.137   5
   0  -5  14 1656.18 274.007   3
   0  -5  15 804.306 205.031   3
   0  -5  16 2061.36 323.613   3
   0  -5  17 854.614 221.355   3
   0  -5  18 5576.58 540.265   3
   0   5  18 4749.83 540.145   4
   0  -5  19 1400.97 290.165   3
   0   5  19 1252.93 280.694   4
   0   5  20 1912.40 335.778   4
   0  -5  20 2116.51 356.115   3
   0  -5  21 134.223 135.958   3
   0   6 -18 2107.13 399.079   2
   0   6 -17-4.45201 149.698   2
   0   6 -16 294.388 195.608   2
   0  -6 -16 339.222 170.404   5
   0   6 -15 3685.45 494.523   2
   0  -6 -15 3938.45 500.158   5
   0  -6 -14 6060.94 616.150   5
   0   6 -14 7242.45 663.207   2
   0   6 -13 2782.68 405.991   2
   0  -6 -13 2828.09 429.813   5
   0   6 -12 449.408 184.345   2
   0  -6 -12 692.195 202.243   5
   0   6 -11 4482.84 490.919   2
   0  -6 -11 4888.52 528.331   5
   0   6 -10 8255.04 664.699   2
   0  -6 -10 8802.19 708.444   5
   0  -6  -9 3802.89 455.975   5
   0   6  -9 4123.99 460.067   2
   0  -6  -8 1191.78 268.349   5
   0  -6  -7 3496.24 423.700   5
   0  -6  -6 4687.60 479.597   5
   0  -6  -5 2581.64 353.060   5
   0  -6  -4 1392.80 263.746   5
   0  -6  -3 10509.5 701.214   5
   0  -6  -2 15111.5 851.780   5
   0  -6  -1 7700.76 592.332   5
   0  -6   0 253.588 128.396   5
   0  -6   1 9751.04 660.683   5
   0  -6   2 15593.1 851.462   5
   0  -6   3 8386.24 611.862   5
   0  -6   4 1707.44 288.162   5
   0  -6   5 2996.28 363.425   5
   0  -6   6 4021.19 414.844   5
   0  -6   7 2588.22 330.344   5
   0  -6   8 871.574 180.708   5
   0  -6   9 4356.55 409.733   5
   0  -6  10 8171.62 561.573   5
   0  -6  11 4363.95 402.500   5
   0  -6  11 2996.55 402.513   3
   0  -6  12 315.060 128.540   5
   0  -6  12 402.479 187.397   3
   0  -6  13 2975.46 429.703   3
   0  -6  14 5889.11 604.936   3
   0  -6  15 2527.78 402.378   3
   0  -6  16 270.428 163.709   3
   0  -6  17 716.477 250.971   3
   0  -6  18 1116.34 304.537   3
   0  -7  -9 1511.41 327.277   5
   0  -7  -8 1555.81 323.006   5
   0  -7  -7 519.538 216.957   5
   0  -7  -6 391.800 187.058   5
   0  -7  -5 1783.68 312.088   5
   0  -7  -4 412.411 178.883   5
   0  -7  -3 1457.04 288.261   5
   0  -7  -2 704.034 220.951   5
   0  -7  -1 1568.12 295.090   5
   0  -7   0 108.542 151.647   5
   0  -7   1 1899.27 313.783   5
   0  -7   2 1495.23 303.450   5
   0  -7   3 1707.79 311.809   5
   0  -7   4 117.628 98.5357   5
   0  -7   5 1693.80 304.428   5
   0  -7   6 269.548 144.091   5
   0  -7   7 332.238 148.154   5
   0  -7   8 825.148 204.150   5
   0  -7   9 1102.31 241.145   5
   0  -7  10 238.778 127.297   5
   0  -7  11 389.152 208.430   3
   0  -7  12-4.90055 127.830   3
  -1   0 -26 67.5867 107.784   6
  -1   0 -26 190.070 188.478   2
  -1   0 -25 1097.49 209.328   6
   1   0 -25 884.895 297.732   2
   1   0 -24-453.820 225.748   2
  -1   0 -24 15.1897 93.5045   6
  -1   0 -23 994.613 181.520   6
   1   0 -23 704.203 268.836   2
   1   0 -22 138.090 79.6763   6
  -1   0 -22-160.391 114.624   6
   1   0 -22-1.79860 116.292   2
  -1   0 -21 11548.6 592.473   6
   1   0 -21 12099.7 530.727   6
   1   0 -21 9938.66 877.655   2
   1   0 -20 105.951 68.6080   6
  -1   0 -20 197.990 109.207   6
   1   0 -20 189.887 121.665   2
   1   0 -19 17511.5 704.368   5
   1   0 -19 16487.7 1055.29   2
  -1   0 -19 16743.4 710.281   6
   1   0 -19 18919.7 656.928   6
  -1   0 -18 73.3214 64.0573   1
   1   0 -18 148.529 77.3530   5
  -1   0 -18 193.436 107.883   6
   1   0 -18 47.8767 61.1843   6
   1   0 -18 168.522 139.542   2
   1   0 -17 19074.3 643.809   6
   1   0 -17 16520.3 990.298   2
  -1   0 -17 17645.1 695.747   6
   1   0 -17 17334.3 685.126   5
   1   0 -16 81.2540 60.5595   6
  -1   0 -16 76.2990 75.9564   1
   1   0 -16 35.1057 43.5541   5
  -1   0 -16 117.638 84.4100   6
   1   0 -16 159.366 132.070   2
   1   0 -15 8744.24 371.503   6
   1   0 -15 9229.71 416.552   1
   1   0 -15 7712.44 604.681   2
  -1   0 -15 8439.62 472.877   4
  -1   0 -15 7938.79 416.130   6
   1   0 -15 6950.52 378.924   5
  -1   0 -14 26.5286 39.6232   3
  -1   0 -14 149.785 72.6653   1
  -1   0 -14 64.5414 56.2908   4
   1   0 -14 32.8373 37.8943   6
   1   0 -14 14.7809 33.7852   1
   1   0 -14-12.1609 61.7630   2
   1   0 -14-6.08903 32.8873   5
  -1   0 -14-2.54853 57.3419   6
   1   0 -13 885.008 114.696   1
   1   0 -13 1089.21 114.235   6
  -1   0 -13 944.375 145.641   4
   1   0 -13 893.769 112.835   5
  -1   0 -13 1372.35 154.053   1
   1   0 -13 913.182 201.621   2
  -1   0 -13 1125.67 145.578   6
   1   0 -12 98.6535 94.1215   2
   1   0 -12-23.6656 29.4739   6
   1   0 -12 36.6388 37.2776   1
   1   0 -12 9.24987 35.3847   5
   1   0 -12-46.4844 42.4835   4
  -1   0 -12 24.7965 51.6711   6
  -1   0 -12 32.9495 35.2795   1
  -1   0 -12-16.0170 32.8855   4
   1   0 -11 821.484 101.987   5
  -1   0 -11 1259.79 129.806   1
  -1   0 -11 999.385 122.112   6
   1   0 -11 1054.69 192.726   2
   1   0 -11 1045.03 111.648   1
   1   0 -11 1156.80 151.458   4
  -1   0 -11 868.639 105.023   3
  -1   0 -11 1005.04 127.029   4
   1   0 -11 929.552 92.4610   6
  -1   0 -10 24.0955 45.0204   6
  -1   0 -10 5.81907 23.0057   4
   1   0 -10 2.57489 29.9713   5
   1   0 -10 21.0362 29.9392   1
   1   0 -10 10.7410 61.2886   2
  -1   0 -10 13.2309 27.2763   1
  -1   0 -10 1.78724 22.7457   3
   1   0  -9 20959.8 585.287   5
   1   0  -9 21769.4 863.325   2
  -1   0  -9 22189.1 584.602   3
  -1   0  -9 21857.9 626.381   4
   1   0  -9 21541.5 603.912   1
  -1   0  -9 22405.5 637.889   6
   1   0  -8 42.4531 64.8964   2
  -1   0  -8 28.3649 33.7610   6
   1   0  -8 18.2717 27.8234   1
  -1   0  -8 21.8845 31.7506   4
  -1   0  -8 4.45338 21.8216   3
   1   0  -8-1.66827 24.5447   5
   1   0  -7 37609.4 831.969   1
   1   0  -7 38032.8 1121.87   2
  -1   0  -7 35522.5 853.794   6
   1   0  -7 33497.1 764.835   5
  -1   0  -7 34427.2 808.078   4
   1   0  -6 18.8477 14.4685   5
  -1   0  -6-0.54292 12.9943   4
   1   0  -6 29.1889 40.2379   2
   1   0  -6 2.16123 27.5213   1
  -1   0  -6 79.0137 38.1979   6
  -1   0  -5 64663.9 1387.93   6
   1   0  -5 67981.9 1271.68   5
   1   0  -5 70828.6 1381.50   1
   1   0  -4 0.04857 8.40299   5
   1   0  -4 15.7750 25.6456   1
  -1   0  -4 46.3430 30.1380   6
  -1   0  -3 25294.3 574.470   6
   1   0  -3 24686.9 495.302   5
   1   0  -3 24739.5 507.865   6
   1   0  -2 29.3573 11.9984   6
   1   0  -2 6.19088 8.42566   5
  -1   0  -2 16.7547 17.8068   6
  -1   0   1 4011.61 158.059   4
  -1   0   2 3.53719 13.8459   3
  -1   0   2 55.1549 30.1190   2
  -1   0   2 5.00688 10.3215   6
  -1   0   2 10.2362 16.9711   4
  -1   0   3 27739.6 626.717   3
  -1   0   3 27082.0 738.093   2
  -1   0   3 28691.8 685.619   4
  -1   0   3 27973.2 566.285   5
  -1   0   4 8.41238 15.7656   5
  -1   0   4-1.05769 33.4588   2
  -1   0   4-8.73649 28.6636   4
  -1   0   5 75459.6 1698.45   2
  -1   0   5 77553.8 1637.86   4
  -1   0   6 28.0235 33.1314   4
  -1   0   7 38328.7 929.762   1
  -1   0   7 41120.9 1038.72   4
  -1   0   8 2.84657 28.0661   1
  -1   0   8 32.7914 51.8151   4
  -1   0   9 25353.5 819.440   4
  -1   0   9 25312.9 737.516   1
  -1   0  10 13.5262 38.2451   1
  -1   0  10 1.13691 45.7109   4
  -1   1 -27 357.035 141.160   6
   1  -1 -27 379.073 264.428   2
   1  -1 -26 2906.56 595.954   2
  -1   1 -26 3954.98 385.834   6
  -1  -1 -25 938.298 172.910   6
   1   1 -25 861.055 290.944   2
   1  -1 -25 134.302 192.300   2
  -1   1 -25 767.746 222.927   2
  -1   1 -25 971.452 198.789   6
  -1  -1 -24 5605.29 417.004   6
  -1   1 -24 4936.06 591.065   2
   1  -1 -24 4255.86 705.719   2
  -1   1 -24 5203.35 433.070   6
   1   1 -24 4817.95 636.099   2
   1   1 -24 5530.84 399.962   6
  -1   1 -23 1542.72 345.632   2
   1  -1 -23 1547.54 404.437   2
   1   1 -23 2039.12 236.855   6
  -1   1 -23 2108.44 269.214   6
   1   1 -23 1752.11 384.881   2
  -1  -1 -23 1954.35 243.604   6
  -1  -1 -22 3596.94 312.975   6
   1   1 -22 3515.47 300.662   6
  -1   1 -22 3550.44 337.834   6
   1   1 -22 3127.45 483.945   2
   1  -1 -22 2832.51 512.747   2
   1  -1 -21 3253.05 518.513   2
   1   1 -21 2473.76 417.486   2
   1   1 -21 3184.28 283.598   6
  -1   1 -21 3359.91 320.147   6
   1  -1 -21 2918.90 204.456   6
  -1  -1 -21 3303.02 297.208   6
   1   1 -20 1516.03 320.847   2
   1   1 -20 1890.14 216.314   6
   1  -1 -20 1936.24 163.138   6
  -1  -1 -20 1783.21 211.634   6
   1  -1 -20 1871.08 387.808   2
  -1   1 -20 1955.21 242.008   6
   1  -1 -20 2613.75 328.848   5
   1  -1 -19 199.801 89.2104   5
   1  -1 -19 323.480 70.6551   6
  -1   1 -19 324.294 98.2656   6
  -1  -1 -19 167.133 82.7384   6
   1   1 -19 238.411 87.1683   2
   1   1 -19 371.624 97.9652   6
   1  -1 -19 301.019 170.177   2
   1   1 -18 3391.10 450.702   2
   1   1 -18 2446.48 142.619   5
   1  -1 -18 3497.36 206.137   6
   1  -1 -18 3770.84 492.186   2
  -1   1 -18 3476.46 301.050   6
   1   1 -18 3648.36 271.671   6
   1  -1 -18 4157.05 376.619   5
  -1  -1 -18 3504.98 274.791   6
  -1  -1 -17 1251.47 162.689   6
   1  -1 -17 1159.10 193.585   5
   1   1 -17 898.361 87.5427   5
   1   1 -17 1155.75 257.012   2
   1  -1 -17 1284.01 118.744   6
   1  -1 -17 1304.92 290.591   2
  -1   1 -17 1252.02 145.740   5
   1   1 -17 842.934 58.4466   5
  -1   1 -17 1319.55 182.023   6
   1  -1 -16 4322.79 217.071   6
  -1  -1 -16 4882.11 308.766   6
   1   1 -16 4799.76 492.793   2
   1  -1 -16 4879.83 385.786   5
   1   1 -16 3418.64 134.111   5
   1  -1 -16 4733.44 489.454   2
  -1   1 -16 4329.21 258.709   5
  -1   1 -16 4872.96 333.263   6
   1  -1 -15 1881.67 135.786   6
   1  -1 -15 2110.65 244.600   5
  -1   1 -15 2303.19 225.397   6
  -1  -1 -15 2175.46 202.055   6
   1   1 -15 1888.69 89.5262   5
  -1  -1 -15 2030.42 231.518   1
   1   1 -15 2084.36 321.554   2
  -1   1 -15 2280.32 179.654   5
   1  -1 -15 2434.59 340.413   2
   1   1 -14 12181.6 770.158   2
  -1   1 -14 12238.7 522.285   6
  -1  -1 -14 12612.4 486.807   6
   1  -1 -14 12527.5 603.339   5
  -1  -1 -14 12081.3 559.695   1
  -1   1 -14 13090.1 497.255   3
   1  -1 -14 11319.7 365.502   6
   1   1 -14 10574.7 277.084   5
   1  -1 -14 12452.4 751.930   2
  -1   1 -14 12867.3 583.480   4
  -1   1 -14 12633.7 449.375   5
   1  -1 -13 3333.49 169.237   6
   1   1 -13 3346.70 117.977   5
  -1   1 -13 3843.55 292.366   4
  -1  -1 -13 3869.16 245.993   6
  -1  -1 -13 3064.02 263.731   1
   1  -1 -13 3948.80 394.900   2
  -1   1 -13 3953.85 274.351   6
   1  -1 -13 3626.27 307.474   5
  -1   1 -13 3784.82 222.013   5
   1   1 -13 3635.12 400.058   2
  -1   1 -12 17063.0 608.601   6
   1  -1 -12 16257.0 438.677   6
   1   1 -12 18028.7 896.415   2
   1  -1 -12 18763.8 713.411   5
  -1  -1 -12 18316.8 579.936   6
   1  -1 -12 19154.3 647.625   1
  -1   1 -12 17965.1 541.550   5
   1   1 -12 15561.7 358.586   5
   1  -1 -12 18032.6 834.282   2
   1  -1 -11 7387.26 417.140   5
   1  -1 -11 6528.82 228.677   6
  -1  -1 -11 7002.06 320.751   6
  -1   1 -11 6803.07 298.193   5
   1   1 -11 7658.34 373.643   3
   1   1 -11 7329.22 408.789   4
   1  -1 -11 7445.04 366.062   1
   1  -1 -11 7046.28 483.267   2
  -1   1 -11 6517.27 340.525   6
  -1   1 -11 7075.76 313.573   3
   1  -1 -10 10417.7 567.382   2
  -1   1 -10 10365.3 379.193   3
   1  -1 -10 11036.7 446.458   1
   1  -1 -10 11053.9 517.276   5
  -1   1 -10 10517.3 375.096   5
   1  -1 -10 10391.0 293.491   6
  -1  -1 -10 10273.9 395.381   6
   1  -1  -9 7042.87 389.986   5
  -1  -1  -9 6560.20 294.287   6
   1  -1  -9 7133.30 340.174   1
  -1   1  -9 6814.23 279.334   3
   1  -1  -9 7307.25 446.289   2
   1  -1  -9 6919.69 211.381   6
  -1   1  -9 7073.83 289.372   5
   1  -1  -8 8468.99 226.751   6
  -1  -1  -8 8357.93 320.831   6
  -1   1  -8 8284.17 313.048   5
  -1   1  -8 7824.22 291.108   3
   1  -1  -8 8601.67 456.343   2
   1  -1  -8 8231.06 361.436   1
   1  -1  -8 8763.33 424.716   5
   1  -1  -7 2195.81 89.1264   6
  -1  -1  -7 2230.63 149.050   6
   1  -1  -7 2063.07 193.211   5
  -1   1  -7 2164.05 141.958   5
   1  -1  -7 2119.98 204.713   2
   1  -1  -7 2135.04 169.399   1
   1  -1  -6 8554.06 206.308   6
   1  -1  -6 8403.98 385.146   5
   1  -1  -6 8846.70 403.889   2
  -1  -1  -6 8381.75 305.253   6
  -1   1  -6 8618.51 303.819   5
   1  -1  -6 8414.95 344.961   1
  -1  -1  -5 3540.01 177.842   6
   1  -1  -5 3457.10 228.447   5
  -1   1  -5 3729.92 181.343   5
   1  -1  -5 3520.46 206.400   1
   1  -1  -5 3770.36 229.534   2
   1  -1  -4 12285.8 428.354   5
   1  -1  -4 13183.9 413.726   2
   1  -1  -4 13003.4 417.193   1
  -1  -1  -4 12824.8 378.048   6
  -1   1  -3 18879.3 407.847   1
   1  -1  -3 19096.5 516.373   1
  -1  -1  -3 18231.8 482.884   6
   1  -1  -3 18064.7 523.169   5
   1  -1  -3 17955.9 452.409   2
  -1   1  -2 27499.8 587.993   1
  -1  -1  -2 27131.5 642.860   6
   1  -1  -2 26540.0 672.859   5
   1  -1  -2 27104.9 660.025   1
  -1   1  -1 8153.39 250.421   1
   1  -1  -1 8142.48 288.045   5
  -1  -1  -1 7832.68 271.176   6
   1  -1  -1 7953.76 270.863   1
   1  -1   0 30084.1 685.120   1
   1  -1   0 30848.5 722.111   5
  -1  -1   0 31001.1 717.276   6
  -1   1   0 32171.6 708.021   1
  -1  -1   1 8903.85 313.200   6
   1  -1   1 9136.66 257.265   1
   1  -1   1 9024.99 300.167   5
  -1  -1   1 8808.81 358.388   2
  -1  -1   2 26143.4 756.583   2
  -1   1   2 25083.7 553.983   2
   1  -1   2 27418.8 629.410   5
   1  -1   2 25089.9 539.391   1
  -1  -1   3 19969.2 548.830   3
   1  -1   3 20909.4 539.238   5
   1  -1   3 20934.8 430.998   1
  -1   1   3 23290.5 503.913   2
  -1   1   3 20458.6 450.276   6
  -1  -1   3 22056.4 718.345   2
  -1  -1   3 20510.5 485.213   5
  -1  -1   4 11811.0 520.139   2
  -1   1   4 10962.0 419.491   5
  -1  -1   4 11546.4 305.947   5
  -1  -1   4 11598.7 382.095   3
   1  -1   4 10974.8 349.968   5
  -1  -1   5 5330.62 351.626   2
  -1  -1   5 4980.49 143.188   5
   1  -1   5 4709.46 211.029   5
  -1   1   5 5324.33 279.427   5
  -1  -1   5 4895.84 236.885   3
   1  -1   5 4782.36 182.267   3
  -1   1   6 9253.80 378.186   5
   1  -1   6 8575.49 272.620   3
  -1   1   6 8284.08 204.948   6
  -1  -1   6 8797.60 469.224   2
  -1  -1   6 8853.36 345.527   3
   1  -1   7 2265.75 138.223   3
  -1  -1   7 2664.86 156.899   1
   1   1   7 2602.69 157.683   4
   1   1   7 2298.37 165.143   6
  -1  -1   7 2992.86 195.926   3
  -1  -1   8 9833.76 343.657   1
  -1  -1   8 10029.9 402.069   3
   1  -1   8 9134.15 321.343   3
  -1   1   8 10206.5 464.082   4
   1   1   8 9839.04 358.990   4
   1   1   8 9820.25 376.588   6
   1   1   9 6770.49 307.593   4
   1   1   9 6979.90 319.772   6
  -1  -1   9 6908.01 291.809   1
  -1   1   9 7085.03 391.625   4
   1  -1   9 6626.38 276.159   3
  -1  -1   9 7145.02 343.339   3
   1   1  10 12516.7 471.150   4
  -1   1  10 13763.3 587.171   4
  -1  -1  10 13249.8 450.491   1
  -1  -1  10 13501.0 517.730   3
  -1  -1  11 6890.86 361.752   3
  -1  -1  11 6362.91 309.491   1
   1   1  11 6759.26 342.643   4
  -1   1  11 7085.79 420.238   4
   1   1  12 23397.1 755.635   4
  -1   1  12 23876.9 867.234   4
  -1  -1  12 21874.0 753.245   3
  -1  -1  12 23232.5 706.923   1
  -1   1  13 4506.58 357.790   4
  -1   1  14 13449.1 669.363   4
  -1   1  15 3443.35 337.606   4
  -1   1  16 5519.41 445.587   4
  -1  -1  17 1483.55 214.962   1
  -1   1  17 1583.74 251.932   4
  -1   2 -26 2174.39 288.428   6
   1  -2 -26 2928.25 622.147   2
   1   2 -25 1705.61 230.317   6
  -1   2 -25 1477.97 237.714   6
  -1   2 -24 3273.27 512.576   2
  -1  -2 -24 2254.60 304.274   5
   1   2 -24 2655.35 283.719   6
  -1  -2 -24 2773.49 277.286   6
   1   2 -24 2127.91 418.846   2
   1  -2 -24 1732.55 512.637   2
  -1   2 -24 2396.82 301.351   6
  -1  -2 -23 3041.04 276.205   6
   1   2 -23 2581.22 270.502   6
  -1   2 -23 4438.70 575.811   2
   1  -2 -23 2980.84 521.483   2
   1   2 -23 4007.15 539.735   2
  -1   2 -23 3071.18 336.603   6
  -1  -2 -23 2455.52 310.833   5
  -1  -2 -22 1311.05 222.693   5
  -1  -2 -22 1671.42 215.507   6
   1   2 -22 1357.48 311.728   2
  -1   2 -22 1580.17 350.238   2
  -1   2 -22 1223.19 212.488   6
   1   2 -22 1386.98 194.375   6
   1  -2 -22 1414.53 395.423   2
  -1  -2 -21 2776.47 316.230   5
   1   2 -21 2552.30 417.197   2
   1   2 -21 2623.98 262.418   6
  -1  -2 -21 2870.05 261.312   6
  -1   2 -21 3654.07 492.509   2
  -1   2 -21 2929.94 307.764   6
   1  -2 -21 3782.31 441.130   5
   1  -2 -21 3225.78 531.271   2
   1  -2 -20 1430.26 286.802   5
  -1   2 -20 1447.31 300.959   2
   1   2 -20 619.151 193.554   2
  -1  -2 -20 903.852 149.280   6
   1  -2 -20 755.168 260.342   2
  -1   2 -20 957.331 174.512   6
   1  -2 -19 873.117 208.102   5
   1  -2 -19 737.927 100.904   6
  -1   2 -19 866.659 160.750   6
  -1  -2 -19 684.644 131.840   6
   1   2 -19 840.226 242.792   2
  -1   2 -19 951.526 254.481   2
   1  -2 -19 830.705 266.723   2
   1  -2 -18 1178.95 294.128   2
   1  -2 -18 1177.43 224.546   5
   1  -2 -18 870.857 105.467   6
  -1  -2 -18 923.519 140.895   6
  -1   2 -18 730.338 145.521   6
   1   2 -18 566.143 197.219   2
   1  -2 -17 1387.14 336.738   2
   1  -2 -17 1272.46 232.971   5
   1  -2 -17 989.546 110.462   6
   1   2 -17 1083.51 258.319   2
  -1  -2 -17 1039.67 144.220   6
  -1   2 -17 741.867 145.400   6
   1  -2 -16 3846.81 381.904   5
   1  -2 -16 3398.25 433.257   2
   1   2 -16 3396.70 423.069   2
   1  -2 -16 3346.85 196.121   6
  -1  -2 -16 3197.15 247.569   6
  -1   2 -16 3539.32 241.628   5
   1   2 -15 2965.08 149.166   5
  -1  -2 -15 3586.68 252.570   6
   1  -2 -15 3326.35 397.809   2
   1  -2 -15 4230.52 386.104   5
   1  -2 -15 3600.31 198.146   6
   1   2 -15 3658.48 429.728   2
  -1   2 -15 3708.78 241.673   5
  -1   2 -14 8983.44 390.995   5
   1   2 -14 8821.87 300.397   5
   1   2 -14 9598.86 683.327   2
   1  -2 -14 8885.54 325.349   6
   1  -2 -14 9703.47 586.024   5
   1  -2 -14 8923.12 631.208   2
  -1  -2 -14 9024.65 416.655   6
  -1   2 -13 7134.66 334.275   5
   1  -2 -13 7750.74 505.925   5
   1  -2 -13 7298.94 280.044   6
   1   2 -13 7188.21 273.567   5
   1   2 -13 6946.90 576.440   2
  -1  -2 -13 7221.69 353.151   6
   1  -2 -13 6213.28 498.395   2
   1   2 -12 10048.2 350.628   5
   1  -2 -12 9270.95 583.617   2
   1   2 -12 10657.9 681.125   2
   1  -2 -12 10513.1 593.245   5
   1  -2 -12 10317.4 341.647   6
  -1  -2 -12 10506.1 425.796   6
  -1   2 -12 10079.2 405.173   5
   1  -2 -11 15788.6 718.634   5
  -1  -2 -11 13353.4 493.855   6
   1  -2 -11 12181.8 649.194   2
   1  -2 -11 13831.3 403.839   6
   1   2 -11 14408.5 785.567   2
  -1   2 -11 13753.5 481.882   5
   1   2 -11 13933.9 446.357   5
   1  -2 -10 10552.8 572.286   5
   1   2 -10 10403.4 375.770   5
   1  -2 -10 8952.39 510.331   2
  -1  -2 -10 9984.51 402.988   6
  -1   2 -10 9825.74 389.099   5
   1  -2 -10 9633.20 313.917   6
   1  -2  -9 6537.56 390.604   1
   1  -2  -9 7631.31 470.483   5
   1   2  -9 6808.69 302.358   5
  -1   2  -9 6452.63 302.161   5
   1  -2  -9 6049.08 236.369   6
   1  -2  -9 6017.28 382.209   2
  -1  -2  -9 6369.55 308.793   6
   1  -2  -8 3768.45 177.297   6
   1   2  -8 3785.49 228.759   5
   1  -2  -8 3526.08 262.810   2
   1  -2  -8 4200.08 309.144   1
  -1  -2  -8 4485.54 243.773   6
  -1   2  -8 4138.92 234.995   5
   1  -2  -8 4605.27 357.645   5
   1  -2  -7 4337.55 339.855   5
   1   2  -7 3838.04 233.921   5
  -1   2  -7 4292.79 239.532   5
   1  -2  -7 4545.22 314.556   1
   1  -2  -7 4003.46 250.912   2
  -1  -2  -7 4084.41 234.475   6
  -1  -2  -6 3047.36 197.031   6
   1  -2  -6 2969.01 248.998   1
   1  -2  -6 2794.00 267.668   5
   1  -2  -6 2839.24 184.971   2
   1   2  -6 3037.42 214.808   5
  -1   2  -6 3189.69 205.342   5
   1  -2  -5 2543.12 249.047   5
   1  -2  -5 2431.51 137.211   2
   1  -2  -5 2601.91 231.513   1
  -1  -2  -5 2786.40 185.542   6
  -1   2  -5 2911.46 197.738   5
  -1   2  -4 6226.65 298.766   5
   1  -2  -4 5888.08 363.006   5
  -1  -2  -4 5536.34 270.725   6
   1  -2  -4 5504.50 334.863   1
   1  -2  -3 8210.59 411.600   1
  -1  -2  -3 9049.63 354.606   6
   1  -2  -3 8457.92 428.293   5
  -1  -2  -2 14106.7 482.891   6
   1  -2  -2 14730.6 557.458   1
   1  -2  -2 14778.2 559.886   5
   1  -2  -1 10430.3 451.395   5
  -1  -2  -1 11073.9 432.911   5
  -1  -2  -1 12076.5 438.897   6
   1  -2  -1 11913.8 473.343   1
   1  -2   0 14793.1 529.209   1
  -1  -2   0 14708.0 507.264   5
  -1   2   0 14200.9 380.273   2
  -1  -2   0 14226.0 531.124   2
   1  -2   0 15285.8 535.697   5
  -1  -2   0 14964.2 518.782   6
  -1  -2   1 11508.5 489.705   2
   1  -2   1 12313.1 462.422   5
   1  -2   1 11810.0 452.278   1
  -1  -2   1 11638.9 438.919   5
   1  -2   2 13445.4 473.158   5
  -1  -2   2 12714.2 558.585   2
  -1  -2   2 12561.4 463.138   5
   1  -2   2 12647.8 453.349   1
  -1  -2   3 10742.9 420.317   5
  -1   2   3 10469.6 370.156   6
   1  -2   3 10917.9 386.021   1
   1  -2   3 10997.0 412.025   5
  -1  -2   3 10452.6 517.814   2
  -1  -2   4 5324.44 275.631   5
   1  -2   4 5718.93 282.359   5
  -1   2   4 5705.81 236.225   6
   1  -2   4 5415.57 237.599   1
  -1  -2   4 5494.37 391.174   2
  -1  -2   5 2919.67 184.658   5
   1  -2   5 3019.99 151.964   1
  -1   2   5 3010.68 154.449   6
  -1  -2   5 3684.68 328.274   2
   1  -2   5 3388.40 212.101   5
  -1   2   5 2907.35 257.309   5
   1   2   5 3282.89 209.581   6
  -1  -2   6 3052.72 171.631   5
  -1   2   6 2751.16 258.804   5
  -1   2   6 2774.60 140.445   6
  -1  -2   6 3040.40 295.442   2
   1   2   6 2757.14 194.577   6
  -1  -2   6 2863.51 217.740   3
   1  -2   6 3011.11 202.286   5
   1  -2   6 2487.31 109.719   1
   1  -2   7 3817.66 222.526   3
   1   2   7 3693.71 227.015   6
   1  -2   7 4045.74 235.008   5
  -1  -2   7 3805.99 258.732   3
  -1  -2   7 3728.22 178.921   5
  -1  -2   7 4156.47 373.475   2
  -1   2   7 3576.19 161.235   6
  -1   2   7 4403.29 322.119   5
   1  -2   8 4811.78 260.780   5
  -1   2   8 4557.59 188.105   6
   1  -2   8 4880.38 264.667   3
  -1  -2   8 4826.80 193.090   5
  -1  -2   8 4551.54 292.072   3
  -1  -2   9 7415.29 241.454   5
   1  -2   9 7063.64 328.530   3
   1  -2   9 7185.17 331.445   5
  -1   2   9 7695.28 264.098   6
  -1  -2   9 7294.33 383.393   3
  -1   2  10 11837.7 363.737   6
   1  -2  10 11732.3 454.054   3
  -1  -2  10 11905.7 515.834   3
   1   2  11 14645.3 556.576   6
   1   2  11 13524.5 558.626   4
  -1  -2  11 13733.8 468.453   1
   1  -2  11 13788.9 517.954   3
  -1  -2  11 15074.1 605.350   3
  -1   2  11 13364.4 407.211   6
  -1  -2  12 11870.6 439.215   1
  -1   2  12 12038.8 633.596   4
   1   2  12 11538.2 527.953   4
   1  -2  12 11661.3 483.267   3
   1   2  12 12526.5 527.971   6
  -1  -2  12 12146.6 561.270   3
  -1   2  13 10352.7 598.044   4
  -1  -2  13 9969.73 513.193   3
   1   2  13 10237.9 500.505   4
  -1  -2  13 9601.43 403.862   1
   1  -2  13 9184.19 437.025   3
  -1  -2  14 10392.9 535.906   3
  -1   2  14 10022.2 603.041   4
   1   2  14 9350.29 498.871   4
   1  -2  14 9414.89 462.568   3
  -1   2  15 5248.14 441.276   4
   1   2  15 4762.77 365.408   4
  -1  -2  15 5057.35 383.186   3
   1   2  16 3780.06 330.059   4
  -1  -2  16 3984.60 351.195   3
  -1   2  16 3782.81 392.968   4
   1   2  17 1154.64 199.468   4
  -1   2  17 1275.92 237.707   4
  -1   2  18 1306.11 249.475   4
  -1   2  19 812.224 201.734   4
  -1   2  20 1526.87 286.694   4
  -1   2  21 2999.48 400.042   4
   1   3 -25 203.256 98.9815   6
  -1   3 -24 227.402 138.386   6
   1   3 -24-145.382 88.6225   6
  -1  -3 -24 247.463 148.383   5
   1   3 -23 656.549 252.879   2
  -1   3 -23 488.505 152.375   6
  -1   3 -23 598.695 233.905   2
  -1  -3 -23 430.181 158.799   5
  -1   3 -22 101.325 101.376   6
  -1  -3 -22 200.578 78.3993   6
  -1   3 -22-19.6214 202.130   2
  -1  -3 -22 120.644 75.6234   5
   1  -3 -22 185.250 147.440   5
   1   3 -22 276.057 176.233   2
  -1  -3 -21 3978.08 409.587   5
  -1   3 -21 3524.18 357.731   6
  -1  -3 -21 3437.43 294.294   6
   1   3 -21 3966.33 540.398   2
  -1   3 -21 4327.47 572.252   2
   1  -3 -21 5296.73 544.288   5
   1  -3 -21 4131.93 571.874   2
  -1  -3 -20 1110.87 212.319   5
  -1   3 -20 1380.75 309.557   2
   1  -3 -20 1158.14 311.199   2
  -1  -3 -20 1106.09 173.286   6
  -1   3 -20 923.069 190.851   6
   1   3 -20 1243.50 308.806   2
   1  -3 -20 1319.19 270.602   5
   1   3 -19 9707.96 798.067   2
  -1  -3 -19 8152.27 578.108   5
   1  -3 -19 10253.0 732.689   5
  -1  -3 -19 7811.41 436.427   6
  -1   3 -19 10021.9 779.034   2
   1  -3 -19 9456.37 779.359   2
  -1  -3 -18 1413.86 185.442   6
   1  -3 -18 1684.05 293.386   5
   1   3 -18 1301.69 292.628   2
  -1  -3 -18 1633.46 251.369   5
  -1   3 -18 1226.59 272.741   2
   1  -3 -18 1336.60 292.899   2
   1  -3 -17 8237.15 379.011   6
  -1   3 -17 8978.70 691.382   2
   1   3 -17 9207.87 741.371   2
  -1  -3 -17 7926.54 549.649   5
   1  -3 -17 9756.23 674.371   5
   1  -3 -17 9616.80 707.000   2
  -1  -3 -17 8401.48 440.976   6
   1  -3 -16 450.877 137.279   2
  -1   3 -16 643.835 188.199   2
   1   3 -16 835.949 222.971   2
  -1  -3 -16 353.227 131.402   5
   1  -3 -16 668.775 199.191   5
  -1  -3 -16 539.708 110.593   6
   1  -3 -16 422.317 96.8813   6
   1  -3 -15 4673.63 443.803   5
   1   3 -15 5028.81 519.454   2
  -1  -3 -15 3268.90 335.329   5
  -1   3 -15 4299.90 437.030   2
   1  -3 -15 4114.46 410.622   2
   1  -3 -15 3958.27 249.355   6
  -1  -3 -15 4099.10 292.634   6
   1   3 -14 456.102 87.8443   5
  -1  -3 -14 512.073 142.615   5
   1  -3 -14 519.393 88.1719   6
   1   3 -14 500.601 175.084   2
   1  -3 -14 799.245 202.335   5
   1  -3 -14 635.352 159.930   2
  -1   3 -14 670.828 190.565   2
  -1  -3 -14 520.596 108.411   6
   1   3 -13 242.438 71.5619   5
   1   3 -13 507.384 170.474   2
   1  -3 -13 482.875 86.3845   6
  -1  -3 -13 478.442 147.093   5
   1  -3 -13 587.641 167.672   5
  -1  -3 -13 592.913 110.908   6
  -1   3 -13 727.914 185.083   2
   1  -3 -13 495.694 124.430   2
   1  -3 -12 217.514 85.2743   2
   1  -3 -12 262.666 121.924   5
   1  -3 -12 223.457 53.3108   6
  -1  -3 -12 145.169 74.5568   5
   1   3 -12 112.043 28.8859   5
  -1  -3 -12 201.552 73.9317   6
  -1   3 -12 252.757 125.429   2
   1   3 -12 302.468 131.628   2
   1  -3 -11 642.427 128.456   2
   1  -3 -11 697.009 169.681   5
   1   3 -11 569.578 170.128   2
  -1  -3 -11 480.975 103.104   6
  -1  -3 -11 645.553 153.577   5
  -1   3 -11 743.148 124.018   5
  -1   3 -11 442.927 143.575   2
   1   3 -11 319.906 80.7454   5
   1  -3 -10 259.020 121.955   5
  -1   3 -10 201.351 99.3055   2
   1  -3 -10 266.987 82.4019   2
   1   3 -10 302.929 85.6457   5
   1   3 -10 302.420 153.967   2
  -1  -3 -10 548.223 116.445   6
  -1   3 -10 555.749 109.871   5
  -1  -3 -10 526.891 137.110   5
   1   3  -9 10953.6 658.913   2
   1   3  -9 10480.7 494.588   5
  -1   3  -9 9722.38 452.458   5
   1  -3  -9 8522.39 403.237   2
  -1  -3  -9 9464.71 543.508   5
   1  -3  -9 10582.8 629.213   5
  -1  -3  -9 9643.09 438.118   6
  -1   3  -9 10056.2 555.258   2
  -1  -3  -8 2725.48 277.532   5
  -1   3  -8 2527.93 264.965   2
   1  -3  -8 2274.13 166.406   2
  -1  -3  -8 2667.90 220.331   6
   1   3  -8 2977.38 324.349   2
   1  -3  -8 2925.49 319.231   5
  -1   3  -8 2540.02 220.200   5
   1   3  -8 2445.31 234.185   5
  -1  -3  -7 19111.5 629.760   6
   1   3  -7 19111.5 716.582   5
   1   3  -7 19418.3 852.293   2
  -1  -3  -7 19110.3 759.429   5
  -1   3  -7 19664.3 668.290   5
   1  -3  -7 20382.6 865.581   5
  -1  -3  -6 2616.85 266.371   5
   1  -3  -6 2792.47 306.305   5
  -1   3  -6 3132.27 252.046   5
   1   3  -6 2859.63 269.079   5
   1   3  -6 3171.27 315.982   2
  -1  -3  -6 2874.98 227.732   6
  -1  -3  -5 23174.8 846.686   5
  -1   3  -5 24231.1 803.811   5
  -1  -3  -5 23261.5 751.317   6
   1  -3  -5 25858.8 1059.27   1
   1  -3  -5 22767.0 936.170   5
  -1   3  -5 23472.5 796.824   2
   1  -3  -4 1916.36 245.163   5
  -1   3  -4 2100.61 212.894   5
  -1  -3  -4 2158.57 227.170   5
   1  -3  -4 2121.10 280.988   1
  -1   3  -4 2192.67 208.627   2
  -1  -3  -4 2084.73 194.076   6
  -1   3  -3 11334.8 535.156   5
  -1   3  -3 11647.1 486.071   2
   1  -3  -3 13218.0 702.947   1
  -1  -3  -3 10804.6 528.180   5
   1  -3  -3 11699.9 600.337   5
  -1  -3  -3 11533.4 492.306   6
   1  -3  -2 782.237 142.131   5
  -1   3  -2 919.801 147.234   5
  -1   3  -2 1088.66 126.194   2
  -1  -3  -2 942.443 136.029   6
  -1  -3  -2 1074.49 161.551   5
   1  -3  -2 1148.92 197.153   1
  -1  -3  -1 1078.69 156.315   5
  -1   3  -1 1185.88 125.810   2
   1  -3  -1 1370.33 188.041   5
  -1  -3  -1 1210.05 160.700   2
  -1   3   0 12.4100 21.1044   2
  -1  -3   0 19.4406 37.3646   2
  -1  -3   0 23.6222 53.1384   5
   1  -3   0 73.7802 70.8612   5
   1  -3   1 2162.76 221.768   5
  -1  -3   1 1984.58 221.694   2
  -1  -3   1 1848.14 201.258   5
   1  -3   2 1031.33 158.281   5
  -1   3   2 955.043 132.681   6
  -1  -3   2 1221.12 161.996   5
  -1  -3   2 967.675 166.158   2
  -1  -3   3 10537.0 491.733   5
  -1   3   3 10242.7 447.578   6
  -1  -3   3 10210.4 574.382   2
   1  -3   3 9318.39 466.130   5
  -1  -3   4 2220.92 218.186   5
  -1   3   4 2464.22 199.911   6
  -1  -3   4 2307.41 277.102   2
   1  -3   4 2296.49 214.012   5
  -1  -3   5 24303.2 981.284   2
  -1   3   5 24336.6 717.567   6
   1   3   5 25435.2 814.874   6
   1  -3   5 24082.2 781.960   5
  -1  -3   5 23651.4 786.183   5
  -1  -3   6 3944.67 266.579   5
  -1   3   6 3609.30 342.139   5
  -1  -3   6 3061.84 365.690   2
   1   3   6 3922.81 276.128   6
   1  -3   6 3836.00 270.970   5
  -1   3   6 3782.13 229.357   6
  -1   3   7 19043.8 589.560   6
   1  -3   7 19124.6 687.906   5
   1   3   7 21335.0 708.674   6
  -1  -3   7 19463.6 648.823   5
  -1  -3   8 2377.41 247.879   3
  -1   3   8 2638.94 174.982   6
   1  -3   8 2713.01 232.437   5
   1   3   8 2515.44 221.608   6
   1  -3   8 1991.78 157.631   1
  -1  -3   8 2482.29 191.691   5
  -1  -3   9 9418.41 355.539   5
   1   3   9 10414.6 448.739   6
  -1   3   9 9648.82 340.799   6
  -1  -3   9 9443.39 503.935   3
   1  -3   9 9586.76 454.585   3
   1  -3   9 10503.7 454.228   5
  -1  -3  10 551.853 133.402   3
   1  -3  10 489.378 109.192   3
  -1  -3  10 433.393 75.5098   5
  -1   3  10 485.099 74.4769   6
   1  -3  10 513.494 112.284   5
   1  -3  11 410.491 98.9966   5
  -1  -3  11 681.865 143.921   3
   1  -3  11 598.733 123.615   3
  -1  -3  11 606.578 84.2074   5
  -1   3  11 608.702 84.3600   6
   1  -3  12 147.811 81.5131   3
  -1  -3  12 129.268 49.6140   5
  -1  -3  12 68.6085 67.9366   3
  -1   3  12 130.935 53.3981   6
  -1  -3  13 599.396 144.619   3
  -1   3  13 453.803 77.6395   6
   1  -3  13 454.904 120.925   3
   1  -3  14 422.079 111.001   3
  -1  -3  14 507.467 154.044   3
  -1   3  14 397.225 74.9857   6
   1   3  14 378.539 124.489   4
   1   3  15 4406.41 378.677   4
   1  -3  15 4289.09 345.882   3
  -1   3  15 4446.83 441.081   4
  -1  -3  15 4797.05 410.744   3
   1  -3  16 497.874 144.176   3
  -1  -3  16 718.311 180.035   3
   1   3  16 640.827 153.309   4
  -1   3  16 453.438 160.946   4
   1  -3  17 10425.0 587.841   3
   1   3  17 10280.1 630.090   4
  -1   3  17 11430.4 748.985   4
  -1  -3  17 11534.7 667.314   3
  -1  -3  18 1672.06 281.959   3
  -1   3  18 1471.94 280.738   4
   1   3  18 1544.07 254.394   4
  -1  -3  19 10759.3 680.929   3
   1   3  19 9707.29 643.487   4
  -1   3  19 10198.8 742.923   4
   1   3  20 1159.67 240.783   4
  -1   3  20 1124.75 275.558   4
   1   3  21 5176.89 492.098   4
  -1   3  21 5200.80 550.714   4
  -1   3  22 502.126 217.128   4
  -1   3  23 875.772 255.839   4
  -1   3  24 561.924 257.025   4
  -1  -4 -24 2316.05 366.220   5
  -1  -4 -23 75.5072 120.750   5
   1  -4 -22 3148.34 455.255   5
  -1   4 -22 2559.67 494.397   2
  -1   4 -22 2102.57 294.145   6
  -1  -4 -22 2109.32 333.310   5
   1   4 -21 803.251 277.501   2
   1  -4 -21 568.727 191.107   5
  -1   4 -21 814.463 277.640   2
  -1  -4 -21 596.272 182.721   5
   1   4 -20 1774.47 375.678   2
   1  -4 -20 1345.12 274.895   5
  -1  -4 -20 1196.58 248.586   5
  -1   4 -20 1566.55 343.074   2
  -1  -4 -20 1344.53 195.735   6
   1   4 -19 129.920 116.145   2
  -1  -4 -19 123.187 128.095   5
   1  -4 -19-34.2767 123.062   5
  -1  -4 -19 57.6822 94.5687   6
  -1   4 -19 58.7236 131.258   2
  -1  -4 -18 2602.06 354.202   5
   1   4 -18 2435.02 432.629   2
  -1  -4 -18 2761.03 275.714   6
   1  -4 -18 3200.78 411.663   5
  -1   4 -18 2604.44 416.158   2
   1  -4 -17 1193.22 246.021   5
  -1   4 -17 1011.18 266.867   2
  -1  -4 -17 936.320 214.287   5
  -1  -4 -17 1186.54 186.522   6
   1   4 -17 947.805 287.144   2
   1   4 -16 2610.12 406.247   2
   1  -4 -16 2963.52 389.621   5
  -1  -4 -16 2605.81 346.531   5
  -1  -4 -16 2651.95 260.510   6
  -1   4 -16 2614.67 393.522   2
  -1  -4 -15 1661.34 273.812   5
   1  -4 -15 1971.96 312.254   5
  -1  -4 -15 1844.75 220.517   6
  -1   4 -15 1267.90 265.551   2
   1  -4 -15 1221.73 184.891   2
   1   4 -15 1772.75 343.614   2
   1  -4 -14 3608.07 299.758   2
  -1  -4 -14 5217.21 478.533   5
  -1  -4 -14 4961.90 357.619   6
   1  -4 -14 5171.04 494.936   5
  -1   4 -14 4596.15 493.537   2
   1   4 -14 5941.62 573.506   2
   1   4 -13 695.133 210.772   2
  -1  -4 -13 764.640 197.559   5
  -1  -4 -13 839.846 154.577   6
   1  -4 -13 682.673 198.232   5
   1  -4 -13 506.660 107.233   2
  -1   4 -13 475.021 168.094   2
   1  -4 -12 7901.47 591.867   5
  -1  -4 -12 7068.31 423.658   6
  -1  -4 -12 6278.50 518.736   5
   1   4 -12 7902.48 627.020   2
  -1   4 -12 7680.83 579.920   2
  -1  -4 -11 1210.25 221.000   5
  -1  -4 -11 781.596 141.799   6
   1  -4 -11 716.678 185.659   5
   1   4 -11 948.465 218.979   2
   1  -4 -11 594.443 88.7458   2
   1   4 -11 892.311 166.983   5
  -1   4 -11 618.890 186.686   2
   1  -4 -10 6040.57 505.882   5
  -1  -4 -10 5577.99 464.133   5
   1   4 -10 6074.80 414.831   5
  -1   4 -10 5616.84 456.741   2
  -1  -4 -10 5610.62 369.484   6
   1   4 -10 5864.34 516.234   2
   1   4  -9 2035.34 252.370   5
   1   4  -9 2007.57 293.962   2
  -1  -4  -9 1843.47 270.050   5
  -1  -4  -9 2205.40 237.471   6
   1  -4  -9 2516.26 328.121   5
  -1   4  -9 1856.23 264.370   2
   1  -4  -8 2706.22 334.188   5
  -1  -4  -8 1791.48 215.051   6
   1   4  -8 2663.66 326.062   2
  -1  -4  -8 2643.29 310.385   5
  -1   4  -8 2403.20 282.618   2
   1  -4  -7 661.538 178.170   5
   1   4  -7 458.497 155.327   2
  -1  -4  -7 557.142 148.627   5
  -1   4  -7 376.914 121.355   2
  -1  -4  -7 443.354 117.935   6
   1  -4  -6 5849.82 478.709   5
  -1  -4  -6 5641.21 373.699   6
   1   4  -6 5324.36 459.425   2
  -1  -4  -6 5241.39 429.689   5
  -1  -4  -5 1781.47 244.172   5
   1  -4  -5 1907.00 280.390   5
  -1  -4  -4 4000.21 352.922   5
  -1   4  -4 3690.47 291.625   2
  -1  -4  -4 2816.24 260.858   2
   1  -4  -4 3880.67 377.155   5
   1  -4  -3 3879.73 378.711   5
  -1   4  -3 4581.31 309.753   2
  -1  -4  -3 3639.20 293.610   2
  -1  -4  -3 4176.06 361.152   5
  -1  -4  -2 10410.6 584.780   5
  -1   4  -2 11051.1 474.815   2
  -1  -4  -2 10689.7 522.070   2
   1  -4  -2 10066.5 611.340   5
  -1  -4  -1 824.261 146.751   2
   1  -4  -1 1246.36 206.048   5
  -1  -4  -1 1346.85 208.709   5
  -1  -4   0 15463.7 704.036   5
   1  -4   0 14934.4 739.861   5
  -1  -4   0 15040.9 675.135   2
  -1  -4   1 1239.85 199.130   5
  -1  -4   1 1238.39 187.067   2
   1  -4   1 1383.56 214.240   5
  -1  -4   2 11380.9 615.749   2
   1  -4   2 10892.3 605.458   5
  -1  -4   2 10859.2 579.016   5
  -1   4   2 10636.4 541.329   6
  -1  -4   3 3918.83 335.976   5
  -1  -4   3 4547.33 394.851   2
  -1   4   3 4116.85 307.549   6
   1  -4   3 4305.46 364.236   5
  -1  -4   4 3696.08 317.569   5
  -1   4   4 4013.48 301.723   6
  -1  -4   4 3643.29 372.458   2
   1  -4   4 3552.15 325.413   5
  -1  -4   5 1820.59 216.873   5
   1  -4   5 2022.86 235.458   5
  -1  -4   6 5587.03 380.044   5
   1  -4   6 5101.56 369.237   5
   1  -4   7 528.740 128.443   5
  -1  -4   7 652.752 129.913   5
  -1  -4   8 2314.30 224.784   5
   1  -4   8 2250.12 240.585   5
  -1  -4   9 1455.24 228.910   3
   1  -4   9 1427.09 180.336   1
   1  -4   9 1880.44 223.178   5
  -1  -4   9 2090.67 207.621   5
   1  -4  10 6161.02 401.411   5
  -1  -4  10 5558.13 449.703   3
   1  -4  10 4953.42 392.914   3
  -1  -4  10 6528.29 352.955   5
   1  -4  11 678.819 143.127   5
  -1  -4  11 511.655 155.882   3
  -1  -4  11 757.338 121.397   5
   1  -4  11 1014.92 184.231   3
  -1  -4  12 7491.53 543.211   3
   1  -4  12 6515.01 462.615   3
   1  -4  12 7043.82 444.056   5
  -1  -4  12 7378.06 380.036   5
  -1  -4  13 622.615 167.917   3
  -1  -4  13 630.603 115.728   5
   1  -4  13 773.667 167.230   3
   1  -4  13 659.790 143.927   5
  -1  -4  14 6150.77 329.599   5
   1  -4  14 5625.65 430.891   3
  -1  -4  14 5755.46 488.691   3
  -1  -4  15 2098.81 305.842   3
   1  -4  15 1766.13 247.959   3
   1  -4  16 2503.39 299.138   3
   1   4  16 2339.20 313.278   4
  -1  -4  16 2619.75 351.263   3
   1  -4  17 1180.71 220.128   3
  -1  -4  17 1286.18 239.432   3
  -1   4  17 1224.38 268.992   4
   1   4  17 1095.14 224.132   4
   1   4  18 2757.02 359.813   4
  -1  -4  18 3424.91 404.010   3
  -1   4  18 2724.52 393.084   4
   1  -4  18 2640.87 324.124   3
   1  -4  19 186.072 137.340   3
  -1  -4  19 65.4297 104.001   3
   1   4  19 1.54773 80.0498   4
  -1   4  19-9.25146 85.9226   4
  -1  -4  20 1893.02 321.019   3
   1  -4  20 1718.71 271.077   3
  -1   4  20 1152.63 264.428   4
  -1  -4  21 1011.11 258.449   3
  -1   4  21 445.922 164.803   4
  -1   4  22 2534.42 417.956   4
  -1   4  23 257.866 141.467   4
   1  -5 -21 1361.69 306.615   5
   1  -5 -20 523.387 201.148   5
  -1  -5 -20 317.643 186.020   5
  -1   5 -20-27.8184 124.256   2
   1   5 -19 424.059 198.384   2
  -1  -5 -19 944.217 233.898   5
   1  -5 -19 722.090 227.755   5
  -1  -5 -18 90.4004 75.5167   6
   1   5 -18 327.040 193.348   2
   1  -5 -18 658.936 220.453   5
  -1   5 -18-420.549 196.738   2
  -1  -5 -18-16.3822 99.8850   5
   1   5 -17 390.355 207.806   2
  -1  -5 -17 262.772 155.525   5
  -1  -5 -17 364.415 134.408   6
   1  -5 -17 867.825 217.959   5
  -1   5 -17 277.004 165.997   2
   1  -5 -16 878.810 239.613   5
  -1  -5 -16 917.365 233.847   5
  -1  -5 -16 588.589 159.104   6
   1   5 -16 641.573 231.267   2
  -1   5 -16 391.195 146.789   2
  -1   5 -15 2058.04 350.951   2
  -1  -5 -15 3297.31 414.081   5
   1  -5 -15 2602.38 391.724   5
   1   5 -15 3532.08 479.317   2
  -1  -5 -15 2446.54 291.185   6
  -1  -5 -14 1947.03 251.915   6
   1   5 -14 1919.10 362.049   2
  -1  -5 -14 2263.01 354.532   5
  -1   5 -14 2230.38 361.225   2
   1  -5 -14 2309.72 360.829   5
   1  -5 -13 5661.25 546.051   5
  -1  -5 -13 5525.52 535.912   5
  -1  -5 -13 5252.26 409.979   6
  -1   5 -13 4941.33 506.063   2
   1   5 -13 5174.34 567.770   2
   1  -5 -12 890.973 194.757   5
  -1  -5 -12 893.330 223.497   5
   1   5 -12 635.070 202.266   2
  -1   5 -12 624.885 194.950   2
  -1  -5 -12 933.362 178.122   6
   1  -5 -11 6233.52 569.227   5
  -1  -5 -11 6615.27 575.532   5
  -1   5 -11 5399.16 491.163   2
   1   5 -11 5536.26 541.861   2
   1  -5 -10 3133.72 382.839   5
  -1  -5 -10 2532.97 358.924   5
   1   5 -10 2421.25 356.755   2
  -1   5 -10 2429.77 321.486   2
   1  -5  -9 3848.02 426.344   5
  -1  -5  -9 3600.17 417.394   5
  -1   5  -9 3067.33 359.038   2
   1   5  -9 3708.09 436.719   2
  -1  -5  -8 620.212 181.516   5
   1   5  -8 522.780 163.385   2
   1  -5  -8 588.448 192.470   5
  -1   5  -8 515.229 162.116   2
  -1  -5  -7 1648.28 271.678   5
  -1  -5  -7 972.525 152.490   2
  -1   5  -7 1953.32 263.835   2
   1  -5  -7 1246.11 256.128   5
  -1   5  -6 262.241 106.376   2
  -1  -5  -6 229.772 88.6502   2
   1  -5  -6 191.792 111.851   5
  -1  -5  -6 332.414 146.101   5
  -1  -5  -5 347.985 115.057   2
   1  -5  -5 231.101 131.329   5
  -1  -5  -5 387.825 137.203   5
  -1  -5  -4 439.904 108.973   2
   1  -5  -4 631.654 171.519   5
  -1  -5  -4 795.737 204.271   5
  -1  -5  -3 5406.74 455.267   5
  -1  -5  -3 4357.96 342.042   2
   1  -5  -3 5084.18 472.066   5
   1  -5  -2 2797.81 345.073   5
  -1  -5  -2 2844.33 336.371   5
  -1  -5  -2 2723.53 270.067   2
   1  -5  -1 6933.71 536.828   5
  -1  -5  -1 6177.32 430.273   2
  -1  -5  -1 6115.02 478.032   5
   1  -5   0 1174.15 221.785   5
  -1  -5   0 1246.23 216.522   5
  -1  -5   0 1168.22 189.864   2
  -1  -5   1 6323.42 482.374   5
  -1  -5   1 6745.41 476.317   2
   1  -5   1 6834.23 524.949   5
  -1  -5   2 2691.04 304.202   5
   1  -5   2 2215.57 304.153   5
   1  -5   3 5063.09 453.748   5
  -1  -5   3 5059.62 423.688   5
   1  -5   4 412.189 135.214   5
  -1  -5   4 344.831 111.307   5
   1  -5   5 235.720 110.889   5
  -1  -5   5 447.675 137.870   5
   1  -5   6 413.325 137.767   5
  -1  -5   6 364.652 109.922   5
   1  -5   7 1311.87 214.272   5
  -1  -5   7 1678.25 240.722   5
   1  -5   8 1040.60 198.536   5
  -1  -5   8 794.199 160.046   5
  -1  -5   9 3236.01 306.994   5
   1  -5   9 2909.35 317.680   5
  -1  -5  10 2339.89 323.426   3
   1  -5  10 2576.08 294.459   5
  -1  -5  10 2950.70 282.154   5
  -1  -5  11 5038.46 495.040   3
   1  -5  11 5570.22 437.102   5
  -1  -5  11 6155.11 401.689   5
   1  -5  12 898.379 184.506   5
  -1  -5  12 911.611 156.428   5
  -1  -5  12 910.252 210.643   3
   1  -5  12 899.555 204.173   3
   1  -5  13 4223.72 438.480   3
  -1  -5  13 5018.34 511.001   3
   1  -5  13 5803.35 448.544   5
  -1  -5  13 5739.34 384.941   5
   1  -5  14 1881.95 271.244   5
   1  -5  14 1375.00 254.468   3
  -1  -5  14 1862.24 313.327   3
   1  -5  15 2052.21 302.512   3
  -1  -5  15 2790.44 383.991   3
  -1  -5  16 646.745 216.026   3
   1  -5  16 899.321 215.379   3
   1  -5  17 257.424 134.371   3
  -1  -5  17 597.205 199.741   3
   1  -5  18 117.301 115.618   3
  -1  -5  18-76.1586 149.119   3
   1  -5  19 340.748 161.635   3
  -1  -5  19 490.808 221.606   3
  -1   5  19 121.048 126.804   4
   1  -5  20 411.056 210.674   3
  -1   5  20-56.5392 122.961   4
  -1  -5  20 579.856 234.661   3
  -1   5  21 930.801 267.598   4
  -1   6 -18 964.462 279.835   2
  -1   6 -17 1444.78 319.008   2
   1   6 -17 1372.93 340.345   2
  -1   6 -16 611.729 179.625   2
   1   6 -16 1251.14 299.296   2
   1  -6 -16 898.403 233.368   5
   1   6 -15 702.697 249.386   2
  -1   6 -15 931.958 254.892   2
  -1  -6 -15 1276.01 294.406   5
   1  -6 -15 832.599 242.027   5
  -1   6 -14 199.757 134.684   2
   1   6 -14 85.6700 123.989   2
  -1  -6 -14 238.418 182.376   5
   1  -6 -14 131.198 137.001   5
  -1   6 -13 82.1487 99.4318   2
  -1  -6 -13-23.2734 149.008   5
   1  -6 -13-68.1366 164.465   5
   1   6 -13 59.9405 113.779   2
  -1   6 -12 439.101 165.611   2
   1  -6 -12 224.407 147.817   5
  -1  -6 -12 676.776 199.917   5
  -1   6 -11-70.9974 84.0317   2
  -1  -6 -11 171.725 146.282   5
   1  -6 -11 126.972 102.102   5
   1  -6 -10 591.716 207.377   5
  -1   6 -10 647.620 184.378   2
  -1  -6 -10 831.126 224.732   5
  -1   6  -9 1441.39 255.316   2
  -1  -6  -9 1684.01 319.351   5
   1  -6  -9 1416.83 286.649   5
   1  -6  -8 2509.09 375.355   5
  -1  -6  -8 2724.43 386.008   5
  -1   6  -8 2579.50 332.710   2
  -1   6  -7 4091.54 393.920   2
   1  -6  -7 4112.99 474.498   5
  -1  -6  -7 4327.68 477.307   5
   1  -6  -6 2474.66 369.867   5
  -1  -6  -6 2507.82 365.512   5
  -1  -6  -5 4425.97 468.334   5
   1  -6  -5 4366.81 484.076   5
   1  -6  -4 2782.36 385.074   5
  -1  -6  -4 2046.34 316.511   5
   1  -6  -3 1757.19 288.642   5
  -1  -6  -3 2225.60 320.242   5
  -1  -6  -2 110.053 118.485   5
   1  -6  -2 46.0688 101.685   5
   1  -6  -1 351.601 159.184   5
  -1  -6  -1 34.7734 83.3378   5
  -1  -6   0 315.794 142.089   5
   1  -6   0 392.478 161.881   5
  -1  -6   1 415.738 156.960   5
   1  -6   1 221.019 131.542   5
   1  -6   2 228.563 105.729   5
  -1  -6   2 102.757 106.470   5
   1  -6   3 1222.61 247.748   5
  -1  -6   3 1453.19 251.124   5
  -1  -6   4 2399.00 322.538   5
   1  -6   4 2273.07 335.975   5
  -1  -6   5 3213.83 364.635   5
   1  -6   5 3364.69 401.015   5
   1  -6   6 2491.87 329.282   5
  -1  -6   6 2638.97 331.835   5
  -1  -6   7 3449.26 378.865   5
   1  -6   7 3765.08 408.587   5
   1  -6   8 1954.35 299.062   5
  -1  -6   8 2208.07 292.494   5
   1  -6   9 1605.74 264.592   5
  -1  -6   9 1727.81 252.066   5
   1  -6  10 595.789 184.962   5
  -1  -6  10 403.749 121.559   5
  -1  -6  10 480.061 177.258   3
  -1  -6  11 408.928 118.654   5
  -1  -6  11 439.328 183.848   3
   1  -6  11 291.098 121.832   5
   1  -6  11-13.7910 104.937   3
  -1  -6  12 120.667 101.747   3
   1  -6  12 159.511 134.936   3
   1  -6  12 295.925 131.976   5
   1  -6  13 268.385 145.565   5
  -1  -6  13-132.451 156.050   3
   1  -6  13 172.303 134.806   3
  -1  -6  14-67.4589 123.443   3
   1  -6  14 12.5772 92.5031   5
  -1  -6  15 710.102 241.092   3
   1  -6  15 402.281 156.604   3
   1  -6  16 775.801 238.348   3
  -1  -6  16 1384.83 342.202   3
   1  -6  17 1339.11 276.778   3
   1  -6  18 240.000 155.622   3
  -1  -7  -8 1228.68 296.986   5
   1  -7  -8 1611.73 327.757   5
   1  -7  -7 373.794 170.249   5
  -1  -7  -7 616.299 223.751   5
   1  -7  -6 1079.26 272.990   5
  -1  -7  -6 938.949 246.040   5
  -1  -7  -5 1072.66 253.936   5
   1  -7  -5 889.801 247.192   5
   1  -7  -4 1379.08 289.608   5
  -1  -7  -4 1116.14 269.950   5
   1  -7  -3 937.206 244.134   5
  -1  -7  -3 884.431 241.100   5
   1  -7  -2 2064.20 356.946   5
  -1  -7  -2 1667.13 310.517   5
   1  -7  -1 199.539 116.451   5
  -1  -7  -1 286.041 143.878   5
   1  -7   0 2029.61 356.882   5
  -1  -7   0 2174.47 341.418   5
   1  -7   1 322.296 190.872   5
  -1  -7   1 256.924 147.253   5
   1  -7   2 1376.12 289.584   5
  -1  -7   2 1954.81 320.952   5
   1  -7   3 543.046 197.330   5
  -1  -7   3 739.409 226.713   5
   1  -7   4 1030.61 260.904   5
  -1  -7   4 1759.42 298.582   5
   1  -7   5 506.807 194.026   5
  -1  -7   5 604.463 222.560   5
  -1  -7   6 869.117 213.917   5
   1  -7   6 848.847 226.300   5
   1  -7   7 384.215 169.062   5
  -1  -7   7 489.951 172.955   5
   1  -7   8 860.411 224.119   5
  -1  -7   8 1053.34 216.879   5
   1  -7   9 85.1894 122.999   5
  -1  -7   9 33.5483 111.828   5
   1  -7  10 754.128 233.470   5
  -1  -7  10 481.497 201.658   3
   1  -7  11 135.670 127.613   5
   1  -7  11 165.588 137.889   3
   1  -7  12 1063.38 246.600   5
   1  -7  12 613.373 213.407   3
   1  -7  13 177.273 151.175   3
  -2   0 -27 60.4969 147.556   6
   2   0 -26 5105.20 777.945   2
  -2   0 -26 4651.00 418.173   6
  -2   0 -25 387.347 149.646   6
   2   0 -25 169.120 189.302   2
   2   0 -24 12184.6 1143.63   2
  -2   0 -24 9689.89 607.808   6
   2   0 -23 114.956 142.758   2
  -2   0 -23 203.710 145.598   6
   2   0 -22 7325.06 826.398   2
  -2   0 -22 7250.95 491.090   6
  -2   0 -21 26.7585 90.9391   6
   2   0 -21 189.771 195.937   2
  -2   0 -20 4026.37 347.103   6
   2   0 -20 4762.14 268.663   6
   2   0 -20 3368.65 525.612   2
   2   0 -19 11.9839 45.4881   6
  -2   0 -19 27.8258 68.0176   6
   2   0 -18 1216.53 133.629   6
  -2   0 -18 1124.21 182.852   6
   2   0 -18 1295.22 313.422   2
  -2   0 -17 40.6482 86.7536   1
   2   0 -17-28.0834 116.332   2
   2   0 -17-43.9384 46.9988   6
  -2   0 -17-17.6639 62.6351   6
  -2   0 -16 7187.61 429.047   6
   2   0 -16 7140.03 666.832   2
   2   0 -16 8287.41 338.959   6
  -2   0 -16 6966.68 356.966   3
  -2   0 -15-32.5664 93.8928   1
  -2   0 -15 13.8362 72.0011   6
   2   0 -15 4.07635 43.1097   6
   2   0 -15 79.6946 90.5997   2
   2   0 -14 9798.87 736.159   2
  -2   0 -14 12381.5 527.112   1
  -2   0 -14 9152.66 450.876   6
  -2   0 -14 5331.89 331.112   4
   2   0 -14 9555.63 328.603   6
   2   0 -14 6958.99 181.800   5
   2   0 -13 21.8148 14.2874   5
  -2   0 -13 33.4324 37.4905   3
  -2   0 -13-3.93196 40.0758   4
   2   0 -13-6.72892 92.4403   2
  -2   0 -13 137.083 83.0570   6
  -2   0 -12 34533.2 965.447   6
   2   0 -12 31574.5 637.342   5
   2   0 -12 33459.3 1365.97   2
  -2   0 -12 31572.5 866.324   4
  -2   0 -12 33927.4 817.389   3
   2   0 -11-28.3578 87.5843   2
   2   0 -11 5.65859 16.4182   5
  -2   0 -11 23.4026 32.4223   4
  -2   0 -11 44.8522 61.2206   6
  -2   0 -11 27.7447 27.7726   3
   2   0 -10 10335.7 661.405   2
  -2   0 -10 9713.92 358.719   4
  -2   0 -10 11376.9 451.982   6
   2   0 -10 10461.7 250.410   5
  -2   0 -10 9394.09 323.664   3
   2   0  -9-38.4407 69.9244   2
  -2   0  -9 0.52046 19.8831   3
   2   0  -9 4.20238 14.5920   5
  -2   0  -9 7.29687 20.8873   4
  -2   0  -9 28.3098 57.0346   6
   2   0  -8 8325.23 278.220   6
  -2   0  -8 7027.23 256.036   4
   2   0  -8 8223.12 521.625   2
  -2   0  -8 8150.43 357.259   6
  -2   0  -8 7494.57 242.399   3
   2   0  -8 7983.79 211.657   5
   2   0  -7 77.1360 65.1008   2
   2   0  -7-9.34520 13.9741   5
   2   0  -7 5.84702 21.8901   6
  -2   0  -7 12.0909 16.8453   4
  -2   0  -7 76.3302 45.3312   6
   2   0  -6 5722.47 185.211   6
  -2   0  -6 5926.77 276.089   6
   2   0  -6 5660.24 372.881   2
   2   0  -6 5440.44 176.921   5
   2   0  -5-5.83039 23.3879   3
   2   0  -5-2.66707 36.1260   2
  -2   0  -5-19.9167 33.1703   6
   2   0  -5 7.74429 15.1961   6
   2   0  -4 7391.02 282.600   3
  -2   0  -4 6671.62 278.740   6
   2   0  -4 7040.01 211.349   6
   2   0  -3 13.7943 16.0804   6
  -2   0  -3-13.2119 27.7879   6
   2   0  -3 29.8895 26.2869   3
  -2   0  -2 36228.5 817.063   6
   2   0  -2 36128.9 760.181   6
   2   0  -2 37734.9 803.577   3
  -2   0  -2 35187.3 691.890   3
  -2   0  -1-5.21376 12.6292   3
   2   0  -1 12.7905 18.5111   3
  -2   0  -1-14.2783 25.8305   6
   2   0  -1 3.95758 18.4553   6
   2   0   0 51000.0 1003.83   3
  -2   0   0 49274.7 1042.15   6
   2   0   0 46049.3 1048.33   6
  -2   0   0 52456.7 1071.36   4
  -2   0   0 50680.2 994.398   3
  -2   0   1-11.0516 19.0818   3
  -2   0   1 7.71648 17.7157   5
  -2   0   1-25.4236 27.0438   4
  -2   0   1 8.24316 19.9344   6
   2   0   1 2.72040 21.7272   6
  -2   0   2 41702.0 954.950   4
  -2   0   2 38805.2 835.116   6
  -2   0   2 41068.5 866.102   3
  -2   0   2 38174.0 851.066   5
  -2   0   3-4.56017 22.0572   3
  -2   0   3 46.3395 42.1739   2
  -2   0   3-9.92442 23.6245   4
  -2   0   3 23.9069 19.6926   6
  -2   0   3 7.31585 18.9650   5
  -2   0   4 6793.68 322.390   4
  -2   0   4 6082.51 217.719   6
  -2   0   4 6618.42 367.749   2
  -2   0   4 6332.85 218.420   5
  -2   0   5 26.8150 17.1802   5
  -2   0   5-20.9322 53.8928   2
  -2   0   5-18.8132 36.8891   4
  -2   0   6 6799.98 238.349   5
  -2   0   6 6942.12 417.989   2
  -2   0   6 7775.22 378.462   4
  -2   0   7 15.7773 19.6296   5
  -2   0   7-5.25817 43.3728   4
  -2   0   7 90.5204 71.6376   2
  -2   0   8 7303.85 250.802   5
  -2   0   8 8151.47 470.242   2
  -2   0   8 8171.42 426.219   4
  -2   0   9-40.3479 60.1453   4
  -2   0   9 4.91749 44.7359   2
  -2   0  10 15376.6 661.056   4
  -2   0  11-7.25618 57.5888   4
  -2   0  11 41.6318 48.8795   1
  -2   0  12 37102.7 1107.36   1
  -2   0  13 0.27100 57.2488   1
  -2   0  14 14178.8 665.626   1
  -2   0  15 45.6821 66.1669   1
  -2   0  16 8028.13 530.870   1
  -2   0  17-73.6195 111.719   1
  -2   0  18 2005.38 290.987   1
  -2  -1 -26 1083.01 209.065   6
  -2   1 -26 943.152 199.175   6
   2   1 -25 2199.73 475.381   2
   2  -1 -25 2182.03 526.741   2
  -2  -1 -25 2646.62 323.549   6
  -2   1 -25 2455.52 309.720   6
  -2  -1 -24 2334.21 286.597   6
   2   1 -24 2153.76 463.888   2
  -2   1 -24 2022.42 281.973   6
   2  -1 -24 1365.07 401.980   2
   2   1 -23 1795.45 442.783   2
   2  -1 -23 1692.02 437.495   2
  -2  -1 -23 1961.32 270.416   6
  -2   1 -23 1696.31 259.277   6
   2   1 -22 1335.03 359.383   2
  -2  -1 -22 1023.15 197.510   6
   2  -1 -22 1041.79 357.790   2
  -2   1 -22 980.131 193.603   6
  -2   1 -21 9596.04 582.361   6
   2   1 -21 9841.85 909.178   2
   2  -1 -21 9432.58 918.662   2
  -2  -1 -21 9377.56 558.246   6
   2   1 -21 10184.2 487.961   6
   2   1 -20 6442.27 705.003   2
  -2  -1 -20 7267.28 464.866   6
   2  -1 -20 5653.11 697.161   2
   2   1 -20 6857.66 384.864   6
  -2   1 -20 6683.74 465.460   6
   2   1 -19 6766.84 691.188   2
   2   1 -19 6118.40 350.148   6
  -2   1 -19 6184.92 437.497   6
  -2  -1 -19 6216.63 418.416   6
   2  -1 -19 5701.05 665.751   2
   2  -1 -19 5630.99 302.872   5
   2  -1 -18 389.012 87.9533   5
   2  -1 -18 384.319 61.5469   6
  -2  -1 -18 392.283 117.235   6
  -2   1 -18 420.071 128.944   6
   2  -1 -18 253.612 172.135   2
   2   1 -18 479.109 207.903   2
   2  -1 -17 12802.1 491.292   5
   2  -1 -17 11692.8 342.747   6
   2   1 -17 14592.1 976.682   2
  -2  -1 -17 13902.4 604.545   6
   2  -1 -17 10418.1 843.338   2
  -2   1 -17 13159.2 623.665   6
   2  -1 -16 13897.1 523.629   5
   2   1 -16 16548.1 1034.15   2
   2  -1 -16 12374.0 884.695   2
  -2  -1 -16 14559.4 618.758   6
  -2   1 -16 15112.1 654.014   6
   2  -1 -16 13396.8 362.474   6
   2  -1 -15 6340.42 332.030   5
  -2  -1 -15 7098.70 402.454   6
   2   1 -15 7850.86 683.151   2
   2  -1 -15 6322.33 206.031   6
  -2   1 -15 6742.91 417.402   6
  -2   1 -15 5846.96 382.118   4
   2  -1 -15 5673.68 575.288   2
   2  -1 -14 6777.60 340.482   5
  -2   1 -14 7192.02 340.166   3
  -2  -1 -14 6700.16 380.922   6
   2   1 -14 7419.40 639.536   2
  -2   1 -14 5813.65 374.672   4
  -2   1 -14 6795.20 408.858   6
   2  -1 -14 5639.96 548.103   2
   2  -1 -14 6371.67 196.819   6
   2  -1 -13 9456.58 376.705   5
  -2   1 -13 9831.76 366.298   3
   2  -1 -13 9174.02 187.362   6
   2  -1 -13 9026.38 651.480   2
   2   1 -13 9908.39 707.595   2
  -2  -1 -13 9645.75 423.311   6
  -2   1 -13 9445.01 454.708   6
   2  -1 -12 15923.7 484.069   5
   2  -1 -12 15065.2 805.193   2
   2  -1 -12 15639.3 226.933   6
  -2  -1 -12 15936.1 532.174   6
  -2   1 -12 16527.1 584.372   6
   2   1 -12 18545.3 936.015   2
   2  -1 -11 5758.83 286.389   5
  -2   1 -11 5827.80 302.832   5
  -2  -1 -11 6021.35 314.663   6
   2  -1 -11 5575.96 461.710   2
  -2   1 -11 5543.93 335.010   6
   2   1 -11 6283.55 533.140   2
  -2   1 -10 9274.38 442.544   6
   2   1 -10 10271.3 665.910   2
  -2  -1 -10 9931.81 416.243   6
   2  -1 -10 8981.72 571.060   2
   2  -1 -10 9481.99 430.433   1
  -2   1 -10 9113.91 396.065   5
   2  -1 -10 9347.76 381.769   5
  -2   1  -9 34397.8 977.752   6
   2  -1  -9 36457.3 1190.56   2
  -2  -1  -9 33259.2 914.768   6
   2  -1  -9 36057.7 972.192   1
   2   1  -9 35085.4 1294.51   2
  -2   1  -9 35348.2 920.542   5
   2  -1  -9 35028.2 890.150   5
   2   1  -8 47823.1 1220.80   6
  -2   1  -8 46502.2 1171.93   6
   2  -1  -8 46599.6 1154.32   1
   2  -1  -8 46688.8 1322.76   2
  -2  -1  -8 44224.5 1102.51   6
  -2   1  -8 44985.2 1103.36   5
   2  -1  -8 45489.2 1077.12   5
   2   1  -7 40466.1 1061.48   6
  -2  -1  -7 37581.2 972.520   6
   2  -1  -7 40710.1 1026.15   1
  -2   1  -7 40445.2 1031.69   6
   2  -1  -7 39126.1 1113.99   2
  -2   1  -7 39713.0 980.500   5
   2  -1  -7 39176.7 949.748   5
   2  -1  -6 5845.14 262.111   5
  -2  -1  -6 5835.00 280.297   6
   2  -1  -6 6147.69 301.953   1
   2  -1  -6 5672.95 320.848   2
  -2   1  -6 5779.03 302.951   6
   2   1  -6 6107.30 306.848   6
   2   1  -5 30537.4 792.228   6
   2  -1  -5 30783.9 808.087   1
  -2   1  -5 28969.6 634.612   1
  -2  -1  -5 29644.8 768.061   6
   2  -1  -5 29590.3 744.582   5
  -2   1  -5 31211.9 811.499   6
  -2   1  -4 37407.3 792.505   1
  -2   1  -4 38513.2 935.344   6
   2   1  -4 36587.1 905.149   6
   2   1  -4 39089.7 974.367   4
   2  -1  -4 38649.9 938.497   1
  -2  -1  -4 37416.4 903.154   6
   2  -1  -4 37483.8 888.276   5
  -2   1  -3 39091.1 835.185   1
   2   1  -3 38826.9 921.588   6
   2   1  -3 40194.1 975.036   4
   2  -1  -3 38487.7 916.937   5
   2  -1  -3 41253.6 955.919   1
  -2  -1  -3 38008.0 924.695   6
  -2   1  -3 39877.8 939.902   6
  -2  -1  -2 14699.5 449.801   6
  -2   1  -2 13367.7 437.212   6
   2  -1  -2 14398.2 453.078   1
   2   1  -2 14829.9 445.727   6
  -2   1  -2 14085.1 392.543   1
   2   1  -2 13946.5 457.527   4
   2  -1  -2 14665.7 445.583   5
  -2  -1  -1 10532.2 362.205   6
  -2   1  -1 9817.79 338.312   6
   2  -1  -1 10916.1 358.408   1
   2   1  -1 10916.9 362.068   4
   2   1  -1 10093.8 357.939   6
  -2   1  -1 10043.2 327.383   1
   2  -1  -1 10450.5 363.204   5
  -2  -1   0 18746.3 535.827   6
  -2   1   0 18306.9 507.666   1
  -2   1   0 18806.2 487.593   6
   2  -1   0 19995.7 550.177   5
  -2   1   1 5854.36 211.959   6
  -2   1   1 6106.68 258.157   1
   2  -1   1 6178.45 267.607   5
  -2  -1   1 6312.12 265.758   6
  -2  -1   2 12595.1 407.304   3
  -2   1   2 12024.8 320.771   6
  -2  -1   2 11236.6 512.888   2
  -2  -1   2 12301.8 416.695   6
   2  -1   2 12827.3 421.627   5
  -2   1   2 13429.3 440.417   5
  -2   1   3 44115.6 1020.79   5
  -2  -1   3 41512.4 987.894   3
  -2   1   3 41326.2 826.768   6
   2  -1   3 42085.2 995.667   5
  -2  -1   3 40941.3 1188.98   2
  -2   1   3 41382.6 1018.29   2
  -2  -1   3 41636.8 1002.84   6
  -2   1   4 46999.8 1091.42   5
  -2  -1   4 45669.0 1317.61   2
  -2   1   4 43693.5 1109.82   2
  -2   1   4 45488.3 858.821   6
  -2  -1   4 45852.2 1071.36   3
  -2   1   5 24159.2 673.098   5
  -2  -1   5 24960.1 899.407   2
  -2   1   5 23732.0 707.251   2
  -2  -1   5 24123.6 658.336   3
  -2   1   6 6557.70 343.522   2
  -2   1   6 5501.10 299.547   5
  -2  -1   6 6677.32 453.378   2
  -2  -1   6 6325.04 306.776   3
  -2   1   7 54310.2 1297.66   2
  -2  -1   7 50934.3 1532.81   2
  -2  -1   7 49322.8 1217.90   3
  -2   1   8 47089.0 1231.49   5
  -2  -1   8 50692.8 1556.21   2
  -2   1   8 51000.8 1368.73   4
  -2  -1   8 49802.0 1236.27   3
  -2   1   9 32119.2 922.955   5
  -2   1   9 35311.3 1088.63   4
  -2  -1   9 33292.3 952.514   3
  -2  -1   9 33628.5 1219.36   2
  -2   1  10 13144.9 592.812   1
  -2   1  10 13215.5 622.807   4
  -2  -1  10 12710.1 534.264   3
   2   1  10 13428.8 540.083   6
  -2   1  11 10608.5 546.064   1
  -2   1  11 11353.5 586.155   4
  -2  -1  11 10200.5 486.736   3
  -2   1  12 18602.7 780.435   1
  -2   1  12 18659.6 803.389   4
  -2  -1  12 18220.3 699.388   3
  -2  -1  12 18114.0 653.197   1
  -2   1  13 8401.74 521.258   1
  -2   1  13 8928.97 549.279   4
  -2  -1  13 8308.81 432.129   1
  -2   1  14 6999.32 495.855   4
  -2   1  14 6846.39 492.128   1
  -2  -1  14 6762.09 407.264   1
  -2  -1  15 12414.0 589.258   1
  -2   1  15 11405.7 674.408   1
  -2   1  15 12031.8 683.155   4
  -2  -1  16 19638.5 803.197   1
  -2   1  16 18027.5 890.259   4
  -2  -1  17 15702.1 745.811   1
  -2   1  17 14617.2 819.621   4
  -2  -1  18 278.230 124.240   1
  -2   1  18 205.320 113.174   4
  -2  -1  19 10547.6 655.173   1
  -2  -1  20 8896.53 622.310   1
  -2  -2 -25 50.6751 103.643   6
  -2   2 -25 279.686 157.461   6
   2  -2 -24 88.7650 163.844   2
   2   2 -24-151.603 159.198   2
  -2  -2 -24 204.111 123.167   6
  -2   2 -24 175.049 144.412   6
   2   2 -23 4212.92 608.426   2
  -2  -2 -23 3713.12 349.565   6
  -2   2 -23 3359.50 363.331   6
   2  -2 -23 3391.02 555.723   2
   2   2 -22 1482.62 368.195   2
  -2  -2 -22 802.589 172.221   6
  -2   2 -22 918.195 178.226   6
   2  -2 -22 1162.03 346.882   2
   2   2 -21 2516.45 451.426   2
  -2  -2 -21 2624.91 283.656   6
   2  -2 -21 2024.26 414.384   2
  -2   2 -21 2081.94 280.502   6
   2   2 -20 2573.08 451.189   2
   2  -2 -20 2095.58 254.975   5
  -2  -2 -20 2357.22 261.618   6
  -2   2 -20 2076.15 266.408   6
   2  -2 -20 2769.69 449.472   2
   2  -2 -19 7514.52 511.319   5
   2  -2 -19 8508.02 747.532   2
  -2   2 -19 6830.66 495.274   6
   2   2 -19 8828.40 793.160   2
  -2  -2 -19 8265.78 480.912   6
  -2  -2 -18 5975.23 397.190   6
   2  -2 -18 5311.28 427.454   5
   2   2 -18 6766.26 673.394   2
  -2   2 -18 5360.21 417.948   6
   2  -2 -18 5792.30 597.704   2
   2  -2 -17 1334.60 207.528   5
   2   2 -17 2078.21 369.764   2
  -2  -2 -17 1637.84 202.401   6
   2  -2 -17 1649.57 323.397   2
  -2   2 -17 1397.25 215.119   6
   2  -2 -16 4428.10 384.310   5
  -2  -2 -16 5218.34 351.258   6
   2   2 -16 5890.11 602.215   2
  -2   2 -16 4636.88 370.056   6
   2  -2 -16 5496.85 539.491   2
   2  -2 -15 6018.80 443.433   5
   2  -2 -15 7106.63 582.898   2
  -2   2 -15 6171.34 424.523   6
   2   2 -15 7658.55 669.014   2
  -2  -2 -15 6597.90 391.418   6
   2  -2 -14 4528.71 380.252   5
   2  -2 -14 5591.54 490.612   2
  -2  -2 -14 4875.65 329.031   6
   2   2 -14 6076.91 581.227   2
  -2   2 -14 4999.97 361.921   6
   2   2 -13 164.644 129.261   2
   2  -2 -13 225.924 85.5534   5
   2  -2 -13 185.083 88.4743   2
  -2  -2 -13 353.326 97.4052   6
  -2   2 -13-22.7562 81.1223   6
   2  -2 -12 1534.21 208.315   5
   2   2 -12 1512.57 277.319   2
  -2   2 -12 1540.13 191.185   6
   2  -2 -12 1941.21 251.240   2
  -2  -2 -12 1582.36 174.186   6
   2  -2 -11 11200.0 570.355   5
  -2  -2 -11 10351.1 464.100   6
   2  -2 -11 12154.5 614.577   2
   2   2 -11 11477.5 739.583   2
   2  -2 -10 5037.67 363.805   5
  -2  -2 -10 5008.98 300.161   6
   2   2 -10 5344.59 485.823   2
   2  -2 -10 5615.96 371.244   2
   2  -2  -9 5703.60 379.415   5
  -2  -2  -9 5759.92 320.523   6
   2  -2  -9 5820.29 340.135   2
   2   2  -9 5852.60 401.276   6
  -2   2  -9 5606.11 311.766   5
   2  -2  -8 9859.66 488.635   5
   2   2  -8 9892.00 523.472   6
  -2  -2  -8 9265.50 406.698   6
   2  -2  -8 9071.60 395.062   2
  -2   2  -8 8743.91 396.261   5
   2  -2  -7 20729.2 737.641   5
   2   2  -7 20522.4 780.863   6
  -2  -2  -7 20039.2 643.651   6
   2  -2  -7 18550.4 679.326   1
  -2   2  -7 20407.3 646.452   5
   2  -2  -6 12432.8 532.165   5
   2   2  -6 13123.6 583.299   6
  -2  -2  -6 12485.3 475.494   6
   2  -2  -6 11908.9 502.010   1
  -2   2  -6 11964.0 467.915   5
   2  -2  -5 8349.32 413.672   5
   2   2  -5 8774.37 449.604   6
   2  -2  -5 7762.13 387.252   1
  -2  -2  -5 8202.36 368.070   6
   2   2  -4 13018.6 544.005   6
  -2  -2  -4 12435.2 465.930   6
   2  -2  -4 11364.4 473.096   1
   2  -2  -4 11822.2 497.773   5
   2   2  -3 13266.5 535.542   6
   2  -2  -3 12676.6 487.115   1
  -2  -2  -3 13102.9 479.721   6
   2  -2  -3 12347.4 502.380   5
   2  -2  -2 9150.20 392.955   1
  -2   2  -2 9326.49 377.090   1
  -2  -2  -2 9765.06 405.379   6
   2  -2  -2 9320.24 415.169   5
   2  -2  -1 1343.02 138.004   1
  -2   2  -1 1347.05 137.803   1
  -2  -2  -1 1490.17 152.517   6
   2  -2  -1 1397.24 152.473   5
   2  -2   0 801.618 114.597   5
   2  -2   0 705.152 92.1156   1
  -2   2   0 461.342 98.1382   1
  -2  -2   0 732.752 113.730   6
  -2  -2   1 1810.32 206.538   2
  -2  -2   1 2035.92 181.637   6
  -2   2   1 1814.72 171.899   1
   2  -2   1 1996.64 150.304   1
   2  -2   1 1979.87 177.262   5
   2  -2   2 7707.08 296.983   1
  -2  -2   2 7894.81 386.616   6
  -2  -2   2 7668.41 449.194   2
   2  -2   2 7544.34 365.259   5
  -2   2   2 7459.68 369.877   1
   2  -2   3 15706.4 447.877   1
  -2   2   3 14861.9 417.669   2
  -2   2   3 15271.6 580.413   1
  -2  -2   3 14698.0 691.089   2
   2  -2   3 17774.9 585.711   5
  -2  -2   4 9559.56 369.574   5
   2  -2   4 9566.30 309.862   1
  -2   2   4 10779.2 321.352   2
  -2  -2   4 9756.52 568.377   2
   2  -2   4 10435.1 440.975   5
  -2  -2   5 8026.05 402.512   3
  -2  -2   5 8602.68 341.556   5
  -2   2   5 8409.19 278.098   6
  -2  -2   5 9443.97 571.987   2
   2  -2   5 9321.36 411.664   5
  -2  -2   6 12219.8 518.457   3
  -2  -2   6 13077.2 429.598   5
  -2  -2   6 14037.3 740.158   2
   2  -2   6 13319.2 508.108   5
  -2   2   6 11763.8 304.952   6
   2  -2   7 18476.5 532.961   3
  -2  -2   7 19588.2 536.690   5
  -2  -2   7 21739.3 969.768   2
  -2   2   7 19274.7 396.900   6
   2  -2   7 20379.0 672.145   5
  -2  -2   7 19608.1 689.276   3
   2  -2   8 8287.84 327.037   3
   2   2   8 11011.3 468.068   6
  -2  -2   8 9962.60 468.504   3
  -2  -2   8 9945.62 292.990   5
  -2  -2   9 4872.36 145.816   5
   2  -2   9 4493.10 228.885   3
  -2  -2   9 4854.64 327.100   3
   2   2  10 6917.44 314.875   4
   2  -2  10 7348.66 312.095   3
  -2  -2  10 8213.51 440.223   3
   2   2  11 8710.85 374.863   4
   2  -2  11 9340.27 371.254   3
  -2  -2  11 10013.6 508.188   3
  -2  -2  12 2054.54 196.709   1
   2  -2  12 2047.27 173.456   3
   2   2  12 1623.39 156.635   4
  -2   2  12 2228.03 285.138   4
  -2  -2  12 2384.80 250.774   3
  -2  -2  13 682.131 124.703   1
  -2  -2  13 640.445 138.314   3
   2   2  13 804.176 115.458   4
  -2   2  13 745.016 176.332   4
   2   2  14 4161.35 284.770   4
  -2  -2  14 4804.96 323.684   1
  -2   2  14 5272.08 464.098   4
  -2  -2  14 4798.93 377.762   3
  -2   2  15 8744.14 618.354   4
  -2  -2  15 8848.83 463.652   1
  -2  -2  15 9384.23 553.044   3
  -2   2  16 5663.13 506.070   4
  -2  -2  16 5403.97 373.191   1
  -2  -2  16 5856.60 444.339   3
  -2   2  17 2535.49 341.926   4
  -2  -2  17 2636.72 270.429   1
  -2  -2  18 6480.12 449.678   1
  -2   2  18 6496.91 570.862   4
  -2  -2  19 12519.4 668.619   1
  -2   2  19 10709.1 761.431   4
  -2  -2  20 4416.50 411.334   1
  -2   2  20 4012.04 487.843   4
  -2   2  21 2323.37 391.430   4
  -2   2  22 1720.38 327.637   4
  -2  -3 -25 1039.18 231.196   5
  -2  -3 -24 6824.62 558.117   5
  -2  -3 -24 8302.37 527.152   6
  -2  -3 -23 3075.66 319.924   6
  -2  -3 -23 2801.31 350.715   5
  -2   3 -23 3118.95 361.299   6
   2   3 -22 833.748 303.466   2
  -2  -3 -22 855.510 188.281   5
  -2  -3 -22 787.715 164.938   6
  -2   3 -22 1009.88 321.201   2
  -2   3 -22 806.954 193.836   6
   2   3 -21 3643.40 523.419   2
  -2  -3 -21 2803.26 293.444   6
  -2  -3 -21 2724.95 339.998   5
  -2   3 -21 2825.59 345.701   6
  -2   3 -21 3254.26 534.152   2
   2   3 -20 3213.82 483.178   2
  -2  -3 -20 2158.13 305.105   5
  -2  -3 -20 2626.29 276.440   6
  -2   3 -20 2994.57 501.033   2
   2  -3 -20 2814.57 375.550   5
  -2   3 -20 2125.30 290.330   6
   2  -3 -19 5787.59 534.208   5
  -2  -3 -19 5583.22 400.840   6
   2   3 -19 6854.32 698.817   2
  -2   3 -19 4897.25 434.036   6
   2  -3 -19 6277.82 539.923   2
   2  -3 -18 319.468 132.674   2
   2   3 -18 482.345 205.553   2
   2  -3 -18 108.464 98.7207   5
  -2   3 -18 235.122 120.847   6
  -2  -3 -18 127.244 87.4308   6
   2  -3 -17 1507.08 251.654   2
   2   3 -17 2019.42 366.636   2
   2  -3 -17 1450.22 266.766   5
  -2  -3 -17 1489.96 202.769   6
  -2   3 -17 1080.09 192.723   6
   2  -3 -16 6125.31 519.350   5
   2   3 -16 6924.78 656.579   2
   2  -3 -16 5911.61 459.290   2
  -2  -3 -16 5625.21 383.388   6
   2  -3 -15 10831.2 696.473   5
   2  -3 -15 10417.2 592.555   2
   2   3 -15 12264.3 871.662   2
  -2  -3 -15 9944.52 519.184   6
   2  -3 -14 4913.50 464.741   5
  -2  -3 -14 5426.56 361.286   6
   2  -3 -14 5816.15 407.640   2
   2   3 -14 6072.07 590.623   2
   2  -3 -13 5912.70 506.678   5
  -2  -3 -13 6030.37 381.673   6
   2  -3 -13 5962.15 384.178   2
   2   3 -13 6861.26 609.781   2
   2  -3 -12 27769.4 1139.70   5
  -2  -3 -12 26998.7 899.095   6
   2   3 -12 30114.6 1305.76   2
   2  -3 -12 28023.4 870.042   2
   2  -3 -11 8196.58 577.319   5
   2   3 -11 8845.72 669.255   2
  -2  -3 -11 8333.71 439.020   6
   2  -3 -11 8226.88 372.179   2
   2  -3 -10 2924.12 331.410   5
   2   3 -10 3817.94 421.540   2
  -2  -3 -10 3551.98 277.193   6
   2  -3  -9 9766.46 611.302   5
  -2  -3  -9 10150.9 478.301   6
   2   3  -9 10713.4 687.634   2
   2  -3  -8 5610.07 452.170   5
  -2  -3  -8 6254.83 363.138   6
   2   3  -8 5752.47 490.654   2
   2  -3  -7 9099.28 558.846   5
  -2  -3  -7 9071.38 444.501   6
   2   3  -7 8484.86 589.782   2
   2  -3  -6 1765.54 243.822   5
  -2  -3  -6 2094.62 205.172   6
   2  -3  -5 11890.6 618.717   5
  -2  -3  -5 12414.0 526.171   6
  -2  -3  -4 13861.1 565.732   6
   2  -3  -4 13366.1 648.139   5
   2  -3  -3 34313.2 1077.69   1
  -2  -3  -3 34730.4 1018.75   6
   2  -3  -3 33818.2 1113.74   5
   2  -3  -2 3892.72 308.336   1
  -2  -3  -2 3980.29 295.188   6
   2  -3  -2 3753.58 319.347   5
   2  -3  -1 34643.5 1037.35   1
  -2  -3  -1 33914.2 1023.03   5
  -2  -3  -1 34673.8 1038.33   6
   2  -3  -1 33253.8 1061.84   5
   2  -3   0 71354.1 1718.11   1
  -2  -3   0 72182.2 1726.38   5
  -2  -3   0 73083.3 1772.48   6
  -2  -3   0 70687.3 1841.66   2
   2  -3   0 68607.6 1763.66   5
   2  -3   1 37881.4 967.183   1
  -2  -3   1 36655.8 981.747   5
  -2  -3   1 36971.6 1134.52   2
   2  -3   1 36629.2 1019.17   5
  -2  -3   2 3773.26 370.578   2
  -2  -3   2 4010.50 283.328   5
   2  -3   2 3920.74 263.698   1
   2  -3   2 4121.09 304.176   5
  -2  -3   3 30644.8 933.016   5
  -2  -3   3 33783.5 1184.20   2
   2  -3   3 31283.7 860.484   1
   2  -3   3 30940.9 968.839   5
  -2  -3   4 13735.6 558.306   5
  -2   3   4 13335.2 492.772   6
  -2  -3   4 13986.1 740.769   2
   2  -3   4 13034.6 458.595   1
   2  -3   4 13621.0 578.961   5
  -2  -3   5 14279.3 567.324   5
  -2   3   5 14304.6 487.488   6
   2  -3   5 13012.9 429.813   1
   2  -3   5 13900.1 593.479   5
  -2  -3   6 1864.15 186.482   5
  -2   3   6 1778.27 145.161   6
   2  -3   6 1568.84 114.485   1
   2  -3   6 1654.69 201.853   5
  -2  -3   7 8199.54 384.727   5
  -2  -3   7 8172.73 475.894   3
   2  -3   7 6790.92 243.461   1
  -2   3   7 8793.20 313.395   6
   2  -3   7 9241.82 466.469   5
  -2  -3   8 5767.95 298.651   5
  -2  -3   8 5464.96 389.793   3
  -2   3   8 5588.60 227.461   6
   2  -3   8 5960.22 377.786   5
  -2  -3   9 11432.0 591.692   3
   2  -3   9 10078.8 460.589   3
  -2   3   9 11801.8 341.787   6
   2  -3   9 12740.6 572.272   5
  -2  -3   9 12612.8 435.462   5
  -2   3  10 3213.96 144.772   6
   2  -3  10 3607.92 293.358   5
  -2  -3  10 2835.11 171.212   5
  -2  -3  10 2934.04 294.150   3
   2  -3  10 2754.48 224.707   3
  -2   3  11 7839.15 239.327   6
  -2  -3  11 8179.77 281.705   5
   2  -3  11 6396.63 362.070   3
  -2  -3  11 8336.12 499.853   3
   2  -3  12 28327.2 883.369   3
  -2  -3  12 31004.3 1085.04   3
   2   3  13 6743.64 406.778   4
   2  -3  13 7126.69 395.804   3
  -2  -3  13 7950.13 515.755   3
  -2  -3  14 6162.26 378.762   1
   2   3  14 5519.25 376.129   4
   2  -3  14 5707.25 355.451   3
  -2  -3  14 6350.57 472.565   3
   2   3  15 9497.88 517.466   4
  -2  -3  15 10757.6 518.105   1
  -2   3  15 10878.5 745.559   4
   2  -3  15 10527.8 513.339   3
  -2  -3  15 11670.6 666.055   3
   2   3  16 6678.73 435.003   4
  -2  -3  16 7767.94 440.425   1
  -2   3  16 7483.39 629.997   4
   2  -3  16 7397.21 442.322   3
  -2  -3  16 8473.25 571.341   3
  -2  -3  17 2282.98 243.145   1
   2   3  17 2213.30 255.615   4
  -2   3  17 2352.14 366.262   4
  -2  -3  17 2695.50 338.718   3
  -2  -3  18 254.165 136.536   3
  -2  -3  18-19.9363 64.6140   1
  -2   3  18 97.6042 103.710   4
  -2   3  19 6036.09 602.191   4
  -2  -3  19 6218.70 545.931   3
  -2   3  20 3479.76 456.548   4
  -2   3  21 4895.13 566.974   4
  -2   3  22 809.749 250.807   4
  -2   3  23 3703.59 517.422   4
  -2   3  24 11049.5 915.996   4
  -2  -4 -22 3031.37 314.261   6
  -2  -4 -22 2845.06 370.095   5
  -2  -4 -21 2831.64 303.025   6
  -2   4 -21 3319.21 536.578   2
  -2   4 -21 2398.82 337.045   6
  -2  -4 -21 2744.24 370.652   5
   2  -4 -20 271.036 166.043   5
  -2   4 -20-49.9268 141.947   6
   2   4 -20-82.5621 134.451   2
  -2  -4 -20 141.360 120.235   6
  -2   4 -20-105.728 146.955   2
  -2  -4 -20-69.1554 99.8408   5
   2   4 -19 2393.82 442.428   2
  -2  -4 -19 2399.37 342.523   5
  -2   4 -19 2472.90 326.754   6
  -2   4 -19 2601.95 445.554   2
   2  -4 -19 2521.47 407.310   5
  -2  -4 -19 2644.51 286.369   6
   2   4 -18 526.030 229.483   2
   2  -4 -18 860.477 241.155   5
  -2  -4 -18 698.103 153.872   6
  -2  -4 -18 361.464 145.209   5
  -2   4 -18 895.454 260.059   2
   2   4 -17 5331.53 611.853   2
   2  -4 -17 4579.14 506.130   5
  -2  -4 -17 3669.63 411.245   5
  -2   4 -17 4130.62 506.210   2
  -2  -4 -17 4336.69 362.415   6
   2  -4 -16 4800.72 505.633   5
  -2  -4 -16 3905.41 420.740   5
  -2   4 -16 4351.05 493.432   2
  -2  -4 -16 4241.90 350.117   6
   2   4 -16 4642.15 576.290   2
   2  -4 -15 5103.76 519.754   5
  -2  -4 -15 4405.29 432.389   5
  -2   4 -15 4222.03 473.404   2
   2   4 -15 4821.65 572.606   2
  -2  -4 -15 4481.61 360.492   6
   2   4 -14 157.524 127.845   2
   2  -4 -14 65.4685 90.9598   5
  -2  -4 -14 58.5865 74.9996   5
  -2  -4 -14 160.052 93.9537   6
  -2   4 -14 203.693 133.902   2
   2  -4 -13 3475.42 411.975   5
  -2   4 -13 3401.54 384.670   2
  -2  -4 -13 3347.92 302.610   6
   2   4 -13 3757.29 468.425   2
  -2  -4 -13 3135.14 363.467   5
   2   4 -12 181.732 146.871   2
   2  -4 -12 21.8831 108.241   5
  -2  -4 -12 96.0625 112.871   5
  -2   4 -12 132.946 90.8307   2
  -2  -4 -12 115.938 88.6629   6
   2   4 -11 2127.25 342.174   2
   2  -4 -11 2129.39 319.463   5
  -2  -4 -11 1766.39 221.137   6
  -2  -4 -11 1908.00 277.167   5
  -2   4 -11 1807.50 270.090   2
   2  -4 -10 4616.06 466.112   5
  -2  -4 -10 3599.61 374.019   5
  -2  -4 -10 4076.27 339.698   6
   2   4 -10 3623.75 438.453   2
  -2   4 -10 3870.03 367.503   2
   2  -4  -9 6937.45 564.813   5
  -2  -4  -9 6043.13 487.437   5
  -2   4  -9 6913.63 474.979   2
  -2  -4  -9 7092.22 440.641   6
   2   4  -9 6962.28 585.150   2
  -2  -4  -8 1574.02 248.569   5
   2  -4  -8 1568.02 264.108   5
  -2   4  -8 1550.64 215.851   2
  -2  -4  -8 1710.44 221.956   6
  -2  -4  -7 2593.35 312.848   5
   2  -4  -7 2315.29 318.450   5
  -2   4  -7 2712.91 272.201   2
  -2  -4  -7 2969.47 278.292   6
   2  -4  -6 75.9646 79.1266   5
  -2  -4  -6 109.898 99.6530   5
  -2  -4  -6 86.9931 68.8788   6
   2  -4  -5 10410.6 661.816   5
  -2  -4  -5 10291.0 597.896   5
  -2  -4  -5 10041.6 539.696   6
  -2  -4  -4 2067.61 260.682   5
  -2  -4  -4 1772.20 220.541   6
  -2   4  -4 2051.10 207.085   2
   2  -4  -4 2179.99 305.365   5
  -2  -4  -3 6150.61 415.524   6
  -2  -4  -3 5019.13 405.648   5
  -2   4  -3 5747.94 333.133   2
   2  -4  -3 5621.83 464.172   5
  -2  -4  -2 2749.09 290.663   5
  -2   4  -2 2485.04 202.031   2
   2  -4  -2 2563.51 307.780   5
  -2  -4  -1 7108.61 461.506   5
  -2   4  -1 6100.54 302.553   2
   2  -4  -1 7520.77 513.245   5
   2  -4   0 18.7184 74.7090   5
  -2  -4   0 51.0250 56.9779   5
  -2  -4   1 6969.25 452.085   5
   2  -4   1 7743.18 516.151   1
   2  -4   1 6946.04 481.232   5
  -2  -4   2 2913.19 286.959   5
   2  -4   2 2379.38 291.053   1
   2  -4   2 2461.45 274.659   5
   2  -4   3 5746.97 403.972   1
  -2  -4   3 5814.40 403.211   5
   2  -4   3 5141.81 393.050   5
   2  -4   4 2218.23 230.022   1
  -2  -4   4 2451.37 260.234   5
   2  -4   4 1937.97 240.774   5
  -2  -4   5 10055.9 532.831   5
   2  -4   5 9372.64 456.073   1
   2  -4   5 9532.72 543.876   5
   2  -4   6 3.78269 68.7425   5
  -2  -4   6-19.8575 54.3961   5
   2  -4   6 50.5673 44.6082   1
  -2   4   7 2506.45 211.498   6
   2  -4   7 1725.93 150.210   1
  -2  -4   7 2365.93 237.025   5
   2  -4   7 2328.67 271.078   5
  -2  -4   8 1930.11 202.612   5
  -2   4   8 1886.28 172.724   6
   2  -4   8 1748.42 239.431   5
  -2  -4   8 1188.77 211.593   3
   2  -4   8 981.229 97.3045   1
  -2  -4   9 6211.11 491.272   3
  -2   4   9 7604.48 330.874   6
   2  -4   9 7001.24 466.660   5
  -2  -4   9 7616.92 390.928   5
  -2  -4  10 3849.90 387.020   3
   2  -4  10 4497.68 375.412   5
  -2  -4  10 4593.62 291.381   5
  -2  -4  11 1386.35 240.871   3
   2  -4  11 1203.58 182.177   3
   2  -4  11 2151.15 261.134   5
  -2  -4  11 1956.42 173.327   5
   2  -4  12 168.198 97.6139   5
  -2  -4  12 263.616 130.880   3
   2  -4  12 122.723 74.8240   3
  -2  -4  12 103.977 62.7212   5
   2  -4  13 2619.76 267.892   3
  -2  -4  13 3462.96 376.517   3
   2  -4  14 9.77863 61.0244   3
  -2  -4  14 72.6608 120.641   3
  -2  -4  15 4320.40 339.261   1
   2   4  15 4862.18 407.983   4
   2  -4  15 4288.44 358.253   3
  -2  -4  16 3614.52 305.621   1
  -2  -4  16 4113.42 446.202   3
   2   4  16 4228.24 382.439   4
   2  -4  16 3770.14 341.035   3
  -2   4  17 4464.44 520.890   4
   2  -4  17 3488.83 352.684   3
  -2  -4  17 4387.46 462.981   3
   2  -4  18 621.135 148.820   3
  -2  -4  18 472.117 197.036   3
  -2   4  18 556.666 209.122   4
  -2  -4  19 2903.99 399.617   3
  -2   4  19 2766.42 435.179   4
  -2  -4  20 265.937 209.416   3
  -2   4  20-146.313 170.085   4
  -2   4  21 3726.89 518.110   4
  -2  -4  21 4283.31 505.655   3
  -2   4  22 3743.31 536.953   4
   2  -5 -20-28.6776 136.636   5
  -2  -5 -20 263.442 122.563   6
  -2   5 -20 207.520 180.944   2
   2  -5 -19 1602.21 327.869   5
  -2  -5 -19 1398.40 285.210   5
  -2  -5 -19 826.217 168.350   6
  -2   5 -19 838.903 283.566   2
   2  -5 -18 12253.5 886.944   5
  -2  -5 -18 10545.3 780.852   5
  -2   5 -18 10041.8 849.056   2
  -2  -5 -18 10929.7 636.509   6
  -2  -5 -17 275.525 129.630   5
   2   5 -17 285.804 184.047   2
   2  -5 -17 503.728 200.186   5
  -2  -5 -17 365.547 159.661   6
  -2   5 -17-172.780 153.621   2
   2   5 -16 1049.61 261.125   2
  -2  -5 -16 1002.17 229.090   5
   2  -5 -16 1472.73 297.881   5
  -2  -5 -16 803.283 181.928   6
  -2   5 -16 973.430 264.033   2
   2   5 -15 1023.86 275.783   2
   2  -5 -15 2029.70 337.820   5
  -2  -5 -15 1218.71 266.997   5
  -2  -5 -15 1399.92 224.134   6
  -2   5 -15 1096.95 274.218   2
  -2  -5 -14 10581.1 755.148   5
  -2  -5 -14 10444.0 619.107   6
   2   5 -14 10855.5 856.267   2
  -2   5 -14 8937.72 703.394   2
   2   5 -13 67.3503 102.171   2
   2  -5 -13 0.61560 101.818   5
  -2  -5 -13 5.56168 103.590   5
  -2  -5 -13 64.0369 94.9809   6
  -2   5 -13 102.580 110.236   2
   2  -5 -12 2713.95 394.117   5
  -2  -5 -12 2526.32 306.445   6
  -2  -5 -12 2389.02 352.608   5
  -2   5 -12 2234.00 338.812   2
   2  -5 -11 470.277 202.964   5
  -2  -5 -11 299.449 148.195   5
  -2   5 -11 516.857 158.628   2
  -2  -5 -11 629.646 173.905   6
   2  -5 -10 16916.1 976.621   5
  -2  -5 -10 15719.9 897.603   5
  -2  -5 -10 15266.7 765.255   6
  -2   5 -10 13653.5 772.002   2
   2  -5  -9 2392.48 353.540   5
  -2  -5  -9 2110.09 273.693   6
  -2   5  -9 2296.49 290.043   2
  -2  -5  -9 2117.97 313.693   5
  -2  -5  -8 615.403 197.501   5
   2  -5  -8 702.865 197.866   5
  -2  -5  -8 805.448 175.481   6
  -2   5  -8 459.042 143.659   2
   2  -5  -7 1148.98 259.842   5
  -2  -5  -7 702.261 199.379   5
  -2  -5  -7 683.523 168.232   6
  -2   5  -7 846.565 166.492   2
   2  -5  -6 34174.8 1401.66   5
  -2  -5  -6 32641.0 1292.36   5
  -2   5  -6 31465.0 1083.34   2
  -2  -5  -5 3411.86 386.939   5
   2  -5  -5 3555.20 421.709   5
  -2  -5  -4 2146.17 296.607   5
   2  -5  -4 1711.60 298.408   5
   2  -5  -3 1664.47 288.173   5
  -2   5  -3 1659.56 175.956   2
  -2  -5  -3 1592.42 257.008   5
  -2  -5  -2 19837.2 914.287   5
   2  -5  -2 19093.4 986.990   5
   2  -5  -1 404.846 144.070   5
  -2  -5  -1 580.591 157.187   5
  -2  -5   0 4388.76 406.133   5
   2  -5   0 5045.93 461.661   5
   2  -5   1 438.411 152.185   5
  -2  -5   1 738.968 179.084   5
  -2  -5   2 19730.8 881.739   5
   2  -5   2 18597.5 908.952   5
  -2  -5   3 2267.94 287.153   5
   2  -5   3 2605.00 322.771   5
   2  -5   4 1123.90 224.768   5
  -2  -5   4 1012.92 196.715   5
  -2  -5   5 2899.58 313.071   5
   2  -5   5 2776.32 338.976   5
  -2  -5   6 32473.6 1141.80   5
   2  -5   6 31460.5 1199.26   5
   2  -5   7 968.471 203.966   5
  -2  -5   7 1082.50 194.272   5
   2  -5   8 578.588 161.404   5
  -2  -5   8 902.036 170.375   5
   2  -5   9 1605.61 251.612   5
  -2  -5   9 1544.57 269.679   3
  -2  -5   9 2187.67 246.896   5
   2  -5  10 16036.7 809.205   5
  -2  -5  10 17760.5 718.210   5
   2  -5  11 404.381 133.214   5
  -2  -5  11 219.233 126.620   3
  -2  -5  11 526.772 118.904   5
   2  -5  11 388.858 126.524   3
  -2  -5  12 2279.42 344.073   3
   2  -5  12 1295.57 231.501   3
   2  -5  12 2345.14 302.493   5
   2  -5  13 63.0298 80.8736   5
  -2  -5  13-10.4377 112.310   3
   2  -5  13-22.0896 76.5500   3
   2  -5  14 7725.18 541.861   3
  -2  -5  14 9916.47 737.051   3
   2  -5  15 949.636 201.617   3
  -2  -5  15 1332.57 279.876   3
   2  -5  16 167.148 104.016   3
  -2  -5  16 607.515 194.806   3
  -2  -5  17 180.464 120.987   3
  -2   5  18 11707.2 937.491   4
  -2  -5  18 13293.1 923.598   3
  -2   5  19 1173.77 291.200   4
   2  -6 -16 870.773 253.392   5
   2  -6 -15 587.309 223.409   5
   2  -6 -14 3165.55 451.848   5
  -2  -6 -14 3040.39 444.515   5
  -2  -6 -13 2105.17 383.355   5
   2  -6 -13 2982.13 432.105   5
   2  -6 -12 1846.10 352.525   5
  -2  -6 -12 1486.11 320.426   5
   2  -6 -11 1856.04 334.906   5
  -2  -6 -11 1228.58 285.175   5
   2  -6 -10 3607.37 473.808   5
  -2  -6 -10 3263.19 438.446   5
   2  -6  -9 2412.40 389.877   5
  -2  -6  -9 1824.95 346.510   5
   2  -6  -8 667.979 236.112   5
  -2  -6  -8 612.207 212.753   5
   2  -6  -7 368.155 171.131   5
  -2  -6  -7 140.205 139.380   5
   2  -6  -6 102.705 152.655   5
  -2  -6  -6 139.810 154.611   5
   2  -6  -5 1013.71 265.801   5
  -2  -6  -5 807.157 230.936   5
   2  -6  -4 758.726 256.764   5
  -2  -6  -4 1275.21 273.100   5
   2  -6  -3 356.702 165.893   5
  -2  -6  -3 652.033 190.914   5
   2  -6  -2 1865.98 344.541   5
  -2  -6  -2 1764.43 292.611   5
  -2  -6  -1 2405.92 346.962   5
   2  -6  -1 3010.13 408.278   5
  -2  -6   0 5303.27 495.732   5
   2  -6   0 5199.17 517.982   5
  -2  -6   1 2545.23 337.359   5
   2  -6   1 2604.79 367.013   5
   2  -6   2 1529.02 293.262   5
  -2  -6   2 1794.92 282.728   5
   2  -6   3 330.174 159.542   5
  -2  -6   3 534.375 171.486   5
   2  -6   4 645.800 199.043   5
  -2  -6   4 867.729 199.526   5
   2  -6   5 897.183 216.300   5
  -2  -6   5 910.530 208.839   5
   2  -6   6 361.476 155.540   5
  -2  -6   6 58.6261 86.1768   5
   2  -6   7 15.8811 109.646   5
  -2  -6   7-83.9507 93.6449   5
   2  -6   8 215.715 121.360   5
  -2  -6   8 241.814 105.352   5
   2  -6   9 1971.54 310.074   5
  -2  -6   9 1710.14 243.279   5
  -2  -6   9 1464.49 283.109   3
  -2  -6  10 2262.95 353.015   3
   2  -6  10 3100.31 394.227   5
   2  -6  11 1223.37 268.043   5
  -2  -6  11 703.305 213.933   3
   2  -6  11 979.645 242.043   3
   2  -6  12 2398.18 357.518   5
  -2  -6  12 1639.95 314.325   3
   2  -6  12 1373.51 279.507   3
   2  -6  13 2552.48 359.031   5
  -2  -6  13 2122.94 386.330   3
   2  -6  13 1424.26 263.457   3
   2  -6  14 1897.80 327.286   5
  -2  -6  14 2235.27 382.937   3
   2  -6  14 1685.30 277.819   3
  -2  -7  -7 6191.43 632.944   5
   2  -7  -6 355.009 201.004   5
  -2  -7  -6 1.98449 114.434   5
  -2  -7  -5 5098.50 558.089   5
   2  -7  -5 5146.46 567.321   5
   2  -7  -4 1360.59 302.332   5
  -2  -7  -4 1595.13 319.935   5
  -2  -7  -3 7991.78 682.718   5
   2  -7  -3 8636.86 728.049   5
   2  -7  -2 488.552 211.143   5
  -2  -7  -2 445.334 189.953   5
  -2  -7  -1 4323.82 482.565   5
   2  -7  -1 4987.92 537.484   5
   2  -7   0 145.406 119.458   5
  -2  -7   0 342.064 181.442   5
  -2  -7   1 5744.10 541.990   5
   2  -7   1 4647.94 520.128   5
   2  -7   2 300.047 157.209   5
  -2  -7   2 578.580 199.849   5
  -2  -7   3 6416.28 567.561   5
   2  -7   3 6525.80 609.561   5
   2  -7   4 1447.33 301.893   5
  -2  -7   4 1446.06 273.517   5
  -2  -7   5 5785.84 525.702   5
   2  -7   5 5627.69 572.613   5
   2  -7   6-19.0123 122.262   5
  -2  -7   6 27.7492 96.7292   5
   2  -7   7 4683.77 532.093   5
  -2  -7   7 4475.09 448.292   5
   2  -7   8 836.854 233.438   5
   2  -7   9 6087.05 597.795   5
   2  -7  10 791.435 226.357   5
   2  -7  11 2901.05 411.722   5
   2  -7  11 1831.97 314.826   3
   2  -7  12 244.919 170.356   5
   3   0 -25 1130.39 375.607   2
  -3   0 -25 674.319 186.667   6
   3   0 -24 326.746 229.286   2
  -3   0 -24 13.6740 114.302   6
   3   0 -23 330.554 223.817   2
  -3   0 -23 588.231 130.381   6
   3   0 -22 236.099 189.343   2
  -3   0 -22-150.980 127.601   6
  -3   0 -21 7352.66 505.328   6
   3   0 -21 6763.68 800.093   2
   3   0 -20 241.679 176.448   2
  -3   0 -20 74.6756 102.843   6
  -3   0 -19 10926.8 597.835   6
   3   0 -19 9097.74 873.432   2
   3   0 -18 370.112 190.473   2
  -3   0 -18-14.2615 80.8461   6
  -3   0 -17 13065.1 639.029   6
   3   0 -17 14043.8 408.662   6
   3   0 -17 12441.7 978.815   2
   3   0 -16 118.376 170.115   2
  -3   0 -16-21.2584 65.1201   6
   3   0 -16-2.18396 34.2336   6
  -3   0 -15 6630.25 421.334   6
   3   0 -15 7372.67 263.493   6
   3   0 -15 6772.30 655.537   2
   3   0 -15 6810.19 274.309   6
  -3   0 -15 6565.27 307.905   3
  -3   0 -14-7.09670 28.9575   3
   3   0 -14-54.2528 107.386   2
   3   0 -14 43.0263 35.6088   6
  -3   0 -14 56.6781 75.6033   6
   3   0 -13 1065.32 239.678   2
   3   0 -13 1215.43 95.5684   6
  -3   0 -13 1141.02 106.720   3
  -3   0 -13 936.761 146.363   6
  -3   0 -12-9.05005 26.8689   3
   3   0 -12-30.4607 89.9358   2
   3   0 -12 15.1753 24.2279   6
  -3   0 -12-51.9241 72.8690   6
   3   0 -11 994.746 210.075   2
   3   0 -11 884.044 73.2526   6
  -3   0 -11 986.448 144.136   6
  -3   0 -11 829.514 77.9393   3
  -3   0 -10 22.8253 23.0948   3
   3   0 -10 12.8236 64.2560   2
   3   0 -10 29.0793 27.0957   6
  -3   0 -10-5.10893 49.2163   6
   3   0  -9 12534.4 316.453   6
  -3   0  -9 9277.82 267.271   4
  -3   0  -9 11602.0 483.141   6
  -3   0  -9 9446.38 271.644   3
  -3   0  -8 16.7574 16.5739   3
   3   0  -8-25.0411 33.1667   3
   3   0  -8 23.2268 24.9863   6
  -3   0  -8-2.00986 10.3072   4
  -3   0  -8 50.7008 58.9357   6
   3   0  -7 20742.4 646.348   3
  -3   0  -7 18347.7 621.498   6
   3   0  -7 19100.2 474.444   6
   3   0  -6 0.45237 27.7653   3
   3   0  -6-21.3552 27.4137   6
  -3   0  -6 38.8399 54.6046   6
   3   0  -5 32856.2 746.500   6
  -3   0  -5 32457.5 873.651   6
   3   0  -5 35797.8 886.264   3
   3   0  -4 2.79987 26.6909   3
  -3   0  -4-0.40613 40.9602   6
   3   0  -4 6.29128 25.0936   6
  -3   0  -3 15502.4 492.043   6
   3   0  -3 15559.7 432.352   6
  -3   0  -3 14402.9 398.066   4
  -3   0  -3 13973.8 330.229   3
   3   0  -3 16856.1 489.427   3
  -3   0  -2-10.5285 17.6554   3
   3   0  -2 0.31267 22.9769   3
  -3   0  -2-9.32331 33.8656   6
   3   0  -2 28.7301 35.7351   6
  -3   0  -2 16.3259 19.2428   4
   3   0  -1 4143.86 201.475   3
  -3   0  -1 4658.81 236.474   6
   3   0  -1 4540.85 221.399   6
  -3   0  -1 4249.68 215.316   4
  -3   0  -1 4833.64 178.461   3
  -3   0  -1 4364.04 239.812   5
  -3   0   0-13.9904 21.4801   3
  -3   0   0 15.8935 21.7893   5
  -3   0   0-3.73252 29.6186   6
  -3   0   0 10.7551 24.1127   4
   3   0   0-13.1984 26.9202   6
  -3   0   1 4816.91 261.216   4
  -3   0   1 4574.15 221.968   6
   3   0   1 4766.86 245.287   6
  -3   0   1 4813.41 238.292   5
   3   0   2-14.0801 30.5756   6
  -3   0   2 6.27286 27.7624   5
  -3   0   2 1.57686 30.6690   6
  -3   0   2-10.6734 33.6777   4
  -3   0   3 16110.3 469.661   6
   3   0   3 16636.8 546.566   6
  -3   0   3 17942.7 600.321   4
  -3   0   3 16168.5 496.216   5
  -3   0   4 40.3014 63.2357   2
  -3   0   4 21.9750 27.8292   5
  -3   0   4 21.3997 34.1458   6
  -3   0   4 45.1338 40.8827   4
   3   0   4 2.00962 44.6908   6
  -3   0   5 33354.1 826.297   6
  -3   0   5 37203.6 1198.00   2
  -3   0   5 38247.5 1049.83   4
  -3   0   5 36249.3 848.445   5
  -3   0   6 6.70829 55.6875   2
  -3   0   6 15.8465 29.1430   5
  -3   0   6-20.3216 42.4965   4
  -3   0   7 22057.6 785.166   4
  -3   0   7 20755.4 893.226   2
  -3   0   7 20974.4 583.627   5
  -3   0   8 28.2361 24.2911   5
  -3   0   8-58.9125 56.7397   4
  -3   0   8 97.6026 70.5237   2
  -3   0   9 13135.1 438.395   5
  -3   0   9 14435.8 578.130   1
  -3   0   9 14850.3 773.680   2
  -3   0   9 14466.0 653.238   4
  -3   0  10 36.2065 28.8221   5
  -3   0  10 11.0143 48.0391   1
  -3   0  10 44.6155 75.1252   4
  -3   0  11 808.248 133.688   1
  -3   0  11 940.448 169.781   4
  -3   0  12-57.6508 88.2473   4
  -3   0  12 34.5795 57.2714   1
  -3   0  13 741.385 149.381   1
  -3   0  14 44.7698 86.4808   1
  -3   0  15 8847.51 555.030   1
  -3   0  16 30.8263 95.0231   1
  -3   0  17 17207.4 868.254   1
  -3   0  18 116.927 105.191   1
  -3   0  19 14524.0 855.801   1
  -3   0  20 138.394 136.550   1
  -3   0  21 9043.43 719.601   1
   3  -1 -25 632.604 288.525   2
  -3  -1 -25 335.624 132.515   6
   3  -1 -24 3603.49 606.138   2
   3   1 -24 3856.18 660.803   2
  -3  -1 -24 4303.05 420.266   6
  -3   1 -24 3834.44 394.025   6
   3  -1 -23 1055.07 328.465   2
   3   1 -23 996.209 335.457   2
  -3  -1 -23 1027.93 191.955   6
  -3   1 -23 1316.99 229.221   6
   3  -1 -22 1637.56 384.249   2
   3   1 -22 2505.97 509.051   2
  -3  -1 -22 2258.93 298.170   6
  -3   1 -22 2266.22 303.180   6
   3  -1 -21 1859.42 392.533   2
   3   1 -21 2655.34 514.883   2
  -3  -1 -21 2355.85 297.529   6
  -3   1 -21 2453.63 314.909   6
   3  -1 -20 1481.77 349.237   2
   3   1 -20 1934.23 431.621   2
  -3  -1 -20 1717.68 249.796   6
  -3   1 -20 1390.58 228.727   6
   3  -1 -19 387.165 175.182   2
   3   1 -19 187.797 195.544   2
  -3  -1 -19 224.225 103.321   6
  -3   1 -19 232.178 119.347   6
   3   1 -18 2869.97 472.525   2
  -3  -1 -18 2594.76 280.974   6
  -3   1 -18 2864.44 308.762   6
   3  -1 -18 3668.61 506.895   2
   3  -1 -17 803.671 230.595   2
   3   1 -17 665.033 230.551   2
   3  -1 -17 796.295 83.4751   5
  -3  -1 -17 1047.88 180.456   6
  -3   1 -17 937.457 183.319   6
  -3  -1 -16 3818.37 322.895   6
  -3   1 -16 3335.55 321.797   6
   3  -1 -16 4329.94 500.938   2
   3   1 -16 4315.48 554.631   2
   3  -1 -16 3794.80 192.791   5
   3  -1 -15 1482.49 285.999   2
   3   1 -15 1490.68 308.920   2
  -3   1 -15 1468.42 174.413   4
   3   1 -15 1939.11 228.786   6
  -3   1 -15 1615.78 221.011   6
  -3  -1 -15 1901.87 223.852   6
   3  -1 -15 1623.26 123.982   5
  -3  -1 -14 10533.3 513.760   6
   3   1 -14 11098.3 828.315   2
   3   1 -14 11482.4 537.014   6
  -3   1 -14 8111.83 416.018   4
  -3   1 -14 10481.1 542.436   6
   3  -1 -14 10702.0 729.334   2
   3  -1 -14 10018.7 347.720   5
  -3   1 -13 3387.01 300.707   6
   3   1 -13 3822.80 285.957   6
  -3  -1 -13 3054.03 267.520   6
   3   1 -13 3073.97 424.877   2
   3  -1 -13 3076.67 371.019   2
   3  -1 -13 3073.89 184.581   5
  -3  -1 -12 14532.2 594.680   6
  -3   1 -12 13445.7 614.219   6
   3   1 -12 13357.9 869.315   2
   3  -1 -12 14341.6 782.629   2
   3  -1 -12 14267.4 446.712   5
   3   1 -11 3661.94 259.615   6
   3   1 -11 3353.56 407.994   2
  -3  -1 -11 3991.30 287.654   6
  -3   1 -11 4391.22 323.040   6
   3  -1 -11 4126.33 375.864   2
   3  -1 -11 3907.45 214.407   5
   3   1 -10 8383.90 383.183   6
  -3  -1 -10 7380.26 389.657   6
   3   1 -10 6792.59 562.065   2
  -3   1 -10 7787.67 430.350   6
   3  -1 -10 7432.62 310.764   5
  -3  -1  -9 3675.04 265.955   6
  -3   1  -9 3846.20 294.137   6
   3   1  -9 3195.33 367.588   2
   3   1  -9 4334.58 255.857   6
   3  -1  -9 3946.31 219.870   5
  -3  -1  -8 4492.97 284.192   6
  -3   1  -8 4950.42 320.541   6
   3   1  -8 4801.41 260.161   6
   3  -1  -8 4678.59 242.531   5
   3   1  -7 1054.65 134.466   3
  -3  -1  -7 1130.56 138.409   6
   3   1  -7 1218.86 124.973   6
   3   1  -7 998.395 152.834   4
  -3   1  -7 1218.04 152.939   6
   3  -1  -7 1442.53 156.521   3
   3  -1  -7 1179.10 117.179   5
  -3  -1  -6 3629.45 240.433   6
  -3   1  -6 3860.20 270.870   6
   3   1  -6 3984.44 223.024   6
   3  -1  -6 4200.28 260.803   3
   3  -1  -6 3727.12 221.434   5
  -3   1  -5 1088.63 101.811   1
   3   1  -5 1025.00 111.061   6
  -3  -1  -5 1083.07 128.511   6
   3  -1  -5 1208.69 133.060   3
   3  -1  -5 996.439 113.398   5
  -3   1  -5 1298.75 150.149   6
  -3   1  -4 7660.19 290.741   1
  -3  -1  -4 7584.81 345.779   6
  -3   1  -4 7478.06 357.002   6
   3   1  -4 7724.96 392.391   4
   3  -1  -4 7714.26 330.558   3
   3  -1  -4 7217.49 319.875   5
   3   1  -4 7184.73 312.005   6
  -3   1  -3 8107.84 308.352   1
  -3  -1  -3 7953.09 351.183   6
   3   1  -3 8003.38 329.751   6
  -3   1  -3 7491.23 347.225   6
   3   1  -3 8428.40 392.174   4
   3  -1  -3 8292.91 326.367   3
   3  -1  -3 8163.03 342.472   5
   3   1  -2 20152.9 590.360   6
  -3   1  -2 19062.8 556.776   1
  -3  -1  -2 18792.9 602.982   6
  -3   1  -2 19496.3 584.433   6
   3   1  -2 20682.7 646.253   4
   3  -1  -2 19290.9 545.207   3
   3  -1  -2 19915.5 594.819   5
  -3  -1  -1 4594.76 226.854   3
  -3  -1  -1 5409.04 277.456   6
  -3   1  -1 4872.99 246.710   1
   3   1  -1 5335.15 268.714   6
  -3   1  -1 5178.59 248.476   6
   3   1  -1 5447.94 280.917   4
   3  -1  -1 5400.11 223.777   3
   3  -1  -1 5256.40 268.794   5
  -3  -1   0 22025.9 615.459   3
  -3   1   0 22348.5 601.006   6
  -3  -1   0 21823.3 654.294   6
   3   1   0 23713.5 670.578   6
  -3   1   0 22689.4 639.401   1
   3   1   0 20894.1 625.902   4
   3  -1   0 22007.5 543.028   3
   3  -1   0 22058.2 659.181   5
  -3  -1   1 5543.79 264.699   3
  -3  -1   1 5470.48 278.796   6
   3   1   1 5936.40 291.780   6
   3   1   1 5274.47 245.273   4
  -3   1   1 5316.45 234.472   6
  -3   1   1 5444.90 276.414   1
   3  -1   1 5315.03 190.552   3
  -3  -1   2 19262.4 583.857   6
   3   1   2 19339.0 607.784   6
  -3   1   2 18562.7 496.892   6
  -3   1   2 18917.0 596.055   1
   3  -1   2 18054.2 420.272   3
  -3   1   2 19968.9 606.534   5
  -3  -1   2 18927.1 569.753   3
  -3  -1   3 9403.07 379.900   6
  -3   1   3 8986.46 292.365   6
  -3   1   3 8828.55 384.716   1
  -3  -1   3 8648.93 521.968   2
  -3  -1   3 9161.25 369.984   3
  -3   1   3 9033.63 387.307   5
  -3   1   4 6276.82 216.667   6
  -3  -1   4 6270.04 312.170   6
  -3  -1   4 6110.31 442.658   2
  -3   1   4 6099.92 382.376   2
  -3  -1   4 6709.46 320.105   3
  -3   1   4 6920.18 337.199   5
  -3   1   5 1906.89 173.863   5
  -3  -1   5 1609.93 153.336   6
  -3   1   5 1589.07 86.1975   6
  -3   1   5 1763.21 205.588   2
  -3  -1   5 1619.17 234.723   2
  -3  -1   5 1573.93 113.861   5
  -3  -1   5 1739.40 163.799   3
  -3   1   6 4627.15 277.386   5
  -3   1   6 4321.54 326.611   2
  -3  -1   6 4190.32 394.228   2
  -3   1   6 4573.48 335.698   4
  -3  -1   6 3807.32 177.738   5
  -3  -1   6 4442.47 274.508   3
  -3   1   7 1074.19 137.033   5
  -3   1   7 1362.07 188.831   4
  -3  -1   7 1403.71 157.898   3
  -3  -1   7 1155.31 87.0138   5
  -3   1   7 1237.26 180.273   2
  -3   1   8 4578.63 302.806   5
  -3  -1   8 5156.93 320.408   1
  -3   1   8 5897.88 408.925   2
  -3   1   8 5441.41 391.341   4
  -3  -1   8 5382.00 324.209   3
  -3  -1   8 4988.30 178.739   5
  -3   1   9 3735.53 301.412   1
  -3   1   9 3337.00 262.998   5
  -3  -1   9 3868.56 284.498   1
  -3   1   9 4303.44 342.186   2
  -3   1   9 3995.12 346.172   4
  -3  -1   9 3850.31 279.488   3
  -3   1  10 8568.98 486.505   1
  -3   1  10 8077.78 424.544   5
  -3   1  10 10181.5 558.596   2
  -3  -1  10 9115.10 453.588   1
  -3   1  10 9652.50 561.700   4
  -3  -1  10 8854.71 458.536   3
  -3   1  11 3795.69 271.348   5
  -3   1  11 3826.30 329.553   1
  -3   1  11 4276.29 372.019   4
  -3  -1  11 3521.72 280.492   1
  -3  -1  11 4060.12 309.781   3
  -3   1  12 17793.6 792.083   1
  -3  -1  12 17616.7 702.496   1
  -3   1  12 18205.7 843.542   4
  -3   1  13 4197.71 396.714   4
  -3   1  13 4057.37 376.281   1
  -3  -1  13 3624.22 304.321   1
  -3   1  14 11760.8 670.224   1
  -3  -1  14 10990.1 570.681   1
  -3   1  14 11432.6 685.463   4
  -3   1  15 2614.78 321.658   1
  -3   1  15 2682.17 335.467   4
  -3  -1  15 2615.66 285.486   1
  -3   1  16 4262.81 423.918   1
  -3   1  16 4996.33 474.066   4
  -3  -1  16 4512.18 379.393   1
  -3  -1  17 971.596 189.686   1
  -3   1  17 1044.26 237.237   4
  -3   1  17 994.111 209.834   1
  -3  -1  18 3643.51 376.459   1
  -3   1  18 3296.86 411.909   4
  -3   1  18 3039.94 399.175   1
  -3  -1  19 346.384 125.412   1
  -3  -1  20 1931.99 300.296   1
  -3  -1  21 2359.80 346.373   1
  -3  -1  22 4215.49 487.724   1
  -3  -2 -25 1802.31 275.087   6
  -3  -2 -24 2673.40 341.356   6
  -3   2 -23 2836.37 357.941   6
  -3  -2 -23 3187.61 360.757   6
   3   2 -22 1693.43 414.782   2
  -3  -2 -22 1662.56 254.650   6
  -3   2 -22 1270.13 249.651   6
   3  -2 -21 2556.22 397.705   2
   3   2 -21 3445.46 556.332   2
  -3   2 -21 2383.43 326.681   6
  -3  -2 -21 2345.91 302.453   6
   3  -2 -20 804.577 226.940   2
   3   2 -20 1020.15 300.786   2
  -3  -2 -20 961.026 186.964   6
  -3   2 -20 684.243 177.678   6
   3  -2 -19 399.262 165.823   2
   3   2 -19 663.090 253.881   2
  -3  -2 -19 248.568 119.927   6
  -3   2 -19 354.289 125.430   6
   3  -2 -18 1315.49 269.515   2
   3   2 -18 1278.59 346.944   2
   3  -2 -18 919.131 137.045   5
  -3  -2 -18 992.016 185.024   6
  -3   2 -18 1269.53 220.734   6
   3  -2 -17 832.441 212.052   2
   3   2 -17 931.721 276.062   2
   3  -2 -17 771.160 121.977   5
  -3  -2 -17 1002.16 177.056   6
  -3   2 -17 814.918 180.085   6
   3   2 -16 3249.63 472.628   2
  -3  -2 -16 2998.52 294.833   6
  -3   2 -16 2753.30 309.911   6
   3  -2 -16 2858.78 352.414   2
   3  -2 -16 2638.84 234.626   5
   3   2 -15 3120.87 448.629   2
  -3  -2 -15 3172.77 294.992   6
  -3   2 -15 2653.87 300.360   6
   3  -2 -15 2781.14 330.763   2
   3  -2 -15 2820.37 242.761   5
  -3   2 -14 7971.95 504.482   6
   3   2 -14 7035.13 663.853   2
   3  -2 -14 7622.70 524.719   2
  -3  -2 -14 7472.16 444.291   6
   3  -2 -14 7079.41 397.489   5
  -3  -2 -13 5437.53 373.642   6
   3  -2 -13 5594.37 418.353   2
  -3   2 -13 5490.15 407.394   6
   3   2 -13 5370.63 564.543   2
   3  -2 -13 5716.27 351.591   5
  -3   2 -12 7362.39 466.448   6
   3   2 -12 7494.63 650.810   2
  -3  -2 -12 7997.07 438.537   6
   3  -2 -12 7146.76 394.278   5
  -3  -2 -11 10809.6 508.168   6
  -3   2 -11 11161.1 577.064   6
   3   2 -11 9896.06 735.747   2
   3  -2 -11 11127.2 498.776   5
   3   2 -10 7884.13 489.060   6
  -3  -2 -10 7620.96 408.235   6
  -3   2 -10 7430.08 455.448   6
   3   2 -10 6205.57 557.993   2
   3  -2 -10 7100.63 385.833   5
  -3   2  -9 5383.14 375.456   6
  -3  -2  -9 5928.96 355.566   6
   3   2  -9 6253.55 415.115   6
   3  -2  -9 5857.33 343.325   5
  -3   2  -8 4041.99 204.953   1
   3   2  -8 2828.89 268.152   6
  -3  -2  -8 2947.42 241.409   6
  -3   2  -8 2934.95 269.255   6
   3  -2  -8 2967.22 239.707   5
  -3   2  -7 3513.63 191.761   1
   3   2  -7 3328.30 276.325   6
  -3  -2  -7 2552.48 224.331   6
  -3   2  -7 2734.96 257.325   6
   3  -2  -7 2819.29 227.828   5
   3   2  -6 2336.47 233.438   6
  -3   2  -6 2390.86 163.993   1
  -3  -2  -6 2118.57 204.577   6
   3   2  -6 2315.64 237.373   4
  -3   2  -6 2136.28 218.253   6
   3  -2  -6 2276.00 202.601   5
  -3   2  -5 1945.21 154.063   1
  -3  -2  -5 1866.91 185.102   6
   3   2  -5 1914.43 211.120   4
  -3   2  -5 1673.88 194.016   6
   3   2  -5 2021.27 206.098   6
   3  -2  -5 2002.62 191.675   5
  -3   2  -4 5392.94 264.977   1
  -3  -2  -4 4981.74 303.141   6
   3  -2  -4 5112.92 312.067   1
   3   2  -4 4647.92 312.303   6
  -3   2  -4 5109.56 317.187   6
   3  -2  -4 5250.15 315.436   5
  -3   2  -3 7168.94 323.595   1
   3  -2  -3 7578.13 379.349   1
  -3  -2  -3 7237.71 370.138   6
   3   2  -3 7336.77 385.883   6
  -3   2  -3 7217.34 371.474   6
   3  -2  -3 7619.87 385.312   5
  -3   2  -2 11171.7 441.691   1
   3  -2  -2 12662.1 498.542   1
  -3  -2  -2 11902.0 491.290   6
   3   2  -2 12864.5 520.260   6
  -3   2  -2 12723.1 494.639   6
   3  -2  -2 12094.8 503.008   5
  -3   2  -1 8982.85 392.033   1
   3  -2  -1 9728.58 412.796   1
  -3  -2  -1 8810.15 419.494   6
   3   2  -1 8900.29 421.262   6
  -3   2  -1 9016.62 392.301   6
   3  -2  -1 9148.96 428.860   5
  -3   2   0 10417.1 445.351   1
   3  -2   0 11882.6 455.902   1
   3   2   0 11153.7 483.314   6
  -3  -2   0 10881.2 469.617   6
  -3   2   0 11193.5 426.521   6
   3  -2   0 11147.8 487.885   5
  -3   2   1 9553.48 434.099   1
  -3  -2   1 10220.8 455.615   6
  -3   2   1 9695.81 377.389   6
   3  -2   1 10096.0 459.080   5
   3   2   1 10562.7 462.157   6
  -3   2   1 9989.74 475.109   5
  -3   2   2 11032.4 496.134   5
  -3   2   2 10034.2 457.162   1
  -3  -2   2 9659.65 456.884   6
   3   2   2 10313.1 461.677   6
  -3   2   2 9345.90 351.285   6
  -3  -2   2 8731.39 549.017   2
   3  -2   2 10163.9 464.824   5
  -3   2   3 8918.83 463.989   5
  -3  -2   3 8625.69 419.023   3
  -3   2   3 9014.57 439.418   1
  -3  -2   3 9222.27 445.622   6
  -3   2   3 8709.68 311.503   6
  -3   2   3 7848.62 383.310   2
   3  -2   3 9486.48 446.221   5
  -3  -2   4 3972.05 282.379   3
  -3   2   4 4235.21 312.375   5
  -3   2   4 4617.99 317.142   1
  -3   2   4 4183.81 181.723   6
  -3   2   4 3801.88 251.059   2
   3  -2   4 4226.44 299.991   5
  -3  -2   5 2605.58 227.287   3
  -3   2   5 2752.84 258.833   5
  -3   2   5 2764.10 253.361   1
  -3   2   5 2487.53 202.828   2
  -3   2   5 2554.11 121.662   6
   3  -2   5 2679.09 234.851   5
  -3   2   6 1851.59 224.204   5
  -3   2   6 1861.02 216.197   1
  -3   2   6 1756.38 73.7937   6
  -3   2   6 2034.79 186.467   2
  -3  -2   6 1744.08 195.641   3
  -3   2   7 2475.35 263.357   5
  -3  -2   7 2662.21 171.952   5
  -3   2   7 2972.81 226.196   2
  -3   2   7 2750.83 269.987   1
   3  -2   7 1591.02 98.4852   3
  -3  -2   7 2918.47 246.352   3
  -3   2   8 4054.69 342.908   5
  -3  -2   8 3666.29 191.258   5
  -3   2   8 3555.46 315.894   1
   3  -2   8 2532.42 129.226   3
  -3  -2   8 3787.28 288.825   3
  -3  -2   9 4995.94 185.005   5
  -3   2   9 5352.45 390.355   5
  -3   2   9 5741.86 418.715   1
  -3  -2   9 5784.19 376.051   3
  -3   2  10 9413.97 537.230   5
  -3   2  10 9251.89 565.103   1
  -3  -2  10 9522.12 510.915   3
  -3   2  11 10741.2 576.971   5
  -3   2  11 10502.6 615.455   1
  -3  -2  11 10409.5 516.458   1
  -3   2  11 11036.7 684.481   4
  -3  -2  11 10335.6 545.506   3
  -3   2  12 9180.12 528.682   5
  -3  -2  12 9396.22 502.658   1
  -3   2  12 8709.62 581.326   1
  -3   2  12 9795.21 656.069   4
  -3  -2  12 9587.81 535.201   3
  -3  -2  13 6881.81 428.544   1
  -3   2  13 7367.64 584.130   4
  -3   2  13 6501.44 519.451   1
  -3  -2  13 7196.84 475.281   3
  -3  -2  14 7252.00 456.179   1
  -3   2  14 8162.40 627.915   4
  -3   2  14 7555.44 573.641   1
  -3  -2  14 8204.00 525.719   3
  -3  -2  15 4416.06 359.118   1
  -3   2  15 4418.77 468.082   4
  -3  -2  15 3951.91 373.127   3
  -3   2  16 3577.08 430.169   4
  -3  -2  16 2909.75 297.146   1
  -3  -2  16 3038.57 338.900   3
  -3   2  17 1484.65 288.607   4
  -3  -2  17 1030.89 194.067   1
  -3   2  18 848.807 219.671   4
  -3  -2  18 709.114 158.770   1
  -3   2  19 635.043 198.956   4
  -3  -2  19 580.198 162.525   1
  -3  -2  20 1696.88 271.809   1
  -3   2  20 1408.05 308.840   4
  -3  -2  21 2929.09 363.023   1
  -3   2  21 2644.66 438.356   4
  -3   2  22 2287.46 407.848   4
  -3  -3 -24 325.716 131.049   6
  -3  -3 -23 751.949 192.897   6
  -3  -3 -22 214.381 140.958   6
  -3  -3 -21 3276.23 351.415   6
  -3   3 -21 3423.03 390.744   6
   3   3 -21 4341.09 618.776   2
   3   3 -20 1345.87 342.007   2
  -3  -3 -20 947.510 195.957   6
  -3   3 -20 714.820 199.993   6
  -3  -3 -19 7309.74 514.612   6
   3   3 -19 8816.57 844.659   2
  -3   3 -19 7108.35 547.265   6
   3   3 -18 1526.83 349.635   2
   3  -3 -18 1082.90 188.508   5
  -3  -3 -18 1209.01 213.354   6
  -3   3 -18 1220.70 223.505   6
  -3  -3 -17 6543.06 466.031   6
  -3   3 -17 5975.23 497.676   6
   3   3 -17 7912.78 759.215   2
   3  -3 -17 6591.11 496.147   5
   3   3 -16 190.510 109.567   2
   3  -3 -16 337.656 91.0660   5
  -3  -3 -16 341.516 132.048   6
  -3   3 -16 366.492 136.512   6
   3   3 -15 3213.03 466.218   2
  -3  -3 -15 2973.28 296.691   6
  -3   3 -15 3047.65 328.537   6
   3  -3 -15 2806.49 320.739   5
   3   3 -14 334.881 178.103   2
   3  -3 -14 357.752 118.343   5
  -3  -3 -14 360.563 102.655   6
  -3   3 -14 303.057 124.964   6
   3   3 -13 287.656 132.215   2
   3  -3 -13 456.917 129.248   5
  -3  -3 -13 181.919 95.4437   6
  -3   3 -13 251.229 106.611   6
   3   3 -12 295.468 159.112   2
   3  -3 -12 285.307 99.5164   5
  -3  -3 -12 223.918 92.4470   6
  -3   3 -12 315.077 114.966   6
   3  -3 -11 462.338 120.062   5
  -3  -3 -11 363.713 113.071   6
  -3   3 -11 488.414 132.223   6
   3  -3 -10 644.627 157.869   5
  -3  -3 -10 505.497 120.880   6
  -3  -3  -9 8165.39 454.242   6
   3  -3  -9 8271.45 521.170   5
  -3  -3  -8 2279.30 233.143   6
   3  -3  -8 2616.71 283.886   5
  -3  -3  -7 15720.6 644.066   6
   3  -3  -7 16050.8 727.297   5
  -3  -3  -6 2623.98 251.230   6
   3  -3  -6 2502.94 263.707   5
   3  -3  -5 17959.7 752.184   5
  -3  -3  -5 18027.9 692.006   6
   3  -3  -4 1429.29 196.139   5
  -3  -3  -4 1726.52 202.130   6
  -3  -3  -3 7566.72 428.629   6
   3  -3  -3 8181.78 466.613   5
   3  -3  -2 902.877 151.466   5
  -3  -3  -2 963.587 158.777   6
   3  -3  -1 459.121 99.3093   1
   3  -3  -1 483.247 115.897   5
  -3  -3  -1 519.753 124.029   6
   3  -3   0 57.7945 48.6443   1
   3  -3   0 92.2936 76.1238   5
  -3  -3   0 39.8556 59.9651   6
   3  -3   1 851.060 120.187   1
   3  -3   1 1001.72 159.650   5
  -3  -3   1 948.137 168.668   6
   3  -3   2 944.521 164.423   5
   3  -3   2 961.588 134.902   1
  -3  -3   2 963.284 157.728   6
  -3  -3   3 6992.78 377.876   5
   3  -3   3 7153.77 335.432   1
   3  -3   3 7783.64 443.968   5
  -3  -3   4 1810.42 188.445   5
   3  -3   4 2026.94 230.133   5
  -3  -3   5 18231.3 775.129   3
  -3  -3   5 19144.1 678.752   5
   3  -3   5 19978.2 780.413   5
  -3  -3   6 2810.52 284.193   3
  -3  -3   6 3280.64 249.301   5
  -3   3   6 3269.92 194.087   6
   3  -3   6 3462.01 314.479   5
  -3  -3   7 16357.4 738.888   3
  -3  -3   7 17453.3 631.410   5
  -3   3   7 17951.4 469.943   6
   3  -3   7 17944.3 746.924   5
   3  -3   8 1537.60 145.268   3
  -3  -3   8 2073.91 181.973   5
  -3   3   8 1989.03 85.8864   6
  -3   3   8 1864.18 82.8931   6
   3  -3   8 2244.83 252.941   5
  -3  -3   8 2226.27 254.618   3
  -3  -3   9 7848.84 334.262   5
  -3  -3   9 7835.28 485.648   3
   3  -3  10 420.170 74.6470   3
  -3  -3  10 526.088 135.863   3
  -3  -3  10 502.281 74.3016   5
   3  -3  11 316.182 67.7935   3
  -3  -3  11 581.550 152.495   3
  -3  -3  11 427.149 44.6504   5
   3  -3  12 193.538 61.8541   3
  -3  -3  12 200.420 95.3801   3
   3   3  12 161.309 52.0577   4
   3  -3  13 272.067 74.3501   3
  -3  -3  13 186.704 109.703   3
   3   3  13 259.918 63.6159   4
  -3  -3  14 331.533 134.198   3
  -3   3  14 445.038 167.653   4
  -3  -3  14 443.020 119.554   1
  -3  -3  15 3947.87 353.065   1
  -3   3  15 3453.69 439.411   4
  -3  -3  15 3403.14 367.917   3
  -3  -3  16 410.128 132.242   1
  -3  -3  16 595.785 172.008   3
  -3   3  16 505.196 190.863   4
  -3  -3  17 8653.81 547.052   1
  -3   3  17 9082.22 756.199   4
  -3  -3  17 8684.27 626.342   3
  -3  -3  18 1856.97 315.811   3
  -3  -3  18 1390.36 221.042   1
  -3   3  18 1522.68 312.890   4
  -3   3  19 9764.39 815.112   4
  -3  -3  19 9436.88 592.134   1
  -3  -3  19 9325.13 693.795   3
  -3   3  20 1268.29 306.837   4
  -3   3  21 5089.93 609.642   4
  -3   3  22 493.727 210.983   4
  -3  -4 -22 2844.98 330.575   6
  -3  -4 -21 723.078 188.303   6
  -3  -4 -20 1392.61 293.592   5
  -3  -4 -20 1913.77 279.097   6
  -3   4 -20 2114.23 455.326   2
   3   4 -19-250.184 175.817   2
   3  -4 -19-113.866 183.706   5
  -3  -4 -19 43.6523 99.9720   5
  -3  -4 -19 111.601 87.9442   6
  -3   4 -19-8.94463 94.7512   6
   3   4 -18 2074.16 416.303   2
   3  -4 -18 1685.29 300.704   5
  -3  -4 -18 2356.16 295.163   6
  -3  -4 -18 2400.23 343.150   5
  -3   4 -18 2349.62 430.924   2
  -3   4 -18 1870.32 298.542   6
   3   4 -17 1442.36 362.002   2
   3  -4 -17 784.424 213.337   5
  -3  -4 -17 1059.83 240.297   5
  -3  -4 -17 1175.86 215.720   6
  -3   4 -17 349.115 133.650   6
   3   4 -16 2239.83 408.970   2
   3  -4 -16 1391.09 276.161   5
  -3  -4 -16 2418.93 295.606   6
  -3   4 -16 1208.31 231.827   6
   3   4 -15 1527.01 344.020   2
   3  -4 -15 782.911 193.714   5
  -3  -4 -15 1351.89 219.906   6
  -3   4 -15 813.610 195.835   6
   3  -4 -14 2400.61 353.105   5
  -3  -4 -14 3323.67 336.539   6
   3  -4 -13 454.245 153.134   5
  -3  -4 -13 869.384 181.150   6
  -3  -4 -12 4853.80 394.725   6
   3  -4 -12 4469.43 463.918   5
   3  -4 -11 626.654 179.460   5
  -3  -4 -11 928.213 184.086   6
  -3  -4 -10 4735.65 385.474   6
   3  -4 -10 4660.21 469.908   5
   3  -4  -9 1614.84 270.018   5
  -3  -4  -9 1666.15 225.176   6
  -3  -4  -8 2541.74 273.784   6
   3  -4  -8 2590.81 340.871   5
   3  -4  -7 172.014 100.009   5
  -3  -4  -7 231.320 103.631   6
  -3  -4  -6 5046.39 392.418   6
   3  -4  -6 5525.90 474.103   5
   3  -4  -5 1129.88 212.362   5
  -3  -4  -5 1333.78 206.130   6
  -3  -4  -4 3312.33 338.831   5
  -3  -4  -4 3146.43 309.254   6
   3  -4  -4 3208.93 353.497   5
  -3  -4  -3 3320.31 333.121   5
  -3  -4  -3 2977.90 309.363   6
   3  -4  -3 3120.73 336.875   5
  -3  -4  -2 6603.66 463.298   5
  -3  -4  -2 6746.41 467.074   6
   3  -4  -2 6130.20 473.043   5
   3  -4  -1 669.174 162.821   5
  -3  -4  -1 1027.65 181.145   6
  -3   4  -1 573.270 85.5004   2
  -3  -4  -1 920.365 180.373   5
  -3  -4   0 9052.00 519.833   5
   3  -4   0 9023.44 548.277   5
   3  -4   1 963.136 189.784   5
  -3  -4   1 792.115 164.452   5
  -3  -4   2 6379.34 435.850   5
   3  -4   2 6574.28 470.605   5
  -3  -4   3 3215.18 303.529   5
   3  -4   3 2802.50 245.954   1
   3  -4   3 3159.35 322.197   5
  -3  -4   4 3236.06 301.149   5
   3  -4   4 3106.64 243.192   1
   3  -4   4 3023.54 332.805   5
   3  -4   5 1345.81 226.432   5
  -3  -4   5 1302.58 197.073   5
   3  -4   5 1072.86 138.535   1
  -3  -4   6 4489.66 423.583   3
  -3  -4   6 5311.75 380.100   5
   3  -4   6 4054.66 255.057   1
  -3   4   6 5896.68 333.994   6
   3  -4   6 5600.07 434.186   5
   3  -4   7 363.087 130.966   5
  -3  -4   7 144.121 105.780   3
  -3  -4   7 253.325 85.6697   5
  -3  -4   8 2833.54 253.546   5
  -3  -4   8 2177.95 297.044   3
   3  -4   8 2579.58 298.313   5
  -3  -4   9 1510.81 175.357   5
  -3  -4   9 1132.93 224.244   3
   3  -4   9 1750.52 261.847   5
   3  -4  10 5303.53 440.072   5
  -3  -4  10 5227.53 461.096   3
  -3  -4  10 5482.05 310.670   5
   3  -4  11 628.341 169.435   5
  -3  -4  11 583.768 182.228   3
   3  -4  11 294.408 100.079   3
   3  -4  12 3274.27 273.167   3
  -3  -4  12 4461.85 432.514   3
   3  -4  13 289.042 95.9281   3
  -3  -4  13 663.733 191.023   3
   3  -4  14 2886.61 260.235   3
  -3  -4  14 3835.97 415.972   3
  -3  -4  15 1701.63 292.556   3
  -3  -4  15 1312.40 220.992   1
  -3  -4  16 2154.05 334.171   3
  -3   4  16 1802.97 345.803   4
  -3  -4  16 2027.32 270.648   1
  -3  -4  17 926.094 230.957   3
  -3   4  17 664.113 198.564   4
  -3   4  18 2954.77 454.139   4
  -3  -4  18 3170.58 430.966   3
  -3  -4  19 268.353 201.179   3
  -3   4  19-63.3008 152.388   4
  -3   4  20 1777.04 359.127   4
   3  -5 -19 824.468 262.001   5
  -3  -5 -19 1115.83 230.268   6
  -3   5 -19 783.185 265.970   2
   3  -5 -18 194.147 153.711   5
  -3  -5 -18 216.488 131.932   6
  -3   5 -18 129.681 146.955   2
   3  -5 -17 273.846 189.234   5
  -3  -5 -17 274.183 153.880   5
  -3  -5 -17 665.645 183.969   6
  -3   5 -17 199.661 153.555   2
   3  -5 -16 660.969 236.511   5
  -3  -5 -16 284.781 154.081   5
  -3  -5 -16 511.144 178.746   6
  -3   5 -16-78.1898 116.769   2
   3  -5 -15 2029.31 376.734   5
  -3  -5 -15 1810.92 324.593   5
  -3  -5 -15 2049.82 286.270   6
  -3   5 -15 1789.92 325.533   2
   3  -5 -14 1825.16 346.853   5
  -3  -5 -14 1018.59 236.600   5
  -3   5 -14 1422.15 275.418   2
  -3  -5 -14 1357.61 247.756   6
  -3  -5 -13 2790.61 381.819   5
  -3   5 -13 3230.08 396.970   2
  -3  -5 -13 3615.72 383.862   6
   3  -5 -13 3833.89 491.050   5
   3  -5 -12 412.176 212.933   5
  -3  -5 -12 698.010 202.224   5
  -3  -5 -12 257.631 118.253   6
  -3   5 -12 457.785 149.018   2
  -3  -5 -11 4352.83 465.928   5
  -3   5 -11 4013.57 402.931   2
  -3  -5 -11 4416.64 406.360   6
   3  -5 -11 4549.35 512.848   5
   3  -5 -10 2054.75 352.983   5
  -3  -5 -10 1779.81 261.077   6
  -3   5 -10 1293.19 222.438   2
  -3  -5 -10 1505.08 291.279   5
  -3   5  -9 2463.30 299.396   2
  -3  -5  -9 2547.46 351.114   5
   3  -5  -9 2637.40 388.072   5
  -3  -5  -9 2573.11 322.475   6
   3  -5  -8 231.845 134.543   5
  -3  -5  -8 389.413 156.966   5
  -3  -5  -8 176.022 110.850   6
  -3   5  -8 513.103 145.763   2
   3  -5  -7 1134.92 270.331   5
  -3  -5  -7 1020.57 201.093   6
  -3  -5  -7 882.199 231.800   5
  -3   5  -7 1305.02 199.517   2
   3  -5  -6 257.142 138.278   5
  -3  -5  -6 326.594 139.743   5
  -3  -5  -6 365.122 133.727   6
  -3   5  -6 159.808 68.9270   2
   3  -5  -5 425.910 182.995   5
  -3  -5  -5 508.788 160.313   5
  -3  -5  -5 333.402 110.149   6
   3  -5  -4 344.413 151.688   5
  -3  -5  -4 350.381 139.367   5
  -3  -5  -3 3754.80 398.046   5
   3  -5  -3 4244.10 450.312   5
  -3  -5  -2 1621.07 269.570   5
   3  -5  -2 2374.51 342.051   5
  -3  -5  -1 4810.02 432.816   5
   3  -5  -1 4699.05 461.103   5
   3  -5   0 569.296 172.736   5
  -3  -5   0 942.366 198.947   5
  -3  -5   1 4876.01 430.175   5
   3  -5   1 4495.93 447.280   5
   3  -5   2 1632.87 272.742   5
  -3  -5   2 1770.56 258.475   5
  -3  -5   3 3814.32 373.978   5
   3  -5   3 4069.82 415.365   5
   3  -5   4 368.156 128.747   5
  -3  -5   4 591.339 152.943   5
   3  -5   5 379.891 146.522   5
  -3  -5   5 577.341 149.810   5
   3  -5   6 346.082 142.442   5
  -3  -5   6 368.573 121.663   5
   3  -5   7 865.901 210.252   5
  -3  -5   7 803.429 209.837   3
  -3  -5   7 1194.93 194.075   5
   3  -5   8 498.416 174.302   5
  -3  -5   8 546.833 147.551   3
  -3  -5   8 596.236 148.924   5
  -3  -5   9 2388.75 248.214   5
  -3  -5   9 2074.61 336.056   3
   3  -5   9 2436.88 339.325   5
   3  -5  10 1635.44 295.152   5
  -3  -5  10 1723.21 299.729   3
   3  -5  10 986.775 166.835   3
  -3  -5  11 3300.84 417.539   3
   3  -5  11 2451.07 281.627   3
   3  -5  11 3948.12 422.468   5
   3  -5  12 461.131 159.899   5
  -3  -5  12 414.512 173.583   3
   3  -5  12 40.9563 63.6471   3
  -3  -5  13 3498.70 442.062   3
  -3  -5  14 1581.31 328.469   3
  -3  -5  15 1618.94 309.698   3
  -3  -5  16 712.472 230.585   3
   3  -6 -14 331.269 192.324   5
  -3  -6 -14 230.147 134.599   6
   3  -6 -13 356.955 216.134   5
  -3  -6 -13 9.87790 94.0314   6
   3  -6 -12 494.193 221.733   5
  -3  -6 -12 247.780 157.761   5
  -3  -6 -12 319.518 140.250   6
   3  -6 -11 188.825 136.082   5
  -3  -6 -11 203.245 138.781   5
  -3  -6 -11 95.7631 114.459   6
   3  -6 -10 369.652 204.077   5
  -3  -6 -10 296.699 180.777   5
   3  -6  -9 1569.43 329.120   5
  -3  -6  -9 1037.26 265.633   5
   3  -6  -8 1690.99 340.862   5
  -3  -6  -8 1787.48 316.167   5
  -3  -6  -7 3074.12 413.501   5
   3  -6  -7 3523.91 480.349   5
   3  -6  -6 2438.76 405.118   5
  -3  -6  -6 2617.69 387.212   5
  -3  -6  -5 2913.92 390.485   5
   3  -6  -5 3333.90 461.673   5
   3  -6  -4 1706.58 326.581   5
  -3  -6  -4 1907.30 319.219   5
   3  -6  -3 1316.52 290.789   5
  -3  -6  -3 1334.50 279.743   5
   3  -6  -2 329.996 174.804   5
  -3  -6  -2 107.880 108.989   5
  -3  -6  -1 153.452 134.744   5
   3  -6  -1 31.6779 106.579   5
   3  -6   0 270.132 156.867   5
  -3  -6   0 144.271 101.796   5
   3  -6   1 336.962 152.718   5
  -3  -6   1 114.932 124.907   5
   3  -6   2 275.171 153.314   5
  -3  -6   2 127.197 120.206   5
   3  -6   3 1027.96 261.301   5
  -3  -6   3 1029.58 217.786   5
   3  -6   4 1707.35 309.623   5
  -3  -6   4 2044.44 298.651   5
  -3  -6   5 3550.17 383.072   5
   3  -6   5 2806.32 401.983   5
   3  -6   6 2010.31 341.684   5
  -3  -6   6 2199.94 296.359   5
  -3  -6   7 3434.32 353.935   5
   3  -6   7 2802.54 400.717   5
   3  -6   8 1425.36 295.700   5
  -3  -6   8 1025.13 238.469   3
   3  -6   9 1381.18 288.108   5
  -3  -6   9 844.076 234.725   3
   3  -6  10 383.389 203.384   5
  -3  -6  10 15.9583 120.258   3
   3  -6  11 101.931 136.176   5
  -3  -6  11 221.471 154.100   3
   3  -6  12 40.4866 105.114   5
  -3  -6  12 215.251 156.625   3
   3  -6  13 32.6290 111.322   5
  -3  -7  -5 632.512 216.030   5
  -3  -7  -4 890.932 262.430   5
  -3  -7  -3 524.780 202.214   5
  -3  -7  -2 1350.42 284.757   5
  -3  -7  -1 501.621 176.148   5
  -3  -7   0 1797.50 314.258   5
  -3  -7   1 141.758 126.782   5
  -3  -7   2 1316.45 272.218   5
  -3  -7   3 655.000 195.203   5
  -3  -7   4 876.608 214.414   5
  -3  -7   5 902.552 224.916   5
   4   0 -24 17030.6 1359.57   2
   4   0 -23-251.616 203.155   2
   4   0 -22 234.074 187.997   2
  -4   0 -22 703.267 181.367   6
   4   0 -21-486.345 241.684   2
  -4   0 -21-123.821 115.821   6
  -4   0 -20 7614.87 534.920   6
   4   0 -20 8554.74 866.473   2
   4   0 -19 301.932 179.064   2
  -4   0 -19 90.1160 113.264   6
   4   0 -18 3759.51 526.173   2
  -4   0 -18 3317.32 335.622   6
   4   0 -17 438.186 195.931   2
  -4   0 -17 130.842 99.7923   6
  -4   0 -16 16278.1 742.564   6
  -4   0 -15 57.8941 82.2101   6
  -4   0 -14 1522.32 215.272   6
   4   0 -13 4.33709 26.0953   6
  -4   0 -13 25.5085 80.8396   6
  -4   0 -12 49083.7 1359.50   6
   4   0 -12 46778.9 945.615   6
   4   0 -11 2.82368 37.3279   6
  -4   0 -11 125.871 87.9857   6
   4   0 -10 415.540 52.0015   6
  -4   0 -10 417.103 105.861   6
   4   0  -9 26.9043 28.5284   6
  -4   0  -9-3.87166 55.5049   6
   4   0  -8 15301.4 428.544   6
  -4   0  -8 15835.2 609.148   6
  -4   0  -7 5.50385 59.7591   6
   4   0  -7 26.1566 34.4012   6
   4   0  -6 12157.2 495.456   3
  -4   0  -6 11243.4 480.992   6
   4   0  -6 11228.8 372.403   6
   4   0  -5-24.0991 45.1836   3
  -4   0  -5 31.1126 21.2210   4
  -4   0  -5 5.40405 57.2505   6
   4   0  -5 7.40120 41.3848   6
   4   0  -4 45851.7 1092.11   3
   4   0  -4 43974.1 987.585   6
  -4   0  -4 42650.8 1100.23   6
   4   0  -3-9.32677 33.6068   3
  -4   0  -3 55.9979 36.4416   4
  -4   0  -3 62.3794 53.2904   6
   4   0  -3 51.1023 48.6871   6
  -4   0  -2 1613.49 161.188   6
   4   0  -2 1434.06 140.864   6
  -4   0  -2 1343.69 129.529   4
  -4   0  -1 67.4847 63.9267   5
  -4   0  -1 134.574 75.6336   6
  -4   0  -1 46.3779 45.2937   4
   4   0  -1 80.2521 57.0076   6
  -4   0   0 180955. 3533.14   6
   4   0   0 177036. 3533.08   6
  -4   0   0 185421. 3560.95   4
  -4   0   0 173525. 3547.85   5
  -4   0   1 54.0252 60.1193   6
  -4   0   1 72.4370 66.3429   4
   4   0   1 93.4107 71.9719   6
  -4   0   2 1323.09 134.487   6
  -4   0   2 1202.51 161.849   4
   4   0   2 1398.57 161.842   6
  -4   0   3 6.35636 36.3380   6
  -4   0   3 59.6346 58.1449   4
  -4   0   3 57.4770 52.6332   1
   4   0   3 149.090 70.3711   6
  -4   0   4 46500.1 1233.13   1
  -4   0   4 45344.8 1084.62   6
  -4   0   4 48430.8 1296.10   4
  -4   0   4 45834.9 1529.68   2
  -4   0   5 8.44296 27.9509   5
  -4   0   5 20.7875 49.5407   6
  -4   0   5 59.8497 53.3549   4
  -4   0   5 134.540 75.2471   1
  -4   0   6 11948.9 531.611   1
  -4   0   6 11256.5 420.652   6
  -4   0   6 12541.2 588.658   4
  -4   0   6 11961.0 448.912   5
  -4   0   7 27.7427 54.7816   1
  -4   0   7 26.9559 35.5379   5
  -4   0   7 56.4335 65.9158   4
  -4   0   8 18647.3 788.868   4
  -4   0   8 17423.7 705.565   1
  -4   0   8 18506.8 596.674   5
  -4   0   9-21.9682 64.7331   1
  -4   0   9 26.5115 47.6650   5
  -4   0   9-38.7940 51.6083   4
  -4   0  10 371.274 105.448   1
  -4   0  10 194.226 61.3341   5
  -4   0  10 155.309 82.6586   4
  -4   0  11 18.4668 62.6957   1
  -4   0  11 99.4702 91.9739   4
  -4   0  11 28.5132 44.8800   5
  -4   0  12 55685.7 1230.75   5
  -4   0  12 58763.2 1632.09   1
  -4   0  13 58.6601 93.8569   1
  -4   0  14 1540.57 242.723   1
  -4   0  15 12.9916 103.542   1
  -4   0  16 22783.4 1017.64   1
  -4   0  17 20.5075 118.205   1
  -4   0  18 3024.47 381.764   1
  -4   0  19 24.8320 121.316   1
  -4   0  20 12431.9 854.832   1
  -4   0  21 114.992 132.859   1
  -4   0  22 585.855 242.151   1
  -4   0  23 35.2290 153.892   1
   4   1 -23 2667.35 541.101   2
   4  -1 -23 2726.38 460.977   2
   4   1 -22 2098.15 484.695   2
   4  -1 -22 2446.06 441.076   2
  -4  -1 -22 2366.27 319.145   6
  -4   1 -22 2294.09 311.445   6
   4   1 -21 1805.42 447.071   2
   4  -1 -21 1481.09 332.455   2
  -4  -1 -21 2120.29 293.118   6
  -4   1 -21 2118.09 295.200   6
   4   1 -20 755.164 361.234   2
   4  -1 -20 583.136 205.253   2
  -4  -1 -20 820.831 189.290   6
  -4   1 -20 843.628 198.573   6
  -4  -1 -19 7577.71 528.090   6
  -4   1 -19 7615.07 539.902   6
   4   1 -19 6547.81 786.419   2
   4   1 -18 873.440 279.086   2
  -4  -1 -18 977.910 183.573   6
  -4   1 -18 965.593 201.851   6
   4   1 -17 1928.09 410.254   2
  -4  -1 -17 1706.48 250.159   6
  -4   1 -17 2013.09 268.781   6
  -4  -1 -16 5474.73 420.010   6
  -4   1 -16 5027.39 420.913   6
  -4  -1 -15 7643.96 489.944   6
  -4   1 -15 7747.94 522.440   6
  -4  -1 -14 1556.00 219.110   6
  -4   1 -14 1782.38 238.301   6
  -4  -1 -13 933.031 162.080   6
  -4   1 -13 930.468 171.985   6
   4  -1 -13 979.994 108.605   5
   4  -1 -12 622.741 89.9622   5
   4   1 -12 827.673 108.729   6
  -4  -1 -12 640.783 136.818   6
  -4   1 -12 576.482 141.696   6
   4   1 -11 5862.81 299.075   6
  -4  -1 -11 5273.19 368.363   6
  -4   1 -11 5811.46 404.311   6
   4  -1 -11 5676.21 282.113   5
   4   1 -10 6461.17 314.424   6
  -4  -1 -10 6125.05 380.523   6
  -4   1 -10 6618.04 420.443   6
   4  -1 -10 5749.43 291.817   5
  -4  -1  -9 8152.92 428.125   6
  -4   1  -9 8557.26 467.817   6
   4  -1  -9 7693.90 335.954   5
  -4  -1  -8 2428.58 225.158   6
   4   1  -8 2166.30 172.496   6
  -4   1  -8 2079.86 230.929   6
   4  -1  -8 2232.10 179.521   5
   4   1  -7 9698.21 397.379   6
  -4  -1  -7 9391.23 458.727   6
  -4   1  -7 10091.9 486.713   6
   4  -1  -7 9508.03 395.087   5
  -4   1  -6 1526.05 142.443   1
  -4  -1  -6 1505.58 176.785   6
   4   1  -6 1957.10 165.701   6
  -4   1  -6 1839.33 202.631   6
   4  -1  -6 1745.19 162.380   5
   4  -1  -6 1923.47 185.902   3
  -4   1  -5 10332.1 402.034   1
  -4  -1  -5 10388.3 468.334   6
   4   1  -5 10653.2 422.985   6
  -4   1  -5 10363.0 478.090   6
   4  -1  -5 10997.1 453.354   3
  -4  -1  -4 5824.04 271.094   3
  -4   1  -4 6752.62 316.502   1
  -4  -1  -4 7369.29 378.048   6
  -4   1  -4 6779.13 362.924   6
   4   1  -4 7510.27 343.398   6
   4  -1  -4 7046.08 336.290   3
  -4  -1  -3 8390.48 339.753   3
  -4   1  -3 9029.67 381.466   1
  -4  -1  -3 9248.16 427.986   6
   4   1  -3 9059.03 393.191   6
  -4   1  -3 9249.18 408.633   6
   4  -1  -3 9039.94 373.367   3
  -4   1  -2 3965.75 248.815   1
  -4  -1  -2 4120.22 275.387   6
   4   1  -2 3981.79 252.443   6
  -4   1  -2 4173.99 256.583   6
   4  -1  -2 4395.13 231.746   3
  -4  -1  -2 4422.59 234.491   3
  -4   1  -1 4579.77 276.005   1
   4   1  -1 5179.56 297.184   6
  -4   1  -1 5084.07 274.276   6
  -4  -1  -1 5210.91 306.176   6
   4  -1  -1 4916.86 232.524   3
  -4  -1  -1 5099.94 260.150   3
  -4   1   0 793.181 116.452   1
  -4   1   0 1056.33 118.487   6
  -4  -1   0 910.435 131.004   6
   4   1   0 1020.85 134.373   6
  -4  -1   0 989.092 114.875   3
   4  -1   0 825.607 85.8113   3
  -4  -1   1 5275.65 303.726   6
  -4   1   1 5872.37 277.144   6
  -4   1   1 5173.50 307.126   1
  -4  -1   1 5539.43 291.247   3
  -4   1   1 5325.65 315.434   5
   4  -1   1 4998.93 208.590   3
  -4  -1   2 4037.05 260.389   6
  -4   1   2 3542.15 211.898   6
  -4   1   2 3419.68 253.347   1
  -4  -1   2 4313.95 258.701   3
  -4   1   2 3646.40 257.368   5
  -4  -1   3 10853.7 451.119   6
  -4   1   3 10901.0 379.110   6
  -4   1   3 10215.3 471.935   1
  -4  -1   3 11014.1 459.317   3
  -4   1   3 10862.6 475.646   5
  -4  -1   4 6382.04 338.388   6
  -4   1   4 6549.23 267.584   6
  -4   1   4 6522.61 373.463   1
  -4   1   4 7009.44 431.674   4
  -4   1   4 6800.77 487.099   2
  -4  -1   4 6276.74 298.987   5
  -4  -1   4 6875.88 355.416   3
  -4   1   4 6924.39 373.178   5
  -4  -1   5 10315.0 458.455   6
  -4   1   5 10397.9 338.729   6
  -4   1   5 11496.0 650.565   2
  -4   1   5 11635.3 580.754   4
  -4   1   5 10849.7 503.390   1
  -4  -1   5 10578.7 400.153   5
  -4  -1   5 11952.8 493.330   3
  -4   1   6 2134.08 127.675   6
  -4   1   6 2560.04 300.972   2
  -4   1   6 2723.75 284.443   4
  -4   1   6 2248.44 226.612   1
  -4  -1   6 2505.88 221.417   3
  -4  -1   6 2185.40 162.743   5
  -4   1   7 10099.5 609.665   2
  -4   1   7 11384.4 610.586   4
  -4   1   7 10157.5 514.272   1
  -4  -1   7 10841.7 499.049   3
  -4  -1   7 9460.02 358.045   5
  -4   1   8 2457.95 299.564   2
  -4  -1   8 2609.03 256.541   1
  -4   1   8 2752.53 305.035   4
  -4   1   8 2697.17 260.164   1
  -4  -1   8 3017.21 257.830   3
  -4  -1   8 2514.38 160.160   5
  -4  -1   9 8251.39 469.907   1
  -4   1   9 8641.11 576.250   2
  -4   1   9 8628.73 551.853   4
  -4  -1   9 7969.79 449.192   3
  -4   1   9 8131.76 479.988   1
  -4  -1   9 8020.76 301.001   5
  -4  -1  10 7096.44 257.940   5
  -4  -1  10 8099.08 480.506   1
  -4   1  10 8463.09 559.866   4
  -4   1  10 8283.06 501.053   1
  -4   1  11 5348.73 417.524   1
  -4   1  11 5292.31 353.747   5
  -4  -1  11 5819.61 405.674   1
  -4   1  11 6029.52 486.504   4
  -4  -1  12 443.697 118.060   1
  -4   1  12 558.947 147.600   1
  -4   1  12 366.096 95.2290   5
  -4   1  12 320.224 114.540   4
  -4  -1  13 1162.52 195.528   1
  -4   1  13 1499.88 239.840   1
  -4   1  13 1358.33 242.102   4
  -4  -1  14 1740.59 244.333   1
  -4   1  14 1726.99 270.366   1
  -4   1  14 1708.07 277.848   4
  -4   1  15 11013.8 704.551   1
  -4   1  15 10929.4 735.966   4
  -4  -1  15 10062.3 610.506   1
  -4   1  16 5411.59 513.378   1
  -4   1  16 5617.73 544.197   4
  -4  -1  16 5079.68 443.870   1
  -4   1  17 2955.71 395.249   1
  -4   1  17 3002.11 411.593   4
  -4  -1  17 3299.06 359.239   1
  -4  -1  18 1110.72 223.832   1
  -4   1  18 1147.13 256.079   1
  -4   1  18 1329.24 281.457   4
  -4  -1  19 10426.0 712.069   1
  -4   1  19 11571.8 833.010   1
  -4  -1  20 1141.33 245.646   1
  -4   1  20 995.968 265.034   1
  -4  -1  21 2049.60 355.705   1
  -4  -1  22 4407.32 514.832   1
  -4  -1  23 3526.92 481.434   1
  -4  -2 -22 1593.74 279.741   6
  -4  -2 -21 7175.04 546.539   6
  -4   2 -21 6094.99 525.814   6
   4   2 -21 7088.26 834.943   2
   4   2 -20 1184.11 338.974   2
  -4  -2 -20 1116.35 226.277   6
  -4   2 -20 1068.24 234.850   6
  -4  -2 -19 4013.60 400.443   6
  -4   2 -19 4135.96 426.035   6
   4   2 -19 4822.09 662.115   2
  -4  -2 -18 4647.76 414.671   6
  -4   2 -18 4547.56 437.580   6
   4   2 -18 5301.64 678.891   2
  -4  -2 -17 7363.31 511.716   6
  -4   2 -17 7554.80 556.656   6
  -4  -2 -16 3252.26 328.893   6
  -4   2 -16 2877.72 345.824   6
   4  -2 -16 2960.40 227.670   5
  -4  -2 -15 9726.01 570.701   6
  -4   2 -15 10612.1 633.352   6
   4  -2 -15 9763.96 439.985   5
  -4  -2 -14 3176.15 308.669   6
  -4   2 -14 3480.70 371.072   6
   4  -2 -14 3226.59 246.191   5
  -4  -2 -13 8774.61 511.672   6
  -4   2 -13 9001.36 584.490   6
   4  -2 -13 8515.42 418.663   5
   4  -2 -12 713.075 120.034   5
  -4  -2 -12 625.386 136.516   6
  -4   2 -12 914.079 199.997   6
  -4  -2 -11 7334.48 455.426   6
  -4   2 -11 7589.49 519.157   6
   4  -2 -11 7717.26 401.880   5
  -4   2 -10 6954.47 286.005   1
  -4  -2 -10 5207.05 376.909   6
  -4   2 -10 6303.87 450.650   6
   4  -2 -10 5435.56 337.905   5
  -4  -2  -9 25644.9 914.613   6
  -4   2  -9 29798.2 1040.09   6
   4  -2  -9 27103.0 868.616   5
  -4   2  -9 28958.8 734.117   1
  -4  -2  -8 2566.87 250.174   6
  -4   2  -8 2833.74 295.901   6
   4  -2  -8 2605.11 232.981   5
  -4   2  -8 2671.20 179.765   1
  -4  -2  -7 16500.0 670.257   6
  -4   2  -7 17094.8 735.974   6
  -4   2  -7 17081.6 537.490   1
   4  -2  -7 17045.4 643.857   5
  -4  -2  -6 15029.2 624.452   6
  -4   2  -6 16421.8 698.437   6
  -4   2  -6 15556.9 518.391   1
   4  -2  -6 15978.2 621.663   5
  -4  -2  -5 25213.2 841.433   6
  -4   2  -5 27155.0 897.260   6
  -4   2  -5 25109.5 727.533   1
   4  -2  -5 23823.7 820.846   5
   4   2  -4 1368.78 193.198   4
  -4  -2  -4 1237.00 168.647   6
  -4   2  -4 1255.35 180.480   6
  -4   2  -4 1285.23 143.042   1
   4  -2  -4 1455.93 178.332   5
  -4  -2  -3 21471.2 771.278   6
  -4   2  -3 22715.5 764.775   6
  -4   2  -3 21729.9 692.365   1
   4  -2  -3 22399.8 771.765   5
  -4  -2  -2 8775.89 447.625   6
  -4   2  -2 9363.28 437.171   6
   4  -2  -2 9282.47 463.221   5
  -4   2  -2 8772.87 408.905   1
  -4  -2  -1 13197.2 561.875   6
  -4   2  -1 13868.3 525.026   6
   4   2  -1 12075.6 540.692   4
   4  -2  -1 12980.5 575.120   5
  -4   2  -1 13192.3 528.461   1
   4  -2   0 10.2313 61.8358   5
  -4  -2   0-13.8464 50.0396   3
  -4  -2   0 96.4584 74.7716   6
   4   2   0 118.211 62.7160   4
  -4   2   0 143.343 67.1461   6
  -4   2   0 68.9406 69.9771   1
  -4  -2   1 10131.3 475.776   3
  -4  -2   1 10392.9 494.965   6
   4   2   1 9242.48 418.325   4
  -4   2   1 10259.8 411.390   6
   4  -2   1 11180.3 518.482   5
  -4   2   1 10654.9 484.550   1
  -4   2   2 7271.80 407.482   1
  -4  -2   2 6664.45 382.814   3
  -4  -2   2 7561.92 420.266   6
  -4   2   2 7313.66 317.674   6
   4   2   2 6050.02 307.247   4
   4  -2   2 7774.23 434.004   5
  -4   2   3 25088.7 856.500   1
  -4  -2   3 25955.2 866.508   6
  -4   2   3 25546.0 660.449   6
   4   2   3 22533.5 650.283   4
  -4  -2   3 26722.3 847.009   3
  -4   2   4 2605.01 254.153   1
  -4  -2   4 1901.35 214.447   6
  -4   2   4 2122.55 136.109   6
  -4   2   4 2050.91 236.873   2
  -4  -2   4 2341.66 221.320   3
  -4   2   5 23218.8 843.850   1
  -4   2   5 20851.4 527.959   6
  -4   2   5 21581.0 825.978   2
  -4  -2   5 21713.2 773.189   3
  -4   2   6 14673.6 669.839   1
  -4   2   6 13333.5 341.981   6
  -4   2   6 13990.2 637.435   2
  -4  -2   6 15150.5 625.130   3
  -4   2   7 22334.8 886.512   1
  -4   2   7 21830.5 846.357   2
  -4  -2   7 22264.0 816.893   3
  -4   2   8 3860.16 354.673   1
  -4   2   8 3846.02 322.410   2
  -4  -2   8 2798.84 170.997   5
  -4  -2   8 3281.26 295.322   3
  -4  -2   9 24746.1 660.659   5
  -4   2   9 27224.8 1042.17   1
  -4   2   9 29028.9 960.588   2
  -4   2   9 27885.1 1141.50   4
  -4  -2   9 23168.3 605.025   5
  -4  -2   9 27365.4 947.842   3
  -4  -2  10 4817.41 195.015   5
  -4   2  10 7200.23 501.771   1
  -4   2  10 7010.76 548.416   4
  -4  -2  10 7040.18 446.420   3
  -4  -2  10 4315.33 166.150   5
  -4  -2  11 10974.6 582.056   1
  -4   2  11 10662.4 656.891   1
  -4   2  11 12098.1 760.127   4
  -4  -2  11 10368.0 580.882   3
  -4  -2  12 381.071 122.875   3
  -4   2  12 169.883 125.026   1
  -4   2  12 82.7280 85.3412   4
  -4  -2  12 193.592 90.0218   1
  -4  -2  13 7237.05 492.472   1
  -4   2  13 8546.73 606.686   1
  -4   2  13 8530.61 663.693   4
  -4  -2  13 7954.03 531.301   3
  -4  -2  14 3571.78 349.303   1
  -4   2  14 4399.01 455.580   1
  -4   2  14 4370.40 484.604   4
  -4  -2  14 4207.39 391.296   3
  -4  -2  15 13741.4 729.946   1
  -4   2  15 15408.8 949.516   4
  -4   2  15 14916.9 867.861   1
  -4  -2  15 13849.4 749.738   3
  -4   2  16 2296.82 359.501   1
  -4   2  16 3093.23 433.583   4
  -4  -2  16 2706.19 329.140   1
  -4   2  17 7319.36 677.459   4
  -4  -2  17 6305.30 507.788   1
  -4   2  17 7451.81 645.185   1
  -4   2  18 7082.31 681.317   4
  -4  -2  18 6296.86 520.936   1
  -4   2  19 6912.62 687.412   4
  -4  -2  19 7100.29 562.546   1
  -4   2  20 1683.55 350.701   4
  -4  -2  20 2031.50 313.123   1
  -4  -2  21 7341.02 627.162   1
  -4   2  21 8451.33 804.451   4
  -4  -3 -21 959.634 214.633   6
  -4  -3 -20 1366.26 241.822   6
  -4  -3 -19 113.082 113.774   6
  -4   3 -19 22.0406 122.085   6
  -4  -3 -18 440.516 142.277   6
  -4   3 -18 588.015 188.247   6
  -4  -3 -17 931.805 191.196   6
  -4   3 -17 1052.38 233.878   6
   4  -3 -16 1538.66 209.242   5
  -4  -3 -16 1796.73 261.674   6
  -4   3 -16 1313.75 249.558   6
   4  -3 -15 553.253 124.538   5
  -4  -3 -15 493.423 149.617   6
  -4   3 -15 816.883 202.916   6
  -4  -3 -14 5654.92 437.559   6
  -4   3 -14 5875.36 489.387   6
   4  -3 -14 5118.51 385.179   5
  -4  -3 -13 2697.34 300.454   6
  -4   3 -13 2713.12 332.458   6
   4  -3 -13 2796.47 286.969   5
  -4  -3 -12 10483.0 587.051   6
  -4   3 -12 10783.5 662.815   6
   4  -3 -12 10827.5 579.010   5
   4  -3 -11 988.916 179.943   5
  -4  -3 -11 642.712 147.458   6
  -4   3 -11 576.342 177.627   6
  -4  -3 -10 5574.24 406.083   6
  -4   3 -10 5477.55 449.924   6
   4  -3 -10 6408.71 436.203   5
  -4  -3  -9 1276.94 194.702   6
  -4   3  -9 1468.86 234.297   6
   4  -3  -9 1701.94 226.280   5
  -4  -3  -8 2319.01 257.163   6
  -4   3  -8 2689.73 301.199   6
   4  -3  -8 2614.15 273.366   5
   4  -3  -7 15.9757 69.3564   5
  -4  -3  -7 28.5191 76.0841   6
  -4   3  -7-38.5946 93.9519   6
   4  -3  -6 668.351 141.773   5
  -4  -3  -6 802.297 154.607   6
  -4   3  -6 810.229 159.992   6
   4  -3  -5 355.804 112.819   5
  -4  -3  -5 443.302 120.844   6
  -4   3  -5 428.397 121.252   6
  -4  -3  -4 2756.23 270.813   6
  -4   3  -4 3158.76 300.379   6
  -4   3  -4 2681.85 261.676   1
   4  -3  -4 2539.75 272.653   5
   4  -3  -3 424.436 115.592   5
  -4  -3  -3 498.682 126.548   6
  -4   3  -3 439.324 116.444   1
  -4   3  -3 394.462 114.878   6
  -4  -3  -2 9459.78 523.356   6
   4   3  -2 8842.01 517.226   4
  -4   3  -2 10752.8 526.115   1
  -4   3  -2 10777.6 529.376   6
   4  -3  -2 9914.02 551.935   5
  -4  -3  -1 2203.21 251.262   6
  -4   3  -1 2228.62 243.923   1
  -4   3  -1 1950.05 219.346   6
   4  -3  -1 2455.21 262.225   5
  -4  -3   0 16295.0 714.929   6
  -4   3   0 15591.5 682.630   1
  -4   3   0 16022.0 634.647   6
   4  -3   0 15856.0 714.000   5
  -4  -3   1 1894.24 238.352   6
  -4   3   1 1806.84 229.738   1
  -4   3   1 1930.33 197.604   6
   4  -3   1 1974.63 252.377   5
  -4  -3   2 10614.1 607.265   3
  -4  -3   2 10237.9 566.460   6
  -4   3   2 10148.4 556.805   1
  -4   3   2 10879.8 451.694   6
   4  -3   2 11102.5 592.220   5
  -4   3   3 403.550 92.3052   2
   4  -3   3 732.555 157.986   5
  -4  -3   3 739.491 150.516   3
  -4   3   3 766.707 157.190   1
  -4  -3   3 616.337 130.628   6
  -4   3   3 692.744 110.122   6
  -4  -3   4 2264.65 271.295   3
  -4   3   4 1691.43 166.964   2
  -4   3   4 1964.60 154.657   6
  -4   3   4 1950.88 253.919   1
   4  -3   4 2156.91 258.912   5
   4  -3   5 447.247 134.038   5
  -4  -3   5 275.334 111.615   3
  -4   3   5 552.702 145.414   1
  -4   3   5 421.154 73.6861   6
  -4   3   5 394.356 74.0983   2
  -4   3   6 934.544 182.098   1
   4  -3   6 1079.26 196.543   5
  -4  -3   6 1155.52 195.500   3
  -4  -3   6 1078.01 150.225   5
  -4   3   6 1051.86 84.3767   6
  -4   3   6 777.437 105.527   2
  -4  -3   7-20.4090 73.0896   3
   4  -3   7-15.7004 33.2663   3
  -4   3   7-47.4616 89.7140   1
  -4  -3   7 6.48999 47.5111   5
  -4   3   7 37.7658 18.1439   6
  -4  -3   8 2076.12 194.029   5
  -4   3   8 2278.89 298.166   1
  -4  -3   8 2154.00 266.154   3
  -4  -3   9 1862.35 169.368   5
  -4   3   9 1516.76 241.039   1
  -4  -3   9 2025.42 258.595   3
  -4   3  10 6054.10 515.620   1
  -4  -3  10 6488.48 474.555   3
  -4  -3  11 460.574 139.746   3
  -4  -3  12 12452.6 705.756   3
  -4  -3  13 3505.50 360.679   1
  -4   3  13 3392.28 446.784   4
  -4  -3  13 3619.98 381.255   3
  -4  -3  14 5612.24 462.368   1
  -4   3  14 5464.09 573.280   4
  -4  -3  14 6460.75 514.793   3
  -4  -3  15 327.802 155.921   3
  -4   3  15 472.518 205.759   4
  -4  -3  15 237.441 101.671   1
  -4  -3  16 1730.18 276.254   1
  -4  -3  16 1805.58 292.150   3
  -4   3  16 1531.63 304.353   4
  -4  -3  17 1521.95 284.289   3
  -4  -3  17 1379.63 244.768   1
  -4   3  17 1323.50 289.722   4
  -4  -3  18 738.909 218.821   3
  -4  -3  18 384.266 162.439   1
  -4   3  18 545.698 171.593   4
  -4  -3  19 161.032 99.6246   1
  -4   3  19 82.1972 119.831   4
  -4   3  20 879.842 272.097   4
  -4  -4 -19 3668.87 401.388   6
  -4  -4 -18 1542.92 268.210   6
  -4  -4 -17 4020.95 416.683   6
  -4   4 -17 3074.32 399.233   6
   4  -4 -17 3395.83 388.969   5
   4  -4 -16 2791.94 352.580   5
  -4  -4 -16 3857.01 388.871   6
  -4   4 -16 2983.62 388.499   6
  -4  -4 -15 3779.54 388.779   6
  -4   4 -15 2972.92 382.133   6
   4  -4 -15 3628.59 387.509   5
  -4  -4 -14 4471.13 415.039   6
  -4   4 -14 3997.99 429.599   6
   4  -4 -14 3681.12 397.572   5
   4  -4 -13 1547.63 260.981   5
  -4  -4 -13 1447.80 251.681   6
  -4   4 -13 1241.55 246.387   6
  -4  -4 -12 5637.97 446.616   6
  -4   4 -12 4185.96 434.908   6
   4  -4 -12 4754.12 456.644   5
  -4  -4 -11 5477.81 433.375   6
  -4   4 -11 4326.35 431.428   6
   4  -4 -11 4512.67 436.582   5
  -4  -4 -10 7779.67 514.828   6
  -4   4 -10 6645.80 521.351   6
   4  -4 -10 7316.01 557.905   5
  -4  -4  -9 3969.25 370.367   6
  -4   4  -9 3551.97 367.856   6
   4  -4  -9 4532.84 436.650   5
  -4  -4  -8 9172.29 561.402   6
  -4   4  -8 8064.36 558.533   6
   4  -4  -8 9677.02 641.383   5
  -4  -4  -7 11323.9 620.778   6
   4  -4  -7 11420.7 689.276   5
  -4  -4  -6 6868.15 491.236   6
  -4   4  -6 6065.02 456.486   6
   4  -4  -6 6838.46 522.025   5
  -4  -4  -5 5195.84 418.278   6
   4  -4  -5 5725.79 476.800   5
  -4  -4  -4 10097.4 592.673   6
   4  -4  -4 10252.1 642.099   5
  -4  -4  -3 9312.42 568.518   6
   4  -4  -3 9187.55 596.176   5
  -4  -4  -2 8142.08 533.525   6
   4  -4  -2 7902.48 546.011   5
  -4  -4  -1 3514.51 360.362   6
   4  -4  -1 3286.56 357.866   5
  -4  -4   0 6601.91 467.796   5
  -4  -4   0 6522.49 481.902   6
   4  -4   0 6761.86 501.116   5
  -4  -4   1 4858.94 394.768   5
   4  -4   1 4545.54 413.377   5
  -4  -4   2 6653.94 457.831   5
   4  -4   2 7098.98 522.220   5
  -4  -4   3 8892.55 528.104   5
  -4   4   3 8940.33 462.522   6
   4  -4   3 8444.93 573.930   5
  -4  -4   4 10731.4 743.122   3
  -4  -4   4 10586.7 581.993   5
  -4   4   4 11171.4 491.439   6
   4  -4   4 11296.2 663.135   5
  -4  -4   5 6766.62 583.446   3
  -4  -4   5 7531.05 480.461   5
  -4   4   5 7845.71 380.501   6
   4  -4   5 7948.78 554.369   5
  -4  -4   6 7127.71 586.041   3
  -4  -4   6 7679.21 471.680   5
  -4   4   6 7193.28 329.808   6
   4  -4   6 7259.99 532.288   5
  -4  -4   7 9995.46 703.441   3
  -4  -4   7 10964.0 558.531   5
   4  -4   7 10683.0 656.971   5
  -4  -4   8 9773.67 508.603   5
   4  -4   8 10054.2 649.445   5
  -4  -4   8 9090.10 657.191   3
   4  -4   9 5723.27 510.577   5
  -4  -4   9 6025.17 524.389   3
  -4  -4  10 7989.67 610.288   3
  -4  -4  11 3254.51 397.757   3
  -4  -4  12 5206.63 494.117   3
  -4  -4  13 3500.28 411.186   3
  -4  -4  14 4212.70 465.621   3
  -4  -4  15 2781.36 386.304   3
  -4  -4  15 3036.23 370.911   1
  -4   4  15 2923.85 432.425   4
  -4  -4  16 3905.61 423.763   1
  -4   4  16 3951.83 519.286   4
  -4  -4  16 4234.12 479.909   3
  -4  -4  17 4791.64 476.187   1
  -4   4  17 4846.83 579.233   4
  -4  -4  17 4856.17 522.650   3
   4  -5 -17 778.112 240.248   5
  -4   5 -17 858.037 262.174   2
   4  -5 -16 1463.35 313.267   5
  -4   5 -16 927.215 250.597   2
   4  -5 -15 303.271 168.384   5
  -4  -5 -15 248.903 132.057   6
  -4   5 -15 608.199 224.101   2
   4  -5 -14 1774.28 328.793   5
  -4  -5 -14 1309.98 289.762   5
  -4  -5 -14 1659.23 271.646   6
  -4   5 -14 1259.42 269.943   2
  -4   5 -14 1245.57 252.223   6
   4  -5 -13 380.515 174.204   5
  -4  -5 -13 69.8692 106.310   5
  -4  -5 -13-43.3377 107.169   6
  -4   5 -13 145.804 112.448   2
  -4   5 -13-100.486 137.662   6
   4  -5 -12 754.972 230.918   5
  -4  -5 -12 821.601 221.146   5
  -4  -5 -12 884.161 220.659   6
  -4   5 -12 877.293 214.318   2
  -4   5 -12 762.662 183.317   6
   4  -5 -11 588.279 197.226   5
  -4  -5 -11 433.100 168.746   5
  -4  -5 -11 644.747 190.115   6
  -4   5 -11 515.007 174.706   6
   4  -5 -10 503.268 153.984   5
  -4  -5 -10 714.089 201.390   5
  -4  -5 -10 411.694 149.916   6
   4  -5  -9 611.841 222.084   5
  -4  -5  -9 858.633 220.908   5
  -4  -5  -9 1153.79 233.435   6
  -4  -5  -8 4723.31 471.971   5
  -4  -5  -8 4067.81 428.283   6
   4  -5  -8 4616.84 511.856   5
   4  -5  -7 2303.60 357.344   5
  -4  -5  -7 1825.20 299.888   5
  -4  -5  -7 2348.61 314.973   6
  -4  -5  -6 5938.28 522.639   5
  -4  -5  -6 5338.59 475.114   6
   4  -5  -6 5721.21 552.496   5
   4  -5  -5 1162.74 264.179   5
  -4  -5  -5 927.779 224.461   5
  -4  -5  -5 768.939 189.982   6
  -4  -5  -4 2850.84 369.119   5
  -4  -5  -4 2473.95 327.446   6
   4  -5  -4 2853.28 389.061   5
   4  -5  -3 1502.86 269.493   5
  -4  -5  -3 1215.37 245.139   5
  -4  -5  -3 1236.69 234.315   6
   4  -5  -2 2370.96 340.556   5
  -4  -5  -2 2049.35 309.529   5
   4  -5  -1-161.381 115.898   5
  -4  -5  -1 287.065 122.441   5
   4  -5   0-34.5023 92.4240   5
  -4  -5   0 78.2904 75.5627   5
   4  -5   1 138.799 121.480   5
  -4  -5   1 334.136 148.818   5
   4  -5   2 1725.13 301.249   5
  -4  -5   2 1828.12 265.094   5
   4  -5   3 1563.37 294.891   5
  -4  -5   3 1707.18 256.641   5
  -4  -5   4 3029.77 337.444   5
   4  -5   4 2448.93 357.014   5
   4  -5   5 1245.62 251.418   5
  -4  -5   5 1013.97 254.668   3
  -4  -5   5 1539.81 249.813   5
  -4  -5   6 5179.11 572.001   3
  -4  -5   6 5992.92 458.117   5
   4  -5   6 5636.25 522.296   5
  -4  -5   7 2344.74 276.990   5
   4  -5   7 2380.29 345.211   5
  -4  -5   7 2163.50 379.886   3
  -4  -5   8 4782.85 547.222   3
   4  -5   8 5224.61 504.959   5
   4  -5   9 303.124 168.005   5
  -4  -5   9 318.142 177.799   3
   4  -5  10 508.962 164.188   5
  -4  -5  10 195.610 129.280   3
  -4  -5  11 615.120 216.978   3
  -4  -5  12 1093.08 247.902   3
  -4  -5  13 220.343 180.123   3
  -4  -5  14 1300.16 300.640   3
   4  -6 -11 3172.13 466.832   5
   4  -6 -10 5166.17 602.325   5
   4  -6  -9 2312.67 414.272   5
  -4  -6  -9 2595.91 397.123   5
  -4  -6  -9 1812.28 309.946   6
   4  -6  -8 68.9177 127.255   5
  -4  -6  -8 785.143 249.692   5
   4  -6  -7 2584.21 420.882   5
  -4  -6  -7 2297.17 374.365   5
   4  -6  -6 2814.45 441.721   5
  -4  -6  -6 2179.08 365.623   5
   4  -6  -5 1689.99 347.933   5
  -4  -6  -5 1565.30 305.085   5
   4  -6  -4 914.272 269.387   5
  -4  -6  -4 778.412 220.469   5
  -4  -6  -3 5180.22 532.585   5
   4  -6  -3 6002.10 625.403   5
  -4  -6  -2 9505.09 712.514   5
   4  -6  -2 10197.2 811.821   5
  -4  -6  -1 4858.82 501.205   5
   4  -6  -1 4411.76 521.962   5
   4  -6   0 254.692 159.705   5
  -4  -6   0 181.566 116.965   5
  -4  -6   1 6044.60 542.397   5
   4  -6   1 6218.16 628.141   5
  -4  -6   2 9971.26 701.435   5
   4  -6   2 11181.0 819.932   5
  -4  -6   3 5661.67 511.682   5
   4  -6   3 4648.88 550.791   5
   4  -6   4 1050.58 266.624   5
  -4  -6   4 943.025 219.207   5
   4  -6   5 2450.34 392.640   5
  -4  -6   5 1451.92 311.891   3
  -4  -6   5 2324.20 308.517   5
   4  -6   6 2719.35 423.597   5
  -4  -6   6 2244.77 400.934   3
   4  -6   7 1921.22 349.828   5
  -4  -6   7 1130.10 285.646   3
   4  -6   8 321.334 138.661   5
  -4  -6   8 130.152 128.860   3
   4  -6   9 3243.51 457.139   5
   4  -6  10 4957.10 577.905   5
   4  -6  11 2520.30 413.154   5
  -4  -7  -1 1605.15 315.592   5
  -4  -7   0-149.507 166.268   5
  -4  -7   1 1270.82 270.527   5
  -4  -7   2 368.608 169.362   5
  -5   0 -20 136.733 142.057   6
  -5   0 -19 7995.14 580.526   6
  -5   0 -18 42.3863 106.921   6
  -5   0 -17 7617.07 544.390   6
  -5   0 -16-3.46314 86.0769   6
  -5   0 -15 2896.26 321.853   6
  -5   0 -14-15.1699 75.6665   6
  -5   0 -13 411.240 130.151   6
  -5   0 -12-112.594 87.3076   6
  -5   0 -11 608.623 139.425   6
  -5   0 -10 94.7077 96.3765   6
  -5   0  -9 9212.47 503.356   6
  -5   0  -8 178.486 101.493   6
   5   0  -8 28.8125 38.2657   6
  -5   0  -7 16634.2 675.837   6
   5   0  -7 15464.6 492.670   6
  -5   0  -6 161.958 101.670   6
   5   0  -6 58.8426 45.8104   6
  -5   0  -5 22725.7 796.729   6
   5   0  -5 20969.3 646.524   6
  -5   0  -4 84.4604 86.2945   6
   5   0  -4-2.76492 45.2779   6
  -5   0  -3 7080.83 389.646   6
  -5   0  -3 6357.42 305.955   4
   5   0  -3 6191.03 328.774   6
  -5   0  -2 3.10259 34.2977   4
  -5   0  -2 43.7809 57.2112   6
   5   0  -2 63.3164 56.6588   6
  -5   0  -1 673.310 111.138   4
  -5   0  -1 783.044 130.546   6
  -5   0   0-13.2682 38.2941   4
  -5   0   0-34.6005 56.4046   6
  -5   0   1 647.218 116.051   6
  -5   0   1 726.917 137.258   4
  -5   0   2-26.8127 52.8471   6
  -5   0   2 97.2824 66.2159   4
  -5   0   2-39.3278 55.0878   1
  -5   0   3 6936.84 418.723   1
  -5   0   3 7383.82 365.785   6
  -5   0   3 7535.28 441.846   4
  -5   0   4 74.4709 56.0966   6
  -5   0   4-1.42015 50.6014   4
  -5   0   4 33.8852 68.6993   1
  -5   0   5 23040.4 710.294   6
  -5   0   5 23080.9 857.187   1
  -5   0   5 24657.0 910.959   4
  -5   0   5 22582.2 755.284   5
  -5   0   6 49.5029 70.3510   1
  -5   0   6 37.1458 45.8970   5
  -5   0   6-21.1891 45.4046   6
  -5   0   6 110.032 87.1044   4
  -5   0   7 17889.7 756.038   1
  -5   0   7 18601.1 822.869   4
  -5   0   8 7.91403 68.3607   1
  -5   0   8 48.3547 61.4470   4
  -5   0   9 11391.1 656.055   4
  -5   0   9 10259.8 581.010   1
  -5   0  10 47.7529 81.3916   1
  -5   0  11 729.832 168.282   1
  -5   0  12 23.5098 85.5478   1
  -5   0  13 25.9345 95.6629   1
  -5   0  14-144.624 127.773   1
  -5   0  15 4129.41 424.609   1
  -5   0  16 13.2796 100.277   1
  -5   0  17 10358.2 729.662   1
  -5   0  18-13.8919 111.622   1
  -5   0  19 10519.9 799.021   1
  -5   0  20 93.4191 127.311   1
  -5   0  21 8421.53 767.693   1
  -5  -1 -20 1522.74 267.544   6
  -5  -1 -19 72.9348 115.652   6
  -5   1 -19 232.174 135.874   6
  -5  -1 -18 2273.96 306.796   6
  -5   1 -18 2183.57 318.728   6
  -5  -1 -17 887.450 192.964   6
  -5   1 -17 736.809 190.923   6
  -5  -1 -16 1989.95 276.010   6
  -5   1 -16 2456.75 322.372   6
  -5  -1 -15 1179.29 209.105   6
  -5   1 -15 957.408 210.294   6
  -5  -1 -14 5791.97 439.071   6
  -5   1 -14 5141.87 436.942   6
  -5  -1 -13 1502.16 229.139   6
  -5   1 -13 1695.63 246.778   6
  -5  -1 -12 6485.00 440.311   6
  -5   1 -12 6867.23 480.127   6
  -5   1 -11 2120.41 180.004   1
  -5  -1 -11 2574.06 283.248   6
  -5   1 -11 2945.71 305.911   6
  -5   1 -10 3869.09 250.687   1
  -5  -1 -10 4681.03 358.172   6
  -5   1 -10 5376.65 403.865   6
  -5   1  -9 3209.04 228.533   1
  -5  -1  -9 3732.26 314.099   6
  -5   1  -9 3028.30 308.001   6
  -5  -1  -9 2447.26 146.199   3
  -5   1  -8 3561.41 246.736   1
  -5  -1  -8 3555.62 303.319   6
   5   1  -8 4236.53 263.775   6
  -5   1  -8 3893.08 322.010   6
  -5  -1  -8 3075.48 171.464   3
  -5  -1  -7 725.074 84.7491   3
  -5  -1  -7 1107.57 180.850   6
   5   1  -7 784.973 113.714   6
  -5   1  -7 890.379 159.197   6
  -5   1  -7 1008.10 137.606   1
  -5   1  -6 3799.92 261.392   1
  -5  -1  -6 3945.94 314.227   6
   5   1  -6 3731.17 255.253   6
  -5   1  -6 3835.42 309.029   6
  -5  -1  -6 3131.93 188.768   3
  -5   1  -5 1320.03 156.285   1
  -5  -1  -5 1188.05 178.718   6
  -5   1  -5 1142.25 169.718   6
  -5  -1  -5 1213.45 123.790   3
  -5   1  -4 5063.84 311.486   1
  -5  -1  -4 5106.26 351.465   6
  -5   1  -4 5199.45 333.745   6
  -5  -1  -4 4488.21 254.617   3
   5  -1  -4 5264.54 308.217   3
  -5   1  -3 4553.58 302.442   1
  -5  -1  -3 5178.75 355.361   6
  -5   1  -3 4593.60 313.456   6
  -5  -1  -3 5234.27 282.115   3
   5  -1  -3 5062.58 294.064   3
   5  -1  -2 8374.99 376.549   3
  -5  -1  -2 8618.14 458.095   6
  -5   1  -2 8239.96 421.841   1
  -5   1  -2 7756.74 407.527   6
  -5  -1  -2 9693.36 407.959   3
   5  -1  -1 1536.61 147.215   3
  -5  -1  -1 2256.58 226.921   6
  -5   1  -1 2126.65 212.633   1
  -5   1  -1 2384.23 210.277   6
  -5  -1  -1 2816.05 215.499   3
  -5  -1   0 9471.35 477.327   6
  -5   1   0 9064.87 416.593   6
  -5   1   0 8383.96 437.121   1
  -5   1   0 7578.72 449.396   4
  -5  -1   0 10685.9 452.898   3
  -5  -1   1 3084.96 259.698   6
  -5   1   1 2711.50 212.728   6
  -5   1   1 2843.01 255.251   1
  -5   1   1 2350.58 247.295   4
  -5  -1   1 3231.86 247.161   3
  -5  -1   2 8171.14 430.846   6
  -5   1   2 7873.62 364.708   6
  -5   1   2 7176.06 422.515   1
  -5   1   2 8216.54 478.334   4
  -5  -1   2 9200.63 440.853   3
  -5  -1   3 5662.65 350.590   6
  -5   1   3 6007.96 303.066   6
  -5   1   3 5993.86 387.922   1
  -5   1   3 6204.14 430.095   4
  -5  -1   3 7319.89 402.257   3
  -5  -1   4 4292.21 304.207   6
  -5   1   4 4384.97 241.823   6
  -5   1   4 4570.29 377.158   4
  -5   1   4 4459.76 338.548   1
  -5  -1   4 5230.56 345.717   3
  -5  -1   4 3736.56 262.448   5
  -5  -1   5 1806.63 197.856   6
  -5   1   5 1792.41 143.544   6
  -5   1   5 2161.10 264.450   4
  -5   1   5 1681.15 216.613   1
  -5  -1   5 2285.41 229.940   3
  -5  -1   5 1681.77 168.767   5
  -5  -1   6 3970.49 298.487   6
  -5   1   6 3719.67 208.846   6
  -5   1   6 3810.88 360.034   4
  -5   1   6 3836.11 327.197   1
  -5  -1   6 4726.85 340.845   3
  -5   1   7 1222.49 116.028   6
  -5   1   7 981.103 174.602   1
  -5  -1   7 930.805 172.116   1
  -5   1   7 1317.95 219.876   4
  -5  -1   8 4386.84 367.703   1
  -5   1   8 4984.55 437.711   4
  -5   1   8 4763.67 386.182   1
  -5  -1   9 3125.68 317.422   1
  -5   1   9 3366.87 362.856   4
  -5   1   9 3349.09 333.219   1
  -5  -1  10 6252.15 458.701   1
  -5   1  10 6584.69 527.836   4
  -5   1  10 6060.90 463.993   1
  -5  -1  11 2740.96 304.789   1
  -5   1  11 3078.43 365.405   4
  -5   1  11 2521.00 307.612   1
  -5   1  12 8365.67 585.673   1
  -5  -1  12 8868.92 567.992   1
  -5   1  12 9066.86 657.545   4
  -5  -1  13 1757.30 268.803   1
  -5   1  13 1968.49 287.229   1
  -5   1  13 2034.80 316.854   4
  -5   1  14 5535.18 507.590   1
  -5   1  14 6556.37 591.107   4
  -5  -1  14 5354.40 465.716   1
  -5  -1  15 1795.43 267.199   1
  -5   1  15 1747.99 312.583   1
  -5   1  15 1804.36 320.794   4
  -5   1  16 2767.38 390.221   4
  -5   1  16 2847.30 396.732   1
  -5  -1  16 2671.74 346.008   1
  -5   1  17 1393.17 300.501   1
  -5   1  17 1338.36 294.445   4
  -5  -1  17 1183.07 239.129   1
  -5   1  18 2771.10 395.829   1
  -5  -1  18 3022.92 406.870   1
  -5  -1  19 513.852 199.240   1
  -5   1  19 187.576 174.199   1
  -5  -1  20 1807.67 333.793   1
  -5   1  20 2105.56 394.849   1
  -5  -1  21 2076.92 364.344   1
  -5  -1  22 2902.31 468.299   1
  -5  -2 -19 251.716 123.213   6
  -5  -2 -18 272.843 122.563   6
  -5   2 -18 539.203 196.287   6
  -5  -2 -17 639.208 175.871   6
  -5   2 -17 623.781 187.912   6
  -5  -2 -16 1501.85 251.874   6
  -5   2 -16 1825.13 294.977   6
  -5  -2 -15 1663.09 249.362   6
  -5   2 -15 1831.81 299.252   6
  -5  -2 -14 4474.04 400.000   6
  -5   2 -14 4330.75 424.357   6
   5  -2 -14 4139.84 289.869   5
  -5  -2 -13 3509.14 349.108   6
  -5   2 -13 3390.81 379.438   6
   5  -2 -13 3196.67 256.560   5
  -5  -2 -12 4820.18 399.232   6
  -5   2 -12 4581.89 434.602   6
   5  -2 -12 4316.51 308.519   5
  -5  -2 -11 5195.77 405.521   6
  -5   2 -11 6283.95 489.534   6
   5  -2 -11 5383.84 347.162   5
  -5  -2 -10 3710.19 337.176   6
  -5   2 -10 4274.61 396.324   6
   5  -2 -10 3760.25 292.699   5
  -5   2 -10 3571.74 224.822   1
  -5  -2  -9 2675.58 282.012   6
  -5   2  -9 2568.52 297.717   6
  -5   2  -9 2660.00 198.941   1
   5  -2  -9 2518.96 245.078   5
  -5  -2  -8 1854.82 230.781   6
  -5   2  -8 1995.61 267.048   6
  -5   2  -8 1706.75 165.972   1
   5  -2  -8 1784.40 201.293   5
  -5  -2  -7 1609.60 220.219   6
  -5   2  -7 1568.60 234.827   6
  -5   2  -7 1408.49 155.585   1
   5  -2  -7 1555.56 194.150   5
   5  -2  -6 1193.04 170.828   5
  -5   2  -6 1206.02 147.963   1
  -5  -2  -6 1226.12 190.287   6
  -5   2  -6 1494.45 217.565   6
   5  -2  -5 1289.37 180.214   5
  -5   2  -5 1017.18 141.571   1
  -5  -2  -5 1134.01 188.793   6
  -5   2  -5 1348.73 195.857   6
  -5  -2  -4 1439.00 171.537   3
  -5  -2  -4 2063.68 243.072   6
  -5   2  -4 2237.23 246.871   6
  -5   2  -4 2539.16 224.341   1
   5  -2  -4 2343.23 242.539   5
  -5  -2  -3 2709.84 241.037   3
  -5  -2  -3 3078.08 289.847   6
  -5   2  -3 2953.28 262.415   6
  -5   2  -3 3463.93 266.869   1
   5  -2  -3 2986.04 280.461   5
   5  -2  -3 2744.37 223.858   3
  -5  -2  -2 4646.98 323.089   3
  -5  -2  -2 5357.69 377.968   6
  -5   2  -2 4799.49 319.970   6
  -5   2  -2 5502.90 349.903   1
   5  -2  -2 5104.09 294.120   3
  -5  -2  -1 5115.63 338.248   3
  -5  -2  -1 5806.55 395.830   6
  -5   2  -1 5083.22 313.880   6
  -5   2  -1 5578.01 362.202   1
   5  -2  -1 4796.69 268.690   3
  -5  -2   0 6030.52 401.959   6
  -5   2   0 5734.15 324.936   6
  -5   2   0 6251.43 393.945   1
   5  -2   0 5800.93 278.053   3
  -5  -2   0 6000.49 377.285   3
  -5  -2   1 5735.00 390.816   6
  -5   2   1 4953.02 279.122   6
  -5   2   1 5317.53 370.324   1
   5  -2   1 4193.85 214.881   3
  -5  -2   1 5288.05 351.102   3
  -5  -2   2 5067.11 368.348   6
  -5   2   2 4619.41 257.530   6
  -5   2   2 5000.68 360.040   1
  -5  -2   2 4825.48 335.097   3
  -5  -2   3 3803.70 323.664   6
  -5   2   3 3447.79 213.686   6
  -5  -2   3 3788.66 305.815   3
  -5   2   3 3742.32 323.346   1
  -5   2   4 2291.42 259.596   1
  -5   2   4 2057.02 300.992   2
  -5  -2   4 2256.98 249.084   6
  -5   2   4 2135.73 158.099   6
  -5  -2   4 2476.76 254.195   3
  -5  -2   5 1361.06 193.723   3
  -5   2   5 1300.91 205.120   1
  -5   2   5 1023.10 97.9444   6
  -5  -2   5 1149.69 175.394   6
  -5  -2   6 1111.64 178.121   3
  -5   2   6 1060.98 188.355   1
  -5   2   6 942.556 83.6636   6
  -5  -2   7 1664.93 215.900   3
  -5   2   7 1429.93 229.243   1
  -5   2   7 1452.77 246.399   4
  -5   2   8 1911.67 264.340   1
  -5   2   8 1809.46 286.997   4
  -5  -2   8 1981.00 249.771   3
  -5   2   9 2940.33 338.652   1
  -5   2   9 2644.73 358.154   4
  -5  -2   9 3481.78 334.358   3
  -5   2  10 5423.70 478.361   1
  -5  -2  10 4265.50 387.904   1
  -5   2  10 5293.51 514.052   4
  -5  -2  10 4840.27 408.170   3
  -5   2  11 6525.82 540.316   1
  -5  -2  11 5061.97 432.605   1
  -5   2  11 5531.83 539.540   4
  -5  -2  11 6387.37 477.285   3
  -5   2  12 5177.97 485.635   1
  -5  -2  12 5067.26 434.631   1
  -5   2  12 5496.97 548.516   4
  -5  -2  12 5124.88 435.866   3
  -5   2  13 4353.36 464.138   1
  -5  -2  13 4271.31 414.826   1
  -5   2  13 4351.07 506.123   4
  -5  -2  13 4724.25 423.265   3
  -5   2  14 4657.62 490.873   1
  -5  -2  14 4559.82 432.577   1
  -5   2  14 5065.71 555.033   4
  -5   2  15 2588.75 384.080   1
  -5  -2  15 2121.32 313.661   1
  -5   2  15 2387.71 396.640   4
  -5  -2  16 1974.70 298.640   1
  -5   2  16 2046.49 363.328   1
  -5   2  16 2218.58 385.192   4
  -5   2  17 636.530 214.998   1
  -5  -2  17 563.712 169.478   1
  -5   2  17 821.312 235.762   4
  -5  -2  18 751.910 188.178   1
  -5   2  18 521.765 217.241   4
  -5   2  18 418.840 179.984   1
  -5   2  19 1028.68 297.280   4
  -5  -2  19 750.829 204.149   1
  -5  -2  20 1013.88 272.747   1
  -5  -2  21 1403.17 302.676   1
  -5  -3 -17 4789.84 461.442   6
  -5   3 -17 4720.72 486.769   6
  -5  -3 -16 181.459 132.069   6
  -5   3 -16 626.189 201.518   6
  -5  -3 -15 2360.96 310.897   6
  -5   3 -15 2202.59 342.044   6
   5  -3 -14 190.836 83.7900   5
  -5  -3 -14 110.544 98.1672   6
  -5   3 -14 133.992 124.375   6
   5  -3 -13 402.312 100.740   5
  -5  -3 -13 687.387 179.677   6
  -5   3 -13 724.991 211.451   6
   5  -3 -12 101.134 85.3747   5
  -5  -3 -12-62.3480 114.344   6
  -5   3 -12-3.83730 107.748   6
   5  -3 -11 522.096 120.890   5
  -5  -3 -11 289.919 138.005   6
  -5   3 -11 711.811 200.736   6
   5  -3 -10 116.425 65.7826   5
  -5  -3 -10 47.0163 88.8214   6
  -5   3 -10 235.977 141.668   6
  -5  -3  -9 3921.89 365.939   6
  -5   3  -9 4636.68 443.266   6
   5  -3  -9 4211.63 360.127   5
   5  -3  -8 967.627 175.816   5
  -5  -3  -8 899.231 188.072   6
  -5   3  -8 1160.84 237.514   6
  -5  -3  -7 7934.26 512.845   6
  -5   3  -7 9142.02 506.534   1
  -5   3  -7 8631.73 575.745   6
   5  -3  -7 8388.66 518.831   5
   5  -3  -6 1208.21 208.570   5
  -5  -3  -6 1189.19 208.616   6
  -5   3  -6 1262.98 229.766   6
  -5   3  -6 896.390 175.783   1
  -5  -3  -5 9850.17 565.151   6
  -5   3  -5 10430.5 545.282   1
  -5   3  -5 10539.9 623.551   6
   5  -3  -5 9911.21 576.482   5
   5  -3  -4 970.659 188.054   5
  -5   3  -4 702.065 157.214   1
  -5  -3  -4 830.909 176.527   6
  -5   3  -4 967.102 186.453   6
  -5   3  -3 4600.00 369.053   1
  -5  -3  -3 5415.08 413.826   6
  -5   3  -3 5251.15 402.281   6
   5  -3  -3 4888.24 405.833   5
   5  -3  -2 600.733 154.245   5
  -5   3  -2 326.535 113.288   1
  -5  -3  -2 583.345 151.872   6
  -5   3  -2 371.985 130.809   6
   5  -3  -1 825.682 170.368   5
  -5   3  -1 857.258 165.168   1
  -5  -3  -1 606.476 151.853   3
  -5  -3  -1 678.792 157.487   6
  -5   3  -1 703.516 141.564   6
   5  -3   0 91.7473 87.7263   5
  -5   3   0 26.2236 69.3109   1
  -5  -3   0-89.4392 110.134   3
  -5  -3   0 130.933 109.409   6
  -5   3   0 73.2914 74.0916   6
   5  -3   1 992.343 198.502   5
  -5  -3   1 1338.17 220.489   3
  -5   3   1 1193.12 204.299   1
  -5  -3   1 830.639 176.671   6
  -5   3   1 1249.93 159.412   6
   5  -3   2 547.225 152.995   5
  -5  -3   2 313.708 112.740   3
  -5   3   2 386.109 132.947   1
  -5  -3   2 412.157 128.260   6
  -5   3   2 450.477 92.7173   6
  -5  -3   3 4370.06 381.403   6
  -5   3   3 4689.04 417.871   1
  -5   3   3 4250.37 249.278   6
  -5  -3   3 4728.71 412.907   3
  -5  -3   4 1056.62 201.954   3
  -5   3   4 1017.67 205.195   1
  -5   3   4 721.154 92.1333   6
  -5   3   5 9979.05 633.589   1
  -5   3   5 8638.19 314.414   6
  -5  -3   5 10429.7 608.878   3
  -5  -3   6 1388.76 223.454   3
  -5   3   6 1519.06 261.217   1
  -5   3   7 8585.94 612.775   1
  -5  -3   7 8574.65 565.638   3
  -5   3   8 845.381 196.921   1
  -5  -3   8 1064.57 217.673   3
  -5  -3   8 1079.63 149.888   5
  -5   3   9 4627.60 462.451   1
  -5  -3   9 4464.67 418.601   3
  -5  -3  10 354.407 126.824   3
  -5   3  10 63.5915 110.515   1
  -5  -3  11 613.466 171.578   3
  -5   3  11 401.301 135.652   1
  -5   3  11 440.000 163.732   4
  -5  -3  12 35.2230 83.9268   3
  -5   3  12 122.336 117.677   1
  -5   3  12 43.9573 97.7441   4
  -5  -3  13 808.077 202.900   3
  -5   3  13 420.527 167.943   1
  -5   3  13 435.051 184.216   4
  -5  -3  13 388.099 160.768   1
  -5  -3  14 509.247 171.428   3
  -5   3  14 141.564 116.820   4
  -5  -3  14 109.747 134.331   1
  -5   3  15 2896.71 434.135   4
  -5  -3  15 3221.40 396.886   3
  -5  -3  15 2209.72 326.659   1
  -5  -3  16 375.608 178.617   3
  -5  -3  16 308.323 148.222   1
  -5   3  16 344.697 181.302   4
  -5  -3  17 5819.78 547.205   1
  -5   3  17 6198.04 680.043   4
  -5  -3  18 933.577 245.593   1
  -5  -3  19 5099.85 524.725   1
   5  -4 -15 753.381 191.790   5
  -5  -4 -15 1169.81 246.890   6
  -5   4 -15 823.305 230.256   6
   5  -4 -14 2870.83 341.791   5
  -5   4 -14 2401.35 356.324   6
   5  -4 -13 287.346 118.560   5
  -5  -4 -13 416.111 166.728   6
  -5   4 -13 232.962 140.010   6
  -5  -4 -12 4086.98 410.268   6
  -5   4 -12 2939.57 397.953   6
   5  -4 -12 4058.70 404.408   5
   5  -4 -11 466.902 145.575   5
  -5  -4 -11 323.942 146.861   6
  -5   4 -11 749.696 189.964   6
  -5  -4 -10 3336.43 364.964   6
  -5   4 -10 2917.73 388.572   6
   5  -4 -10 3002.86 363.481   5
   5  -4  -9 922.116 203.547   5
  -5  -4  -9 921.782 206.006   6
  -5   4  -9 1201.81 246.168   6
   5  -4  -8 960.489 201.561   5
  -5  -4  -8 1426.09 245.407   6
  -5   4  -8 939.043 227.032   6
   5  -4  -7 244.697 138.916   5
  -5  -4  -7 376.138 166.686   6
  -5   4  -7 120.898 111.091   6
  -5  -4  -6 2465.10 301.359   6
  -5   4  -6 2235.20 316.698   6
   5  -4  -6 2725.66 336.092   5
   5  -4  -5 737.876 182.721   5
  -5  -4  -5 714.547 169.532   6
  -5   4  -5 689.822 179.071   6
   5  -4  -4 1882.36 278.531   5
  -5  -4  -4 1637.88 271.249   6
  -5   4  -4 1467.08 254.848   6
   5  -4  -3 2097.50 299.723   5
  -5  -4  -3 2049.84 289.973   6
  -5   4  -3 1912.10 275.085   6
  -5  -4  -2 5195.95 450.973   6
  -5   4  -2 5372.89 436.723   6
   5  -4  -2 5826.32 493.783   5
   5  -4  -1 359.242 144.108   5
  -5  -4  -1 525.448 139.635   6
  -5   4  -1 688.543 156.050   6
  -5  -4   0 6988.04 537.842   6
  -5   4   0 7330.67 465.251   6
   5  -4   0 5759.67 513.454   5
   5  -4   1 560.070 167.189   5
  -5  -4   1 561.745 217.956   3
  -5  -4   1 400.306 160.224   6
  -5   4   1 656.697 143.849   6
  -5  -4   2 6831.57 680.412   3
  -5   4   2 5907.72 378.602   6
   5  -4   2 5528.66 486.973   5
   5  -4   3 1590.37 270.040   5
  -5  -4   3 1949.96 354.596   3
  -5  -4   3 1565.53 232.326   5
   5  -4   4 1924.88 309.615   5
  -5  -4   4 2291.65 376.577   3
  -5  -4   4 1992.29 252.580   5
   5  -4   5 847.792 204.629   5
  -5  -4   5 559.168 162.600   3
  -5  -4   5 750.967 164.149   5
  -5  -4   6 2250.68 259.991   5
  -5  -4   6 2800.03 400.703   3
  -5  -4   7 320.416 183.044   3
  -5  -4   8 1632.55 305.663   3
  -5  -4   9 1086.61 245.952   3
  -5  -4  10 3717.29 441.154   3
  -5  -4  11 379.283 167.034   3
  -5  -4  12 4503.47 498.754   3
  -5  -4  13 579.345 205.262   3
  -5   4  13 399.629 185.942   4
  -5  -4  14 3129.52 404.913   1
  -5   4  14 3014.75 446.803   4
  -5  -4  14 3621.04 453.457   3
  -5  -4  15 1181.32 271.737   3
  -5  -4  15 943.840 236.180   1
  -5  -4  16 1297.67 268.968   1
  -5  -4  17 283.040 177.617   1
   5  -5 -14 1498.87 306.155   5
   5  -5 -13 2763.72 404.957   5
   5  -5 -12 713.979 214.143   5
  -5   5 -12 81.7816 122.216   6
  -5  -5 -11 2888.29 410.114   5
   5  -5 -11 3281.02 438.903   5
  -5   5 -11 2231.67 347.723   6
   5  -5 -10 1345.62 296.337   5
  -5  -5 -10 803.591 240.053   5
  -5  -5 -10 1250.75 242.029   6
  -5   5 -10 910.266 212.992   6
   5  -5  -9 1637.70 302.327   5
  -5  -5  -9 1685.59 309.523   5
  -5  -5  -9 1356.96 266.927   6
  -5   5  -9 1268.39 278.824   6
   5  -5  -8 258.985 120.169   5
  -5  -5  -8 253.861 149.487   5
  -5  -5  -8 51.9879 111.474   6
  -5   5  -8 122.406 138.284   6
   5  -5  -7 829.984 227.314   5
  -5  -5  -7 410.787 172.802   5
  -5  -5  -7 637.708 192.204   6
  -5   5  -7 617.199 184.124   6
   5  -5  -6 94.5980 123.473   5
  -5  -5  -6 96.6896 138.919   5
  -5  -5  -6 49.2186 105.690   6
  -5   5  -6 39.7227 116.517   6
   5  -5  -5 21.7125 116.670   5
  -5  -5  -5 203.349 131.255   5
  -5  -5  -5 16.2996 139.099   6
  -5   5  -5-111.962 111.886   6
   5  -5  -4-50.9418 139.491   5
  -5  -5  -4 376.173 172.862   5
  -5  -5  -4 238.843 156.964   6
  -5   5  -4 144.700 104.168   6
   5  -5  -3 2449.15 391.513   5
  -5  -5  -3 2281.23 332.606   5
  -5  -5  -3 2771.73 371.926   6
  -5   5  -3 2679.64 329.289   6
   5  -5  -2 1648.59 305.800   5
  -5  -5  -2 1437.61 269.359   5
  -5   5  -2 1150.48 227.389   6
  -5  -5  -1 3604.86 403.590   5
  -5   5  -1 2900.98 345.319   6
   5  -5  -1 3677.24 449.600   5
   5  -5   0 864.643 233.093   5
  -5  -5   0 794.895 202.078   5
  -5   5   0 799.756 193.573   6
  -5  -5   1 3746.18 406.931   5
   5  -5   1 3697.01 446.046   5
   5  -5   2 1302.16 284.153   5
  -5  -5   2 1109.34 218.543   5
  -5  -5   3 2648.22 332.751   5
  -5  -5   3 3430.05 606.161   3
   5  -5   3 2879.81 404.971   5
   5  -5   4 290.152 144.289   5
  -5  -5   4 83.5335 276.814   3
  -5  -5   4 275.906 129.539   5
   5  -5   5-49.6258 130.725   5
  -5  -5   5 1066.67 328.620   3
   5  -5   6 202.734 141.985   5
  -5  -5   6 248.689 169.077   3
   5  -5   7 447.443 199.472   5
  -5  -5   7 825.967 308.062   3
  -5  -5   8 671.041 267.231   3
  -5  -5   9 1498.71 348.157   3
  -5  -5  10 1432.10 345.813   3
  -5  -5  11 3434.53 502.653   3
  -5   6  -8 386.828 169.340   6
  -5   6  -7 734.330 209.575   6
  -5   6  -6 786.373 191.750   6
  -5  -6  -5 1747.68 324.350   5
  -5   6  -5 1279.83 245.448   6
  -5  -6  -4 1277.34 296.806   5
  -5   6  -4 701.881 190.441   6
  -5  -6  -3 1834.22 319.332   5
  -5  -6  -2-62.3780 118.706   5
  -5  -6  -1-181.052 140.807   5
  -5  -6   0 475.693 188.611   5
  -5  -6   1 58.8867 97.2566   5
  -5  -6   2-233.150 223.038   3
  -5  -6   2 62.9538 94.6715   5
  -5  -6   3 820.674 343.900   3
  -5  -6   4 1428.17 423.707   3
  -6   0 -17-87.7642 109.028   6
  -6   0 -16 3441.89 386.902   6
  -6   0 -15-127.112 130.461   6
  -6   0 -14 4144.43 415.250   6
  -6   0 -13 182.420 125.154   6
  -6   0 -12 14035.5 742.555   6
  -6   0 -11 131.909 128.631   6
  -6   0 -10 4079.28 376.607   6
  -6   0  -9-59.4734 85.0804   6
  -6   0  -8 2465.11 283.909   6
  -6   0  -7-77.8962 97.5446   6
  -6   0  -6 915.164 166.012   6
  -6   0  -5-60.8769 90.9427   6
  -6   0  -4 2495.94 262.764   6
  -6   0  -3-12.5937 81.2998   6
  -6   0  -2 11515.6 564.413   6
  -6   0  -1 89.5165 85.2816   6
  -6   0  -1 54.1466 85.3066   1
  -6   0   0 16453.2 730.529   1
  -6   0   0 17260.1 691.661   6
  -6   0   1-21.1128 70.3062   6
  -6   0   1-0.61620 71.5668   1
  -6   0   2 10508.4 578.843   1
  -6   0   2 11012.8 510.470   6
  -6   0   3 92.3271 60.3239   6
  -6   0   3-11.9390 64.1381   1
  -6   0   4 2139.77 210.912   6
  -6   0   4 1940.48 249.690   1
  -6   0   5 34.1732 65.9683   1
  -6   0   5 40.5678 59.9435   6
  -6   0   6 1020.04 187.902   1
  -6   0   6 1014.46 144.012   6
  -6   0   7 134.835 79.0705   1
  -6   0   7 62.3194 57.3637   6
  -6   0   8 2490.43 302.773   1
  -6   0   9 71.4983 92.7864   1
  -6   0  10 5397.13 461.204   1
  -6   0  11-55.9935 92.7074   1
  -6   0  12 14208.9 804.168   1
  -6   0  13 228.669 158.105   1
  -6   0  14 6593.40 562.018   1
  -6   0  15-89.5860 112.160   1
  -6   0  16 3390.38 428.868   1
  -6   0  17-42.0871 120.982   1
  -6  -1 -16 5518.82 482.640   6
  -6   1 -16 6382.08 544.580   6
  -6  -1 -15 2920.85 354.551   6
  -6   1 -15 2524.86 333.208   6
  -6  -1 -14 2132.12 290.685   6
  -6   1 -14 2276.66 315.643   6
  -6  -1 -13 4105.05 407.638   6
  -6   1 -13 4126.69 409.563   6
  -6  -1 -12 5966.29 467.389   6
  -6   1 -12 6038.12 493.369   6
  -6  -1 -11 1646.57 253.624   6
  -6   1 -11 1952.78 285.644   6
  -6   1 -10 2448.03 222.221   1
  -6  -1 -10 3064.25 315.512   6
  -6   1 -10 3086.00 333.160   6
  -6   1  -9 10022.3 489.072   1
  -6  -1  -9 10474.3 595.432   6
  -6   1  -9 10883.6 627.477   6
  -6   1  -8 12094.3 551.017   1
  -6  -1  -8 13339.8 671.629   6
  -6   1  -8 12359.2 646.174   6
  -6   1  -7 8900.30 474.631   1
  -6  -1  -7 9107.18 547.402   6
  -6   1  -7 9305.26 539.078   6
  -6   1  -6 1699.23 204.071   1
  -6   1  -6 1753.32 166.210   4
  -6  -1  -6 1828.95 243.088   6
  -6   1  -6 1561.95 223.103   6
  -6  -1  -5 9156.91 532.097   6
  -6   1  -5 8374.03 458.798   1
  -6   1  -5 8233.18 482.795   6
  -6   1  -5 6968.47 373.693   4
  -6  -1  -4 11877.9 604.306   6
  -6   1  -4 10736.7 534.108   1
  -6   1  -4 10433.5 550.284   6
  -6  -1  -3 11072.0 581.773   6
  -6   1  -3 9845.96 516.592   1
  -6   1  -3 10324.5 520.973   6
  -6   1  -3 9169.02 472.295   4
  -6  -1  -2 4655.68 364.453   6
  -6   1  -2 3987.84 309.520   6
  -6   1  -2 4003.77 321.535   1
  -6   1  -2 3711.93 304.608   4
  -6  -1  -1 4428.92 360.654   6
  -6   1  -1 4067.85 316.621   6
  -6   1  -1 4547.91 344.291   1
  -6   1  -1 4170.12 330.121   4
  -6  -1   0 7307.73 456.040   6
  -6   1   0 7219.93 401.802   6
  -6   1   0 6972.61 440.974   1
  -6   1   0 7400.32 461.807   4
  -6  -1   1 3304.96 302.928   6
  -6   1   1 2851.62 244.269   6
  -6   1   1 3112.31 295.830   1
  -6   1   1 3028.29 304.597   4
  -6  -1   2 3888.48 323.389   6
  -6   1   2 3598.33 262.986   6
  -6   1   2 3872.28 350.914   4
  -6   1   2 3718.50 327.108   1
  -6  -1   3 12396.6 587.554   6
  -6   1   3 12074.8 489.815   6
  -6   1   3 11694.9 647.342   4
  -6   1   3 12293.9 625.962   1
  -6  -1   4 12652.8 594.501   6
  -6   1   4 12178.6 478.294   6
  -6   1   4 12852.2 689.308   4
  -6   1   4 12463.3 645.303   1
  -6  -1   5 6755.42 486.432   1
  -6  -1   5 6629.87 420.932   6
  -6   1   5 6363.84 323.085   6
  -6   1   5 6879.27 503.651   4
  -6   1   5 6090.68 447.564   1
  -6   1   6 1803.37 254.546   1
  -6   1   6 2140.13 288.528   4
  -6  -1   6 1911.85 217.389   6
  -6  -1   6 1805.20 253.077   1
  -6  -1   7 12673.1 689.351   1
  -6   1   7 12303.2 725.723   4
  -6   1   7 11999.6 677.242   1
  -6  -1   8 13775.3 734.260   1
  -6   1   8 14533.8 811.902   4
  -6   1   8 13987.6 742.619   1
  -6  -1   9 9618.56 615.883   1
  -6   1   9 9457.06 667.033   4
  -6   1   9 10075.9 639.515   1
  -6  -1  10 4027.10 404.851   1
  -6   1  10 4435.84 463.926   4
  -6   1  10 4174.91 416.826   1
  -6   1  11 4015.24 451.453   4
  -6  -1  11 3737.57 395.997   1
  -6   1  11 4308.38 438.787   1
  -6   1  12 7583.97 590.016   1
  -6   1  12 7123.23 621.772   4
  -6  -1  12 7288.97 565.546   1
  -6   1  13 3940.03 454.625   1
  -6   1  13 4417.88 497.914   4
  -6  -1  13 4226.49 439.647   1
  -6   1  14 2062.41 338.660   1
  -6  -1  14 2030.15 322.290   1
  -6   1  14 2067.81 361.284   4
  -6   1  15 4970.67 540.874   1
  -6   1  15 5730.54 604.380   4
  -6  -1  15 5166.25 527.850   1
  -6   1  16 8785.02 738.120   1
  -6  -1  16 7233.66 629.493   1
  -6   1  17 6608.62 647.240   1
  -6  -1  17 6377.04 607.476   1
  -6  -1  18 90.9793 130.640   1
  -6   2 -16 1900.40 319.067   6
  -6  -2 -15 2440.00 320.846   6
  -6   2 -15 3180.26 395.246   6
  -6  -2 -14 1775.54 276.714   6
  -6   2 -14 1637.05 278.995   6
  -6  -2 -13-26.0666 112.521   6
  -6   2 -13 254.425 137.073   6
  -6  -2 -12 350.878 150.620   6
  -6   2 -12 673.479 192.767   6
  -6  -2 -11 3068.75 333.653   6
  -6   2 -11 3468.32 404.106   6
  -6  -2 -10 1114.65 213.314   6
  -6   2 -10 1243.89 248.489   6
  -6  -2  -9 1959.93 269.477   6
  -6   2  -9 1943.36 286.066   6
  -6  -2  -8 3141.66 332.115   6
  -6   2  -8 2808.98 334.084   6
  -6   2  -8 2394.82 223.956   1
  -6  -2  -7 6332.56 463.942   6
  -6   2  -7 6490.25 468.083   6
  -6   2  -7 5949.04 372.578   1
  -6  -2  -6 3518.04 359.219   6
  -6   2  -6 4046.64 366.312   6
  -6   2  -6 4158.38 314.367   1
  -6  -2  -5 2861.47 313.642   6
  -6   2  -5 2302.12 271.034   6
  -6   2  -5 2766.94 260.086   1
  -6  -2  -4 3286.54 329.822   6
  -6   2  -4 3409.98 304.884   6
  -6   2  -4 3774.97 308.092   1
  -6  -2  -4 2707.40 248.666   3
  -6  -2  -3 3854.29 356.429   6
  -6   2  -3 3249.40 284.816   6
  -6   2  -3 3215.23 293.555   1
  -6  -2  -3 2953.45 264.506   3
  -6  -2  -2 2619.58 294.952   6
  -6   2  -2 2245.94 227.911   6
  -6   2  -2 2471.62 262.822   1
  -6  -2  -2 2282.05 241.356   3
  -6  -2  -1 592.332 141.755   3
  -6  -2  -1 1154.68 209.206   6
  -6   2  -1 896.292 143.418   6
  -6   2  -1 1089.54 184.936   1
  -6  -2   0 353.914 110.951   3
  -6  -2   0 355.447 134.758   6
  -6   2   0 315.346 94.0646   6
  -6   2   0 508.197 136.082   1
  -6  -2   1 577.340 152.877   3
  -6  -2   1 997.770 190.477   6
  -6   2   1 637.003 121.491   6
  -6   2   1 654.424 160.584   1
  -6   2   2 2111.22 187.995   6
  -6  -2   2 1910.46 255.437   6
  -6  -2   2 2413.12 267.993   3
  -6   2   2 2181.73 263.652   1
  -6  -2   3 4104.59 365.744   6
  -6   2   3 3975.37 247.094   6
  -6   2   3 4135.85 409.649   4
  -6  -2   3 4796.98 391.341   3
  -6   2   3 4476.08 382.740   1
  -6  -2   4 3075.51 312.470   6
  -6   2   4 2682.96 331.541   4
  -6  -2   4 3512.37 330.995   3
  -6   2   4 3513.27 348.761   1
  -6   2   5 2976.81 333.140   1
  -6  -2   5 2666.76 299.283   6
  -6   2   5 2633.39 341.414   4
  -6  -2   5 3023.72 326.486   3
  -6   2   6 4663.55 425.849   1
  -6   2   6 4176.72 442.874   4
  -6  -2   6 5046.74 420.329   3
  -6   2   7 7252.41 536.505   1
  -6   2   7 5998.05 545.778   4
  -6  -2   7 7153.93 512.477   3
  -6   2   8 3528.42 389.439   1
  -6   2   8 3125.96 403.977   4
  -6  -2   8 3421.78 367.226   3
  -6  -2   9 1519.80 254.496   3
  -6   2   9 1397.55 268.059   1
  -6   2   9 1547.30 292.366   4
  -6  -2   9 1239.88 220.133   1
  -6   2  10 2037.15 314.575   1
  -6   2  10 2104.18 352.284   4
  -6  -2  10 2486.88 314.738   3
  -6  -2  10 1788.13 281.446   1
  -6   2  11 3675.40 438.520   1
  -6  -2  11 3265.45 374.159   1
  -6   2  11 3595.99 455.540   4
  -6  -2  12 857.144 207.874   1
  -6   2  12 770.167 217.488   4
  -6   2  12 1011.00 223.288   1
  -6  -2  13 259.762 123.839   1
  -6   2  13 4.88823 144.424   1
  -6   2  13 293.816 168.957   4
  -6  -2  14 1706.70 304.528   1
  -6   2  14 1989.56 358.368   1
  -6   2  14 1282.99 294.139   4
  -6   2  15 4283.26 551.579   4
  -6  -2  15 3428.99 417.821   1
  -6   2  15 3290.56 455.493   1
  -6  -2  16 1742.64 303.863   1
  -6   2  16 2646.68 441.633   4
  -6  -2  17 633.190 209.372   1
  -6   3 -14 1943.38 338.498   6
  -6  -3 -13 2449.07 325.827   6
  -6   3 -13 2042.80 336.649   6
  -6  -3 -12 10244.7 664.779   6
   6  -3 -12 9411.37 552.990   5
  -6  -3 -11 3198.98 363.968   6
  -6   3 -11 3548.65 431.268   6
   6  -3 -11 3200.03 318.039   5
   6  -3 -10 1559.15 233.056   5
  -6  -3 -10 1204.12 232.773   6
  -6   3 -10 1518.33 275.187   6
  -6  -3  -9 3628.53 375.604   6
  -6   3  -9 3407.96 402.514   6
   6  -3  -9 3807.39 356.432   5
  -6  -3  -8 2809.35 334.322   6
  -6   3  -8 3683.06 399.773   6
   6  -3  -8 3012.88 320.699   5
  -6  -3  -7 4252.65 411.143   6
  -6   3  -7 4397.63 433.327   6
   6  -3  -7 3625.65 362.419   5
   6  -3  -6 181.633 94.6141   5
  -6   3  -6 331.774 122.993   1
  -6  -3  -6 469.577 166.839   6
  -6   3  -6 227.057 108.217   6
  -6  -3  -5 3114.82 313.450   3
  -6   3  -5 4091.77 357.312   1
  -6  -3  -5 4145.85 400.393   6
  -6   3  -5 4000.52 373.617   6
   6  -3  -5 4110.84 387.848   5
  -6  -3  -4 4352.68 388.979   3
  -6   3  -4 5468.55 424.585   1
  -6  -3  -4 5539.58 454.664   6
  -6   3  -4 5267.68 424.469   6
  -6  -3  -3 8856.99 574.717   3
  -6   3  -3 10078.1 590.280   1
  -6  -3  -3 11124.5 652.381   6
  -6   3  -3 11018.3 593.664   6
  -6  -3  -2 1310.17 239.822   3
  -6  -3  -2 1424.94 253.306   6
  -6   3  -2 1410.07 208.660   6
  -6   3  -2 1352.42 229.982   1
  -6   3  -1 10496.1 615.582   1
  -6  -3  -1 10882.1 654.672   6
  -6   3  -1 9306.12 496.799   6
  -6  -3  -1 8499.84 572.140   3
  -6   3   0 22200.3 952.294   1
  -6  -3   0 21287.9 963.279   6
  -6   3   0 20386.0 744.853   6
  -6  -3   0 20004.6 911.906   3
  -6   3   1 11593.4 681.184   1
  -6  -3   1 11333.3 681.789   6
  -6   3   1 10741.9 476.349   6
  -6  -3   1 9571.40 602.059   3
  -6  -3   2 1319.71 225.738   3
  -6  -3   2 1144.61 238.149   6
  -6   3   2 1264.19 241.449   1
  -6   3   3 10116.4 651.852   1
  -6  -3   3 9713.96 618.763   6
  -6   3   4 6096.13 512.464   1
  -6  -3   4 5574.11 472.742   3
  -6   3   5 5589.09 501.079   1
  -6  -3   5 5146.01 451.222   3
  -6  -3   6 212.437 131.775   3
  -6   3   6 326.599 163.028   1
  -6   3   7 3803.77 442.302   1
  -6  -3   7 3956.66 413.074   3
  -6   3   8 3587.53 423.713   1
  -6   3   8 2466.71 366.312   4
  -6  -3   8 3074.80 366.617   3
  -6   3   9 4178.42 474.021   1
  -6   3   9 3785.68 464.379   4
  -6  -3   9 4505.34 438.535   3
  -6  -3  10 1610.29 291.916   3
  -6   3  10 1404.40 282.857   1
  -6   3  10 1399.88 289.783   4
  -6  -3  11 3685.70 423.270   1
  -6   3  11 3477.24 441.501   1
  -6   3  11 2909.36 425.161   4
  -6  -3  11 3807.78 428.336   3
  -6  -3  12 10445.8 731.181   1
  -6   3  12 11177.4 861.010   4
  -6   3  12 13129.2 885.538   1
  -6  -3  12 12144.2 787.792   3
  -6   3  13 3335.56 444.586   1
  -6   3  13 2881.53 446.346   4
  -6  -3  13 3177.50 418.736   3
  -6  -3  13 2408.72 361.653   1
  -6  -3  14 2315.36 355.511   3
  -6   3  14 1979.65 397.222   4
  -6  -3  14 1938.38 309.833   1
  -6  -3  15 4472.13 484.761   1
   6  -4 -12-10.8903 83.1116   5
  -6   4 -12 144.221 189.070   6
   6  -4 -11 771.164 189.948   5
  -6   4 -11 1127.93 274.874   6
   6  -4 -10 1481.34 265.082   5
  -6  -4 -10 1857.49 292.864   6
  -6   4 -10 1476.73 289.056   6
  -6  -4  -9 3765.74 413.181   6
  -6   4  -9 3122.66 414.415   6
   6  -4  -9 3104.13 374.454   5
   6  -4  -8 521.106 186.208   5
  -6  -4  -8 604.843 189.228   6
  -6   4  -8 706.139 232.119   6
   6  -4  -7 1508.53 275.627   5
  -6  -4  -7 1486.04 285.359   6
  -6   4  -7 1738.48 297.478   6
   6  -4  -6 106.278 126.693   5
  -6  -4  -6-80.8763 101.589   6
  -6   4  -6 1.47392 107.962   6
  -6  -4  -5 4824.62 468.413   6
  -6   4  -5 4491.81 464.428   6
   6  -4  -5 4403.35 459.672   5
   6  -4  -4 1019.94 246.442   5
  -6  -4  -4 875.089 250.286   3
  -6  -4  -4 803.851 193.875   6
  -6   4  -4 1031.54 216.863   6
   6  -4  -3 2430.68 344.263   5
  -6  -4  -3 2116.78 373.223   3
  -6  -4  -3 2166.84 328.434   6
  -6   4  -3 2506.42 324.294   6
   6  -4  -2 856.968 207.646   5
  -6  -4  -2 741.295 238.966   3
  -6  -4  -2 1208.44 241.103   6
  -6   4  -2 1142.18 201.690   6
  -6  -4  -1 3118.69 499.539   3
  -6   4  -1 2803.17 308.262   6
  -6  -4  -1 2393.16 341.221   6
   6  -4  -1 2584.50 353.245   5
   6  -4   0 124.712 116.137   5
  -6  -4   0 40.5192 193.786   3
  -6  -4   0-171.009 124.443   6
  -6  -4   1 2949.02 479.642   3
  -6  -4   1 2399.31 341.329   6
   6  -4   1 2604.19 366.310   5
  -6  -4   2 903.527 238.102   3
  -6  -4   3 2743.71 421.632   3
  -6  -4   4 1015.90 282.985   3
  -6  -4   4 955.424 198.317   5
  -6  -4   5 4935.42 565.791   3
  -6  -4   6-47.1302 129.926   3
  -6  -4   7 1231.11 288.443   3
  -6  -4   8 825.532 247.592   3
  -6  -4   9 3633.97 477.542   3
  -6  -4  10 1928.04 358.946   3
  -6   4  10 1623.66 322.320   4
  -6  -4  11 1241.65 285.215   3
  -6   4  11 690.846 226.891   4
  -6  -4  12 338.220 189.865   3
   6  -5  -9 1102.81 266.857   5
  -6   5  -9 986.286 250.431   6
   6  -5  -8 382.230 197.438   5
  -6   5  -8 474.245 215.360   6
   6  -5  -7 399.736 209.792   5
  -6   5  -7 790.127 250.304   6
  -6   5  -6 14265.8 889.931   6
   6  -5  -6 14532.1 956.879   5
   6  -5  -5 1593.10 333.958   5
  -6   5  -5 1243.48 266.450   6
   6  -5  -4 517.820 199.690   5
  -6  -5  -4 283.446 139.396   5
   6  -5  -3 759.669 228.328   5
  -6  -5  -3 743.660 219.749   5
  -6  -5  -3 665.803 215.048   6
  -6  -5  -2 7459.11 615.948   5
  -6  -5  -2 8492.44 666.068   6
   6  -5  -2 8998.29 727.551   5
   6  -5  -1 116.696 124.413   5
  -6  -5  -1 178.506 456.005   3
  -6  -5  -1 710.025 205.944   5
   6  -5   0 2146.53 369.752   5
  -6  -5   0 1371.63 253.219   5
   6  -5   1 268.205 175.743   5
  -6  -5   1 268.067 124.376   5
  -6  -5   2 13938.1 1432.55   3
   6  -5   2 8587.57 722.440   5
  -6  -5   3 1663.55 515.830   3
  -6  -5   4 699.206 340.719   3
  -6  -5   5 1991.90 521.110   3
  -6  -5   6 20284.7 1523.67   3
  -6  -5   7 1216.87 423.606   3
  -7   0 -13 876.670 222.131   6
  -7   0 -12 20.0245 135.737   6
  -7   0 -11 309.179 136.631   6
  -7   0 -10-62.5494 120.328   6
  -7   0  -9 3588.51 375.302   6
  -7   0  -8 135.758 112.899   6
  -7   0  -7 5553.24 447.313   6
  -7   0  -6-10.6907 93.0691   6
  -7   0  -6 35.8837 95.7390   1
  -7   0  -5 7702.23 568.983   1
  -7   0  -5 7953.93 531.630   6
  -7   0  -4 81.5698 89.5598   6
  -7   0  -4 136.186 117.458   1
  -7   0  -3 3575.38 388.850   1
  -7   0  -3 3752.31 345.591   6
  -7   0  -2-53.4643 91.5121   6
  -7   0  -2 66.8836 96.1027   1
  -7   0  -1 1083.19 198.238   6
  -7   0  -1 1141.64 224.746   1
  -7   0   0-44.8473 72.4752   6
  -7   0   0 36.7706 91.7805   1
  -7   0   1 1173.63 178.313   6
  -7   0   1 977.173 211.478   1
  -7   0   2-13.2783 88.8031   1
  -7   0   2-51.0862 79.4590   6
  -7   0   3 4190.07 318.847   6
  -7   0   3 4416.75 419.172   1
  -7   0   4-167.100 118.967   1
  -7   0   5 9529.59 632.648   1
  -7   0   6-42.0529 81.0037   1
  -7   0   7 6261.71 515.137   1
  -7   0   8 51.9848 106.440   1
  -7   0   9 4208.36 441.721   1
  -7   0  10-1.01274 97.7733   1
  -7   0  11 624.151 162.014   1
  -7   0  12 16.2735 106.230   1
  -7   1 -13 749.970 216.431   6
  -7  -1 -12 4622.91 442.329   6
  -7   1 -12 4929.84 488.686   6
  -7  -1 -11 829.339 189.666   6
  -7   1 -11 851.391 201.805   6
  -7  -1 -10 2544.25 329.978   6
  -7   1 -10 1762.52 285.579   6
  -7  -1  -9 848.547 201.668   6
  -7   1  -9 1048.63 219.718   6
  -7   1  -8 1314.45 202.664   1
  -7  -1  -8 1286.80 238.402   6
  -7   1  -8 1719.09 263.512   6
  -7   1  -7 350.399 132.845   1
  -7  -1  -7 322.346 129.058   6
  -7   1  -7 215.938 122.267   6
  -7   1  -6 1077.88 196.817   1
  -7  -1  -6 1152.04 206.153   6
  -7   1  -6 1185.54 216.069   6
  -7   1  -5 284.822 121.630   1
  -7  -1  -5 207.983 113.554   6
  -7   1  -5 198.916 126.978   6
  -7   1  -4 2143.57 277.500   1
  -7  -1  -4 2226.57 285.344   6
  -7   1  -4 1701.37 235.870   6
  -7   1  -3 1327.55 222.194   1
  -7  -1  -3 1705.17 253.135   6
  -7   1  -3 1650.95 219.287   6
  -7  -1  -2 5197.15 425.043   6
  -7   1  -2 4139.92 341.236   6
  -7   1  -2 5142.94 424.590   1
  -7   1  -1 804.354 193.532   1
  -7  -1  -1 1193.61 207.319   6
  -7   1  -1 1064.49 185.400   6
  -7  -1   0 6117.22 449.302   6
  -7   1   0 5562.67 376.678   6
  -7   1   0 5109.21 415.175   4
  -7   1   0 5567.13 448.581   1
  -7   1   1 1308.25 226.805   1
  -7  -1   1 1725.07 243.985   6
  -7   1   1 1231.99 171.095   6
  -7   1   1 1219.57 213.987   4
  -7  -1   2 4715.93 455.697   1
  -7  -1   2 4999.62 396.491   6
  -7   1   2 5097.76 429.409   4
  -7   1   2 5163.07 436.275   1
  -7   1   3 1712.77 259.501   1
  -7  -1   3 1860.60 242.493   6
  -7   1   3 1675.83 256.604   4
  -7  -1   3 1969.50 298.591   1
  -7   1   4 2130.27 288.099   1
  -7  -1   4 1907.62 248.362   6
  -7   1   4 1894.61 277.433   4
  -7  -1   4 2003.06 295.716   1
  -7   1   5 118.858 93.2311   1
  -7  -1   5 45.1029 70.9028   6
  -7   1   5 167.712 102.260   4
  -7  -1   5 328.772 137.637   1
  -7   1   6 1287.29 226.017   1
  -7   1   6 1647.89 278.074   4
  -7  -1   6 1289.70 246.142   1
  -7   1   7 299.791 120.260   1
  -7   1   7 431.997 160.579   4
  -7  -1   7 366.027 135.468   1
  -7  -1   8 1431.93 266.976   1
  -7   1   8 1632.27 291.239   4
  -7   1   8 1543.84 281.626   1
  -7  -1   9 868.732 210.028   1
  -7   1   9 1451.84 275.426   4
  -7   1   9 1069.28 230.032   1
  -7   1  10 2914.22 409.317   4
  -7  -1  10 2895.82 376.632   1
  -7   1  10 3013.68 393.147   1
  -7   1  11 1366.22 271.307   1
  -7  -1  11 837.196 224.439   1
  -7   1  11 1484.48 300.795   4
  -7   1  12 5816.35 564.166   1
  -7  -1  12 5077.07 516.474   1
  -7   2 -12 2442.83 372.806   6
  -7  -2 -11 3639.02 401.201   6
  -7   2 -11 3717.08 440.397   6
  -7  -2 -10 2334.28 313.441   6
  -7   2 -10 2271.29 338.082   6
  -7  -2  -9 1991.85 289.258   6
  -7   2  -9 1866.42 300.919   6
  -7  -2  -8 1313.18 232.232   6
  -7   2  -8 933.848 200.776   6
  -7  -2  -7 831.162 198.108   6
  -7   2  -7 1022.40 190.480   6
  -7  -2  -6 577.579 178.677   6
  -7   2  -6 699.269 167.084   6
  -7   2  -6 862.624 176.044   1
  -7  -2  -5 632.643 169.346   6
  -7   2  -5 527.311 129.531   6
  -7   2  -5 552.937 136.776   1
  -7  -2  -4 2135.85 298.622   6
  -7   2  -4 1514.37 224.078   6
  -7   2  -4 1815.82 250.247   1
  -7  -2  -3 1955.53 296.470   6
  -7   2  -3 1890.55 242.546   6
  -7   2  -3 1642.98 237.956   1
  -7  -2  -2 3350.70 375.358   6
  -7   2  -2 3173.00 296.642   6
  -7   2  -2 3846.44 367.593   1
  -7  -2  -1 2894.81 348.296   6
  -7   2  -1 2432.47 240.031   6
  -7   2  -1 1853.71 272.212   4
  -7   2  -1 2999.22 331.964   1
  -7  -2   0 3026.93 352.309   6
  -7   2   0 2750.60 330.267   4
  -7   2   0 3445.59 354.565   1
  -7  -2   1 2739.10 333.423   6
  -7   2   1 2580.61 335.317   4
  -7   2   1 3449.45 359.018   1
  -7  -2   2 2357.00 295.698   6
  -7   2   2 2287.56 322.843   4
  -7   2   2 3082.18 343.346   1
  -7  -2   3 2500.22 303.444   6
  -7   2   3 2277.86 328.544   4
  -7  -2   3 3159.69 356.421   3
  -7   2   3 2734.87 340.891   1
  -7  -2   4 1290.27 232.181   3
  -7   2   4 1360.74 254.910   1
  -7  -2   4 1222.31 205.830   6
  -7   2   4 893.027 217.007   4
  -7   2   5 1028.39 219.430   1
  -7   2   5 829.288 213.762   4
  -7   2   6 734.783 204.059   1
  -7   2   6 599.769 188.341   4
  -7   2   7 1049.07 237.890   1
  -7   2   7 836.386 222.275   4
  -7  -2   7 716.107 205.678   1
  -7   2   8 1432.87 273.455   1
  -7   2   8 1276.87 272.324   4
  -7  -2   8 1108.43 262.365   1
  -7   2   9 1726.42 314.547   1
  -7   2   9 1717.89 317.086   4
  -7  -2   9 1594.42 296.804   1
  -7   2  10 3471.41 437.110   1
  -7  -2  10 2810.88 377.624   1
  -7   2  10 2628.89 413.998   4
  -7  -2  11 3302.18 403.635   1
  -7   2  11 3069.91 449.350   4
  -7   2  12 3237.65 473.218   4
  -7   3 -11 222.023 161.958   6
  -7   3 -10 149.987 137.717   6
  -7   3  -9 2389.33 342.686   6
  -7  -3  -8 1127.75 275.383   6
  -7   3  -8 917.649 221.203   6
  -7  -3  -7 5522.12 502.216   6
  -7   3  -7 4748.81 457.424   6
  -7  -3  -6 926.444 217.812   6
  -7   3  -6 705.082 200.713   6
  -7  -3  -5 5533.96 509.983   6
  -7   3  -5 5517.51 464.830   6
  -7  -3  -4 682.689 218.629   6
  -7   3  -4 532.614 174.131   6
  -7  -3  -3 2944.40 373.734   6
  -7   3  -3 2136.89 255.294   6
  -7   3  -3 2005.30 283.404   1
  -7  -3  -2 65.8814 124.583   6
  -7   3  -2 85.9894 80.7388   1
  -7  -3  -1 277.682 109.574   6
  -7   3  -1 40.9116 68.2776   1
  -7  -3   0 55.8158 130.624   6
  -7   3   0-215.651 113.142   1
  -7  -3   1 321.517 157.546   6
  -7   3   1 131.611 113.009   1
  -7  -3   2 463.402 151.979   3
  -7  -3   2 217.092 125.224   6
  -7   3   2 75.6421 117.736   1
  -7   3   3 2078.44 338.902   1
  -7  -3   3 2141.29 304.026   3
  -7  -3   3 1975.36 297.520   6
  -7   3   3 2071.72 326.712   4
  -7  -3   4 418.756 164.128   3
  -7   3   4 411.369 164.994   1
  -7   3   4 571.353 195.128   4
  -7   3   5 5504.29 546.399   1
  -7   3   5 4667.16 508.340   4
  -7  -3   5 5795.99 506.822   3
  -7  -3   6 1011.30 236.961   3
  -7   3   6 977.838 266.778   1
  -7   3   6 778.471 217.455   4
  -7   3   7 5692.11 573.198   1
  -7   3   7 4525.00 529.601   4
  -7  -3   7 5711.03 536.024   3
  -7  -3   8 990.722 243.792   3
  -7   3   8 631.331 249.082   1
  -7   3   8 464.943 151.445   4
  -7   3   9 2713.18 406.814   4
  -7  -3   9 3420.89 425.902   3
  -7  -3  10 398.456 198.569   3
  -7   3  10 87.4682 118.620   4
  -7  -3  11 381.001 164.624   3
  -7   4  -9 670.071 199.420   6
  -7   4  -8 1298.41 252.211   6
  -7   4  -7 278.310 116.541   6
  -7  -4  -2 1708.83 298.775   6
  -7  -4  -1 140.193 136.837   6
  -7  -4   0 2595.00 373.199   6
  -7  -4   2 1997.94 350.734   3
  -7  -4   3 996.840 268.897   3
  -7  -4   4 1732.58 330.809   3
  -7  -4   5 266.056 151.700   3
  -7  -4   6 1712.07 368.950   3
  -7  -4   7 396.623 205.784   3
  -7  -4   8 1770.86 390.536   3
  -8   0  -8 6324.98 536.459   6
  -8   0  -7-136.784 123.817   6
  -8   0  -7 279.926 146.285   1
  -8   0  -6 1564.03 258.484   6
  -8   0  -6 1897.26 302.515   1
  -8   0  -5 57.2870 110.108   6
  -8   0  -5-70.0751 137.053   1
  -8   0  -4 11040.6 747.012   1
  -8   0  -4 10902.4 642.506   6
  -8   0  -3 59.8881 88.5689   6
  -8   0  -3-30.4391 106.870   1
  -8   0  -2 594.002 192.509   1
  -8   0  -2 289.025 116.417   6
  -8   0  -1 214.656 156.228   1
  -8   0  -1 204.998 110.779   6
  -8   0   0 37474.1 1452.15   1
  -8   0   1 80.2413 144.192   1
  -8   0   2 815.757 214.037   1
  -8   0   3 256.316 167.052   1
  -8   0   4 13755.5 837.622   1
  -8   1  -8 622.416 200.807   6
  -8  -1  -7 2968.20 375.014   6
  -8   1  -7 2468.29 328.829   6
  -8  -1  -6 357.872 178.274   6
  -8   1  -6 380.579 141.927   6
  -8   1  -5 3249.18 381.889   1
  -8  -1  -5 2582.25 327.195   6
  -8   1  -5 2305.67 304.266   6
  -8   1  -4 1286.81 243.568   1
  -8  -1  -4 1370.76 251.220   6
  -8   1  -4 1258.08 213.181   6
  -8   1  -3 2066.24 308.436   1
  -8  -1  -3 2521.24 333.163   6
  -8   1  -3 1686.71 248.241   6
  -8   1  -2 345.621 138.599   1
  -8  -1  -2 481.978 175.405   1
  -8   1  -1 1008.43 204.209   1
  -8  -1  -1 1218.86 223.909   6
  -8  -1  -1 1356.68 287.561   1
  -8   1   0 3.40585 129.239   1
  -8  -1   0 445.568 161.366   6
  -8  -1   0 145.856 133.322   1
  -8   1   1 910.643 201.377   1
  -8  -1   1 1491.61 298.058   1
  -8   1   2 553.997 158.908   1
  -8  -1   2 394.801 149.800   1
  -8   1   3 2791.92 367.559   1
  -8  -1   3 2750.57 372.306   1
  -8   1   4 1110.31 244.120   1
  -8   1   5 2979.28 400.402   1
  -8   2  -8 768.303 223.048   6
  -8   2  -7 3644.30 414.209   6
  -8   2  -6 3945.48 422.477   6
  -8  -2  -5 7009.96 588.852   6
  -8  -2  -4 415.476 207.138   6
  -8  -2  -3 5839.04 517.637   6
  -8   2  -3 6563.91 527.462   1
  -8  -2  -2 3022.45 378.702   6
  -8   2  -2 2347.06 326.643   1
  -8  -2  -1 3791.01 407.318   6
  -8   2  -1 3646.95 414.761   1
  -8  -2   0 94.8726 113.516   6
  -8   2   0 228.403 151.457   1
  -8   2   1 2942.62 377.114   1
  -8  -2   1 2162.97 311.157   6
  -8   2   2 2111.69 329.140   1
  -8  -2   2 1693.30 273.386   6
  -8   2   3 6979.92 604.752   1
  -8   2   4 559.794 196.719   1
  -8   2   6 3951.39 490.288   4
  -8   2   7 5628.58 584.287   4
  -8   2   8 1084.30 289.971   4
  -8  -3   0 4513.04 498.941   6
  -8   3   1 260.176 154.752   1
  -8  -3   1 275.406 164.052   6
  -8   3   2 2720.16 403.118   1
  -8  -3   2 2884.42 376.476   6
   0   0   0    0.00    0.00   0
;
_shelx_hkl_checksum              22821
_olex2_submission_special_instructions 'No special instructions were received'
_oxdiff_exptl_absorpt_empirical_details
;
Empirical correction (ABSPACK) includes:
- Absorption correction using spherical harmonics
- Frame scaling
;
_oxdiff_exptl_absorpt_empirical_full_max 3.326
_oxdiff_exptl_absorpt_empirical_full_min 0.557
loop_
_space_group_symop_operation_xyz
'x, y, z'
'-x+1/2, -y, z+1/2'
'x+1/2, -y, z+1/2'
'-x, y, z'
loop_
_atom_site_label
_atom_site_type_symbol
_atom_site_fract_x
_atom_site_fract_y
_atom_site_fract_z
_atom_site_U_iso_or_equiv
_atom_site_adp_type
_atom_site_occupancy
_atom_site_site_symmetry_order
_atom_site_calc_flag
_atom_site_refinement_flags_posn
_atom_site_refinement_flags_adp
_atom_site_refinement_flags_occupancy
_atom_site_disorder_assembly
_atom_site_disorder_group
U1 U 0.500000 0.18523(15) 0.60652(5) 0.0158(2) Uani 1 2 d S T P . .
Se1 Se 0.000000 -0.1403(5) 0.52736(11) 0.0179(5) Uani 1 2 d S T P . .
Se2 Se 1.000000 0.5085(4) 0.68992(11) 0.0160(5) Uani 1 2 d S T P . .
Cu1 Cu -0.2501(2) 0.6055(3) 0.36174(10) 0.0090(4) Uani 1 1 d . . . . .
Cu2 Cu 0.000000 0.1101(4) 0.35382(15) 0.0080(5) Uani 1 2 d S T P . .
Cu3 Cu -0.500000 0.1011(4) 0.35615(15) 0.0077(4) Uani 1 2 d S T P . .
O1 O 0.500000 0.460(4) 0.5568(10) 0.033(4) Uani 1 2 d S T P . .
O2 O 0.500000 -0.084(4) 0.6556(9) 0.032(4) Uani 1 2 d S T P . .
O3 O 0.219(2) 0.060(3) 0.5345(6) 0.026(3) Uani 1 1 d . . . . .
O4 O 0.000000 -0.203(3) 0.4426(8) 0.012(3) Uani 1 2 d S T P . .
O5 O 0.780(2) 0.310(3) 0.6822(7) 0.028(3) Uani 1 1 d . . . . .
O6 O 1.000000 0.557(3) 0.7754(8) 0.013(3) Uani 1 2 d S T P . .
O7 O -0.2534(17) 0.276(2) 0.4022(5) 0.0084(13) Uani 1 1 d D . . . .
H7 H -0.24(3) 0.25(4) 0.448(3) 0.013 Uiso 1 1 d D U . . .
O8 O -0.500000 0.722(3) 0.4147(8) 0.009(3) Uani 1 2 d DS T P . .
H8 H -0.500000 0.62(3) 0.457(6) 0.014 Uiso 1 2 d DS U P . .
O9 O 0.000000 0.487(3) 0.3085(8) 0.010(3) Uani 1 2 d DS T P . .
H9 H 0.07(3) 0.55(6) 0.265(7) 0.015 Uiso 0.5 1 d D U P . .
O10 O -0.2484(13) -0.0720(19) 0.3125(6) 0.0084(13) Uani 1 1 d D . . . .
H10 H -0.24(3) -0.09(4) 0.266(2) 0.013 Uiso 1 1 d D U . . .
loop_
_atom_site_aniso_label
_atom_site_aniso_U_11
_atom_site_aniso_U_22
_atom_site_aniso_U_33
_atom_site_aniso_U_23
_atom_site_aniso_U_13
_atom_site_aniso_U_12
U1 0.0122(3) 0.0259(4) 0.0094(3) -0.0040(3) 0.000 0.000
Se1 0.0158(10) 0.0269(13) 0.0111(10) 0.0017(8) 0.000 0.000
Se2 0.0147(9) 0.0230(13) 0.0102(9) 0.0020(8) 0.000 0.000
Cu1 0.0057(7) 0.0066(8) 0.0147(9) 0.0002(7) 0.0016(7) 0.0008(6)
Cu2 0.0028(9) 0.0069(11) 0.0145(11) -0.0009(10) 0.000 0.000
Cu3 0.0023(9) 0.0059(11) 0.0151(11) -0.0021(9) 0.000 0.000
O1 0.054(12) 0.026(10) 0.019(8) 0.002(8) 0.000 0.000
O2 0.043(11) 0.035(11) 0.017(8) 0.006(8) 0.000 0.000
O3 0.022(5) 0.044(8) 0.013(6) -0.011(6) -0.003(4) -0.005(6)
O4 0.010(7) 0.016(8) 0.011(8) -0.001(5) 0.000 0.000
O5 0.028(6) 0.036(9) 0.019(7) -0.003(6) -0.005(5) -0.008(6)
O6 0.009(6) 0.016(8) 0.015(7) -0.006(6) 0.000 0.000
O7 0.003(3) 0.008(3) 0.014(4) 0.000(3) 0.001(2) -0.001(3)
O8 0.009(7) 0.011(7) 0.008(7) -0.001(5) 0.000 0.000
O9 0.004(5) 0.013(7) 0.012(7) 0.003(5) 0.000 0.000
O10 0.003(3) 0.008(3) 0.014(4) 0.000(3) 0.001(2) -0.001(3)
loop_
_atom_type_symbol
_atom_type_description
_atom_type_scat_dispersion_real
_atom_type_scat_dispersion_imag
_atom_type_scat_source
Cu Cu 0.3201 1.2651 'International Tables Vol C Tables 4.2.6.8 and 6.1.1.4'
H H 0.0000 0.0000 'International Tables Vol C Tables 4.2.6.8 and 6.1.1.4'
O O 0.0106 0.0060 'International Tables Vol C Tables 4.2.6.8 and 6.1.1.4'
Se Se -0.0929 2.2259 'International Tables Vol C Tables 4.2.6.8 and 6.1.1.4'
U U -9.6767 9.6646 'International Tables Vol C Tables 4.2.6.8 and 6.1.1.4'
loop_
_exptl_crystal_face_index_h
_exptl_crystal_face_index_k
_exptl_crystal_face_index_l
_exptl_crystal_face_perp_dist
-3 1 25 0.0213
-8 0 1 0.0487
8 0 5 0.0396
-2 5 19 0.0250
1 7 -11 0.0187
2 -4 -21 0.0323
-1 -7 10 0.0219
loop_
_geom_angle_atom_site_label_1
_geom_angle_atom_site_label_2
_geom_angle_atom_site_label_3
_geom_angle
_geom_angle_site_symmetry_1
_geom_angle_site_symmetry_3
O1 U1 O3 86.7(6) . .
O1 U1 O3 86.7(6) . 4_655
O1 U1 O5 94.2(6) . 4_655
O1 U1 O5 94.2(6) . .
O2 U1 O1 179.7(10) . .
O2 U1 O3 93.4(6) . 4_655
O2 U1 O3 93.4(6) . .
O2 U1 O5 85.6(6) . .
O2 U1 O5 85.6(6) . 4_655
O3 U1 O3 95.0(6) 4_655 .
O3 U1 O5 86.3(4) . 4_655
O3 U1 O5 178.5(5) 4_655 4_655
O3 U1 O5 178.5(5) . .
O3 U1 O5 86.3(4) 4_655 .
O5 U1 O5 92.4(7) 4_655 .
O3 Se1 O3 98.7(9) . 4
O4 Se1 O3 102.3(6) . .
O4 Se1 O3 102.3(6) . 4
O5 Se2 O5 99.6(10) . 4_755
O6 Se2 O5 100.9(6) . .
O6 Se2 O5 100.9(6) . 4_755
O4 Cu1 Cu1 51.5(2) 1_565 4
O4 Cu1 O6 175.4(5) 1_565 2_564
O6 Cu1 Cu1 128.4(2) 2_564 4
O7 Cu1 Cu1 90.6(3) . 4
O7 Cu1 O4 99.6(5) . 1_565
O7 Cu1 O6 85.0(5) . 2_564
O7 Cu1 O10 175.2(5) . 1_565
O8 Cu1 Cu1 141.2(4) . 4
O8 Cu1 O4 89.7(4) . 1_565
O8 Cu1 O6 90.3(4) . 2_564
O8 Cu1 O7 95.7(6) . .
O8 Cu1 O9 179.7(6) . .
O8 Cu1 O10 87.1(5) . 1_565
O9 Cu1 Cu1 39.0(4) . 4
O9 Cu1 O4 90.5(4) . 1_565
O9 Cu1 O6 89.5(5) . 2_564
O9 Cu1 O7 84.1(5) . .
O9 Cu1 O10 93.2(5) . 1_565
O10 Cu1 Cu1 89.7(2) 1_565 4
O10 Cu1 O4 84.3(5) 1_565 1_565
O10 Cu1 O6 91.1(5) 1_565 2_564
O7 Cu2 O4 90.5(4) . .
O7 Cu2 O4 90.5(4) 4 .
O7 Cu2 O7 98.4(6) 4 .
O7 Cu2 O9 75.4(4) . .
O7 Cu2 O9 75.4(4) 4 .
O9 Cu2 O4 158.2(5) . .
O10 Cu2 O4 84.8(4) . .
O10 Cu2 O4 84.8(4) 4 .
O10 Cu2 O7 81.5(4) 4 4
O10 Cu2 O7 81.5(4) . .
O10 Cu2 O7 175.4(5) . 4
O10 Cu2 O7 175.4(5) 4 .
O10 Cu2 O9 108.9(4) . .
O10 Cu2 O9 108.9(4) 4 .
O10 Cu2 O10 98.3(6) 4 .
Cu3 Cu3 Cu2 0(10) 4_455 1_455
Cu3 Cu3 O7 0(10) 4_455 4_455
Cu3 Cu3 O7 0(10) 4_455 .
Cu3 Cu3 O8 0(10) 4_455 1_545
Cu3 Cu3 O10 0(10) 4_455 .
Cu3 Cu3 O10 0(10) 4_455 4_455
O7 Cu3 Cu2 138.1(3) . 1_455
O7 Cu3 Cu2 41.6(3) 4_455 1_455
O7 Cu3 O7 96.6(6) . 4_455
O7 Cu3 O8 103.2(4) 4_455 1_545
O7 Cu3 O8 103.2(4) . 1_545
O8 Cu3 Cu2 91.24(7) 1_545 1_455
O10 Cu3 Cu2 139.9(3) . 1_455
O10 Cu3 Cu2 40.5(3) 4_455 1_455
O10 Cu3 O7 82.0(4) . .
O10 Cu3 O7 178.4(5) 4_455 .
O10 Cu3 O7 178.4(5) . 4_455
O10 Cu3 O7 82.0(4) 4_455 4_455
O10 Cu3 O8 76.4(4) . 1_545
O10 Cu3 O8 76.4(4) 4_455 1_545
O10 Cu3 O10 99.5(6) 4_455 .
Se1 O3 U1 143.6(8) . .
Se1 O4 Cu1 136.3(4) . 1_545
Se1 O4 Cu1 136.3(4) . 4_545
Se1 O4 Cu2 122.1(8) . .
Cu1 O4 Cu1 77.0(5) 1_545 4_545
Cu1 O4 Cu2 82.5(4) 4_545 .
Cu1 O4 Cu2 82.5(4) 1_545 .
Se2 O5 U1 142.8(8) . .
Se2 O6 Cu1 127.9(6) . 2_565
Se2 O6 Cu1 127.9(6) . 3_665
Cu1 O6 Cu1 76.9(5) 3_665 2_565
Cu1 O7 Cu2 103.9(5) . .
Cu1 O7 H7 121(10) . .
Cu2 O7 H7 107(10) . .
Cu3 O7 Cu1 106.8(5) . .
Cu3 O7 Cu1 106.8(5) 4_455 .
Cu3 O7 Cu2 97.5(5) . .
Cu3 O7 Cu2 97.5(5) 4_455 .
Cu3 O7 Cu3 0.00(19) 4_455 .
Cu3 O7 H7 117(10) . .
Cu3 O7 H7 117(10) 4_455 .
Cu1 O8 Cu1 102.4(7) 4_455 .
Cu1 O8 Cu3 93.0(5) 4_455 1_565
Cu1 O8 Cu3 93.0(5) . 1_565
Cu1 O8 H8 104(7) . .
Cu1 O8 H8 104(7) 4_455 .
Cu3 O8 H8 152(10) 1_565 .
Cu1 O9 Cu1 102.0(7) . 4
Cu1 O9 Cu2 96.7(5) . .
Cu1 O9 Cu2 96.7(5) 4 .
Cu1 O9 H9 130(10) . .
Cu1 O9 H9 90(10) 4 .
Cu2 O9 H9 130(10) . .
Cu1 O10 H10 112(10) 1_545 .
Cu2 O10 Cu1 106.0(5) . 1_545
Cu2 O10 Cu3 98.9(5) . 4_455
Cu2 O10 Cu3 98.9(5) . .
Cu2 O10 H10 115(10) . .
Cu3 O10 Cu1 103.5(4) 4_455 1_545
Cu3 O10 Cu1 103.5(4) . 1_545
Cu3 O10 Cu3 0.0(2) 4_455 .
Cu3 O10 H10 120(10) 4_455 .
Cu3 O10 H10 120(10) . .
loop_
_geom_bond_atom_site_label_1
_geom_bond_atom_site_label_2
_geom_bond_distance
_geom_bond_site_symmetry_2
U1 O1 1.80(2) .
U1 O2 1.76(2) .
U1 O3 2.279(12) 4_655
U1 O3 2.279(12) .
U1 O5 2.314(13) 4_655
U1 O5 2.314(13) .
Se1 O3 1.720(13) .
Se1 O3 1.720(13) 4
Se1 O4 1.653(15) .
Se2 O5 1.722(13) .
Se2 O5 1.722(13) 4_755
Se2 O6 1.652(15) .
Cu1 Cu1 2.987(3) 4
Cu1 O4 2.398(12) 1_565
Cu1 O6 2.400(13) 2_564
Cu1 O7 1.988(11) .
Cu1 O8 1.914(9) .
Cu1 O9 1.922(10) .
Cu1 O10 2.025(11) 1_565
Cu2 O4 2.428(16) .
Cu2 O7 1.999(11) 4
Cu2 O7 1.999(11) .
Cu2 O9 2.268(15) .
Cu2 O10 1.961(10) .
Cu2 O10 1.961(10) 4
Cu3 Cu3 0.000(6) 4_455
Cu3 O7 1.972(11) 4_455
Cu3 O7 1.972(11) .
Cu3 O8 2.386(16) 1_545
Cu3 O10 1.969(9) 4_455
Cu3 O10 1.969(9) .
O7 H7 0.90(3) .
O8 H8 0.97(3) .
O9 H9 1.00(3) .
O10 H10 0.90(3) .
loop_
_geom_torsion_atom_site_label_1
_geom_torsion_atom_site_label_2
_geom_torsion_atom_site_label_3
_geom_torsion_atom_site_label_4
_geom_torsion
_geom_torsion_site_symmetry_1
_geom_torsion_site_symmetry_2
_geom_torsion_site_symmetry_3
_geom_torsion_site_symmetry_4
O3 Se1 O3 U1 109.1(12) 4 . . .
O3 Se1 O4 Cu1 64.8(12) . . . 4_545
O3 Se1 O4 Cu1 166.7(11) 4 . . 4_545
O3 Se1 O4 Cu1 -166.7(10) . . . 1_545
O3 Se1 O4 Cu1 -64.8(12) 4 . . 1_545
O3 Se1 O4 Cu2 50.9(5) 4 . . .
O3 Se1 O4 Cu2 -50.9(5) . . . .
O4 Se1 O3 U1 -146.2(12) . . . .
O5 Se2 O5 U1 -106.8(12) 4_755 . . .
O5 Se2 O6 Cu1 -0.9(10) . . . 2_565
O5 Se2 O6 Cu1 0.9(10) 4_755 . . 3_665
O5 Se2 O6 Cu1 -103.1(8) 4_755 . . 2_565
O5 Se2 O6 Cu1 103.1(8) . . . 3_665
O6 Se2 O5 U1 149.9(12) . . . .
loop_
_exptl_oxdiff_crystal_face_indexfrac_h
_exptl_oxdiff_crystal_face_indexfrac_k
_exptl_oxdiff_crystal_face_indexfrac_l
_exptl_oxdiff_crystal_face_x
_exptl_oxdiff_crystal_face_y
_exptl_oxdiff_crystal_face_z
-2.6320 1.2167 25.1936 -0.0104 -0.0042 0.9999
-8.4076 0.1667 0.5799 -0.9197 0.2163 0.3277
8.2525 0.1046 5.1923 0.9666 -0.2289 -0.1150
-2.1224 5.1811 18.9871 0.1177 0.5188 0.8467
0.8673 7.0849 -11.0871 0.2241 0.9358 -0.2721
2.3067 -4.3550 -21.0966 -0.0902 -0.4047 -0.9100
-0.7693 -7.2103 10.1697 -0.2262 -0.9456 0.2339
