#------------------------------------------------------------------------------
#$Date: 2022-02-01 10:54:46 +0200 (Tue, 01 Feb 2022) $
#$Revision: 272382 $
#$URL: file:///home/coder/svn-repositories/cod/cif/1/56/62/1566229.cif $
#------------------------------------------------------------------------------
#
# This file is available in the Crystallography Open Database (COD),
# http://www.crystallography.net/
#
# All data on this site have been placed in the public domain by the
# contributors.
#
data_1566229
loop_
_publ_author_name
'Vladislav V. Gurzhiy'
'Alina R. Izatulina'
'Maria G. Krzhizhanovskaya'
'Mikhail N. Murashko'
'Dar-ya V. Spiridonova'
'Vladimir V. Shilovskikh'
'Sergey V. Krivovichev'
_publ_section_title
;
 Thermal behavior of uranyl selenite minerals derriksite and
 demesmaekerite
;
_journal_name_full               'Journal of GeoSciences'
_journal_page_first              249
_journal_page_last               259
_journal_paper_doi               10.3190/jgeosci.315
_journal_volume                  65
_journal_year                    2020
_chemical_formula_moiety         'Cu4 H6 O14 Se2 U'
_chemical_formula_sum            'Cu4 H6 O14 Se2 U'
_chemical_formula_weight         880.16
_space_group_crystal_system      orthorhombic
_space_group_IT_number           31
_space_group_name_Hall           'P 2ac -2'
_space_group_name_H-M_alt        'P m n 21'
_atom_sites_solution_hydrogens   difmap
_cell_angle_alpha                90
_cell_angle_beta                 90
_cell_angle_gamma                90
_cell_formula_units_Z            2
_cell_length_a                   5.9720(3)
_cell_length_b                   5.5688(4)
_cell_length_c                   19.0840(11)
_cell_measurement_reflns_used    2401
_cell_measurement_temperature    273(2)
_cell_measurement_theta_max      30.6040
_cell_measurement_theta_min      4.2380
_cell_volume                     634.67(7)
_computing_cell_refinement       'CrysAlisPro 1.171.39.44a (Rigaku OD, 2018)'
_computing_data_collection       'CrysAlisPro 1.171.39.44a (Rigaku OD, 2018)'
_computing_data_reduction        'CrysAlisPro 1.171.39.44a (Rigaku OD, 2018)'
_computing_molecular_graphics    'Olex2 1.3 (Dolomanov et al., 2009)'
_computing_publication_material  'Olex2 1.3 (Dolomanov et al., 2009)'
_computing_structure_refinement  'SHELXL 2018/3 (Sheldrick, 2015)'
_computing_structure_solution    'SHELXT 2018/3 (Sheldrick, 2015)'
_diffrn_ambient_environment      N~2~
_diffrn_ambient_temperature      273(2)
_diffrn_detector                 'CCD plate'
_diffrn_detector_area_resol_mean 10.3829
_diffrn_detector_type            Atlas
_diffrn_measured_fraction_theta_full 0.998
_diffrn_measured_fraction_theta_max 0.999
_diffrn_measurement_details
;
List of Runs (angles in degrees, time in seconds):

  # Type    Start    End  Width  t~exp~   \w     \q     \k     \f   Frames
--------------------------------------------------------------------------
  1  \w    -47.00   3.00   1.00   22.50    --  -14.99  77.00-180.00   50
  2  \w    -27.00  19.00   1.00   22.50    --  -14.99 -77.00-150.00   46
  3  \w     42.00  83.00   1.00   22.50    --   16.86 178.00 -30.00   41
  4  \w     31.00  59.00   1.00   22.50    --   16.86 -99.00 120.00   28
  5  \w     -4.00  93.00   1.00   22.50    --   16.86  38.00 120.00   97
  6  \w     -8.00  93.00   1.00   22.50    --   16.86  38.00  30.00  101
;
_diffrn_measurement_device       'four-circle diffractometer'
_diffrn_measurement_device_type  'SuperNova, Dual, Cu at home/near, Atlas'
_diffrn_measurement_method       '\w scans'
_diffrn_orient_matrix_type
'CrysAlisPro convention (1999,Acta A55,543-557)'
_diffrn_orient_matrix_UB_11      -0.1095386000
_diffrn_orient_matrix_UB_12      0.0412508000
_diffrn_orient_matrix_UB_13      -0.0082185000
_diffrn_orient_matrix_UB_21      0.0325353000
_diffrn_orient_matrix_UB_22      0.1192085000
_diffrn_orient_matrix_UB_23      0.0084987000
_diffrn_orient_matrix_UB_31      0.0332940000
_diffrn_orient_matrix_UB_32      0.0190815000
_diffrn_orient_matrix_UB_33      -0.0352560000
_diffrn_radiation_monochromator  mirror
_diffrn_radiation_probe          x-ray
_diffrn_radiation_type           'Mo K\a'
_diffrn_radiation_wavelength     0.71073
_diffrn_reflns_av_R_equivalents  0.0430
_diffrn_reflns_av_unetI/netI     0.0409
_diffrn_reflns_Laue_measured_fraction_full 0.998
_diffrn_reflns_Laue_measured_fraction_max 0.999
_diffrn_reflns_limit_h_max       7
_diffrn_reflns_limit_h_min       -6
_diffrn_reflns_limit_k_max       6
_diffrn_reflns_limit_k_min       -7
_diffrn_reflns_limit_l_max       24
_diffrn_reflns_limit_l_min       -22
_diffrn_reflns_number            5116
_diffrn_reflns_point_group_measured_fraction_full 0.975
_diffrn_reflns_point_group_measured_fraction_max 0.972
_diffrn_reflns_theta_full        25.242
_diffrn_reflns_theta_max         27.495
_diffrn_reflns_theta_min         3.575
_diffrn_source                   'micro-focus sealed X-ray tube'
_diffrn_source_type              'SuperNova (Mo) X-ray Source'
_exptl_absorpt_coefficient_mu    25.115
_exptl_absorpt_correction_T_max  0.995
_exptl_absorpt_correction_T_min  0.990
_exptl_absorpt_correction_type   analytical
_exptl_absorpt_process_details
;
CrysAlisPro 1.171.39.44a (Rigaku Oxford Diffraction, 2018)
Analytical numeric absorption correction using a multifaceted crystal
			model based on expressions derived by R.C. Clark & J.S. Reid.
(Clark, R. C. & Reid, J. S. (1995). Acta Cryst. A51, 887-897)
Empirical absorption correction using spherical harmonics,
 implemented in SCALE3 ABSPACK scaling algorithm.
;
_exptl_crystal_colour            green
_exptl_crystal_density_diffrn    4.606
_exptl_crystal_description       prism
_exptl_crystal_F_000             788
_exptl_crystal_size_max          0.108
_exptl_crystal_size_mid          0.06
_exptl_crystal_size_min          0.041
_refine_diff_density_max         1.177
_refine_diff_density_min         -1.166
_refine_diff_density_rms         0.206
_refine_ls_abs_structure_details
;
 Classical Flack method preferred over Parsons because s.u. lower.
;
_refine_ls_abs_structure_Flack   -0.03(2)
_refine_ls_extinction_coef       .
_refine_ls_extinction_method     none
_refine_ls_goodness_of_fit_ref   1.045
_refine_ls_hydrogen_treatment    refxyz
_refine_ls_matrix_type           full
_refine_ls_number_parameters     117
_refine_ls_number_reflns         1550
_refine_ls_number_restraints     7
_refine_ls_restrained_S_all      1.044
_refine_ls_R_factor_all          0.0389
_refine_ls_R_factor_gt           0.0364
_refine_ls_shift/su_max          0.000
_refine_ls_shift/su_mean         0.000
_refine_ls_structure_factor_coef Fsqd
_refine_ls_weighting_details
'w=1/[\s^2^(Fo^2^)+(0.0591P)^2^] where P=(Fo^2^+2Fc^2^)/3'
_refine_ls_weighting_scheme      calc
_refine_ls_wR_factor_gt          0.0862
_refine_ls_wR_factor_ref         0.0882
_reflns_Friedel_coverage         0.890
_reflns_Friedel_fraction_full    0.950
_reflns_Friedel_fraction_max     0.943
_reflns_number_gt                1479
_reflns_number_total             1550
_reflns_threshold_expression     'I > 2\s(I)'
_cod_data_source_file            Derriksite_SN_0C_last.cif
_cod_data_source_block           derriksite_sn_0C
_cod_database_code               1566229
_chemical_oxdiff_formula         'Cu4 U Se2 O14'
_shelx_space_group_comment
;
The symmetry employed for this shelxl refinement is uniquely defined
by the following loop, which should always be used as a source of
symmetry information in preference to the above space-group names.
They are only intended as comments.
;
_reflns_odcompleteness_completeness 99.70
_reflns_odcompleteness_iscentric 1
_reflns_odcompleteness_theta     28.51
_olex2_refinement_description
;
1. Fixed Uiso
 At 1.5 times of:
  All O(H) groups, All O(H,H) groups
2. Restrained distances
 O7-H7
 0.9 with sigma of 0.02
 O10-H10
 0.9 with sigma of 0.02
 O8-H8
 0.95 with sigma of 0.02
 H8-O1_$2
 2.1 with sigma of 0.02
 O9-H9
 1 with sigma of 0.02
 H9-O5_$4
 2.15 with sigma of 0.02
3. Uiso/Uaniso restraints and constraints
Uanis(O7) = Uanis(O10)
4. Others
 Fixed Sof: H9(0.5)
;
_shelx_res_file
;
TITL Derriksite_SN_273K in Pmn2(1)
    derriksite_sn_273k.res
    created by SHELXL-2018/3 at 11:46:40 on 05-Sep-2020
REM Pmn2(1) (#31, found as Pnm2(1) in ba-c setting)
CELL 0.71073 5.971964 5.568818 19.083966 90 90 90
ZERR 2 0.000346 0.000429 0.001092 0 0 0
LATT -1
SYMM 0.5-X,-Y,0.5+Z
SYMM 0.5+X,-Y,0.5+Z
SYMM -X,+Y,+Z
SFAC Cu H O Se U
UNIT 8 12 28 4 2
EQIV $1 1+X,+Y,+Z
EQIV $2 -X,+Y,+Z
EQIV $3 -1-X,+Y,+Z
EQIV $4 0.5+X,-1-Y,0.5+Z
DFIX 0.9 O7 H7
DFIX 0.9 O10 H10
DFIX 0.95 O8 H8
DFIX 2.1 H8 O1_$2
DFIX 1 O9 H9
DFIX 2.15 H9 O5_$4
EADP O7 O10

L.S. 20
PLAN  40
CONF
HTAB O7 O3_$2
FREE Cu2 Cu3_$1
FREE Cu2 Cu3_$2
FREE Cu2 Cu3_$3
FREE Cu2 Cu3
FREE Cu1 Cu1_$3
list 4
MORE -1
BOND $H
fmap 2
acta
OMIT -4 55
REM <olex2.extras>
REM <HklSrc "%.\\Derriksite_SN_273K.hkl">
REM </olex2.extras>

WGHT    0.059100
FVAR       1.01336
U1    5   -0.500000   -0.184953   -0.606500    10.50000    0.01394    0.02939 =
         0.01070   -0.00479    0.00000    0.00000
SE1   4    0.000000    0.140246   -0.527431    10.50000    0.01801    0.02920 =
         0.01258    0.00212    0.00000    0.00000
SE2   4   -1.000000   -0.508123   -0.689830    10.50000    0.01594    0.02709 =
         0.01214    0.00264    0.00000    0.00000
CU1   1    0.250247   -0.607186   -0.361779    11.00000    0.00604    0.00836 =
         0.01687    0.00073    0.00098    0.00117
CU2   1    0.000000   -0.111294   -0.354038    10.50000    0.00448    0.00888 =
         0.01613   -0.00080    0.00000    0.00000
CU3   1    0.500000   -0.102342   -0.356293    10.50000    0.00405    0.00780 =
         0.01656   -0.00248    0.00000    0.00000
O1    3   -0.500000   -0.457194   -0.556764    10.50000    0.05470    0.02818 =
         0.03142    0.01085    0.00000    0.00000
O2    3   -0.500000    0.082747   -0.655523    10.50000    0.05583    0.04130 =
         0.01099    0.00818    0.00000    0.00000
O3    3   -0.218780   -0.060607   -0.534880    11.00000    0.02212    0.04675 =
         0.02096   -0.01074   -0.00336   -0.00219
O4    3    0.000000    0.201680   -0.441962    10.50000    0.00938    0.01204 =
         0.01373   -0.00240    0.00000    0.00000
O5    3   -0.779266   -0.310238   -0.681549    11.00000    0.03014    0.03638 =
         0.01996   -0.01051   -0.00427   -0.00542
O6    3   -1.000000   -0.557675   -0.775351    10.50000    0.01166    0.02103 =
         0.01913   -0.01198    0.00000    0.00000
O7    3    0.253619   -0.277386   -0.401994    11.00000    0.00552    0.01230 =
         0.01291   -0.00401   -0.00132    0.00226
H7    2    0.256232   -0.256497   -0.448678    11.00000   -1.50000
O8    3    0.500000   -0.725577   -0.414362    10.50000    0.00520    0.01438 =
         0.01339   -0.00326    0.00000    0.00000
H8    2    0.500000   -0.641144   -0.459055    10.50000   -1.50000
O9    3    0.000000   -0.488162   -0.308925    10.50000    0.00725    0.01309 =
         0.01738   -0.00132    0.00000    0.00000
O10   3    0.249397    0.071085   -0.312070    11.00000    0.00552    0.01230 =
         0.01291   -0.00401   -0.00132    0.00226
H10   2    0.257696    0.097149   -0.265680    11.00000   -1.50000
H9    2   -0.081126   -0.549098   -0.266477    10.50000   -1.50000
HKLF 4




REM  Derriksite_SN_273K in Pmn2(1)
REM wR2 = 0.0882, GooF = S = 1.045, Restrained GooF = 1.044 for all data
REM R1 = 0.0364 for 1479 Fo > 4sig(Fo) and 0.0389 for all 1550 data
REM 117 parameters refined using 7 restraints

END

WGHT      0.0591      0.0000

REM Highest difference peak  1.177,  deepest hole -1.166,  1-sigma level  0.206
Q1    1  -0.5000 -0.0326 -0.6047  10.50000  0.05    1.18
Q2    1  -1.0000 -0.8599 -0.6876  10.50000  0.05    1.08
Q3    1   0.0000 -0.1018 -0.4733  10.50000  0.05    0.99
Q4    1  -0.7353 -0.6588 -0.6079  11.00000  0.05    0.96
Q5    1   0.0000  0.4843 -0.5259  10.50000  0.05    0.93
Q6    1  -1.0000 -0.2549 -0.7337  10.50000  0.05    0.83
Q7    1   0.5000  0.0124 -0.2817  10.50000  0.05    0.82
Q8    1   0.5000 -0.5913 -0.3567  10.50000  0.05    0.81
Q9    1  -0.6563 -0.1810 -0.5866  11.00000  0.05    0.75
Q10   1  -0.5000  0.0835 -0.5399  10.50000  0.05    0.74
Q11   1  -1.0000 -0.6780 -0.6591  10.50000  0.05    0.72
Q12   1   0.2902 -0.7790 -0.4073  11.00000  0.05    0.72
Q13   1  -0.6145 -0.3216 -0.6369  11.00000  0.05    0.71
Q14   1  -0.5000 -0.3231 -0.6633  10.50000  0.05    0.71
Q15   1  -0.6704 -0.1594 -0.6244  11.00000  0.05    0.69
Q16   1  -0.6943 -0.4625 -0.6012  11.00000  0.05    0.66
Q17   1  -0.7652 -0.3298 -0.6088  11.00000  0.05    0.66
Q18   1   0.2063 -0.6011 -0.3720  11.00000  0.05    0.65
Q19   1   0.0000 -0.6896 -0.3369  10.50000  0.05    0.64
Q20   1   0.0000  0.0222 -0.2912  10.50000  0.05    0.63
Q21   1  -0.1840 -0.1831 -0.6078  11.00000  0.05    0.63
Q22   1   0.5000 -0.3466 -0.3753  10.50000  0.05    0.63
Q23   1  -0.5000 -0.6702 -0.6066  10.50000  0.05    0.62
Q24   1  -0.5000 -0.3102 -0.5423  10.50000  0.05    0.61
Q25   1  -1.0000 -0.6709 -0.7009  10.50000  0.05    0.61
Q26   1   0.3058 -0.6156 -0.3527  11.00000  0.05    0.60
Q27   1   0.2412 -0.4065 -0.4003  11.00000  0.05    0.59
Q28   1   0.0000  0.3736 -0.4370  10.50000  0.05    0.58
Q29   1  -0.5000 -0.0920 -0.6723  10.50000  0.05    0.58
Q30   1   0.0000 -0.1492 -0.2922  10.50000  0.05    0.58
Q31   1   0.0707  0.2963 -0.5201  11.00000  0.05    0.58
Q32   1   0.2812  0.0217 -0.1982  11.00000  0.05    0.57
Q33   1   0.0000 -0.2155 -0.6034  10.50000  0.05    0.57
Q34   1   0.2066  0.0703 -0.2887  11.00000  0.05    0.57
Q35   1  -0.5000 -0.0962 -0.5351  10.50000  0.05    0.56
Q36   1  -0.3192  0.0972 -0.5502  11.00000  0.05    0.56
Q37   1  -1.0000 -0.7025 -0.7719  10.50000  0.05    0.56
Q38   1  -0.5000 -0.4801 -0.6056  10.50000  0.05    0.56
Q39   1   0.5000 -0.7366 -0.4578  10.50000  0.05    0.55
Q40   1   0.5000 -0.3380 -0.4288  10.50000  0.05    0.55
;
_shelx_res_checksum              94394
_shelx_hkl_file
;
   0   0  -5 34.5354 33.1836   4
   0   0  -5 24.4083 24.5389   1
   0   0  -4 117348. 2253.59   4
   0   0   3 17.8879 11.9861   1
   0   0   4 98569.5 1845.53   1
   0   0   5 59.7041 32.5625   6
   0   0   5 28.0697 22.6892   1
   0   0   6 31423.2 706.689   1
   0   0   6 31171.3 722.399   6
   0   0   6 34463.8 812.366   4
   0   0   7 38.5515 30.3068   6
   0   0   7 16.3533 24.3169   1
   0   0   7 24.7691 30.6214   4
   0   0   8 19006.5 510.225   1
   0   0   8 20846.7 625.316   4
   0   0   8 18804.4 527.213   6
   0   0   9 8.54339 27.9337   3
   0   0   9 23.7309 23.5536   1
   0   0   9-3.90950 32.8131   4
   0   0   9 9.88209 28.9635   6
   0   0  10 706.635 115.068   4
   0   0  10 703.132 99.6733   3
   0   0  10 714.745 85.7153   1
   0   0  10 767.884 96.1551   6
   0   0  11 94.6758 54.5423   4
   0   0  11 124.534 59.8936   6
   0   0  11 56.4625 38.1421   1
   0   0  12 99834.9 2140.35   6
   0   0  12 102774. 2100.04   1
   0   0  12 106242. 2340.07   4
   0   0  13 170.914 72.6261   6
   0   0  13 105.926 65.1554   4
   0   0  13 43.1752 51.1699   3
   0   0  13 97.5663 52.0656   1
   0   0  14 4679.39 260.392   1
   0   0  14 4448.63 273.956   6
   0   0  15 120.024 69.5303   6
   0   0  15 75.3519 47.0059   1
   0   0  16 31145.1 874.216   1
   0   0  16 30177.2 906.697   6
   0   0  17 118.331 60.4170   1
   0   0  17 58.8676 56.7931   6
   0   0  18 5728.72 358.064   6
   0   0  18 6079.48 333.846   1
   0   0  19 239.242 72.0635   6
   0   0  19 321.666 167.063   2
   0   0  20 12437.2 576.428   6
   0   0  20 11375.3 867.886   2
   0   0  21 17.5287 111.393   2
   0   0  21-95.4437 89.6513   6
   0   0  22 699.433 244.899   2
   0   0  22 735.544 146.730   6
   0   0  23 282.492 101.877   6
   0   0  23 408.502 200.346   2
   0   0  24 22891.9 1445.08   2
   0   0  24 25026.7 939.123   6
   0   0  25-37.7503 73.6245   6
   0   0  25 373.249 201.565   2
   0   0  26 1312.29 365.807   2
   0   1 -15 18898.6 814.869   4
   0   1 -14 3429.91 310.793   4
   0   1 -13 3164.44 285.299   4
   0   1 -12 707.349 135.854   4
   0  -1 -12 681.643 91.6776   1
   0  -1 -11 10122.4 371.163   1
   0   1 -11 10751.9 503.758   4
   0  -1 -11 10996.1 440.861   3
   0  -1 -10 19829.0 608.823   3
   0   1 -10 17958.2 551.435   6
   0   1 -10 20767.4 702.633   4
   0  -1 -10 18543.9 517.750   1
   0   1  -9 17146.0 597.479   4
   0  -1  -9 16543.6 527.395   3
   0   1  -9 15538.6 476.714   6
   0  -1  -9 15458.0 430.836   1
   0   1  -8 5082.32 227.916   6
   0   1  -8 5600.84 304.409   4
   0  -1  -8 5620.43 264.483   3
   0  -1  -8 5243.79 197.996   1
   0   1  -7 15373.2 437.694   6
   0  -1  -7 16274.2 396.953   1
   0  -1  -7 16339.6 484.355   3
   0   1  -6 4851.83 197.214   6
   0  -1  -6 4988.54 221.982   3
   0  -1  -6 5079.78 166.308   1
   0   1  -5 22116.7 536.062   6
   0  -1  -5 23754.1 521.960   5
   0  -1  -5 22937.0 580.443   3
   0   1  -4 17242.4 432.046   6
   0  -1  -4 18421.0 427.973   5
   0  -1  -4 17993.2 474.416   3
   0  -1  -3 24891.1 557.334   5
   0  -1  -2 12386.8 345.279   5
   0  -1  -2 13158.1 428.320   2
   0  -1  -1 15393.9 440.581   2
   0  -1  -1 15377.9 425.249   5
   0  -1   0 2364.34 148.220   5
   0  -1   0 2472.15 129.659   2
   0  -1   1 15244.4 459.358   5
   0  -1   1 14357.1 391.294   6
   0  -1   2 13397.4 350.035   6
   0  -1   2 13501.1 436.576   5
   0  -1   3 21906.5 498.887   6
   0   1   3 21896.8 514.385   5
   0  -1   3 21923.0 614.545   5
   0   1   4 19314.8 457.984   5
   0  -1   4 18560.6 447.598   6
   0  -1   4 18974.9 555.144   5
   0   1   5 21996.1 499.116   5
   0  -1   5 21342.3 507.779   6
   0   1   6 3329.84 139.785   5
   0  -1   6 3310.75 150.882   6
   0  -1   7 15897.2 546.931   1
   0   1   7 15615.5 465.372   3
   0   1   7 15024.6 386.389   5
   0  -1   7 14674.1 406.077   6
   0  -1   8 4247.63 189.851   6
   0   1   8 4173.44 169.236   5
   0  -1   8 4395.72 266.950   1
   0   1   8 4446.76 227.782   3
   0  -1   9 15118.7 563.083   1
   0   1   9 16141.2 506.927   3
   0  -1   9 15382.1 443.064   6
   0   1   9 15526.3 410.976   5
   0  -1  10 14469.6 443.332   6
   0  -1  10 14866.8 562.871   1
   0   1  10 15252.7 410.295   5
   0   1  11 11733.1 529.956   4
   0  -1  11 10913.8 463.882   1
   0   1  11 10485.6 331.755   5
   0  -1  11 10568.8 373.442   6
   0  -1  12 811.513 98.4419   6
   0   1  12 997.140 123.903   3
   0   1  12 752.755 80.4123   5
   0   1  12 764.188 139.220   4
   0  -1  12 915.466 132.927   1
   0   1  13 1879.82 131.414   5
   0   1  13 2429.93 206.060   3
   0  -1  13 2288.21 206.156   1
   0  -1  13 2127.12 164.945   6
   0   1  14 3014.15 347.875   2
   0  -1  14 3499.50 220.799   6
   0   1  14 2997.92 175.341   5
   0  -1  14 3775.36 271.062   1
   0  -1  15 14495.3 489.102   6
   0   1  15 14238.3 557.904   6
   0   1  15 14786.3 816.011   2
   0   1  16 9296.23 451.925   6
   0  -1  16 9233.03 392.279   6
   0   1  16 10393.9 694.084   2
   0  -1  17 3088.23 231.282   6
   0   1  17 3531.33 420.576   2
   0   1  17 2966.82 264.359   6
   0   1  17 3022.78 186.289   5
   0   1  18 1268.44 126.311   5
   0  -1  18 1571.66 222.881   5
   0  -1  18 1602.03 169.897   6
   0   1  18 1483.86 195.776   6
   0   1  18 1962.38 331.573   2
   0   1  19 11725.3 575.434   6
   0  -1  19 11869.7 506.580   6
   0  -1  19 10725.4 619.808   5
   0   1  19 11659.1 838.103   2
   0  -1  20 1257.70 165.832   6
   0   1  20 616.605 200.933   2
   0   1  20 1466.45 203.725   6
   0  -1  20 937.587 187.055   5
   0   1  21 2891.13 288.489   6
   0  -1  21 2990.49 258.533   6
   0  -1  21 2670.28 332.466   5
   0   1  21 2762.00 447.954   2
   0  -1  22 3755.59 295.003   6
   0  -1  22 3363.02 512.762   2
   0  -1  22 3331.87 376.342   5
   0   1  22 3475.53 327.645   6
   0   1  22 3642.13 515.453   2
   0  -1  23 3984.15 310.262   6
   0  -1  23 3234.85 527.690   2
   0   1  23 3881.12 349.852   6
   0   1  23 4363.88 588.803   2
   0   1  24 223.089 101.414   6
   0   1  24-72.5102 110.031   2
   0   1  25 1198.92 336.489   2
   0   1  25 761.691 161.191   6
   0  -1  25 542.868 239.996   2
   0   1  26 314.086 104.417   6
   0  -1  26 476.077 233.793   2
   0   2 -20 1875.49 310.205   4
   0   2 -19 9398.06 648.818   4
   0   2 -18 10074.1 651.617   4
   0   2 -17 10513.6 651.193   4
   0   2 -16 4124.41 388.690   4
   0  -2 -16 4204.51 341.845   3
   0  -2 -15 22677.2 835.757   3
   0   2 -15 22342.4 936.544   4
   0  -2 -15 22992.9 681.718   1
   0  -2 -14 6142.26 283.856   1
   0   2 -14 6099.70 440.909   4
   0  -2 -14 6567.18 397.748   3
   0  -2 -13 12782.3 556.495   3
   0  -2 -13 11941.7 401.981   1
   0   2 -13 13149.6 641.972   4
   0   2 -12 782.663 150.253   4
   0  -2 -12 980.624 93.9325   1
   0  -2 -12 671.523 128.037   3
   0   2 -12 871.572 113.224   6
   0  -2 -11 22472.4 733.094   3
   0  -2 -11 20514.0 539.590   1
   0   2 -11 20759.8 642.641   6
   0  -2 -10 12115.4 491.989   3
   0   2 -10 11444.2 429.808   6
   0  -2 -10 11736.3 352.296   1
   0   2  -9 48345.0 1144.70   6
   0  -2  -9 48945.5 1098.49   5
   0  -2  -9 50523.6 1243.06   3
   0   2  -8 7216.77 304.485   6
   0  -2  -8 7213.07 288.742   5
   0  -2  -8 7107.68 351.070   3
   0  -2  -7 44119.4 1014.54   5
   0  -2  -7 45750.2 1130.96   3
   0   2  -7 43485.8 1025.21   6
   0   2  -6 28778.0 738.373   6
   0  -2  -6 28628.0 730.504   5
   0   2  -5 47710.0 1092.39   6
   0  -2  -5 47603.7 1086.02   5
   0  -2  -4 6960.09 307.900   5
   0   2  -4 6928.44 294.762   6
   0  -2  -3 43662.2 1081.90   5
   0   2  -3 45195.1 1059.54   6
   0  -2  -3 48174.0 1234.83   2
   0  -2  -2 12678.2 519.312   2
   0   2  -2 15050.5 487.593   6
   0  -2  -2 13225.9 487.866   5
   0  -2  -1 20517.9 658.252   5
   0  -2  -1 18943.4 619.534   2
   0  -2   0 36.8521 36.6057   5
   0  -2   0 61.9340 24.1445   2
   0   2   1 24616.6 706.577   2
   0  -2   1 23345.2 640.956   2
   0  -2   1 25535.7 793.047   5
   0   2   2 17557.3 611.890   5
   0   2   2 17864.4 610.136   2
   0  -2   2 16768.1 639.373   5
   0   2   3 38795.3 1018.02   5
   0  -2   3 36915.3 942.720   6
   0  -2   3 39979.5 1110.13   5
   0  -2   4 4154.20 296.198   5
   0   2   4 3643.28 280.567   2
   0  -2   4 3202.44 194.037   6
   0   2   4 3591.33 231.217   5
   0  -2   5 51440.7 1173.88   6
   0   2   5 57115.7 1429.30   2
   0   2   5 52201.6 1225.94   5
   0  -2   5 53398.7 1396.53   5
   0   2   6 28664.2 766.813   5
   0  -2   6 30034.7 944.688   5
   0   2   6 31476.0 985.221   2
   0  -2   6 28169.5 727.455   6
   0   2   7 33464.3 835.404   5
   0  -2   7 33535.4 1024.53   5
   0  -2   7 32667.3 805.204   6
   0  -2   8 5907.32 371.350   5
   0   2   8 5216.56 251.577   5
   0  -2   8 5089.97 241.788   6
   0  -2   9 50107.0 1120.44   6
   0  -2   9 47129.6 1350.40   5
   0   2   9 49156.0 1118.25   5
   0  -2  10 10407.8 381.400   6
   0  -2  10 11031.5 541.270   5
   0   2  10 10402.0 374.459   5
   0  -2  10 10276.3 564.433   1
   0   2  11 14917.0 751.263   2
   0  -2  11 15134.1 487.603   6
   0  -2  11 14214.3 642.461   5
   0   2  11 14454.6 465.921   5
   0  -2  12 1374.89 132.741   6
   0   2  12 1468.13 240.013   2
   0   2  12 1500.88 132.035   5
   0  -2  12 1662.77 211.149   5
   0   2  13 13362.5 449.867   5
   0   2  13 14427.3 779.026   2
   0  -2  13 12710.8 628.930   5
   0  -2  13 13556.8 477.065   6
   0  -2  14 4993.10 271.057   6
   0  -2  14 4840.84 381.678   5
   0   2  14 5902.47 504.287   2
   0  -2  15 15519.3 720.357   5
   0   2  15 17138.5 899.891   2
   0  -2  15 15917.6 527.493   6
   0   2  16 4643.61 481.975   2
   0  -2  16 4593.17 392.887   5
   0  -2  16 4813.24 281.806   6
   0   2  16 4564.71 248.547   5
   0   2  17 11134.7 418.155   5
   0   2  17 11702.9 797.630   2
   0  -2  17 11457.9 468.096   6
   0  -2  17 10729.1 635.915   5
   0  -2  18 6480.49 495.698   5
   0   2  18 6197.37 595.139   2
   0  -2  18 5757.24 329.096   6
   0   2  19 6215.11 620.062   2
   0  -2  19 5690.45 336.291   6
   0  -2  19 5879.04 489.572   5
   0   2  19 5661.82 406.803   6
   0   2  20 1575.99 318.512   2
   0   2  20 1248.64 197.143   6
   0  -2  20 1525.25 254.043   5
   0  -2  20 1317.61 167.119   6
   0   2  21 8008.58 518.635   6
   0  -2  21 8731.43 439.424   6
   0  -2  21 9030.50 654.699   5
   0   2  21 9818.80 832.105   2
   0   2  22 1436.55 350.702   2
   0  -2  22 1735.66 195.337   6
   0  -2  22 2268.04 331.906   5
   0   2  22 1856.08 249.282   6
   0  -2  23 1299.53 257.375   5
   0   2  23 886.074 175.449   6
   0  -2  23 389.577 216.041   2
   0   2  23 882.010 303.130   2
   0   2  24 318.672 187.391   2
   0  -2  24 395.641 189.833   2
   0   2  24 85.2860 106.839   6
   0  -2  25 1152.15 339.366   2
   0   2  25 1609.96 255.629   6
   0   2  26 2398.56 306.614   6
   0  -2  26 1187.04 358.081   2
   0   3 -23 141.059 113.546   4
   0   3 -22 4740.25 531.341   4
   0   3 -21 1749.75 305.822   4
   0   3 -20 1286.97 265.407   4
   0  -3 -19 114.451 110.320   3
   0   3 -19 190.226 120.445   4
   0  -3 -18 354.462 158.779   3
   0   3 -18 539.039 172.856   4
   0   3 -17 1782.13 277.103   4
   0  -3 -17 1590.02 238.432   3
   0  -3 -16 1845.81 140.479   1
   0   3 -16 2609.79 331.292   4
   0  -3 -16 2550.19 290.107   3
   0   3 -15 578.281 155.582   4
   0  -3 -15 573.206 138.529   3
   0  -3 -15 570.792 76.7033   1
   0   3 -14 9438.90 458.142   6
   0  -3 -14 7617.43 302.816   1
   0  -3 -14 9128.77 540.214   3
   0   3 -13 5271.02 333.507   6
   0  -3 -13 4891.31 228.851   1
   0  -3 -13 5481.82 394.277   3
   0  -3 -12 19528.1 787.392   3
   0  -3 -12 19689.8 628.830   5
   0  -3 -12 17929.6 522.494   1
   0  -3 -11 1125.31 176.679   3
   0  -3 -11 1081.64 133.758   5
   0  -3 -10 10902.5 452.468   5
   0  -3 -10 11186.4 556.841   3
   0  -3  -9 2899.42 223.015   5
   0  -3  -9 2667.92 264.005   3
   0  -3  -8 3659.67 248.804   5
   0  -3  -8 3989.74 318.925   3
   0  -3  -7 30.1961 37.1979   5
   0   3  -6 2184.51 192.232   6
   0  -3  -6 2114.19 191.972   5
   0  -3  -5 644.412 112.192   5
   0   3  -5 766.215 114.493   6
   0   3  -4 4079.84 276.309   6
   0  -3  -4 3990.20 282.937   5
   0   3  -3 2419.28 217.569   6
   0  -3  -3 2373.65 221.579   5
   0  -3  -2 17063.4 676.386   2
   0  -3  -2 17615.0 680.535   5
   0  -3  -1 2380.34 218.253   2
   0  -3  -1 2633.47 248.544   5
   0  -3   0 23319.8 764.662   2
   0  -3   0 24372.2 889.162   5
   0  -3   1 3053.89 294.141   5
   0  -3   1 3074.38 222.451   2
   0   3   1 3340.60 303.201   5
   0   3   2 17230.0 663.086   2
   0  -3   2 18420.1 757.690   5
   0   3   2 18875.5 757.371   5
   0  -3   2 16569.9 564.399   2
   0  -3   3 1231.85 119.534   2
   0  -3   3 1321.83 202.751   5
   0   3   3 1580.42 199.115   5
   0   3   3 1419.78 193.333   2
   0  -3   4 5054.48 389.125   5
   0   3   4 5552.91 372.813   5
   0   3   4 5500.61 389.083   2
   0  -3   5 540.896 138.316   5
   0   3   5 580.061 120.140   5
   0  -3   6 1961.80 239.781   5
   0   3   6 1865.46 199.254   5
   0  -3   6 1685.36 168.662   6
   0  -3   7 41.1696 58.7197   5
   0  -3   7 7.93012 42.4332   6
   0   3   7-10.5913 34.0448   5
   0  -3   8 4958.58 404.434   5
   0  -3   8 4202.53 269.244   6
   0   3   8 5156.80 422.244   2
   0   3   8 4598.75 307.434   5
   0   3   9 2224.16 210.730   5
   0  -3   9 2306.99 192.600   6
   0   3   9 2188.17 287.801   2
   0  -3   9 2168.62 263.597   5
   0  -3  10 8836.22 560.436   5
   0   3  10 8645.77 592.081   2
   0   3  10 8475.84 418.008   5
   0  -3  10 8615.55 392.069   6
   0  -3  11 1572.03 162.215   6
   0  -3  11 1633.40 243.614   5
   0   3  11 1381.10 240.685   2
   0   3  11 1290.37 154.446   5
   0  -3  12 16885.5 801.653   5
   0  -3  12 17107.0 565.859   6
   0   3  12 17949.5 894.141   2
   0   3  13 3399.77 259.491   5
   0  -3  13 3944.06 387.963   5
   0   3  13 3945.23 424.957   2
   0  -3  13 3979.46 261.559   6
   0  -3  14 7444.83 542.490   5
   0   3  14 8199.01 632.126   2
   0   3  14 6982.79 370.233   5
   0  -3  14 7806.14 374.690   6
   0  -3  15 983.640 140.189   6
   0   3  15 943.372 216.964   2
   0   3  15 719.514 109.986   5
   0  -3  15 819.434 178.150   5
   0   3  16 2112.83 337.368   2
   0  -3  16 2334.89 311.055   5
   0  -3  16 2237.49 202.218   6
   0  -3  17 1258.03 155.049   6
   0   3  17 1205.25 271.913   2
   0  -3  17 1282.06 244.336   5
   0  -3  18 469.401 157.249   5
   0   3  18 694.985 223.307   2
   0  -3  18 656.099 121.297   6
   0  -3  19 292.431 142.390   5
   0  -3  19 246.632 77.2603   6
   0   3  19 244.393 155.237   2
   0  -3  20 1571.00 281.273   5
   0  -3  20 1403.31 167.329   6
   0   3  20 1499.69 324.455   2
   0   3  21 1066.19 293.666   2
   0  -3  21 1548.67 305.188   5
   0   3  22 2854.19 333.010   6
   0   3  22 3431.01 544.615   2
   0  -3  22 3745.71 458.012   5
   0  -3  23 192.596 128.096   5
   0  -3  23 193.410 158.535   2
   0   3  23-86.3423 110.034   6
   0   3  23 117.407 167.454   2
   0   3  24 4580.63 430.424   6
   0   3  25 1488.89 240.300   6
   0   4 -22 2030.55 374.333   4
   0  -4 -21 3709.85 443.527   3
   0   4 -21 4115.25 518.256   4
   0  -4 -20 3872.96 434.224   3
   0   4 -20 3427.14 454.937   4
   0  -4 -19 5134.02 492.503   3
   0   4 -19 5605.33 575.536   4
   0   4 -18 2106.21 345.011   4
   0  -4 -18 2046.04 310.886   3
   0   4 -17 5651.95 558.926   4
   0  -4 -17 6410.65 530.653   3
   0  -4 -16 6288.95 514.874   3
   0  -4 -15 3997.76 395.404   3
   0  -4 -14 6809.72 398.814   5
   0  -4 -14 6771.43 509.119   3
   0  -4 -13 3488.74 277.789   5
   0  -4 -13 3805.33 377.028   3
   0  -4 -12 9432.47 476.337   5
   0  -4 -12 9015.78 584.859   3
   0  -4 -11 5225.97 347.768   5
   0  -4 -11 5100.04 433.604   3
   0  -4 -10 14032.7 595.048   5
   0  -4 -10 13357.7 710.277   3
   0  -4  -9 7468.91 424.787   5
   0  -4  -8 16259.0 658.958   5
   0  -4  -7 16673.4 678.599   5
   0  -4  -6 12260.9 579.661   5
   0  -4  -5 11411.0 576.786   5
   0  -4  -4 19203.8 782.848   5
   0  -4  -3 13879.3 657.456   5
   0  -4  -2 11755.9 605.213   5
   0  -4  -1 5547.26 413.095   5
   0  -4  -1 5872.35 394.336   2
   0  -4   0 11834.4 548.654   2
   0  -4   0 10967.5 617.837   5
   0  -4   1 4002.81 364.704   5
   0  -4   1 3603.95 276.539   2
   0  -4   2 13379.1 698.560   5
   0  -4   2 12819.4 535.609   2
   0  -4   3 16369.4 787.231   5
   0  -4   3 14345.7 554.148   2
   0  -4   4 14988.7 556.792   2
   0  -4   4 19912.4 885.016   5
   0  -4   5 10234.6 619.814   5
   0  -4   5 6551.09 328.418   2
   0  -4   6 13204.3 735.494   5
   0   4   6 13810.9 726.447   2
   0  -4   7 19809.2 936.147   5
   0   4   7 20931.4 948.793   2
   0   4   8 18698.4 910.915   2
   0  -4   8 17873.9 889.913   5
   0  -4   9 6182.64 509.615   5
   0   4   9 6596.11 536.190   2
   0  -4  10 13629.4 773.611   5
   0   4  10 13247.7 800.117   2
   0  -4  11 6985.61 554.541   5
   0   4  11 7269.34 594.137   2
   0  -4  11 6540.75 393.750   6
   0  -4  12 8175.54 450.943   6
   0  -4  12 9376.60 649.215   5
   0   4  12 8812.62 674.965   2
   0   4  13 1903.55 338.367   2
   0  -4  13 1535.45 184.713   6
   0  -4  13 1909.10 291.689   5
   0  -4  14 6946.99 563.425   5
   0   4  14 6472.72 608.264   2
   0  -4  14 6085.44 381.988   6
   0   4  15 4694.41 529.551   2
   0  -4  15 4460.40 325.225   6
   0  -4  15 5208.15 495.522   5
   0   4  16 5921.26 626.783   2
   0  -4  16 5363.08 518.051   5
   0  -4  16 4590.58 329.098   6
   0  -4  17 5211.61 508.988   5
   0   4  17 5097.68 589.354   2
   0  -4  17 4252.88 319.096   6
   0  -4  18 1732.65 204.385   6
   0  -4  18 1950.72 320.087   5
   0   4  18 1647.92 352.253   2
   0   4  19 5102.41 626.151   2
   0  -4  19 5532.38 546.108   5
   0  -4  20 2992.15 415.097   5
   0   4  20 3539.07 529.976   2
   0  -4  21 3391.73 446.827   5
   0   4  21 3789.09 572.322   2
   0  -4  22 2119.47 349.813   5
   0   4  22 1870.71 405.861   2
   0  -4  23 2197.16 382.239   5
   0  -5 -21 500.045 223.393   3
   0  -5 -20 2002.27 352.681   3
   0   5 -20 2164.98 407.752   4
   0  -5 -19 1245.81 256.746   3
   0   5 -19 1206.54 309.305   4
   0  -5 -18 4659.43 493.085   3
   0   5 -18 5180.20 592.504   4
   0  -5 -17 689.562 188.998   3
   0  -5 -16 1739.58 299.662   3
   0  -5 -15 822.767 208.955   3
   0  -5 -14 1358.01 252.315   3
   0  -5 -14 1334.09 203.728   5
   0  -5 -13-5.36150 107.955   3
   0  -5 -13 211.871 88.7961   5
   0  -5 -12 1962.02 248.943   5
   0  -5 -12 1353.28 259.380   3
   0  -5 -11 750.022 185.891   3
   0  -5 -11 1189.40 192.347   5
   0  -5 -10 396.242 145.271   3
   0  -5 -10 800.525 161.397   5
   0  -5  -9 748.186 164.729   5
   0  -5  -8 8133.74 513.424   5
   0  -5  -7 3433.33 327.067   5
   0  -5  -6 8358.97 531.620   5
   0  -5  -5 2000.36 271.207   5
   0  -5  -4 3936.00 375.857   5
   0  -5  -3 2611.82 308.037   5
   0  -5  -2 2596.61 302.958   5
   0  -5  -1 505.048 147.187   5
   0  -5   0-116.564 101.054   5
   0  -5   1 393.019 143.936   5
   0  -5   1 404.636 102.651   2
   0  -5   2 3415.92 370.429   5
   0  -5   2 3066.44 263.912   2
   0  -5   3 2329.05 318.338   5
   0  -5   3 2009.94 199.570   2
   0  -5   4 4136.48 425.416   5
   0  -5   4 3634.07 259.683   2
   0  -5   5 1346.84 258.106   5
   0  -5   5 975.036 137.145   2
   0   5   6 9414.57 614.713   2
   0  -5   6 9396.01 649.259   5
   0   5   7 3714.61 402.178   2
   0  -5   7 3826.65 417.211   5
   0  -5   8 7565.18 605.863   5
   0   5   8 7647.63 616.581   2
   0  -5   9 1160.43 254.288   5
   0   5   9 1122.87 254.186   2
   0  -5  10 895.199 216.031   5
   0   5  10 1056.51 243.941   2
   0  -5  11 1337.40 276.046   5
   0   5  11 1348.19 291.563   2
   0  -5  12 1464.65 273.064   5
   0   5  12 1112.61 276.202   2
   0  -5  13 112.025 134.205   5
   0   5  13-35.5949 109.364   2
   0   5  14 2223.19 387.095   2
   0  -5  14 2252.68 348.399   5
   0  -5  15 721.567 219.844   5
   0   5  15 1014.01 263.366   2
   0   5  16 1665.61 361.643   2
   0  -5  16 1680.43 301.877   5
   0   5  17 853.941 286.482   2
   0  -5  17 1279.99 286.708   5
   0   5  18 5449.20 661.664   2
   0  -5  18 5765.15 583.776   5
   0  -5  19 1137.92 266.178   5
   0   5  19 841.788 281.748   2
   0  -5  20 1262.58 286.744   5
   0   5  20 2124.27 431.763   2
   0  -5  21 165.401 139.815   5
   0  -6 -18 1150.57 305.176   3
   0  -6 -17 313.133 160.410   3
   0  -6 -16 154.502 105.942   3
   0  -6 -15 2513.21 377.784   3
   0  -6 -14 4257.66 482.529   3
   0  -6 -13 2134.33 349.177   3
   0  -6 -12 118.817 94.4292   5
   0  -6 -12 330.860 188.777   3
   0  -6 -11 2217.52 348.669   3
   0  -6 -11 4098.72 395.352   5
   0  -6 -10 7181.98 529.300   5
   0  -6  -9 4034.32 408.112   5
   0  -6  -8 581.434 160.165   5
   0  -6  -7 2741.66 326.751   5
   0  -6  -6 3351.97 373.173   5
   0  -6  -5 2977.64 357.628   5
   0  -6  -4 1111.55 233.024   5
   0  -6  -3 8319.94 609.147   5
   0  -6  -2 13486.6 792.280   5
   0  -6  -1 9125.99 647.429   5
   0  -6   0 128.725 123.233   5
   0  -6   1 7363.74 582.639   5
   0  -6   2 13300.5 813.533   5
   0  -6   3 9913.63 692.206   5
   0  -6   4 859.768 214.723   5
   0  -6   5 2468.78 364.906   5
   0  -6   6 3617.48 433.311   5
   0  -6   7 3547.55 442.143   5
   0  -6   8 611.385 200.595   5
   0  -6   9 3681.42 449.000   5
   0   6  10 7814.53 655.961   2
   0  -6  10 7184.12 652.769   5
   0  -6  11 4964.46 526.811   5
   0   6  11 4223.46 513.245   2
   0  -6  12 402.530 173.076   5
   0   6  12 442.559 177.369   2
   0   6  13 2068.49 383.390   2
   0  -6  13 2400.13 383.388   5
   0   6  14 6353.26 671.032   2
   0  -6  14 5446.13 580.755   5
   0   6  15 3288.41 491.496   2
   0  -6  15 4027.43 497.433   5
   0  -6  16 80.9436 115.010   5
   0   6  16 231.185 145.390   2
   0   6  17 846.895 265.866   2
   0   6  18 1377.57 379.144   2
   0  -7 -11 193.337 112.950   3
   0  -7 -10 159.633 129.065   5
   0  -7 -10 587.709 214.183   3
   0  -7  -9 1597.00 283.723   5
   0  -7  -8 638.472 188.817   5
   0  -7  -7 321.098 170.313   5
   0  -7  -6 127.173 120.170   5
   0  -7  -5 1513.31 285.738   5
   0  -7  -4 172.393 122.917   5
   0  -7  -3 1053.67 243.479   5
   0  -7  -2 851.554 233.974   5
   0  -7  -1 1261.42 281.513   5
   0  -7   0 218.187 137.506   5
   0  -7   1 1448.31 300.078   5
   0  -7   2 378.282 136.864   5
   0  -7   3 1476.05 302.969   5
   0  -7   4 253.765 135.400   5
   0  -7   5 1523.76 308.936   5
   0  -7   6 156.524 147.548   5
   0  -7   7 548.241 192.352   5
   0  -7   8 1512.95 303.238   5
   0  -7   9 1729.36 341.867   5
   1   0 -10 19.8792 31.2031   1
   1   0 -10-13.0829 50.1251   4
   1   0  -9 26189.9 837.383   4
   1   0  -9 23713.7 702.766   1
   1   0  -8 46.3761 45.7050   1
   1   0  -8-2.06898 28.8674   4
   1   0  -7 41218.3 1072.56   4
   1   0  -7 39540.4 956.863   1
   1   0  -6-3.38830 28.2875   4
   1   0  -5 75430.2 1617.50   2
   1   0  -5 76413.0 1556.08   4
   1   0  -4-14.2772 20.8546   4
   1   0  -4 7.10326 14.5819   5
   1   0  -4 10.3657 27.7220   2
   1   0  -3 26383.8 741.233   2
   1   0  -3 27410.7 675.332   4
   1   0  -3 25827.6 601.737   3
   1   0  -3 27281.8 550.400   5
   1   0  -2 4.07182 9.77949   6
   1   0  -2 1.15715 14.1434   4
   1   0  -2 3.11218 11.9331   3
   1   0  -2 54.7615 32.6223   2
   1   0  -1 3900.05 158.996   4
   1   0   2-15.4800 19.2934   6
  -1   0   2 11.9380 8.73529   6
  -1   0   2 9.63899 8.11318   5
  -1   0   3 24642.2 513.922   6
  -1   0   3 25311.1 505.030   5
   1   0   3 25070.9 588.437   6
  -1   0   4 8.65868 9.61141   5
  -1   0   4 23.5990 20.5261   1
   1   0   4 6.00752 28.5110   6
   1   0   5 66242.0 1403.91   6
  -1   0   5 67414.1 1631.91   2
  -1   0   5 72064.7 1391.18   1
  -1   0   5 66585.1 1271.78   5
   1   0   6-5.66644 16.0731   4
  -1   0   6-16.4856 46.2828   2
  -1   0   6 16.4068 12.7223   5
   1   0   6 66.7958 46.1451   6
  -1   0   6 17.9868 27.6014   1
   1   0   7 35526.0 784.031   3
  -1   0   7 37101.0 1112.20   2
   1   0   7 36347.0 870.285   6
   1   0   7 35025.1 830.138   4
  -1   0   7 37355.0 837.379   1
  -1   0   7 32074.9 761.438   5
  -1   0   8 24.3475 35.3907   1
  -1   0   8 0.43711 21.4748   5
   1   0   8 1.54265 22.5491   4
   1   0   8 112.740 53.2805   6
  -1   0   8 14.0084 38.7997   2
   1   0   8 3.96315 22.5255   3
  -1   0   9 21034.5 867.826   2
  -1   0   9 19471.6 579.217   5
   1   0   9 21720.5 577.060   3
   1   0   9 22371.1 646.274   6
  -1   0   9 21935.2 610.873   1
   1   0   9 22020.0 637.220   4
   1   0  10-11.1623 26.1109   1
   1   0  10-4.91576 22.4434   3
   1   0  10-19.5248 34.5936   4
  -1   0  10 21.7069 49.0028   2
  -1   0  10 4.49942 22.4070   1
  -1   0  10 10.6566 28.4838   5
   1   0  10-25.4701 33.7116   6
  -1   0  11 947.723 95.6152   6
  -1   0  11 941.870 110.954   5
  -1   0  11 1154.57 162.544   4
  -1   0  11 990.605 190.960   2
   1   0  11 986.752 129.131   4
  -1   0  11 1172.83 120.828   1
   1   0  11 925.502 119.535   6
   1   0  11 965.815 102.832   1
   1   0  11 963.977 109.193   3
   1   0  12 38.9166 29.5639   4
  -1   0  12 6.14933 27.9664   1
   1   0  12 25.6625 30.0273   1
   1   0  12 54.2371 45.8829   6
  -1   0  12 9.82543 44.2915   4
  -1   0  12 54.5104 72.9717   2
  -1   0  12 5.98078 29.3508   6
  -1   0  12 6.05912 42.7001   5
   1   0  13 941.840 137.638   4
  -1   0  13 869.934 123.898   5
  -1   0  13 1079.31 114.215   6
   1   0  13 905.792 107.072   1
  -1   0  13 921.954 204.043   2
   1   0  13 958.578 129.455   6
  -1   0  13 1092.38 129.634   1
   1   0  14-33.3359 51.4076   3
  -1   0  14 64.3913 42.5972   1
   1   0  14 72.2654 47.0946   4
  -1   0  14 9.44194 36.1304   5
  -1   0  14 46.9534 71.0255   2
   1   0  14 56.1651 41.3877   1
  -1   0  14-17.6420 30.6582   6
   1   0  14 23.5437 56.9076   6
  -1   0  15 7932.90 634.382   2
   1   0  15 7608.81 343.985   1
  -1   0  15 7063.76 397.150   5
   1   0  15 7729.25 411.169   6
   1   0  15 8180.71 457.906   4
  -1   0  15 7971.97 356.669   6
  -1   0  15 8379.97 393.239   1
  -1   0  16 22.6332 45.7920   6
  -1   0  16 40.2481 55.4884   5
   1   0  16 110.248 69.6106   6
   1   0  16-3.69943 37.0002   1
  -1   0  17 15334.7 644.081   5
  -1   0  17 16994.6 589.088   6
   1   0  17 16463.4 557.192   1
  -1   0  17 15590.4 990.013   2
   1   0  17 16772.2 670.344   6
  -1   0  18 117.718 69.8697   6
   1   0  18 161.105 109.824   6
  -1   0  18 92.1388 58.6440   5
   1   0  18 27.3982 38.2211   1
  -1   0  18 102.159 105.391   2
   1   0  19 15288.9 687.208   6
  -1   0  19 15430.4 1044.27   2
  -1   0  19 17339.0 619.304   6
  -1   0  19 14941.5 642.761   5
  -1   0  20 30.8244 50.8177   6
   1   0  20 29.9867 75.9697   6
  -1   0  20 237.036 182.452   2
   1   0  21 9734.00 550.488   6
  -1   0  21 10445.1 491.792   6
  -1   0  21 8246.10 822.293   2
   1   0  22-19.9038 83.5468   6
  -1   0  22 8.58095 49.5289   6
   1   0  23 813.793 161.308   6
  -1   0  23 456.378 245.086   2
   1   0  24-62.2639 99.2534   6
  -1   0  24-8.48227 115.058   2
   1   0  25 399.630 199.167   2
  -1   0  25 857.047 316.038   2
   1   0  25 798.297 168.291   6
   1   0  26-102.127 130.513   2
   1   0  26 147.269 100.647   6
   1  -1 -17 1878.72 227.438   1
   1   1 -17 1665.24 263.057   4
   1   1 -16 5212.95 440.628   4
   1   1 -15 3371.42 341.599   4
   1   1 -14 13663.2 689.025   4
   1   1 -13 4944.10 387.527   4
   1  -1 -12 21606.9 738.635   3
  -1   1 -12 21690.6 739.799   4
   1   1 -12 22794.7 864.165   4
   1  -1 -12 21381.2 682.164   1
   1   1 -11 6705.54 420.815   4
   1  -1 -11 6238.12 349.685   3
  -1   1 -11 7121.34 359.490   4
   1  -1 -11 6780.48 323.735   1
   1   1 -10 13058.4 581.222   4
  -1   1 -10 11923.4 469.408   4
   1  -1 -10 13496.0 459.759   1
   1  -1 -10 12810.8 495.719   3
   1   1  -9 7440.13 408.282   4
  -1   1  -9 6691.87 323.211   6
  -1   1  -9 7042.69 319.142   4
   1  -1  -9 7314.00 306.465   1
  -1  -1  -9 6523.01 282.998   3
   1  -1  -9 6668.02 328.924   3
   1   1  -8 10168.8 471.068   4
  -1  -1  -8 9171.12 326.293   3
  -1   1  -8 9453.09 379.013   6
  -1   1  -8 9774.96 364.237   4
   1  -1  -8 9390.34 388.665   3
   1  -1  -8 10012.8 355.335   1
   1  -1  -7 2776.84 186.446   3
  -1   1  -7 2256.32 155.143   4
   1  -1  -7 2654.91 269.855   2
  -1   1  -7 2523.44 173.492   6
  -1  -1  -7 2383.11 143.281   3
   1   1  -6 8368.48 209.302   6
  -1  -1  -6 8612.02 278.688   3
   1  -1  -6 8863.27 483.853   2
   1   1  -6 8385.54 367.060   5
   1  -1  -6 8959.86 342.495   3
   1   1  -5 5154.38 278.368   5
   1  -1  -5 4787.45 229.785   3
   1  -1  -5 5276.44 351.767   2
  -1  -1  -5 4577.61 180.276   3
  -1  -1  -5 4941.38 216.922   5
   1  -1  -4 11030.1 299.361   5
   1   1  -4 9808.84 413.224   5
   1  -1  -4 10838.9 363.473   3
   1  -1  -4 11417.0 528.116   2
  -1  -1  -4 11544.0 355.869   5
  -1  -1  -3 21567.4 440.884   1
   1   1  -3 22940.9 510.681   2
  -1  -1  -3 21160.3 557.323   5
   1   1  -3 21023.7 463.732   6
   1  -1  -3 21164.1 504.243   5
   1  -1  -3 22756.8 753.878   2
   1  -1  -3 21077.2 565.933   3
   1  -1  -2 26125.3 800.179   2
  -1  -1  -2 25982.9 552.671   1
  -1  -1  -2 27316.4 644.401   5
   1  -1  -1 9150.53 318.385   6
  -1  -1  -1 9446.41 306.576   5
  -1  -1  -1 8999.04 259.346   1
   1   1   0 28830.5 666.922   1
   1  -1   0 29799.8 693.194   6
  -1  -1   0 29135.7 654.857   1
  -1  -1   0 28927.1 690.417   5
   1  -1   1 7712.01 271.266   6
   1   1   1 7854.54 241.320   1
  -1  -1   1 7774.12 265.099   1
  -1  -1   1 7953.99 285.221   5
   1   1   2 25580.5 560.192   1
  -1  -1   2 26461.6 638.143   1
  -1  -1   2 26322.6 663.963   5
   1  -1   2 26464.5 630.345   6
  -1  -1   3 18050.9 501.433   1
  -1  -1   3 17598.1 515.667   5
  -1  -1   3 17503.2 441.879   2
   1  -1   3 17366.8 475.198   6
  -1  -1   4 12151.7 428.712   5
  -1  -1   4 12650.4 413.036   2
  -1  -1   4 13011.5 414.750   1
   1  -1   4 12585.6 383.438   6
  -1  -1   5 3640.59 223.285   2
   1   1   5 3717.60 186.284   5
  -1  -1   5 3585.21 205.945   1
  -1  -1   5 3276.85 223.351   5
   1  -1   5 3503.07 181.009   6
  -1  -1   6 8413.46 205.957   6
   1  -1   6 8217.78 306.621   6
  -1  -1   6 8401.86 388.824   5
   1   1   6 8491.57 302.534   5
  -1  -1   6 8297.58 344.465   1
  -1  -1   6 7817.64 379.626   2
  -1  -1   7 2161.82 208.723   2
   1  -1   7 1994.37 146.027   6
  -1  -1   7 2055.09 88.2101   6
  -1  -1   7 1876.27 184.954   5
   1   1   7 2109.09 140.157   5
  -1  -1   7 2239.07 173.651   1
   1   1   8 8201.16 303.171   3
   1  -1   8 8163.86 327.203   6
  -1  -1   8 7777.85 413.615   5
  -1  -1   8 8418.11 230.999   6
  -1  -1   8 8440.37 461.218   2
   1   1   8 8348.00 311.121   5
  -1  -1   8 8449.35 372.778   1
   1   1   9 6855.83 281.159   5
   1  -1   9 6532.08 295.387   6
  -1  -1   9 7321.18 454.883   2
  -1  -1   9 7115.67 345.073   1
   1   1   9 6622.27 283.128   3
  -1  -1   9 6876.11 214.705   6
  -1  -1   9 6444.06 390.585   5
   1   1  10 10655.3 382.203   3
  -1  -1  10 11298.7 538.530   5
   1  -1  10 10142.6 394.124   6
  -1  -1  10 10093.8 572.015   2
  -1  -1  10 10940.1 448.614   1
   1   1  10 9778.73 361.512   5
  -1  -1  10 10038.2 295.247   6
  -1  -1  11 7366.10 364.771   1
  -1  -1  11 6671.22 238.965   6
  -1  -1  11 7398.85 439.634   5
   1  -1  11 6741.98 320.261   6
   1   1  11 6498.51 353.004   6
   1   1  11 6788.51 296.118   5
  -1   1  11 7578.67 432.873   4
   1   1  11 6894.64 312.150   3
  -1  -1  11 7112.85 499.010   2
  -1  -1  12 19317.0 767.767   5
   1   1  12 16707.1 526.125   5
   1   1  12 17177.3 634.969   6
  -1  -1  12 17395.7 851.077   2
  -1  -1  12 16503.6 457.760   6
   1  -1  12 16683.2 575.366   6
  -1  -1  12 18361.0 640.953   1
  -1   1  12 17837.1 906.453   2
  -1   1  13 3539.81 400.237   2
   1  -1  13 3536.81 243.423   6
  -1  -1  13 4030.81 341.591   5
   1   1  13 3758.02 297.897   4
  -1  -1  13 3474.07 178.880   6
  -1  -1  13 3573.99 390.055   2
   1  -1  13 3686.33 282.242   1
   1   1  13 3576.84 269.743   6
   1   1  13 3523.96 214.811   5
  -1   1  13 2972.78 107.272   5
  -1   1  14 12452.4 777.604   2
   1   1  14 10887.9 549.355   4
   1   1  14 11550.6 425.007   5
  -1  -1  14 11616.6 739.035   2
  -1  -1  14 13533.7 656.634   5
   1  -1  14 11331.8 518.719   1
  -1   1  14 9482.95 255.379   5
   1   1  14 12910.0 489.439   3
  -1  -1  14 11494.1 373.511   6
   1  -1  14 11776.0 479.093   6
   1   1  14 12360.1 536.122   6
  -1   1  15 1461.69 75.2285   5
   1   1  15 2022.43 222.751   6
  -1  -1  15 2038.98 148.336   6
   1  -1  15 2337.82 212.448   6
   1  -1  15 1997.91 202.856   1
  -1  -1  15 2158.17 333.439   2
  -1   1  15 2183.90 331.413   2
   1   1  15 1797.28 161.563   5
  -1   1  15 1449.22 107.661   5
  -1  -1  15 2160.58 271.484   5
  -1   1  16 2879.63 157.630   5
  -1  -1  16 4418.93 382.551   5
   1  -1  16 4514.26 295.069   6
   1   1  16 4536.67 330.477   6
   1   1  16 4048.53 253.910   5
  -1   1  16 4208.82 473.561   2
   1  -1  16 4049.85 298.000   1
  -1  -1  16 4461.30 496.331   2
  -1  -1  16 4523.41 229.263   6
  -1   1  17 685.364 72.7373   5
  -1  -1  17 1064.83 197.563   5
  -1   1  17 1209.70 153.006   6
  -1  -1  17 1222.36 123.914   6
   1   1  17 1156.60 179.246   6
  -1  -1  17 1109.28 271.674   2
  -1   1  17 746.801 52.8952   5
  -1   1  17 1123.47 255.454   2
   1   1  17 1136.75 134.697   5
   1  -1  17 1526.18 181.849   6
  -1   1  18 3390.38 463.758   2
  -1   1  18 3491.50 272.527   6
  -1  -1  18 3443.79 474.337   2
  -1  -1  18 3910.58 381.597   5
   1  -1  18 3560.60 276.712   6
  -1  -1  18 3656.84 217.346   6
   1   1  18 3466.74 309.452   6
  -1   1  19-0.71831 85.0428   2
   1  -1  19 424.003 112.681   6
  -1   1  19 107.258 68.4873   6
  -1  -1  19 451.201 136.361   5
  -1  -1  19 405.217 79.7844   6
  -1  -1  19 36.0995 81.0045   2
   1   1  19 418.030 130.184   6
   1  -1  20 1922.40 221.803   6
  -1   1  20 1969.38 225.380   6
  -1  -1  20 1784.18 164.649   6
  -1  -1  20 1883.14 276.864   5
   1   1  20 1924.90 241.091   6
  -1   1  20 2051.46 403.914   2
  -1  -1  20 1400.96 326.552   2
  -1   1  21 2894.81 278.390   6
   1  -1  21 2773.10 271.622   6
  -1  -1  21 2980.96 219.141   6
  -1  -1  21 2343.80 440.755   2
   1   1  21 2776.37 308.282   6
  -1   1  21 2548.13 455.313   2
  -1   1  22 3300.47 302.184   6
  -1   1  22 2692.14 464.217   2
   1   1  22 3162.05 329.035   6
   1  -1  22 3069.19 296.787   6
  -1  -1  22 3158.98 530.554   2
  -1  -1  23 1172.15 374.748   2
   1   1  23 1329.46 219.911   6
   1  -1  23 1928.88 241.685   6
  -1   1  23 1520.27 208.191   6
   1   1  23 1870.27 379.512   2
  -1   1  23 1747.00 397.304   2
  -1  -1  24 3585.35 590.929   2
  -1   1  24 4840.66 375.528   6
   1   1  24 4610.73 411.629   6
   1   1  24 4374.63 590.985   2
   1  -1  24 4928.91 389.042   6
  -1   1  24 5081.93 704.422   2
   1  -1  25 950.631 198.146   6
   1   1  25 712.941 251.494   2
  -1   1  25 1150.34 347.918   2
   1   1  25 544.055 166.840   6
  -1  -1  25 650.873 276.424   2
  -1  -1  26 2630.49 556.349   2
   1   1  26 2615.19 329.421   6
   1   1  27 489.676 159.629   6
  -1  -1  27-39.6949 154.199   2
   1   2 -21 3190.83 429.860   4
   1   2 -20 1763.73 314.449   4
   1  -2 -19 576.790 127.005   1
   1   2 -19 719.630 191.889   4
   1   2 -18 740.496 195.265   4
  -1   2 -17 1249.19 207.392   4
   1   2 -17 1106.49 225.654   4
  -1   2 -16 3635.85 333.655   4
   1  -2 -16 3913.35 347.284   3
   1   2 -16 4149.27 423.667   4
  -1   2 -15 4495.75 360.817   4
   1  -2 -15 5116.66 377.087   3
   1   2 -15 4451.24 419.598   4
   1   2 -14 9629.20 602.603   4
  -1   2 -14 9680.80 518.966   4
  -1  -2 -14 9653.61 467.994   3
   1  -2 -14 9261.75 509.401   3
   1  -2 -13 9541.70 497.318   3
  -1  -2 -13 8305.24 425.439   3
  -1   2 -13 9056.49 480.679   4
   1   2 -13 9588.14 585.078   4
   1  -2 -12 11875.5 456.544   1
  -1   2 -12 11894.3 541.984   4
   1  -2 -12 11695.8 543.126   3
   1   2 -12 12285.9 655.438   4
  -1  -2 -12 11587.1 490.701   3
  -1   2 -12 11732.6 515.273   6
   1  -2 -11 14203.1 589.784   3
   1  -2 -11 14146.7 488.092   1
  -1   2 -11 12903.5 555.989   4
  -1   2 -11 13825.5 547.687   6
   1   2 -11 12648.6 404.722   6
  -1  -2 -11 13793.5 525.464   3
   1   2 -10 10967.7 352.941   6
  -1  -2 -10 12049.8 464.557   3
   1  -2 -10 11630.7 507.366   3
  -1  -2  -9 7255.38 335.872   3
   1   2  -9 6728.88 253.176   6
   1  -2  -9 6509.60 364.057   3
   1  -2  -9 7416.61 238.636   5
   1  -2  -8 4737.28 299.164   3
  -1  -2  -8 4592.62 256.981   3
   1   2  -8 4572.69 193.175   6
  -1  -2  -8 4459.26 257.407   5
   1  -2  -8 4791.73 192.395   5
  -1  -2  -7 4026.63 236.643   3
   1   2  -7 3877.43 304.225   5
   1  -2  -7 3802.48 355.676   2
  -1   2  -7 3554.87 234.363   6
   1  -2  -7 3914.72 264.044   3
  -1  -2  -7 3981.88 236.918   5
   1   2  -7 3844.93 173.438   6
   1  -2  -7 3757.09 177.852   5
   1  -2  -6 2698.57 288.996   2
   1   2  -6 2619.25 254.319   5
  -1  -2  -6 3024.60 204.558   5
   1  -2  -6 2623.20 159.483   5
  -1   2  -6 2847.49 205.865   6
   1  -2  -6 2852.89 222.940   3
  -1  -2  -6 2415.53 120.219   1
   1   2  -6 2639.93 143.201   6
  -1   2  -5 3103.61 210.868   6
  -1  -2  -5 3093.11 203.585   5
   1  -2  -5 2742.53 281.958   2
   1   2  -5 2937.22 156.811   6
   1  -2  -5 2904.90 184.151   5
   1  -2  -4 4909.76 265.121   5
   1  -2  -4 5267.12 387.524   2
   1   2  -4 5697.08 243.342   6
  -1  -2  -4 5454.98 277.649   5
   1  -2  -3 10198.7 413.911   5
   1  -2  -3 10767.2 550.186   2
   1   2  -3 10776.7 382.483   6
  -1  -2  -3 10386.0 404.115   5
   1  -2  -2 11987.1 562.202   2
   1  -2  -2 12499.0 468.965   5
  -1  -2  -2 12618.6 457.498   5
  -1  -2  -1 11528.4 447.287   5
   1  -2  -1 11022.3 507.053   2
   1  -2  -1 12460.6 465.061   5
  -1  -2  -1 11442.5 440.938   1
   1   2   0 14918.5 399.637   2
   1  -2   0 15355.7 534.628   5
  -1  -2   0 14800.3 539.870   5
   1  -2   0 14733.9 531.227   6
  -1  -2   0 14809.8 532.908   1
  -1  -2   1 10696.2 455.501   5
  -1  -2   1 11368.9 462.145   1
   1  -2   1 11128.6 450.647   5
   1  -2   1 11283.0 433.261   6
  -1  -2   2 14820.3 553.640   1
   1  -2   2 14480.5 491.045   6
  -1  -2   2 13425.8 543.332   5
  -1  -2   3 8567.72 425.892   5
   1  -2   3 8239.66 342.129   6
  -1  -2   3 8024.95 403.687   1
   1  -2   4 5438.36 271.484   6
  -1  -2   4 5153.77 339.836   5
  -1  -2   4 5636.35 338.988   1
   1   2   4 5804.34 292.400   5
  -1  -2   5 2783.34 257.731   5
  -1  -2   5 2537.42 227.438   1
   1   2   5 2923.80 200.284   5
   1  -2   5 2509.26 179.918   6
  -1  -2   5 2225.38 129.494   2
  -1  -2   6 3053.21 250.038   1
   1   2   6 3042.80 203.952   5
  -1  -2   6 2490.76 173.464   2
  -1  -2   6 2623.97 259.818   5
   1  -2   6 2881.55 190.900   6
  -1  -2   7 3756.39 290.458   1
  -1  -2   7 4292.64 344.669   5
  -1  -2   7 3505.67 240.895   2
  -1   2   7 3829.93 240.417   5
   1  -2   7 4022.15 232.290   6
   1   2   7 4556.41 248.365   5
  -1  -2   8 3732.48 274.940   2
  -1  -2   8 4166.36 348.708   5
   1   2   8 4027.76 237.049   5
  -1  -2   8 3824.47 186.950   6
  -1   2   8 3504.54 223.246   5
   1  -2   8 4016.54 235.635   6
  -1  -2   8 4079.46 301.906   1
   1  -2   9 6245.20 307.823   6
  -1  -2   9 6100.86 243.329   6
   1   2   9 6566.69 307.212   5
  -1  -2   9 5798.15 377.901   1
  -1   2   9 5976.81 289.654   5
  -1  -2   9 7032.87 468.098   5
  -1  -2   9 6023.93 387.245   2
  -1  -2  10 11129.9 611.056   5
   1  -2  10 9210.15 393.540   6
  -1  -2  10 7999.08 489.030   2
   1   2  10 9533.60 385.887   5
  -1  -2  10 9125.19 308.944   6
  -1   2  10 9597.37 364.699   5
  -1   2  11 14453.8 819.812   2
  -1  -2  11 12666.6 389.629   6
   1  -2  11 12652.9 490.415   6
  -1  -2  11 12745.6 667.728   2
  -1   2  11 13125.2 435.447   5
   1   2  11 13101.2 474.109   5
  -1   2  12 10521.8 712.078   2
  -1   2  12 9985.74 349.283   5
   1  -2  12 9449.94 419.563   6
  -1  -2  12 8508.24 572.840   2
  -1  -2  12 9451.20 328.246   6
   1   2  12 10019.4 405.921   5
  -1  -2  12 11252.7 650.392   5
   1  -2  13 6854.56 358.288   6
  -1   2  13 7506.98 611.605   2
   1   2  13 6831.55 330.706   5
  -1  -2  13 6609.28 267.905   6
  -1  -2  13 6061.30 503.547   2
  -1  -2  13 7852.75 546.461   5
  -1   2  13 6844.02 265.773   5
   1  -2  14 8317.47 406.704   6
  -1   2  14 9153.50 695.336   2
   1   2  14 8455.67 380.986   5
  -1  -2  14 8206.35 615.723   2
  -1   2  14 7989.48 277.433   5
  -1  -2  14 8174.07 310.941   6
  -1  -2  15 3698.69 396.276   5
   1   2  15 3341.31 233.912   5
  -1  -2  15 3272.83 400.958   2
  -1  -2  15 3299.86 191.308   6
  -1   2  15 3382.97 436.281   2
   1  -2  15 3289.31 256.740   6
  -1  -2  16 4446.05 438.430   5
  -1  -2  16 3146.32 193.510   6
   1  -2  16 3307.48 258.753   6
  -1  -2  16 3046.63 401.538   2
  -1   2  16 3176.91 437.471   2
   1   2  16 3150.60 231.601   5
  -1  -2  17 889.116 233.488   2
   1   2  17 876.702 162.548   6
  -1  -2  17 1432.83 259.316   5
   1  -2  17 1022.34 149.093   6
  -1   2  17 762.087 238.419   2
  -1  -2  17 1074.92 114.555   6
   1   2  18 957.299 252.938   2
  -1  -2  18 981.541 235.145   5
   1  -2  18 1010.18 154.450   6
   1   2  18 772.921 163.269   6
  -1  -2  18 1007.86 264.975   2
  -1   2  18 979.395 260.392   2
  -1  -2  18 935.911 112.925   6
   1   2  19 704.275 221.842   2
  -1   2  19 681.970 241.476   2
   1  -2  19 499.804 114.691   6
  -1  -2  19 858.702 222.606   5
  -1  -2  19 751.130 101.196   6
  -1  -2  19 363.540 171.679   2
   1   2  19 595.849 139.206   6
   1   2  20 838.196 173.380   6
   1  -2  20 897.822 156.478   6
  -1  -2  20 1086.50 255.357   5
  -1   2  20 969.397 275.629   2
   1   2  20 1120.05 285.130   2
  -1  -2  20 794.748 246.099   2
   1  -2  21 2543.43 316.316   5
   1  -2  21 2960.97 274.688   6
   1   2  21 3236.74 476.376   2
  -1  -2  21 2273.90 440.346   2
   1   2  21 2994.68 329.080   6
  -1   2  21 2284.68 262.442   6
  -1   2  21 3361.84 518.453   2
  -1  -2  21 3512.20 433.365   5
   1   2  22 2308.15 424.589   2
   1   2  22 1361.22 216.854   6
   1  -2  22 1297.12 191.814   6
  -1  -2  22 1242.57 330.353   2
  -1   2  22 1389.56 349.685   2
  -1   2  22 1186.36 187.139   6
   1  -2  22 1249.02 241.509   5
   1   2  23 2826.03 481.483   2
   1  -2  23 3232.54 308.806   6
  -1   2  23 2779.82 296.910   6
   1  -2  23 2703.07 358.641   5
   1   2  23 3171.31 347.219   6
  -1  -2  23 1944.05 417.242   2
  -1   2  23 3828.81 601.306   2
  -1  -2  24 1310.68 370.886   2
   1   2  24 2499.43 312.475   6
   1  -2  24 2305.71 334.130   5
   1  -2  24 2449.75 267.342   6
   1   2  24 2509.37 460.651   2
  -1   2  24 2142.04 272.216   6
  -1   2  24 2686.29 507.077   2
   1   2  25 1528.04 256.181   6
  -1   2  25 1905.12 259.106   6
  -1  -2  25 919.998 334.347   2
   1   2  26 2151.71 290.695   6
   1   3 -24 756.784 294.175   4
   1   3 -23 547.897 211.650   4
   1   3 -22 232.752 128.669   4
   1   3 -21 5338.58 585.565   4
  -1   3 -21 4795.71 486.316   4
   1   3 -20 1197.36 283.810   4
  -1   3 -20 863.680 209.377   4
   1   3 -19 10547.6 775.048   4
  -1   3 -19 9089.45 637.911   4
   1  -3 -19 10611.4 681.524   3
  -1  -3 -18 1537.69 241.323   3
  -1   3 -18 1549.10 265.714   4
   1   3 -18 1825.25 317.201   4
   1  -3 -18 1821.23 274.966   3
  -1   3 -17 10387.6 645.218   4
   1   3 -17 9998.04 726.413   4
   1  -3 -17 10562.8 642.412   3
  -1  -3 -17 10444.0 590.385   3
  -1  -3 -16 409.564 126.073   3
   1  -3 -16 660.804 171.365   3
   1   3 -16 527.259 179.093   4
  -1   3 -16 555.234 151.537   4
   1   3 -15 4966.50 476.749   4
  -1   3 -15 4142.96 373.593   4
  -1  -3 -15 4338.40 357.882   3
   1  -3 -15 4983.85 415.665   3
  -1  -3 -14 503.510 130.617   3
   1  -3 -14 521.281 142.662   3
   1   3 -14 438.554 79.3176   6
  -1   3 -14 421.237 116.038   4
  -1  -3 -13 421.922 107.940   3
   1  -3 -13 603.453 154.419   3
   1   3 -13 386.875 68.6129   6
  -1  -3 -12 175.422 83.9887   3
   1  -3 -12 121.738 47.9654   5
   1   3 -12 92.1085 46.8262   6
   1  -3 -12 324.846 117.820   3
   1  -3 -11 583.297 87.1824   5
   1  -3 -11 695.070 146.878   3
  -1  -3 -11 503.570 111.190   3
  -1  -3 -11 656.708 118.187   5
   1   3 -11 645.153 93.5746   6
  -1  -3 -10 520.295 103.079   5
   1  -3 -10 403.412 70.5117   5
   1   3 -10 460.976 77.7231   6
   1  -3 -10 446.086 122.041   3
  -1  -3 -10 356.565 100.435   3
   1  -3  -9 9599.37 531.281   3
  -1   3  -9 10251.9 486.629   6
  -1  -3  -9 10755.2 479.233   5
   1  -3  -9 9594.52 383.581   5
   1   3  -9 9916.92 385.684   6
  -1  -3  -9 9293.22 478.822   3
   1  -3  -8 2368.11 258.351   3
   1  -3  -8 2275.66 180.312   5
   1   3  -8 2497.12 180.936   6
  -1  -3  -8 2575.39 225.598   5
  -1   3  -8 2537.45 228.638   6
   1  -3  -7 18741.3 910.557   2
   1  -3  -7 20380.5 651.792   5
  -1   3  -7 20511.8 720.716   6
   1   3  -7 18521.3 592.352   6
  -1  -3  -7 18503.3 678.123   5
   1  -3  -6 3657.28 252.804   5
  -1  -3  -6 3631.58 265.709   5
   1   3  -6 3407.46 336.467   5
   1   3  -6 3348.28 222.408   6
   1  -3  -6 3503.24 361.849   2
  -1   3  -6 3786.48 279.197   6
  -1   3  -5 25247.4 817.562   6
   1  -3  -5 22983.9 964.796   2
  -1  -3  -5 22556.7 761.752   5
   1   3  -5 23887.7 722.316   6
   1  -3  -5 23380.0 767.168   5
   1  -3  -4 2058.07 205.210   5
  -1  -3  -4 2131.07 205.030   5
   1  -3  -4 1978.17 259.250   2
   1   3  -4 2170.54 195.644   6
   1  -3  -3 10247.3 589.349   2
   1  -3  -3 9775.92 484.738   5
   1   3  -3 10393.4 462.492   6
  -1  -3  -3 9903.74 472.681   5
   1  -3  -2 758.007 158.278   2
   1   3  -2 1011.63 136.973   6
  -1  -3  -2 879.995 143.771   5
   1  -3  -2 1240.31 167.479   5
   1  -3  -1 1937.47 212.853   5
  -1  -3  -1 1669.80 197.580   5
   1  -3  -1 1944.95 225.519   2
  -1  -3   0 24.0680 59.4197   5
   1  -3   0-22.5906 56.5444   2
   1  -3   0-24.7325 53.6844   5
   1   3   0 3.13679 24.4997   2
  -1  -3   1 1089.63 166.991   5
   1   3   1 1062.00 131.590   2
   1  -3   1 1274.24 167.036   2
   1  -3   1 929.372 151.689   5
   1   3   2 1000.18 136.116   2
  -1  -3   2 1022.15 170.066   5
   1   3   2 1127.17 170.533   5
   1  -3   2 922.087 135.563   6
   1  -3   2 1091.56 171.829   5
   1  -3   3 10533.5 540.417   5
   1   3   3 11329.1 533.319   5
  -1  -3   3 9912.61 557.803   5
   1  -3   3 10502.3 484.511   6
  -1  -3   3 11017.0 620.172   1
   1   3   3 11050.3 482.458   2
   1   3   4 1941.74 213.506   5
   1  -3   4 1654.74 211.311   5
  -1  -3   4 1698.88 239.406   1
  -1  -3   4 1667.73 223.777   5
   1  -3   4 1934.70 191.097   6
   1   3   4 1974.91 196.921   2
   1  -3   5 22272.5 736.735   6
   1   3   5 22784.2 796.487   2
  -1  -3   5 22288.2 913.533   5
   1  -3   5 21369.7 828.464   5
  -1  -3   5 22998.0 961.539   1
   1   3   5 24240.3 800.871   5
   1   3   6 2824.03 242.128   5
  -1  -3   6 2684.97 310.204   5
  -1   3   6 2757.59 318.341   2
   1  -3   6 2769.94 269.593   5
   1  -3   6 2591.31 216.757   6
   1   3   7 19153.7 665.405   5
  -1  -3   7 19643.0 863.167   5
  -1   3   7 17511.8 705.304   5
   1  -3   7 16906.0 719.662   5
   1  -3   7 17674.5 617.606   6
  -1   3   7 19446.9 885.638   2
  -1  -3   8 1951.32 162.371   2
   1  -3   8 2219.03 253.228   5
  -1   3   8 2345.25 236.243   5
   1  -3   8 2544.30 212.914   6
  -1   3   8 2312.72 321.066   2
   1   3   8 2648.10 273.700   2
  -1  -3   8 2929.57 332.929   5
   1   3   8 2491.73 221.949   5
   1   3   9 9967.37 464.187   5
  -1  -3   9 11163.0 673.025   5
  -1   3   9 9103.03 476.377   5
   1  -3   9 8364.39 502.443   5
   1   3   9 9232.13 554.027   2
   1  -3   9 9161.51 427.477   6
  -1   3   9 9788.42 665.917   2
   1   3  10 496.995 103.754   5
  -1  -3  10 468.158 156.751   5
   1  -3  10 250.844 98.3755   5
   1  -3  10 451.866 102.832   6
  -1   3  10 371.526 104.257   5
   1   3  10 385.347 122.232   2
  -1   3  10 663.557 188.290   2
  -1   3  11 756.130 190.471   2
   1   3  11 678.927 119.394   5
  -1  -3  11 790.076 187.709   5
   1   3  11 645.723 161.969   2
   1  -3  11 457.025 124.995   5
  -1   3  11 453.609 98.5243   5
   1  -3  11 534.180 107.326   6
  -1  -3  11 542.858 117.312   2
  -1   3  12 475.059 165.010   2
  -1  -3  12 150.147 54.9105   6
  -1   3  12 121.461 52.9397   5
   1   3  12 352.403 93.2272   5
   1   3  12 228.617 112.991   2
  -1  -3  12 463.949 158.567   5
   1  -3  12 290.799 99.2349   5
  -1  -3  12 215.563 96.4436   2
   1  -3  12 138.348 63.8127   6
  -1   3  13 597.666 191.763   2
   1  -3  13 432.225 106.879   6
  -1   3  13 255.667 71.4715   5
  -1  -3  13 380.227 111.046   2
  -1  -3  13 584.580 189.749   5
  -1  -3  13 363.192 75.4948   6
   1   3  13 610.988 166.153   2
   1  -3  13 278.730 100.448   5
  -1  -3  14 337.847 138.188   2
  -1  -3  14 737.682 205.998   5
  -1  -3  14 484.598 87.4655   6
   1  -3  14 386.193 104.533   6
   1  -3  14 521.678 146.636   5
   1   3  14 497.524 165.859   2
  -1   3  14 464.048 183.875   2
  -1  -3  15 4851.58 487.616   5
  -1  -3  15 3651.51 414.107   2
  -1   3  15 4515.04 512.568   2
   1   3  15 3974.50 442.855   2
   1  -3  15 3688.85 282.617   6
  -1  -3  15 3511.79 230.873   6
   1  -3  15 3890.20 365.056   5
  -1  -3  16 300.100 78.9681   6
   1  -3  16 577.570 162.333   5
  -1  -3  16 875.183 233.614   5
   1  -3  16 436.507 100.339   6
  -1  -3  16 540.123 174.179   2
   1   3  16 348.885 152.533   2
  -1   3  16 343.928 148.014   2
   1   3  17 8379.95 683.981   2
  -1  -3  17 7363.56 351.435   6
  -1  -3  17 7459.40 639.707   2
   1  -3  17 7463.29 430.397   6
  -1   3  17 9090.96 777.099   2
   1  -3  17 7237.11 528.613   5
   1  -3  18 1321.59 182.269   6
   1  -3  18 1273.84 225.714   5
  -1   3  18 1593.48 343.035   2
  -1  -3  18 1125.98 260.634   2
   1   3  18 1342.89 297.745   2
  -1  -3  18 1456.41 297.421   5
   1  -3  19 7067.77 550.418   5
   1  -3  19 8093.27 460.872   6
   1   3  19 9147.80 770.261   2
  -1  -3  19 7616.38 699.030   2
  -1   3  19 8460.18 793.003   2
   1  -3  20 1114.49 222.183   5
  -1   3  20 1266.31 307.999   2
  -1  -3  20 1493.50 307.588   5
   1   3  20 1277.77 298.950   2
  -1  -3  20 429.072 150.399   2
   1  -3  20 1038.45 168.110   6
   1   3  20 1081.16 213.167   6
  -1  -3  21 4255.78 501.471   5
   1  -3  21 3601.53 407.193   5
   1  -3  21 3136.79 290.095   6
   1   3  21 4168.19 553.401   2
  -1  -3  21 3961.53 526.352   2
  -1   3  21 4485.45 615.426   2
   1   3  21 3116.04 357.743   6
   1  -3  22 295.402 91.0798   6
   1   3  22 232.088 124.153   6
   1   3  22-53.1678 111.843   2
   1  -3  22 125.098 99.9991   5
  -1   3  22 296.566 166.881   2
  -1  -3  22 522.838 193.945   5
  -1   3  23 481.284 230.335   2
   1  -3  23 167.666 118.519   5
   1   3  23 724.680 234.113   2
   1   3  23 1021.88 219.507   6
   1   3  24 239.457 122.908   6
   1  -3  24 350.362 146.995   5
  -1   3  24 131.906 73.2674   6
  -1   3  25 241.804 127.401   6
   1   4 -23 320.822 207.690   4
   1   4 -22 2829.34 464.466   4
   1  -4 -21 919.571 250.247   3
   1   4 -21 662.084 241.424   4
   1   4 -20 1367.41 313.770   4
   1  -4 -20 1770.66 328.764   3
  -1  -4 -20 1444.08 256.600   3
  -1  -4 -19 23.8283 125.906   3
  -1   4 -19 15.0431 97.5815   4
   1   4 -19-103.265 138.442   4
   1  -4 -19 67.2676 125.862   3
  -1   4 -18 2401.10 345.015   4
   1  -4 -18 3162.52 393.591   3
   1   4 -18 2429.34 399.413   4
  -1  -4 -18 2629.86 323.427   3
  -1  -4 -17 1340.37 232.794   3
   1  -4 -17 1194.34 242.683   3
  -1   4 -17 1271.90 249.254   4
   1   4 -17 1153.74 274.581   4
  -1   4 -16 2483.54 348.514   4
   1  -4 -16 2713.07 356.106   3
  -1  -4 -16 2333.12 304.186   3
   1  -4 -15 2356.04 325.000   3
   1  -4 -15 1712.45 184.064   1
  -1  -4 -15 2071.31 274.759   3
   1  -4 -14 5867.36 489.287   3
   1  -4 -14 5553.77 307.948   5
  -1  -4 -14 4810.56 414.434   3
  -1  -4 -13 921.797 166.522   5
   1  -4 -13 590.954 107.566   5
  -1  -4 -13 727.875 159.240   3
   1  -4 -13 883.292 198.940   3
  -1  -4 -12 5771.29 437.072   3
   1  -4 -12 6936.03 523.649   3
  -1  -4 -12 6884.50 437.305   5
   1  -4 -12 6823.06 363.531   5
  -1  -4 -11 680.533 137.396   5
   1  -4 -11 724.568 115.195   5
   1  -4 -11 614.498 162.836   3
  -1  -4 -11 714.271 147.276   3
  -1  -4 -10 4976.46 404.411   3
   1  -4 -10 6040.29 348.342   5
  -1  -4 -10 5780.47 396.969   5
   1  -4 -10 5563.10 463.833   3
   1  -4  -9 1534.28 247.468   3
  -1  -4  -9 1849.53 221.475   5
   1  -4  -9 2069.23 202.527   5
   1  -4  -8 2319.52 227.661   5
  -1  -4  -8 2317.91 245.555   5
   1  -4  -7 471.460 110.390   5
  -1  -4  -7 338.147 107.409   5
   1  -4  -6 5264.61 365.494   5
  -1  -4  -6 5284.41 375.611   5
   1  -4  -5 1620.64 204.708   5
   1   4  -5 2093.07 224.673   6
  -1  -4  -5 1795.36 224.263   5
   1  -4  -4 3320.84 304.154   5
   1  -4  -4 3666.82 368.735   2
   1   4  -4 3403.52 292.550   6
  -1  -4  -4 3327.80 303.279   5
   1  -4  -3 4396.90 353.191   5
   1  -4  -3 4395.10 395.757   2
   1   4  -3 3942.11 324.493   6
  -1  -4  -3 3956.94 337.169   5
   1  -4  -2 10071.9 567.922   5
   1   4  -2 10973.1 556.601   6
   1  -4  -2 9359.55 587.529   2
  -1  -4  -2 10600.4 587.492   5
   1  -4  -1 1108.97 197.943   2
   1  -4  -1 1156.32 195.638   5
  -1  -4  -1 1332.46 219.499   5
   1  -4   0 14057.9 690.743   5
   1  -4   0 13682.9 687.366   2
  -1  -4   0 12270.0 656.029   5
   1  -4   1 935.282 166.652   2
   1  -4   1 1457.49 218.848   5
  -1  -4   1 1246.34 214.711   5
   1  -4   2 11007.2 608.301   5
   1  -4   2 9587.55 517.596   2
  -1  -4   2 9137.36 584.528   5
   1   4   2 8814.83 486.659   2
  -1  -4   3 3479.77 357.472   5
   1  -4   3 4179.03 374.543   5
   1   4   3 3805.61 314.556   2
   1  -4   3 3384.29 287.828   2
  -1  -4   4 3263.81 351.366   5
   1  -4   4 3750.42 362.834   5
   1  -4   5 1616.52 245.989   5
  -1  -4   5 1475.93 242.016   5
   1  -4   6 5396.26 441.079   5
   1  -4   6 5132.51 366.193   6
  -1  -4   6 5488.93 470.498   5
  -1   4   6 5205.64 459.965   2
   1   4   7 365.584 118.768   2
   1  -4   7 512.411 154.226   5
  -1   4   7 339.142 154.494   2
   1  -4   7 219.678 91.9296   6
  -1  -4   7 504.800 158.780   5
  -1  -4   8 2422.46 334.814   5
   1   4   8 2093.43 283.765   2
   1  -4   8 1669.10 215.503   6
   1  -4   8 2050.90 285.584   5
  -1   4   8 2445.61 332.785   2
   1   4   9 2120.60 282.988   2
  -1  -4   9 2024.78 306.344   5
   1  -4   9 1983.23 266.562   5
   1  -4   9 1574.50 207.802   6
  -1   4   9 2187.04 332.591   2
  -1  -4  10 6060.56 528.948   5
  -1   4  10 5243.68 512.607   2
   1   4  10 5785.47 475.887   2
   1  -4  10 5089.00 346.915   6
   1  -4  10 4771.06 425.611   5
  -1   4  11 783.297 233.765   2
   1  -4  11 622.908 138.997   6
  -1  -4  11 1021.61 233.131   5
  -1  -4  11 433.552 84.3214   2
   1  -4  11 600.156 170.661   5
   1   4  11 695.508 195.469   2
   1  -4  12 6102.86 396.376   6
   1  -4  12 5493.02 472.482   5
  -1   4  12 7397.71 637.088   2
   1   4  12 6185.43 529.489   2
  -1  -4  12 8167.69 644.830   5
  -1  -4  12 4329.44 303.883   2
  -1   4  13 929.181 248.508   2
   1  -4  13 616.088 118.620   6
   1  -4  13 785.486 192.666   5
   1   4  13 569.572 180.451   2
  -1  -4  13 461.639 111.392   2
  -1  -4  13 610.574 189.995   5
  -1  -4  14 3214.98 300.848   2
  -1   4  14 4498.63 543.037   2
   1  -4  14 3818.86 409.346   5
   1  -4  14 4779.43 351.962   6
   1   4  14 4740.20 501.789   2
  -1  -4  14 5835.92 559.137   5
  -1   4  15 1622.65 332.198   2
  -1  -4  15 1967.00 327.596   5
  -1  -4  15 930.352 180.501   2
   1  -4  15 1359.79 250.529   5
   1  -4  15 1708.47 217.525   6
   1   4  15 1587.67 304.138   2
  -1  -4  16 3170.25 430.583   5
   1   4  16 2224.08 360.568   2
  -1   4  16 2289.76 404.215   2
   1  -4  16 2151.57 245.428   6
   1  -4  16 2101.44 304.879   5
  -1   4  17 1460.61 330.961   2
  -1  -4  17 1252.83 275.820   5
   1  -4  17 814.329 201.310   5
   1  -4  17 1049.43 168.749   6
   1   4  17 940.326 253.007   2
  -1   4  18 2492.41 445.554   2
   1  -4  18 2277.51 248.579   6
   1  -4  18 1993.79 311.579   5
  -1  -4  18 3049.12 422.347   5
   1   4  18 2355.37 392.373   2
  -1   4  19 38.9908 110.999   2
  -1  -4  19 248.140 178.895   5
   1  -4  19-3.99716 63.4015   6
   1   4  19 223.119 165.473   2
   1  -4  19-235.435 126.276   5
   1  -4  20 984.737 243.011   5
  -1   4  20 1563.60 397.775   2
  -1  -4  20 1807.04 324.935   5
   1  -4  20 1381.76 202.826   6
   1   4  20 1399.86 342.566   2
  -1  -4  21 771.492 234.994   5
   1   4  21 970.040 290.870   2
   1  -4  21 636.291 201.322   5
  -1   4  21 459.199 220.803   2
   1  -4  22 1818.19 328.351   5
  -1  -4  22 2791.29 423.217   5
   1   4  22 1785.35 291.460   6
   1   4  22 2481.45 457.700   2
   1  -4  23 48.9124 94.5414   5
   1  -4  24 1993.08 335.249   5
  -1  -5 -21 745.342 234.719   3
   1   5 -21 859.810 285.404   4
   1  -5 -20 524.132 224.937   3
  -1  -5 -20 133.671 82.2701   3
   1   5 -20 437.496 218.980   4
  -1  -5 -19 189.234 130.169   3
   1   5 -19 80.9478 132.786   4
   1  -5 -18 143.845 134.822   3
  -1  -5 -18 95.2627 105.353   3
  -1  -5 -17 378.519 127.280   3
   1  -5 -17 172.946 125.138   3
  -1  -5 -16 532.296 167.941   3
   1  -5 -16 722.654 222.476   3
  -1  -5 -15 1757.98 286.503   3
   1  -5 -15 2306.44 338.948   3
  -1  -5 -14 1853.48 256.277   5
  -1  -5 -14 1330.65 226.931   3
   1  -5 -14 1325.98 270.925   3
   1  -5 -13 3903.86 448.124   3
  -1  -5 -13 3810.10 402.556   3
  -1  -5 -13 4823.57 410.246   5
   1  -5 -12 748.171 198.173   3
  -1  -5 -12 647.845 164.631   3
  -1  -5 -12 484.382 142.044   5
   1  -5 -12 683.223 136.981   5
   1  -5 -11 4070.55 452.423   3
  -1  -5 -11 3892.82 410.688   3
  -1  -5 -11 5160.75 426.258   5
   1  -5 -11 5417.10 383.432   5
   1  -5 -10 1906.82 291.617   3
  -1  -5 -10 2719.97 305.951   5
   1  -5 -10 2444.51 262.226   5
   1  -5  -9 2879.58 286.764   5
  -1  -5  -9 2982.74 319.689   5
  -1  -5  -8 842.802 187.566   5
   1  -5  -8 800.947 160.108   5
  -1  -5  -7 1048.36 195.174   5
   1  -5  -7 1170.52 197.151   5
  -1  -5  -6 304.498 129.640   5
   1  -5  -6 216.809 95.5043   5
  -1  -5  -5 325.596 119.837   5
   1  -5  -5 421.363 127.405   5
  -1  -5  -4 297.204 114.711   5
   1  -5  -4 572.747 152.216   5
   1  -5  -3 4912.95 413.886   5
  -1  -5  -3 4651.78 420.155   5
   1  -5  -2 2306.12 288.964   5
  -1  -5  -2 2100.17 286.429   5
   1  -5  -1 6539.40 491.512   5
  -1  -5  -1 5991.42 488.911   5
  -1  -5   0 1543.46 254.662   5
   1  -5   0 1099.71 203.120   2
   1  -5   0 1494.52 243.976   5
   1  -5   1 6273.21 505.384   5
  -1  -5   1 5664.53 480.537   5
   1  -5   1 5812.31 446.528   2
  -1  -5   2 2806.69 340.349   5
   1  -5   2 2202.85 267.558   2
   1  -5   2 3044.67 349.686   5
   1  -5   3 4687.16 443.559   5
   1  -5   3 3915.56 351.969   2
  -1  -5   3 3959.85 423.197   5
   1  -5   4 521.183 130.477   2
  -1  -5   4 411.449 141.379   5
   1  -5   4 561.720 164.177   5
   1   5   5 335.206 122.896   2
   1  -5   5 413.372 154.877   5
  -1  -5   5 307.966 148.907   5
   1  -5   5 67.8112 61.0804   2
   1   5   6 300.362 116.938   2
   1  -5   6 340.074 145.014   5
   1  -5   6 114.704 68.4205   2
  -1  -5   6 256.437 123.647   5
   1   5   7 1242.17 252.677   2
   1  -5   7 692.197 138.832   2
   1  -5   7 1115.22 233.104   5
   1  -5   8 605.705 179.528   5
   1   5   8 669.925 186.221   2
  -1  -5   8 820.038 206.802   5
   1  -5   9 2718.25 372.450   5
  -1  -5   9 2723.93 388.739   5
   1   5   9 3216.25 394.331   2
  -1   5   9 2909.64 402.403   2
   1   5  10 2182.95 318.915   2
  -1   5  10 2200.23 362.812   2
  -1  -5  10 2489.37 368.843   5
   1  -5  10 2097.36 313.341   5
  -1  -5  11 6396.90 589.141   5
   1   5  11 5082.58 519.401   2
   1  -5  11 5252.15 502.837   5
  -1   5  11 4315.46 546.936   2
   1  -5  12 777.993 216.587   5
  -1   5  12 718.250 220.883   2
  -1  -5  12 1126.54 240.940   5
   1  -5  12 923.301 183.002   6
   1   5  12 672.487 192.154   2
  -1  -5  13 4764.95 525.579   5
   1  -5  13 4089.33 365.510   6
   1   5  13 4101.56 481.210   2
   1  -5  13 3790.38 442.166   5
  -1   5  13 4759.39 551.167   2
  -1   5  14 2100.31 378.941   2
   1  -5  14 2086.17 338.027   5
  -1  -5  14 2553.32 386.109   5
   1  -5  14 1551.27 220.483   6
   1   5  14 1744.77 328.390   2
  -1  -5  15 2500.00 400.425   5
   1  -5  15 2166.83 341.067   5
  -1   5  15 2691.38 447.401   2
   1  -5  15 2172.40 275.068   6
   1   5  15 1871.08 354.577   2
  -1   5  16 390.064 185.692   2
   1  -5  16 550.797 174.896   5
   1  -5  16 545.249 144.580   6
   1   5  16 300.051 165.556   2
  -1  -5  16 511.853 191.059   5
   1   5  17 403.183 187.832   2
  -1   5  17 614.685 242.097   2
   1  -5  17 667.408 205.009   5
  -1  -5  17 422.764 179.237   5
   1  -5  17 116.673 79.1707   6
  -1   5  18 73.1339 154.969   2
   1  -5  18 46.1696 117.280   5
  -1  -5  18-69.5826 111.723   5
   1  -5  18 81.6498 76.1162   6
   1   5  18 73.3096 100.515   2
  -1  -5  19 426.532 163.588   5
  -1   5  19 408.476 222.716   2
   1   5  19 357.992 191.693   2
   1  -5  19 419.022 159.650   5
   1  -5  20 344.875 163.472   5
  -1  -5  20 493.586 198.193   5
   1   5  20 153.084 152.410   2
  -1  -5  21 520.265 209.307   5
  -1  -6 -18 272.652 162.057   3
  -1  -6 -17 944.000 235.226   3
  -1  -6 -16 527.773 176.185   3
   1  -6 -16 792.543 257.718   3
   1  -6 -15 799.699 248.688   3
  -1  -6 -15 504.018 161.255   3
  -1  -6 -14 26.6002 101.175   5
  -1  -6 -14 132.551 118.424   3
  -1  -6 -13 208.299 116.669   5
   1  -6 -13 397.648 179.104   3
  -1  -6 -13-47.5040 113.420   3
  -1  -6 -12 241.106 130.495   5
   1  -6 -12 291.779 163.915   3
  -1  -6 -12 52.5475 89.8302   3
  -1  -6 -11 353.239 144.069   5
   1  -6 -11 208.330 90.6323   5
   1  -6 -11 266.555 146.770   3
  -1  -6 -11 58.8491 115.265   3
  -1  -6 -10 278.123 134.618   5
   1  -6 -10 487.695 139.512   5
   1  -6 -10 416.342 192.892   3
  -1  -6  -9 1507.64 253.660   5
   1  -6  -9 1419.58 228.127   5
  -1  -6  -8 1857.50 288.924   5
   1  -6  -8 1719.29 252.934   5
  -1  -6  -7 3527.59 391.370   5
   1  -6  -7 3205.48 347.905   5
  -1  -6  -6 2522.81 326.121   5
   1  -6  -6 2344.15 311.042   5
   1  -6  -5 3243.77 364.949   5
  -1  -6  -5 3166.12 373.441   5
   1  -6  -4 1955.88 284.666   5
  -1  -6  -4 1608.71 269.943   5
  -1  -6  -3 1057.32 225.272   5
   1  -6  -3 1122.10 220.550   5
  -1  -6  -2 203.936 112.818   5
   1  -6  -2 97.4163 105.250   5
  -1  -6  -1 442.123 162.719   5
   1  -6  -1 221.809 115.110   5
  -1  -6   0 519.899 173.326   5
   1  -6   0 331.212 144.479   5
  -1  -6   1 217.567 145.246   5
   1  -6   1 109.399 100.519   5
   1  -6   2 26.9676 108.342   5
  -1  -6   2-14.5486 84.7864   5
  -1  -6   3 1927.88 320.353   5
   1  -6   3 1590.42 291.313   5
  -1  -6   4 1841.42 316.164   5
   1  -6   4 1760.39 321.387   5
   1  -6   5 3887.99 452.590   5
  -1  -6   5 3479.38 433.054   5
   1  -6   6 2257.94 350.671   5
  -1  -6   6 2516.76 368.502   5
   1  -6   7 3495.86 444.196   5
   1   6   7 3891.32 407.136   2
  -1  -6   7 3818.67 457.530   5
   1   6   8 2399.58 327.294   2
  -1  -6   8 2238.36 358.747   5
   1  -6   8 2045.64 342.755   5
   1   6   9 1042.30 257.534   2
  -1  -6   9 1528.45 311.268   5
   1  -6   9 1538.96 298.161   5
   1   6  10 414.031 186.617   2
  -1  -6  10 361.019 163.145   5
   1  -6  10 396.883 180.039   5
   1   6  11 253.725 155.036   2
   1  -6  11 462.683 180.973   5
  -1  -6  11 211.497 133.980   5
   1   6  12 662.652 203.441   2
  -1  -6  12 675.274 231.444   5
   1  -6  12 461.252 166.838   5
   1  -6  13-67.9329 101.425   5
   1   6  13-11.1508 85.5264   2
  -1  -6  13 124.672 127.954   5
   1   6  14-220.839 146.974   2
  -1  -6  14 252.705 159.047   5
  -1   6  14 278.593 155.515   2
   1  -6  14 62.1549 105.849   5
   1   6  15 439.601 195.895   2
  -1  -6  15 964.658 259.038   5
  -1   6  15 1110.60 289.729   2
   1  -6  15 953.437 264.737   5
   1   6  16 716.506 239.216   2
  -1   6  16 1082.00 304.678   2
  -1  -6  16 848.459 230.053   5
   1   6  17 1211.75 317.217   2
  -1   6  17 1500.01 350.872   2
   1   6  18 516.174 212.018   2
  -1  -7 -13 70.5943 114.491   3
  -1  -7 -12 714.796 202.087   5
  -1  -7 -12 846.817 260.337   3
  -1  -7 -11 130.157 103.399   5
  -1  -7 -11 253.189 147.353   3
  -1  -7 -10 843.133 233.839   5
  -1  -7  -9-16.8511 107.323   5
  -1  -7  -8 482.122 191.408   5
   1  -7  -8 813.729 201.660   5
  -1  -7  -7 573.515 177.843   5
   1  -7  -7 522.621 164.450   5
   1  -7  -6 863.112 214.335   5
  -1  -7  -6 589.508 186.534   5
  -1  -7  -5 226.110 146.029   5
   1  -7  -5 644.091 219.339   5
   1  -7  -4 1168.56 260.228   5
  -1  -7  -4 950.443 247.751   5
  -1  -7  -3 226.366 151.660   5
   1  -7  -3 610.523 190.822   5
  -1  -7  -2 1502.62 299.292   5
   1  -7  -2 1526.52 294.736   5
  -1  -7  -1 342.260 160.003   5
   1  -7  -1 339.214 173.461   5
  -1  -7   0 1685.74 322.927   5
   1  -7   0 2294.05 341.532   5
  -1  -7   1 149.514 127.590   5
   1  -7   1 341.072 174.072   5
  -1  -7   2 1131.63 268.606   5
   1  -7   2 1286.18 278.783   5
   1  -7   3 412.161 170.336   5
  -1  -7   3 868.451 243.146   5
  -1  -7   4 951.010 259.076   5
   1  -7   4 925.310 253.167   5
  -1  -7   5 848.995 232.459   5
   1  -7   5 782.124 236.352   5
   1  -7   6 921.673 255.098   5
  -1  -7   6 998.117 248.805   5
  -1  -7   7 173.870 157.162   5
   1  -7   7 437.111 169.213   5
  -1  -7   8 1084.43 271.809   5
   1  -7   8 1229.99 280.321   5
   2   0 -19-64.5379 108.087   1
   2   0 -18 1703.00 257.405   1
   2   0 -17-61.9762 103.715   1
   2   0 -16 6421.26 460.807   1
   2   0 -15-67.7211 62.5894   1
   2   0 -14 11911.1 593.921   1
   2   0 -13 26.6300 58.2576   1
   2   0 -12 39044.5 1258.48   4
   2   0 -12 36683.3 1099.76   1
   2   0 -11 8.87923 47.2040   4
   2   0 -11-40.8557 44.3643   1
   2   0 -10 15219.8 670.268   4
   2   0  -9-32.9028 49.1876   4
   2   0  -9 77.5464 62.3838   2
   2   0  -8 8226.67 433.599   4
   2   0  -8 7024.54 255.410   5
   2   0  -8 7736.30 476.703   2
   2   0  -7 23.6455 19.1171   5
   2   0  -7 8.42932 37.3882   4
   2   0  -7-4.41716 52.1955   2
   2   0  -6 6471.09 238.504   5
   2   0  -6 7056.11 435.120   2
   2   0  -6 7052.86 368.709   4
   2   0  -5-4.55433 20.3082   5
   2   0  -5 3.66124 28.3065   4
   2   0  -5 23.0782 51.6969   2
   2   0  -4 6601.97 323.198   4
   2   0  -4 6815.13 400.725   2
   2   0  -4 6148.93 223.039   6
   2   0  -4 6586.38 230.636   5
   2   0  -3-0.38958 30.9443   4
   2   0  -3 0.79733 16.4230   5
   2   0  -3 29.3550 44.5317   2
   2   0  -3 46.6564 23.8067   6
   2   0  -2 40847.5 938.065   4
   2   0  -2 37120.8 831.678   5
   2   0  -2 38201.3 820.526   6
   2   0  -2 38361.4 839.060   3
   2   0  -1 0.16880 18.0367   3
   2   0  -1-6.12690 15.2439   5
  -2   0  -1 6.34904 21.3503   6
   2   0  -1 21.3314 19.4188   6
   2   0  -1-15.0673 22.2318   4
  -2   0   0 49316.2 974.008   3
   2   0   0 47967.3 1020.32   6
   2   0   0 49595.7 961.411   3
   2   0   1-0.32907 12.1470   3
  -2   0   1 0.29608 15.0136   3
  -2   0   1-15.5837 25.1282   6
   2   0   1 11.8735 23.0998   6
   2   0   2 36959.0 806.832   6
  -2   0   2 36261.9 736.686   6
  -2   0   2 37730.1 769.893   3
   2   0   3 3.89989 24.7267   6
  -2   0   3 11.7901 21.8093   3
  -2   0   3 20.6675 16.5405   6
  -2   0   4 7086.97 219.243   6
  -2   0   4 7523.35 286.037   3
   2   0   4 7199.55 303.756   6
  -2   0   5 13.8232 20.9757   3
  -2   0   5 25.5925 17.7858   6
   2   0   5-13.4722 42.1730   6
   2   0   6 5685.40 284.394   6
  -2   0   6 5604.70 383.643   2
  -2   0   6 5532.29 185.922   6
  -2   0   6 5353.28 180.860   5
  -2   0   7 2.17914 45.0001   2
  -2   0   7 14.9171 17.3238   5
   2   0   7 19.4727 14.7284   4
  -2   0   7 1.77483 20.9349   6
   2   0   7-32.9756 40.2197   6
   2   0   8 7856.97 368.888   6
  -2   0   8 7744.08 526.271   2
   2   0   8 6516.16 256.176   4
   2   0   8 7729.51 246.111   3
  -2   0   8 8261.49 278.040   6
  -2   0   8 8006.85 217.920   5
  -2   0   9-27.4185 62.1972   2
   2   0   9 2.11195 18.6119   3
  -2   0   9 5.42346 12.7880   5
   2   0   9 9.60727 17.1243   4
   2   0   9 30.5774 38.9211   6
  -2   0  10 9930.44 674.282   2
   2   0  10 9058.86 353.053   4
   2   0  10 10751.2 459.096   6
   2   0  10 9903.55 330.434   3
  -2   0  10 10290.0 254.186   5
  -2   0  11 40.9007 90.8352   2
  -2   0  11 17.3190 18.6026   5
   2   0  11-29.8385 29.6701   4
   2   0  11 13.1645 48.8846   6
   2   0  11 18.6995 27.7966   3
   2   0  12 33997.4 976.503   6
  -2   0  12 34729.2 1435.89   2
   2   0  12 33142.9 806.829   3
  -2   0  12 30916.2 627.510   5
   2   0  13 44.3126 39.0341   3
  -2   0  13 29.8787 15.4811   5
   2   0  13 15.0356 57.0138   6
   2   0  13-2.54376 29.8115   4
  -2   0  13 33.4015 86.7620   2
  -2   0  14 8973.97 320.568   6
   2   0  14 7278.46 334.234   1
   2   0  14 9286.78 468.396   6
  -2   0  14 8432.17 724.720   2
  -2   0  14 6922.99 182.530   5
  -2   0  15 27.3426 10.6123   5
   2   0  15 35.2199 52.5250   6
  -2   0  15 7.05499 32.8748   6
   2   0  15-52.2136 45.2848   1
  -2   0  15 29.8452 101.170   2
   2   0  16 5458.10 287.536   1
   2   0  16 6686.86 418.353   6
  -2   0  16 7143.78 309.261   6
  -2   0  16 7413.61 721.430   2
   2   0  16 6944.37 351.599   3
   2   0  17 49.9894 38.4354   1
   2   0  17-29.5799 81.3174   6
  -2   0  17 30.3580 38.8237   6
  -2   0  17 64.5573 173.030   2
  -2   0  18 1134.94 307.816   2
  -2   0  18 1052.46 119.718   6
   2   0  18 865.012 162.722   6
  -2   0  19 116.832 133.235   2
   2   0  19 22.6630 71.0290   6
  -2   0  19-53.9344 43.5592   6
  -2   0  20 3647.92 580.522   2
   2   0  20 3596.23 339.916   6
  -2   0  20 4001.46 249.541   6
  -2   0  21 765.158 279.960   2
   2   0  21 4.14927 71.0373   6
  -2   0  22 7111.53 851.798   2
   2   0  22 6541.82 482.530   6
   2   0  23 158.831 119.207   6
  -2   0  23 813.247 304.999   2
   2   0  24 8333.58 573.947   6
  -2   0  24 9491.85 1045.74   2
   2   0  25 98.6978 101.322   6
  -2   0  25 652.983 311.738   2
  -2   0  26 5333.30 841.935   2
   2   0  26 4169.66 418.723   6
   2   0  27 162.671 145.709   6
   2  -1 -21 11068.0 699.641   1
   2  -1 -20 7285.11 543.636   1
   2  -1 -19 8755.81 568.722   1
   2   1 -18 170.193 119.786   4
   2  -1 -18 159.739 84.1946   1
   2   1 -17 14020.1 816.464   4
   2  -1 -17 13798.5 674.633   1
   2  -1 -16 16629.6 720.397   1
   2   1 -16 16969.0 878.315   4
   2   1 -15 11756.4 697.120   4
   2   1 -15 11111.6 651.344   1
   2  -1 -15 11488.5 563.167   1
   2   1 -14 5673.78 437.555   1
   2   1 -14 5966.67 469.630   4
   2  -1 -14 6462.37 402.309   1
   2   1 -13 7692.64 491.812   1
   2   1 -13 8854.25 559.358   4
   2  -1 -13 8229.16 439.169   1
   2   1 -12 16061.4 712.985   1
   2  -1 -12 16991.4 640.585   1
   2   1 -12 18335.1 808.728   4
   2  -1 -12 16467.4 654.760   3
   2   1 -11 10502.4 579.050   4
   2   1 -11 9697.23 516.916   1
   2  -1 -11 9993.40 471.473   3
   2   1 -10 10877.5 539.219   1
   2   1 -10 12935.6 625.190   4
  -2   1 -10 12669.2 529.844   6
   2  -1 -10 11420.4 496.209   3
   2   1  -9 30434.1 906.237   5
  -2   1  -9 33448.0 948.783   6
   2  -1  -9 33723.2 1237.31   2
   2  -1  -9 31404.2 917.090   3
   2   1  -9 34092.1 1079.11   4
   2  -1  -8 50067.7 1567.81   2
   2   1  -8 47025.5 1240.90   5
   2  -1  -8 47625.5 1212.77   3
   2   1  -7 44458.7 1191.29   5
   2  -1  -7 47656.6 1502.01   2
   2  -1  -7 46446.2 1155.96   3
   2   1  -6 5458.88 300.095   5
   2   1  -6 5975.53 324.865   2
   2  -1  -6 5581.75 285.611   3
   2  -1  -6 6478.81 470.850   2
  -2  -1  -6 4892.10 160.071   3
   2   1  -5 24409.0 739.083   2
   2   1  -5 23889.4 681.627   5
   2  -1  -5 25548.9 956.536   2
   2  -1  -5 23508.2 646.347   3
   2   1  -4 46431.8 1087.52   5
   2  -1  -4 46906.4 1378.71   2
   2   1  -4 44619.3 1139.95   2
   2   1  -4 44345.5 846.463   6
   2  -1  -4 43837.4 1039.82   3
   2   1  -3 44539.3 1032.88   5
   2  -1  -3 41060.6 973.909   3
   2   1  -3 41362.5 832.833   6
   2  -1  -3 39243.1 1229.48   2
   2   1  -3 41321.5 1045.09   2
   2  -1  -3 41142.1 1008.87   6
  -2  -1  -3 42691.1 1003.50   5
   2  -1  -2 12333.7 403.490   3
   2  -1  -2 12356.7 420.673   6
   2   1  -2 12935.8 440.514   5
   2   1  -2 12373.7 331.933   6
  -2  -1  -2 12571.4 426.304   5
   2   1  -1 6124.42 229.244   6
   2  -1  -1 5800.92 265.040   6
   2   1  -1 6761.24 275.555   1
  -2  -1  -1 6914.37 287.635   5
   2  -1   0 18486.4 531.646   6
   2   1   0 18648.1 498.917   6
   2   1   0 19317.7 516.734   1
  -2   1   0 17412.5 495.349   4
  -2  -1   0 19389.3 548.108   5
  -2   1   1 10106.5 371.828   6
   2   1   1 10551.3 331.817   1
   2  -1   1 10355.5 364.796   6
  -2  -1   1 10434.4 362.063   1
   2   1   1 10268.7 351.248   6
  -2   1   1 10424.8 361.510   4
  -2  -1   1 10777.6 372.419   5
  -2  -1   2 14711.1 453.893   1
  -2   1   2 13946.5 448.115   6
   2  -1   2 14411.6 456.855   6
  -2   1   2 13466.1 462.352   4
   2   1   2 14762.3 395.802   1
   2   1   2 13897.8 450.027   6
  -2  -1   2 14637.3 449.401   5
  -2  -1   3 40417.5 953.963   1
   2   1   3 40175.4 841.308   1
   2   1   3 40244.9 962.352   6
  -2   1   3 39844.0 988.585   4
  -2   1   3 38917.7 936.426   6
   2  -1   3 38734.7 944.260   6
  -2  -1   3 37672.9 917.654   5
  -2  -1   4 35842.6 878.529   5
   2  -1   4 36909.3 910.860   6
  -2  -1   4 37857.7 929.697   1
  -2   1   4 38596.4 983.580   4
  -2   1   4 36978.4 908.027   6
   2   1   4 37408.0 938.245   6
   2   1   4 36864.3 778.332   1
   2  -1   5 29157.7 779.962   6
   2   1   5 30716.2 824.387   6
   2   1   5 29450.2 625.102   1
  -2   1   5 29898.4 791.423   6
  -2  -1   5 28346.6 736.036   5
  -2  -1   5 30700.8 806.666   1
  -2  -1   6 5285.90 309.091   2
   2   1   6 5474.77 165.242   1
   2  -1   6 5210.16 275.841   6
  -2  -1   6 6123.40 299.063   1
   2   1   6 5501.83 306.700   6
  -2   1   6 5644.30 294.081   6
  -2  -1   6 5435.83 251.863   5
   2   1   7 35726.8 720.875   1
   2  -1   7 36810.2 950.303   6
  -2  -1   7 36514.0 1087.71   2
  -2  -1   7 37244.2 905.948   5
   2   1   7 39204.9 1015.44   6
  -2   1   7 37964.5 1008.70   6
   2   1   7 37605.8 932.500   5
  -2  -1   7 39488.9 989.523   1
  -2   1   8 44523.0 1173.39   6
   2  -1   8 44226.5 1097.82   6
   2   1   8 44426.3 1158.57   6
  -2  -1   8 44324.6 1308.58   2
   2   1   8 42716.0 1065.08   5
  -2  -1   8 43746.6 1050.77   5
  -2  -1   8 45039.2 1132.57   1
   2   1   9 33645.0 891.918   5
   2  -1   9 32896.4 910.597   6
  -2  -1   9 33166.3 1172.02   2
  -2   1   9 35608.2 1354.53   2
  -2  -1   9 35612.3 956.494   1
   2   1   9 32979.0 974.834   6
  -2  -1   9 33359.9 871.607   5
   2  -1  10 8977.59 402.474   6
  -2   1  10 9040.60 660.477   2
   2   1  10 8594.62 437.699   6
  -2  -1  10 8807.19 581.287   2
   2   1  10 8182.13 369.663   5
  -2  -1  10 8778.10 367.171   5
  -2  -1  11 5552.22 483.758   2
  -2   1  11 6352.01 570.131   2
  -2  -1  11 5471.16 292.469   5
   2  -1  11 5561.91 319.783   6
   2   1  11 5360.28 348.405   6
   2   1  11 5370.65 295.061   5
  -2  -1  12 15359.3 532.959   5
  -2  -1  12 13855.7 310.553   6
   2  -1  12 15500.9 576.525   6
  -2  -1  12 14410.5 849.823   2
   2   1  12 15512.6 629.910   6
  -2  -1  13 9420.54 410.011   5
   2   1  13 9708.44 499.430   6
   2  -1  13 8907.99 440.534   6
  -2  -1  13 8590.59 233.262   6
  -2   1  13 10670.3 788.407   2
  -2  -1  13 8734.35 687.313   2
   2   1  13 9902.61 391.194   3
  -2  -1  14 6259.25 333.096   5
  -2  -1  14 5926.35 191.214   6
   2   1  14 5641.81 370.513   4
  -2   1  14 6844.99 655.210   2
   2  -1  14 5987.65 365.893   6
  -2  -1  14 5669.98 583.926   2
   2   1  14 6025.17 397.823   6
  -2  -1  15 6189.31 209.011   6
   2   1  15 5414.57 374.072   4
  -2  -1  15 5936.90 613.958   2
  -2  -1  15 6163.23 337.273   5
   2  -1  15 6169.63 381.441   6
   2   1  15 6441.46 416.629   6
  -2   1  15 7557.39 714.788   2
   2   1  16 16063.3 571.522   3
  -2  -1  16 13114.7 518.935   5
  -2   1  16 14233.7 1026.11   2
  -2  -1  16 11684.6 927.286   2
   2  -1  16 10211.3 517.815   1
   2  -1  16 13659.5 597.645   6
  -2  -1  16 12893.5 360.949   6
   2   1  16 14135.3 646.968   6
  -2  -1  17 11863.9 487.901   5
   2  -1  17 12476.5 583.590   6
  -2  -1  17 11394.8 346.520   6
  -2  -1  17 11150.6 933.308   2
  -2   1  17 14060.9 1024.09   2
   2   1  17 12804.6 628.217   6
   2  -1  18 434.605 125.678   6
  -2  -1  18 442.691 88.0438   5
  -2   1  18 412.613 220.564   2
  -2  -1  18 294.479 56.3816   6
   2   1  18 245.468 104.452   6
  -2  -1  18 378.110 186.081   2
  -2   1  19 6149.48 363.010   6
  -2  -1  19 5541.35 696.370   2
   2  -1  19 5631.34 405.354   6
  -2   1  19 6864.80 752.591   2
   2   1  19 5401.83 420.498   6
  -2  -1  19 5435.16 310.814   5
  -2   1  20 6310.03 379.444   6
   2  -1  20 6276.06 436.739   6
  -2   1  20 7232.55 810.645   2
   2   1  20 5974.82 451.409   6
  -2  -1  20 5154.68 698.842   2
   2  -1  21 9209.06 551.884   6
  -2  -1  21 8642.26 936.305   2
  -2   1  21 9683.41 962.440   2
   2   1  21 8601.76 570.693   6
  -2   1  21 9973.60 495.107   6
  -2   1  22 1083.85 334.392   2
  -2  -1  22 1346.49 355.738   2
   2  -1  22 836.415 196.223   6
   2   1  22 860.160 179.238   6
  -2   1  23 1401.11 398.392   2
   2  -1  23 1435.90 215.944   6
   2   1  23 1257.49 228.994   6
  -2  -1  23 595.927 263.509   2
  -2   1  24 2084.37 482.895   2
   2   1  24 1418.13 235.768   6
   2  -1  24 1775.38 254.190   6
  -2   1  25 2192.91 523.466   2
   2  -1  25 2039.79 280.388   6
   2   1  25 1837.98 271.976   6
  -2  -1  25 1114.02 396.137   2
  -2  -1  26 1118.73 417.024   2
   2   1  26 1075.41 224.357   6
   2  -1  26 916.995 195.075   6
   2   2 -22 1954.38 355.319   4
   2   2 -21 2138.69 370.979   4
   2  -2 -20 3711.84 353.777   1
   2   2 -20 3387.67 446.397   4
   2  -2 -19 10296.3 593.149   1
   2   2 -19 10920.3 785.713   4
   2   2 -18 5960.31 568.325   4
   2  -2 -18 6048.17 422.767   1
   2   2 -17 2154.74 329.749   4
   2  -2 -17 2553.18 266.335   1
   2  -2 -16 4601.83 352.730   1
   2   2 -16 5407.94 505.780   4
   2  -2 -16 5567.83 427.444   3
   2   2 -15 7795.27 596.786   4
   2  -2 -15 8336.41 466.331   1
   2  -2 -15 8187.75 511.410   3
  -2   2 -14 4108.95 290.591   4
   2  -2 -14 4257.74 316.562   1
   2   2 -14 3850.67 403.226   4
   2  -2 -14 4445.97 353.788   3
   2  -2 -13 790.452 159.177   3
  -2   2 -13 643.753 108.633   4
   2   2 -13 669.259 169.280   4
   2  -2 -13 759.326 130.648   1
   2  -2 -12 2115.97 205.078   1
   2   2 -12 2119.60 278.841   4
  -2   2 -12 1730.52 165.088   4
  -2  -2 -12 1459.81 161.456   3
   2  -2 -12 1997.77 225.226   3
   2  -2 -11 9495.35 445.401   1
  -2   2 -11 8841.73 383.271   4
  -2  -2 -11 8926.77 371.842   3
   2  -2 -11 9617.16 492.477   3
   2  -2 -10 7776.87 428.862   3
  -2  -2 -10 7051.57 313.304   3
  -2   2 -10 6985.00 319.320   4
   2  -2  -9 4950.47 328.823   3
   2  -2  -9 4834.73 143.738   5
  -2  -2  -9 4552.63 234.007   3
   2  -2  -8 9658.42 461.399   3
  -2   2  -8 9518.42 461.728   6
  -2  -2  -8 9361.07 351.235   3
   2  -2  -8 9783.36 291.833   5
  -2  -2  -7 19274.3 552.773   3
   2  -2  -7 19269.4 537.725   5
   2  -2  -7 20051.7 955.207   2
   2  -2  -7 19653.9 689.206   3
   2   2  -7 19032.9 401.938   6
  -2  -2  -7 19703.2 666.008   5
   2  -2  -6 12266.6 518.927   3
   2  -2  -6 12917.5 430.065   5
  -2  -2  -6 12624.7 498.022   5
   2   2  -6 11790.6 312.426   6
   2  -2  -6 13767.9 764.633   2
   2  -2  -5 8891.87 427.436   3
   2  -2  -5 8608.36 349.656   5
   2  -2  -5 8710.03 584.274   2
   2   2  -5 8975.46 295.323   6
  -2  -2  -5 8943.57 410.269   5
   2  -2  -4 9679.57 448.843   3
   2  -2  -4 9832.52 385.126   5
   2   2  -4 11034.7 310.697   2
   2  -2  -4 9698.35 606.158   2
  -2  -2  -4 9717.46 310.753   1
  -2  -2  -4 10757.5 449.967   5
   2   2  -3 15958.6 581.945   1
   2   2  -3 14045.5 408.059   2
  -2  -2  -3 15575.9 439.481   1
   2  -2  -3 14612.4 716.225   2
  -2  -2  -3 16543.5 568.705   5
   2  -2  -2 8086.40 396.033   6
   2  -2  -2 7076.63 464.287   2
   2   2  -2 7486.28 364.566   1
  -2  -2  -2 7200.00 288.555   1
  -2  -2  -2 7732.29 369.113   5
   2   2  -1 1680.60 163.566   1
  -2  -2  -1 1855.85 143.357   1
   2  -2  -1 1889.38 180.275   6
  -2  -2  -1 2101.75 183.735   5
  -2  -2   0 707.081 95.3624   1
  -2  -2   0 597.572 99.6435   5
   2  -2   0 636.077 108.635   6
   2   2   0 642.023 96.7000   1
   2   2   1 1408.58 138.693   1
  -2  -2   1 1420.74 140.551   1
   2  -2   1 1563.05 156.470   6
  -2  -2   1 1461.46 153.540   5
   2  -2   2 9170.35 393.374   6
  -2  -2   2 9230.39 392.316   1
  -2  -2   2 9284.97 411.027   5
  -2   2   3 12640.1 519.334   6
   2  -2   3 12297.3 467.906   6
  -2  -2   3 12290.4 476.706   1
  -2  -2   3 11994.4 491.171   5
   2  -2   4 10753.2 441.884   6
  -2   2   4 11786.9 516.658   6
  -2  -2   4 11339.3 466.754   1
  -2  -2   4 11339.7 486.825   5
   2  -2   5 7683.30 364.187   6
  -2   2   5 8313.26 438.463   6
  -2  -2   5 7452.06 381.472   1
  -2  -2   5 8383.84 418.560   5
   2   2   5 8265.91 377.439   5
  -2   2   6 12660.3 570.600   6
  -2  -2   6 11060.4 492.419   1
   2  -2   6 11781.1 465.754   6
   2   2   6 11977.6 470.487   5
  -2  -2   6 12119.0 532.672   5
  -2  -2   7 19598.8 722.474   5
   2  -2   7 19248.1 642.423   6
  -2   2   7 20427.8 780.404   6
  -2  -2   7 19109.3 694.850   1
   2   2   7 19555.9 641.862   5
  -2  -2   8 8849.05 466.857   5
  -2  -2   8 8486.23 389.471   2
  -2   2   8 8950.45 499.539   6
   2  -2   8 8729.95 404.290   6
   2   2   8 8911.28 401.838   5
  -2  -2   9 5441.51 374.308   5
  -2   2   9 5500.56 394.251   6
   2  -2   9 5243.30 313.727   6
  -2  -2   9 5427.03 343.170   2
  -2   2   9 5579.47 507.580   2
   2   2   9 5377.40 304.832   5
  -2  -2  10 4838.34 358.139   5
  -2   2  10 5329.29 513.397   2
   2  -2  10 4581.89 292.331   6
  -2  -2  10 4599.73 350.138   2
  -2  -2  11 9492.94 531.404   5
   2  -2  11 9520.47 446.628   6
  -2  -2  11 10472.7 590.658   2
  -2   2  11 11698.7 789.390   2
  -2  -2  12 1512.28 235.619   2
  -2   2  12 1869.88 326.579   2
  -2  -2  12 1539.56 215.926   5
   2   2  12 1410.19 188.689   6
   2  -2  12 1702.92 184.169   6
  -2   2  13 192.339 115.377   2
  -2  -2  13 129.335 59.1724   5
  -2  -2  13 336.459 115.236   2
   2  -2  13 129.364 67.6535   6
   2   2  13 178.064 82.7938   6
  -2  -2  14 4420.94 380.416   5
  -2  -2  14 5136.53 496.009   2
   2  -2  14 4551.40 319.404   6
  -2   2  14 5493.28 588.990   2
   2   2  14 4721.40 361.496   6
  -2  -2  15 5481.34 435.734   5
  -2  -2  15 6598.79 605.182   2
   2   2  15 5447.44 405.133   6
   2  -2  15 5222.15 360.358   6
  -2   2  15 7068.79 681.099   2
  -2  -2  16 4581.12 396.404   5
  -2   2  16 4794.51 580.110   2
   2  -2  16 4766.88 342.270   6
   2   2  16 4529.17 371.342   6
  -2  -2  16 4978.79 549.058   2
  -2   2  17 1958.95 400.661   2
  -2  -2  17 1245.09 212.990   5
   2   2  17 1288.50 213.508   6
   2  -2  17 1445.34 193.195   6
  -2  -2  17 1596.72 321.965   2
  -2  -2  18 4660.98 412.419   5
   2  -2  18 5426.01 384.416   6
  -2  -2  18 5679.48 642.433   2
  -2   2  18 6004.85 684.364   2
   2   2  18 5246.23 422.212   6
  -2  -2  19 8146.77 800.321   2
   2  -2  19 6748.19 449.062   6
  -2   2  19 8101.41 810.793   2
   2   2  19 6930.71 503.313   6
  -2  -2  19 6840.27 496.319   5
  -2  -2  20 2269.14 279.222   5
   2  -2  20 2078.53 254.232   6
  -2   2  20 2887.40 501.891   2
   2   2  20 2076.43 275.558   6
  -2  -2  20 2580.52 457.336   2
  -2   2  21 1741.17 407.890   2
   2  -2  21 1817.15 240.781   6
   2   2  21 2035.04 279.846   6
  -2  -2  21 1882.72 411.723   2
  -2   2  22 768.945 286.410   2
   2  -2  22 950.465 183.347   6
   2   2  22 921.188 195.651   6
  -2   2  23 3701.95 617.160   2
   2  -2  23 2467.82 293.077   6
   2   2  23 2586.36 342.799   6
  -2  -2  23 2868.39 525.690   2
  -2   2  24 240.372 175.239   2
   2  -2  24 85.8349 97.3265   6
   2   2  24 207.217 124.650   6
   2  -2  25 310.538 138.691   5
   2  -2  25 261.020 128.412   6
   2   2  25 146.187 113.386   6
   2   3 -24 10272.2 916.547   4
   2   3 -23 2882.76 480.946   4
   2   3 -22 814.952 265.524   4
   2   3 -21 4469.30 562.632   4
   2   3 -20 2664.36 424.367   4
   2   3 -19 6119.44 624.546   4
   2  -3 -19 7017.80 571.075   3
   2  -3 -18 126.313 118.589   3
   2  -3 -18 280.616 108.272   1
   2   3 -18 26.7049 96.7738   4
   2  -3 -17 1971.09 282.578   3
   2  -3 -17 1786.85 225.639   1
  -2   3 -17 1916.21 243.735   4
   2   3 -17 2059.38 346.430   4
   2  -3 -16 8060.69 466.408   1
  -2   3 -16 6799.38 450.382   4
   2   3 -16 7496.06 649.285   4
  -2  -3 -16 7481.25 440.275   3
   2  -3 -16 7930.04 564.889   3
  -2   3 -15 9936.73 535.068   4
   2  -3 -15 10207.7 523.731   1
   2   3 -15 10002.9 733.497   4
  -2  -3 -15 8869.21 482.824   3
   2  -3 -15 10316.7 625.091   3
   2  -3 -14 5762.76 380.887   1
  -2   3 -14 4942.81 358.774   4
  -2  -3 -14 4315.28 325.862   3
   2  -3 -14 5635.07 447.364   3
  -2   3 -13 5699.04 380.043   4
  -2  -3 -13 5890.22 369.106   3
   2  -3 -13 7368.26 504.909   3
  -2  -3 -12 29514.9 924.208   3
   2  -3 -12 32157.3 1111.57   3
   2   3 -11 7343.28 247.054   6
   2  -3 -11 8344.30 280.588   5
   2  -3 -11 8089.12 501.243   3
  -2  -3 -11 7728.12 400.837   3
  -2  -3 -10 2773.82 239.853   3
   2   3 -10 2927.64 147.667   6
  -2  -3 -10 3037.61 271.696   5
   2  -3 -10 2933.11 172.702   5
   2  -3 -10 3079.61 301.875   3
   2  -3  -9 12223.6 615.143   3
  -2  -3  -9 10634.4 488.876   3
   2   3  -9 12323.7 368.238   6
  -2  -3  -9 11627.1 550.316   5
   2  -3  -9 12763.4 440.829   5
   2  -3  -8 5998.54 307.238   5
   2  -3  -8 5975.12 419.453   3
   2   3  -8 6233.06 254.025   6
  -2  -3  -8 6050.45 381.736   5
   2  -3  -7 7901.48 376.513   5
   2  -3  -7 8120.54 491.123   3
   2   3  -7 8200.20 310.575   6
  -2  -3  -7 8395.18 445.761   5
  -2  -3  -7 6659.90 240.421   1
   2  -3  -6 1805.67 182.712   5
   2  -3  -6 2017.78 244.328   3
  -2  -3  -6 1881.82 213.452   5
  -2  -3  -6 1758.03 123.952   1
   2   3  -6 2035.58 156.055   6
   2  -3  -5 13595.9 558.252   5
   2   3  -5 13951.3 496.560   6
  -2  -3  -5 12029.6 420.666   1
  -2  -3  -5 13089.0 573.691   5
   2  -3  -4 14952.2 597.388   5
   2   3  -4 14225.1 533.479   6
  -2  -3  -4 13889.4 482.960   1
  -2  -3  -4 14392.0 602.918   5
   2  -3  -3 30656.9 943.763   5
   2  -3  -3 30279.8 1171.85   2
  -2  -3  -3 29041.1 826.948   1
  -2  -3  -3 30524.1 955.839   5
   2  -3  -2 3704.22 286.410   5
   2  -3  -2 3466.23 358.949   2
  -2  -3  -2 3600.94 286.039   5
  -2  -3  -2 3462.88 246.535   1
   2  -3  -1 35611.9 979.793   5
   2  -3  -1 34745.9 1138.91   2
  -2  -3  -1 35021.0 988.729   5
  -2  -3  -1 34302.9 912.975   1
   2  -3   0 69550.8 1711.44   5
   2   3   0 66816.8 1412.08   2
   2  -3   0 73846.3 1754.09   6
  -2  -3   0 70360.9 1670.89   1
   2  -3   0 66665.4 1830.42   2
  -2  -3   0 68125.5 1720.95   5
  -2  -3   1 32356.9 982.510   1
   2  -3   1 31936.2 997.559   6
   2  -3   1 31609.1 991.984   5
  -2  -3   1 30334.3 1004.53   5
  -2  -3   2 3048.60 267.293   1
   2  -3   2 3100.68 262.176   6
  -2  -3   2 2737.50 267.909   5
   2  -3   3 32968.9 988.283   6
  -2  -3   3 31499.1 1023.29   1
  -2  -3   3 32955.7 1085.63   5
   2  -3   4 14339.8 582.932   6
  -2  -3   4 14075.5 667.507   5
  -2  -3   5 10967.7 586.717   5
   2  -3   5 10155.9 481.363   6
  -2  -3   6 1977.72 247.221   5
   2  -3   6 1837.92 191.704   6
  -2  -3   7 8294.96 532.122   5
   2  -3   7 8606.66 429.674   6
  -2  -3   8 6316.86 473.231   5
   2  -3   8 6272.36 365.324   6
  -2   3   8 6231.90 541.352   2
  -2  -3   9 9626.90 603.206   5
   2  -3   9 9439.80 462.591   6
  -2   3   9 9760.17 709.524   2
  -2  -3  10 2766.18 324.405   5
   2  -3  10 3224.36 271.379   6
  -2   3  10 3372.61 429.547   2
  -2  -3  11 6763.61 532.939   5
  -2   3  11 8662.59 692.490   2
   2  -3  11 7677.21 420.809   6
  -2  -3  11 7107.27 354.107   2
  -2  -3  12 24784.4 1105.30   5
   2  -3  12 26261.8 879.835   6
  -2  -3  12 26462.4 877.681   2
  -2   3  12 28941.8 1364.61   2
  -2  -3  13 5061.49 477.967   5
  -2   3  13 6385.16 632.547   2
  -2  -3  13 4881.60 370.072   2
   2  -3  13 5286.65 355.099   6
  -2  -3  14 5037.04 480.684   5
   2  -3  14 4650.74 346.106   6
  -2   3  14 5836.20 617.535   2
  -2  -3  14 5217.42 413.982   2
  -2  -3  15 9604.11 680.613   5
   2  -3  15 9011.95 501.503   6
  -2  -3  15 9913.32 623.203   2
  -2  -3  16 5871.88 530.760   5
   2  -3  16 5578.91 387.598   6
  -2  -3  16 5986.55 503.915   2
  -2   3  16 6467.10 673.541   2
  -2   3  17 1637.83 354.548   2
  -2  -3  17 1901.99 307.398   5
   2  -3  17 1331.36 190.740   6
   2   3  17 1169.67 207.683   6
  -2  -3  17 1336.15 256.839   2
  -2   3  18 541.254 228.181   2
  -2  -3  18 176.562 107.731   5
   2  -3  18 275.563 109.483   6
   2   3  18 159.208 83.6771   6
  -2  -3  18 158.689 110.583   2
  -2  -3  19 5618.32 540.607   5
   2   3  19 6375.10 643.334   2
  -2   3  19 6259.22 712.377   2
   2   3  19 4858.05 448.447   6
   2  -3  19 4920.74 390.315   6
  -2   3  20 3049.94 535.936   2
  -2  -3  20 2453.87 345.543   5
   2  -3  20 1680.19 277.935   5
   2  -3  20 2547.41 284.033   6
   2   3  20 3024.99 452.539   2
   2   3  20 2071.87 303.313   6
  -2   3  21 3148.41 523.145   2
   2  -3  21 2445.83 279.316   6
   2  -3  21 2223.37 319.081   5
   2   3  21 2892.75 462.077   2
   2   3  21 2477.34 333.324   6
  -2   3  22 861.046 302.755   2
   2  -3  22 631.654 190.101   5
   2  -3  22 910.092 171.615   6
   2   3  22 1079.73 296.713   2
   2   3  22 622.279 188.209   6
   2  -3  23 3156.25 328.206   6
   2  -3  23 2382.24 340.075   5
   2   3  23 2566.44 360.834   6
   2  -3  24 6192.40 586.227   5
   2  -3  24 7860.75 532.776   6
   2  -3  25 1407.78 300.104   5
   2   4 -22 3317.81 526.410   4
   2   4 -21 3272.81 512.708   4
   2  -4 -21 3418.18 463.145   3
   2  -4 -20 189.887 134.496   3
   2   4 -20 8.94512 135.423   4
   2  -4 -19 2829.86 400.830   3
   2   4 -19 2576.53 431.777   4
  -2  -4 -18 444.859 141.716   3
   2  -4 -18 765.550 221.861   3
   2   4 -18 739.114 240.657   4
   2   4 -17 4133.30 523.108   4
  -2  -4 -17 3474.11 340.572   3
   2  -4 -17 4456.53 463.725   3
   2  -4 -16 3513.42 320.414   1
  -2  -4 -16 3086.12 315.145   3
   2  -4 -16 4059.23 441.991   3
   2  -4 -15 4934.07 378.352   1
  -2   4 -15 4794.49 412.704   4
  -2  -4 -15 4426.35 375.797   3
   2  -4 -15 5236.00 501.710   3
  -2  -4 -14 51.8687 73.0116   3
   2  -4 -14 214.388 142.377   3
   2  -4 -13 3291.86 374.995   3
  -2  -4 -13 2425.76 269.584   3
  -2  -4 -12 75.6612 66.0455   5
   2  -4 -12 98.2214 85.2922   3
  -2  -4 -12 0.58291 59.1336   3
   2  -4 -12 55.5374 42.5161   5
   2  -4 -11 1931.43 288.035   3
  -2  -4 -11 1288.22 196.967   3
  -2  -4 -11 1923.05 247.635   5
   2  -4 -11 2058.46 179.215   5
   2  -4 -10 3824.97 388.169   3
   2  -4 -10 4610.53 286.175   5
  -2  -4 -10 4406.10 368.893   5
   2  -4  -9 6651.76 508.481   3
   2   4  -9 6987.41 327.741   6
  -2  -4  -9 6598.20 448.862   5
   2  -4  -9 7346.24 383.128   5
   2  -4  -8 1328.32 175.115   5
   2   4  -8 1558.38 155.226   6
   2  -4  -8 1354.20 220.023   3
  -2  -4  -8 834.810 101.816   1
  -2  -4  -8 1610.61 231.371   5
   2  -4  -7 2233.53 233.862   5
   2   4  -7 2301.38 209.067   6
  -2  -4  -7 1787.62 162.866   1
  -2  -4  -7 1972.85 246.107   5
   2  -4  -6 20.6269 59.1782   5
  -2  -4  -6-19.0958 59.4858   5
  -2  -4  -6 150.044 58.4346   1
  -2  -4  -5 8320.38 434.890   1
   2  -4  -5 10161.4 539.254   5
  -2  -4  -5 9565.74 545.566   5
   2  -4  -4 2174.27 247.522   5
  -2  -4  -4 1747.99 205.314   1
  -2  -4  -4 1854.72 235.832   5
   2  -4  -3 5805.60 411.481   5
  -2  -4  -3 4532.05 356.574   1
  -2  -4  -3 5273.39 399.692   5
   2  -4  -2 2676.61 280.492   5
  -2  -4  -2 2590.64 278.024   1
  -2  -4  -2 2028.88 256.509   5
   2  -4  -1 7035.88 466.493   5
  -2  -4  -1 6020.90 443.802   1
  -2  -4  -1 6027.76 437.983   5
  -2  -4   0 65.3030 65.3496   5
   2  -4   0 77.9005 85.3224   5
   2  -4   1 7088.08 473.418   5
   2   4   1 6055.41 313.417   2
  -2  -4   1 6822.27 479.868   5
   2  -4   2 2284.42 277.027   5
   2   4   2 2226.83 207.753   2
  -2  -4   2 2336.31 286.315   5
   2  -4   3 5513.51 423.647   5
   2  -4   3 5823.27 407.402   6
   2   4   3 5062.87 334.989   2
  -2  -4   3 5569.67 455.685   5
   2  -4   4 2108.61 262.501   5
  -2  -4   4 1599.31 248.766   5
   2  -4   4 1884.62 233.943   6
   2   4   4 2092.04 217.664   2
  -2  -4   5 9219.13 610.342   5
   2  -4   5 9135.11 570.350   5
   2  -4   5 8514.50 505.387   6
  -2  -4   6-39.2682 89.4193   5
   2  -4   6 24.6897 71.1170   6
   2  -4   6 29.8183 62.6873   5
  -2  -4   7 2202.60 307.694   5
   2  -4   7 2298.98 285.242   5
   2   4   7 2434.62 275.225   2
   2  -4   7 2111.53 253.040   6
  -2  -4   8 1683.33 268.273   5
   2  -4   8 1432.80 207.263   6
   2  -4   8 1249.66 223.811   5
   2   4   8 1448.07 222.889   2
  -2  -4   9 6254.73 536.874   5
   2  -4   9 5554.85 455.712   5
   2   4   9 6065.38 463.562   2
   2  -4   9 5994.99 404.668   6
  -2  -4  10 3769.37 429.803   5
   2  -4  10 3382.95 354.399   5
   2  -4  10 3578.33 322.066   6
   2   4  10 3729.81 376.664   2
  -2   4  10 3535.23 449.583   2
  -2  -4  11 1939.90 319.498   5
   2   4  11 1918.44 282.598   2
   2  -4  11 1594.76 219.405   6
  -2   4  11 1717.86 323.148   2
   2  -4  11 1783.45 263.093   5
  -2   4  12 228.661 160.586   2
  -2  -4  12 220.084 115.029   5
   2  -4  12 36.5005 66.4442   5
   2  -4  12 88.9156 80.8045   6
   2   4  12 167.307 103.789   2
   2  -4  13 2221.10 299.414   5
  -2  -4  13 2529.81 361.802   5
   2   4  13 2520.55 342.525   2
   2  -4  13 2666.96 276.743   6
  -2   4  13 3147.23 458.568   2
  -2   4  14-121.757 122.156   2
  -2  -4  14 192.459 140.443   5
   2  -4  14 159.364 98.4681   5
   2  -4  14 129.011 87.6557   6
   2   4  14 39.6762 82.9637   2
  -2  -4  15 4874.91 525.918   5
   2  -4  15 3446.19 389.389   5
   2   4  15 4167.04 476.379   2
  -2   4  15 4959.36 594.833   2
   2  -4  15 4160.38 356.612   6
  -2  -4  16 4059.84 485.540   5
   2  -4  16 3079.00 367.118   5
   2  -4  16 3649.59 333.963   6
  -2   4  16 4339.70 561.592   2
   2   4  16 3390.53 455.080   2
  -2  -4  17 4175.95 502.461   5
   2  -4  17 2818.68 360.345   5
  -2   4  17 3585.74 535.550   2
   2  -4  17 3264.41 322.982   6
   2   4  17 3295.36 451.011   2
  -2   4  18 397.384 181.154   2
  -2  -4  18 377.894 162.767   5
   2  -4  18 440.879 166.619   5
   2  -4  18 352.347 107.944   6
   2   4  18 882.464 260.608   2
  -2   4  19 2471.73 455.598   2
  -2  -4  19 3267.74 445.351   5
   2  -4  19 2400.96 284.923   6
   2  -4  19 2022.79 310.298   5
   2   4  19 2459.18 421.176   2
   2   4  19 1873.79 293.172   6
  -2   4  20 241.555 212.773   2
  -2  -4  20 234.410 157.490   5
   2  -4  20 46.3565 97.0263   5
   2  -4  20 186.013 121.236   6
   2   4  20-304.433 173.438   2
   2   4  20-69.0393 101.158   6
  -2  -4  21 2524.90 393.264   5
   2  -4  21 2613.70 305.408   6
   2   4  21 1966.78 402.958   2
   2   4  21 1907.27 336.723   6
   2  -4  21 1982.12 326.786   5
   2  -4  22 1951.59 342.041   5
   2  -4  22 2322.86 286.240   6
   2   5 -19 684.710 256.817   4
   2   5 -18 11745.0 1008.40   4
   2  -5 -18 12047.1 881.302   3
  -2  -5 -17 534.323 160.928   3
   2  -5 -17 343.272 187.967   3
  -2  -5 -16 241.868 101.571   3
   2  -5 -16 406.453 159.281   3
  -2  -5 -15 823.391 184.732   3
   2  -5 -15 1624.39 310.316   3
   2  -5 -14 11253.3 784.744   3
  -2  -5 -14 7568.76 540.653   3
  -2  -5 -13 217.878 114.164   5
   2  -5 -13 95.5331 157.215   3
  -2  -5 -13 62.2255 82.3707   3
  -2  -5 -12 2108.29 285.783   5
   2  -5 -12 2012.09 326.435   3
  -2  -5 -12 1263.50 215.826   3
  -2  -5 -11 466.252 140.782   5
   2  -5 -11 453.014 150.366   3
   2  -5 -11 585.714 118.914   5
  -2  -5 -11 300.962 125.578   3
   2  -5 -10 12937.7 834.586   3
  -2  -5 -10 14284.5 768.500   5
  -2  -5  -9 1973.50 274.638   5
   2  -5  -9 1694.95 293.561   3
   2  -5  -9 2154.61 242.713   5
  -2  -5  -8 731.536 195.960   5
   2  -5  -8 622.913 186.904   3
   2  -5  -8 980.801 172.225   5
  -2  -5  -7 1234.36 226.110   5
   2  -5  -7 1188.78 199.824   5
   2  -5  -6 30193.0 1092.34   5
  -2  -5  -6 30273.0 1171.48   5
   2  -5  -5 2947.37 315.343   5
  -2  -5  -5 2608.24 322.986   5
  -2  -5  -4 1151.07 223.512   5
   2  -5  -4 978.103 189.791   5
   2  -5  -3 2862.20 320.762   5
  -2  -5  -3 2719.39 320.893   5
   2  -5  -2 18758.4 870.626   5
  -2  -5  -2 16765.2 847.637   5
  -2  -5  -1 184.022 116.149   5
   2  -5  -1 507.323 158.464   5
   2  -5   0 4424.48 423.021   5
  -2  -5   0 4663.66 434.363   5
  -2  -5   1 480.737 154.304   5
   2  -5   1 769.007 176.072   5
   2  -5   2 17723.8 883.470   5
  -2  -5   2 17060.7 901.045   5
   2  -5   3 1658.66 267.151   5
  -2  -5   3 1888.19 308.520   5
   2   5   3 1706.34 205.085   2
   2  -5   4 1860.58 287.473   5
  -2  -5   4 1516.79 273.966   5
   2  -5   5 2756.10 348.018   5
  -2  -5   5 3507.11 414.156   5
  -2  -5   6 31571.3 1329.49   5
   2  -5   6 27912.7 1213.70   5
   2   5   6 30298.5 1110.16   2
  -2  -5   7 828.158 232.890   5
   2  -5   7 912.545 212.537   5
   2   5   7 507.788 152.539   2
  -2  -5   8 826.995 212.889   5
   2  -5   8 767.483 190.983   5
   2  -5   8 676.115 184.244   6
   2   5   8 419.627 158.733   2
   2  -5   9 1959.36 275.494   6
   2  -5   9 2142.66 324.925   5
   2   5   9 2359.70 311.349   2
   2  -5  10 12660.7 801.663   5
   2  -5  10 14626.7 739.388   6
   2   5  10 14041.1 820.674   2
   2  -5  11 441.339 163.035   5
  -2  -5  11 615.023 191.616   5
   2  -5  11 530.374 132.116   6
   2   5  11 439.511 151.570   2
  -2  -5  12 2846.52 411.466   5
   2  -5  12 2438.68 295.744   6
   2  -5  12 2434.52 335.162   5
   2   5  12 2055.48 343.795   2
  -2  -5  13 120.287 143.509   5
   2  -5  13 76.4374 83.8587   6
   2  -5  13 298.691 141.947   5
   2   5  13 22.9007 81.8314   2
   2  -5  14 8354.19 653.562   5
   2   5  14 8783.26 714.960   2
   2  -5  14 8850.65 577.616   6
  -2   5  14 9777.50 828.827   2
   2  -5  15 1174.98 246.296   5
  -2  -5  15 1664.67 336.095   5
   2  -5  15 1590.77 251.125   6
   2   5  15 1183.34 285.585   2
  -2   5  16 918.499 285.105   2
  -2  -5  16 952.117 258.204   5
   2  -5  16 879.446 219.294   5
   2  -5  16 942.346 199.740   6
   2   5  16 783.563 236.216   2
  -2   5  17 650.928 240.423   2
  -2  -5  17 850.455 250.343   5
   2  -5  17 456.490 163.145   5
   2  -5  17 296.939 123.535   6
   2   5  17 984.491 290.285   2
  -2  -5  18 11515.3 887.305   5
   2  -5  18 8695.83 710.622   5
  -2   5  18 10578.3 938.111   2
   2   5  18 8558.33 810.525   2
   2  -5  18 8794.39 593.396   6
  -2  -5  19 1188.50 293.670   5
   2  -5  19 1033.80 203.339   6
   2  -5  19 894.092 237.166   5
   2   5  19 878.848 265.603   2
  -2  -5  20 201.849 191.647   5
   2  -5  20 47.0260 94.7613   6
  -2  -6 -14 1710.74 295.722   5
   2  -6 -14 1953.19 382.716   3
  -2  -6 -14 1065.78 232.559   3
  -2  -6 -13 2468.03 349.165   5
   2  -6 -13 1828.51 352.386   3
  -2  -6 -13 1448.37 268.715   3
  -2  -6 -12 2063.36 324.262   5
   2  -6 -12 2084.55 354.294   3
  -2  -6 -11 663.578 205.663   5
   2  -6 -11 724.289 229.918   3
  -2  -6 -11 510.385 175.650   3
   2  -6 -10 2007.55 366.318   3
  -2  -6 -10 2565.12 371.978   5
  -2  -6  -9 1456.87 280.227   5
   2  -6  -9 1811.15 246.593   5
   2  -6  -9 1432.27 298.771   3
  -2  -6  -8 26.8770 99.7184   5
   2  -6  -8-75.1144 103.913   5
  -2  -6  -7-119.054 114.387   5
   2  -6  -7 81.7426 85.6740   5
  -2  -6  -6 217.756 121.573   5
   2  -6  -6 181.736 87.2198   5
  -2  -6  -5 433.368 161.853   5
   2  -6  -5 735.300 173.870   5
  -2  -6  -4 555.068 190.610   5
   2  -6  -4 534.549 152.179   5
  -2  -6  -3 390.862 157.636   5
   2  -6  -3 368.643 137.304   5
  -2  -6  -2 1005.30 241.339   5
   2  -6  -2 1563.01 264.444   5
   2  -6  -1 2334.50 327.503   5
  -2  -6  -1 2189.80 330.158   5
   2  -6   0 4507.52 461.650   5
  -2  -6   0 4583.11 472.762   5
   2  -6   1 2473.33 350.142   5
  -2  -6   1 2536.29 370.799   5
  -2  -6   2 1029.64 244.014   5
   2  -6   2 1243.35 259.870   5
  -2  -6   3 256.157 150.670   5
   2  -6   3 433.241 159.526   5
  -2  -6   4 947.624 236.549   5
   2  -6   4 763.017 211.558   5
  -2  -6   5 1074.87 259.455   5
   2  -6   5 804.589 213.230   5
  -2  -6   6 254.041 159.715   5
   2  -6   6 155.404 115.461   5
   2  -6   7-67.6190 104.863   5
  -2  -6   7 420.185 173.880   5
  -2  -6   8 267.351 165.746   5
   2  -6   8 272.717 123.591   5
  -2  -6   9 1971.21 358.379   5
   2  -6   9 1615.93 302.980   5
  -2  -6  10 3188.53 457.014   5
   2  -6  10 2635.84 386.273   5
  -2  -6  11 1208.39 287.536   5
   2  -6  11 1016.86 276.150   5
  -2  -6  12 1916.45 360.599   5
   2  -6  12 1344.79 286.342   5
  -2  -6  13 2252.52 389.078   5
   2  -6  13 2496.49 394.993   5
  -2  -6  14 2987.16 445.522   5
   2  -6  14 2902.58 414.529   5
   2   6  15 302.829 156.759   2
  -2  -6  15 631.741 230.158   5
   2   6  16 372.220 176.632   2
  -2  -6  16 20.2937 115.624   5
  -2  -7 -12 278.991 147.962   5
  -2  -7 -11 2447.32 391.820   5
  -2  -7 -11 1745.61 326.359   3
  -2  -7 -10 278.523 217.444   5
  -2  -7  -9 6215.93 595.754   5
  -2  -7  -8 477.896 177.996   5
  -2  -7  -7 4596.98 523.297   5
   2  -7  -7 4553.05 459.736   5
  -2  -7  -6 302.151 162.452   5
   2  -7  -6 167.654 125.210   5
   2  -7  -5 5181.81 490.930   5
  -2  -7  -5 4548.52 533.838   5
  -2  -7  -4 962.611 232.392   5
   2  -7  -4 979.161 236.705   5
   2  -7  -3 5393.31 522.176   5
  -2  -7  -3 5558.94 550.075   5
  -2  -7  -2 427.668 171.605   5
   2  -7  -2 250.524 163.456   5
   2  -7  -1 5875.12 544.800   5
  -2  -7  -1 4755.88 532.078   5
  -2  -7   0 139.621 141.684   5
   2  -7   0 76.8128 114.148   5
   2  -7   1 3971.68 470.407   5
  -2  -7   1 4129.43 490.346   5
   2  -7   2 403.531 183.160   5
  -2  -7   2 270.316 143.051   5
   2  -7   3 6684.97 620.081   5
  -2  -7   3 7473.28 665.381   5
  -2  -7   4 1158.31 282.002   5
   2  -7   4 1539.16 304.108   5
   2  -7   5 4794.81 530.357   5
  -2  -7   5 4434.07 526.447   5
   2  -7   6 341.415 163.905   5
  -2  -7   6 430.247 196.306   5
   2  -7   7 5511.56 602.592   5
  -2  -7   7 6778.82 663.751   5
   3   0 -21 9252.85 700.953   1
   3   0 -20 137.355 107.594   1
   3   0 -19 12499.9 779.136   1
   3   0 -18-66.0250 100.471   1
   3   0 -17 15081.2 789.406   1
   3   0 -16 18.0537 83.1827   1
   3   0 -15 8293.06 527.410   1
   3   0 -14 9.90892 79.2856   1
   3   0 -13 861.519 171.524   1
   3   0 -12-28.4155 57.9820   1
   3   0 -12 54.5087 66.0513   4
   3   0 -11 748.526 142.817   1
   3   0 -11 936.861 175.128   4
   3   0 -10 43.5017 53.7491   1
   3   0 -10-2.77551 31.3005   5
   3   0 -10-35.0570 61.4011   4
   3   0  -9 13004.3 450.396   5
   3   0  -9 14182.5 760.103   2
   3   0  -9 14170.9 658.742   4
   3   0  -9 13742.0 578.452   1
   3   0  -8 25.7938 27.1933   5
   3   0  -8-24.5315 60.9357   4
   3   0  -8-20.9434 60.6578   2
   3   0  -7 21483.2 795.702   4
   3   0  -7 21731.0 953.955   2
   3   0  -7 20688.8 593.593   5
   3   0  -6-16.6580 79.6765   2
   3   0  -6 13.7473 42.9087   4
   3   0  -6 1.71986 32.4004   5
   3   0  -5 34458.2 849.416   6
   3   0  -5 38781.6 1072.48   4
   3   0  -5 38043.2 1264.93   2
   3   0  -5 35975.1 869.191   5
   3   0  -4 43.3832 51.4246   2
   3   0  -4-3.79654 22.8823   5
  -3   0  -4-5.28434 37.3025   6
   3   0  -4 13.5839 30.1518   6
   3   0  -4-7.23598 32.1145   4
   3   0  -3 16134.9 472.108   6
   3   0  -3 17945.4 605.278   4
  -3   0  -3 15733.4 549.914   6
   3   0  -3 16018.8 492.200   5
   3   0  -2-7.19723 24.5574   5
   3   0  -2-24.2655 32.5564   6
   3   0  -2 9.43888 32.1623   4
  -3   0  -2 12.8579 37.4750   6
   3   0  -1 4670.32 226.536   6
  -3   0  -1 4408.83 238.401   6
   3   0  -1 4647.41 258.604   4
   3   0  -1 4097.71 222.524   5
   3   0   0 9.26955 20.4136   5
   3   0   0 9.94762 29.4993   6
   3   0   0 5.27127 20.2627   4
  -3   0   0-7.10643 32.5867   6
  -3   0   1 4470.95 208.537   3
  -3   0   1 4465.68 228.119   6
   3   0   1 4506.34 237.699   6
   3   0   1 4255.38 236.685   5
   3   0   1 4223.00 216.229   4
  -3   0   2 34.6319 33.0122   3
   3   0   2 45.8471 42.1179   6
  -3   0   2-16.0698 33.9471   6
   3   0   2-5.95953 18.0360   4
   3   0   3 15624.5 521.440   6
  -3   0   3 15534.1 457.190   6
  -3   0   3 16456.6 496.731   3
  -3   0   4-9.46762 22.9661   3
  -3   0   4 30.9127 23.1705   6
   3   0   4 47.4603 43.3802   6
   3   0   5 34048.3 927.068   6
  -3   0   5 33223.2 770.724   6
  -3   0   5 36623.4 902.581   3
  -3   0   6 3.41860 34.2346   3
  -3   0   6-13.3419 28.0915   6
   3   0   6-18.5906 48.9368   6
  -3   0   7 18465.2 471.957   6
   3   0   7 19288.6 659.998   6
  -3   0   7 19876.8 635.537   3
   3   0   8 16.5714 14.6291   3
  -3   0   8 56.4298 55.0973   3
   3   0   8 1.57155 15.9360   4
  -3   0   8 13.1830 24.4943   6
   3   0   8 5.72771 46.1067   6
  -3   0   9 11788.6 309.618   6
   3   0   9 8429.81 266.189   4
   3   0   9 9560.23 262.384   3
   3   0   9 11801.1 510.950   6
   3   0  10 4.77914 17.0121   3
  -3   0  10-29.4803 82.3426   2
  -3   0  10 9.06417 19.7716   6
   3   0  10-6.06370 21.6687   4
   3   0  10-23.6078 56.6580   6
  -3   0  11 1162.02 230.339   2
  -3   0  11 964.084 76.5643   6
   3   0  11 818.145 78.6664   4
   3   0  11 962.506 155.173   6
   3   0  11 909.807 77.9462   3
   3   0  12-8.09648 22.2192   3
  -3   0  12-1.21286 27.3737   6
   3   0  12-51.6858 77.6259   6
  -3   0  13 1232.26 98.8794   6
  -3   0  13 1216.40 268.023   2
   3   0  13 1230.43 181.834   6
   3   0  13 1060.47 100.572   3
  -3   0  14-39.1881 85.5543   2
   3   0  14 15.1184 33.8801   3
  -3   0  14 58.3671 34.4984   6
   3   0  14-52.8170 87.2603   6
  -3   0  15 6724.80 276.137   6
  -3   0  15 6774.98 251.269   6
  -3   0  15 6622.83 693.921   2
   3   0  15 5992.75 288.720   3
   3   0  15 7164.75 453.233   6
  -3   0  16-148.399 135.274   2
   3   0  16 4.63999 63.4845   6
  -3   0  16 15.1324 38.1004   6
  -3   0  17 13001.2 390.798   6
   3   0  17 12610.0 649.117   6
  -3   0  17 12572.7 1051.46   2
  -3   0  18 228.988 172.759   2
   3   0  18 63.5084 93.8915   6
   3   0  19 10257.9 607.475   6
  -3   0  19 9367.54 969.003   2
  -3   0  20 138.979 157.989   2
   3   0  20 102.546 102.111   6
   3   0  21 7082.98 520.845   6
  -3   0  21 6792.42 873.849   2
  -3   0  22-329.427 232.254   2
   3   0  22 185.616 143.164   6
  -3   0  23 423.888 256.080   2
   3   0  23 840.067 192.670   6
  -3   0  24 547.565 314.487   2
   3   0  24 151.789 128.801   6
  -3   0  25 1485.97 494.019   2
   3   0  25 749.090 211.423   6
   3  -1 -23 1759.18 306.593   1
   3  -1 -22 3813.10 445.839   1
   3  -1 -21 2349.27 330.402   1
   3  -1 -20 1440.07 251.227   1
   3  -1 -19 374.527 129.801   1
   3  -1 -18 3487.59 371.420   1
   3   1 -18 3707.84 448.407   4
   3   1 -18 2893.56 373.853   1
   3   1 -17 876.415 205.600   1
   3   1 -17 1125.91 237.652   4
   3  -1 -17 1025.93 199.446   1
   3   1 -16 4837.46 452.901   1
   3   1 -16 4844.92 478.680   4
   3  -1 -16 4929.94 398.999   1
   3   1 -15 2647.98 345.721   4
   3   1 -15 2582.09 321.518   1
   3  -1 -15 2573.13 282.499   1
   3   1 -14 11638.6 715.365   4
   3   1 -14 10850.9 638.207   1
   3  -1 -14 11188.1 584.762   1
   3   1 -13 3172.47 331.828   1
   3   1 -13 4042.47 400.225   4
   3  -1 -13 3800.07 318.815   1
   3   1 -12 16728.2 765.881   1
   3   1 -12 17374.9 838.272   4
   3  -1 -12 16142.2 684.607   1
   3   1 -11 3996.52 334.853   1
   3   1 -11 3827.12 281.076   5
   3   1 -11 3995.96 378.195   4
   3  -1 -11 3794.66 300.116   1
   3  -1 -11 3552.08 286.389   3
   3   1 -10 8607.18 483.767   1
   3   1 -10 8592.82 447.370   5
   3   1 -10 10011.5 559.923   2
   3  -1 -10 8635.51 449.624   1
   3   1 -10 9505.31 569.409   4
   3  -1 -10 8812.78 450.225   3
   3   1  -9 3760.23 301.810   1
   3   1  -9 3605.11 281.382   5
   3  -1  -9 3644.76 273.163   1
   3   1  -9 4218.84 349.264   2
   3   1  -9 4163.19 358.544   4
   3  -1  -9 3774.34 277.558   3
   3   1  -8 4856.53 318.430   5
   3  -1  -8 5347.78 324.912   1
   3   1  -8 5183.39 390.244   2
   3   1  -8 5400.97 397.492   4
   3  -1  -8 5001.20 310.037   3
   3  -1  -8 4959.78 185.177   5
   3   1  -7 1251.49 151.098   5
   3   1  -7 1132.47 180.848   2
   3   1  -7 1182.46 180.203   4
   3  -1  -7 1364.83 154.303   3
   3  -1  -7 1231.20 90.6465   5
   3   1  -6 4596.66 285.346   5
   3   1  -6 4126.06 339.362   2
   3  -1  -6 3903.72 403.885   2
   3  -1  -6 3756.63 173.426   5
   3  -1  -6 4294.21 264.682   3
   3   1  -5 1717.47 167.625   5
   3  -1  -5 1614.81 248.649   2
   3  -1  -5 1622.52 161.258   6
   3   1  -5 1635.48 89.7292   6
   3   1  -5 1745.92 220.549   2
   3  -1  -5 1258.10 100.336   5
   3  -1  -5 1576.71 154.542   3
   3   1  -4 5995.89 215.641   6
   3  -1  -4 6306.56 484.608   2
   3   1  -4 5861.31 392.413   2
   3  -1  -4 6370.08 309.688   3
   3  -1  -4 6460.25 322.738   6
   3   1  -4 6423.56 334.250   5
   3  -1  -3 9229.09 382.888   6
   3   1  -3 8529.78 285.765   6
   3   1  -3 8803.48 390.384   1
   3  -1  -3 7993.32 519.874   2
   3  -1  -3 8686.38 358.814   3
   3   1  -3 9299.80 395.372   5
   3  -1  -2 18933.6 581.423   6
   3   1  -2 17922.3 492.161   6
  -3   1  -2 19177.3 614.789   6
   3   1  -2 18080.6 584.567   1
  -3  -1  -2 16901.2 403.416   3
   3   1  -2 18986.2 601.509   5
   3  -1  -2 18941.8 555.291   3
   3  -1  -1 5203.11 274.007   6
  -3   1  -1 5649.20 294.593   6
   3   1  -1 5245.21 241.617   6
   3   1  -1 5612.36 280.466   1
  -3  -1  -1 5145.16 187.169   3
   3  -1  -1 5374.91 256.789   3
   3  -1   0 22215.0 613.243   3
   3  -1   0 22531.9 664.556   6
  -3   1   0 22930.7 679.422   6
   3   1   0 22297.5 619.693   6
   3   1   0 22791.2 645.422   1
  -3   1   0 22481.0 642.352   4
  -3  -1   0 21969.6 544.525   3
  -3  -1   0 22440.1 670.478   5
   3  -1   1 4573.65 233.526   3
   3  -1   1 4941.92 272.643   6
   3   1   1 4906.58 246.202   1
   3   1   1 5120.89 258.131   6
  -3   1   1 4934.76 269.648   4
  -3  -1   1 5131.99 218.146   3
  -3   1   1 5408.69 280.764   6
  -3  -1   1 5421.16 276.941   5
   3  -1   2 18397.9 602.256   6
   3   1   2 18187.6 536.093   1
  -3   1   2 19611.2 596.570   6
  -3   1   2 18990.3 627.123   4
  -3  -1   2 18641.2 532.440   3
  -3  -1   2 18776.2 587.361   5
   3   1   2 19382.1 593.884   6
   3  -1   3 8103.29 362.959   6
  -3   1   3 8016.23 343.221   6
   3   1   3 7545.25 358.853   6
  -3   1   3 8576.98 401.326   4
   3   1   3 7620.94 296.553   1
  -3  -1   3 7769.41 319.395   3
  -3  -1   3 7811.09 337.870   5
   3   1   4 7178.84 277.788   1
  -3   1   4 7811.88 337.073   6
   3   1   4 7578.00 368.841   6
  -3   1   4 7868.23 398.035   4
   3  -1   4 6874.68 345.366   6
  -3  -1   4 7279.97 322.086   3
  -3  -1   4 7407.90 325.095   5
   3   1   5 1305.06 152.785   6
   3   1   5 1162.94 99.3746   1
  -3   1   5 1193.57 127.529   6
   3  -1   5 1107.43 138.612   6
  -3  -1   5 1409.28 142.684   3
  -3  -1   5 1202.15 125.419   5
  -3   1   6 4034.72 235.883   6
   3   1   6 3844.37 178.958   1
   3   1   6 3922.77 277.704   6
  -3  -1   6 4136.36 259.246   3
   3  -1   6 3861.48 257.814   6
  -3  -1   6 3975.98 226.927   5
  -3   1   7 1261.51 149.678   3
  -3   1   7 1370.78 182.875   4
  -3   1   7 1172.04 124.354   6
   3   1   7 1186.31 160.229   6
   3  -1   7 1041.19 134.989   6
  -3  -1   7 1356.64 149.399   3
  -3  -1   7 1225.96 122.563   5
  -3   1   8 4751.63 265.416   6
   3  -1   8 4609.56 295.529   6
   3   1   8 4693.55 319.186   6
  -3  -1   8 4305.82 235.036   5
   3   1   9 3565.84 288.622   6
  -3   1   9 4081.53 253.295   6
   3  -1   9 3655.87 271.257   6
  -3  -1   9 3601.75 211.468   5
  -3   1  10 7220.69 361.065   6
   3   1  10 7637.99 432.927   6
   3  -1  10 7251.49 396.200   6
  -3   1  10 6067.35 547.954   2
  -3  -1  10 6833.60 299.394   5
  -3   1  11 2995.90 236.607   6
   3  -1  11 4062.57 298.119   6
   3   1  11 4047.58 313.415   6
  -3   1  11 3225.50 422.104   2
  -3  -1  11 3743.68 367.736   2
  -3  -1  11 3452.33 202.115   5
   3  -1  12 14536.2 603.066   6
   3   1  12 14130.2 633.999   6
  -3   1  12 12270.6 880.880   2
  -3  -1  12 13301.5 778.212   2
  -3  -1  12 13633.7 438.571   5
  -3   1  13 3188.28 269.066   6
   3  -1  13 2736.95 265.833   6
   3   1  13 2822.17 282.446   6
  -3   1  13 3042.68 437.635   2
  -3  -1  13 3208.16 393.497   2
  -3  -1  13 2950.39 183.298   5
  -3   1  14 10812.5 535.047   6
   3  -1  14 9854.91 517.474   6
   3   1  14 8079.08 428.909   4
   3   1  14 10756.2 564.670   6
  -3  -1  14 9787.23 736.664   2
  -3  -1  14 9497.99 352.492   5
  -3   1  14 9967.31 834.446   2
  -3  -1  15 1642.71 309.638   2
  -3   1  15 1894.48 370.301   2
   3  -1  15 1595.98 211.161   6
   3   1  15 1710.35 229.531   6
   3   1  15 1337.02 169.067   4
  -3   1  15 1772.29 226.498   6
  -3  -1  15 1398.40 121.409   5
   3  -1  16 3412.12 318.771   6
   3   1  16 3714.23 344.900   6
  -3  -1  16 4033.96 518.490   2
  -3   1  16 3354.75 527.801   2
  -3  -1  16 3470.05 190.350   5
  -3  -1  17 1125.90 312.743   2
  -3   1  17 1157.32 338.269   2
   3  -1  17 898.716 176.496   6
   3   1  17 900.185 186.170   6
  -3  -1  17 884.481 92.8164   5
  -3  -1  18 2637.77 457.943   2
  -3   1  18 2888.64 508.086   2
   3  -1  18 2694.88 293.033   6
   3   1  18 2591.20 304.899   6
  -3  -1  19 180.741 157.515   2
  -3   1  19 479.763 224.824   2
   3  -1  19 465.152 130.750   6
   3   1  19 128.944 83.1185   6
  -3  -1  20 1518.31 385.050   2
  -3   1  20 1641.35 451.851   2
   3  -1  20 1269.99 211.556   6
   3   1  20 1181.36 214.828   6
   3  -1  21 2160.76 284.705   6
  -3  -1  21 2684.47 529.906   2
  -3   1  21 1875.23 454.281   2
   3   1  21 1765.51 270.969   6
  -3  -1  22 2136.05 494.949   2
   3  -1  22 2271.12 299.620   6
   3   1  22 2041.60 296.222   6
  -3  -1  23 815.936 322.211   2
  -3   1  23 1497.32 459.145   2
   3  -1  23 1105.76 219.295   6
   3   1  23 1013.78 197.249   6
  -3  -1  24 4352.53 725.584   2
  -3   1  24 4779.05 780.082   2
   3   1  24 3305.71 384.970   6
   3  -1  24 3806.24 394.448   6
  -3  -1  25 931.006 347.335   2
   3  -1  25 637.948 167.264   6
   3   2 -22 2296.62 410.224   4
   3  -2 -21 2162.00 307.866   1
   3   2 -21 2335.71 406.681   4
   3  -2 -20 1199.72 221.488   1
   3   2 -20 902.375 234.898   4
   3   2 -19 648.792 210.811   4
   3  -2 -19 539.200 166.883   1
   3  -2 -18 903.087 194.028   1
   3   2 -18 1196.19 284.615   4
   3  -2 -17 1064.50 190.213   1
   3   2 -17 1267.91 266.049   4
   3   2 -16 2654.65 377.412   4
   3  -2 -16 3315.03 328.121   1
   3  -2 -16 2953.53 321.423   3
   3  -2 -15 3610.38 339.794   1
   3   2 -15 4305.98 470.484   4
   3  -2 -15 4117.87 371.479   3
   3  -2 -14 7029.33 462.255   1
   3   2 -14 7693.89 610.059   4
   3  -2 -14 6922.11 469.327   3
   3  -2 -13 6749.65 432.257   1
   3   2 -13 6343.64 508.148   1
   3   2 -13 6489.19 546.126   4
   3  -2 -13 6440.51 438.367   3
   3   2 -12 8722.91 537.389   5
   3  -2 -12 8771.48 494.601   1
   3   2 -12 8813.70 580.172   1
   3   2 -12 10161.8 668.242   4
   3  -2 -12 8804.26 508.901   3
   3   2 -11 10700.3 594.675   5
   3  -2 -11 9946.13 515.310   1
   3   2 -11 10584.4 670.111   4
   3   2 -11 9669.01 601.642   1
   3  -2 -11 9273.35 512.432   3
   3   2 -10 8414.70 539.881   1
   3   2 -10 8455.20 525.554   5
   3  -2 -10 8612.37 476.371   3
   3  -2  -9 4698.74 187.165   5
   3   2  -9 5067.50 393.503   5
   3   2  -9 4808.72 386.079   1
  -3  -2  -9 3770.46 176.633   3
   3  -2  -9 5352.28 358.681   3
   3   2  -8 3775.86 333.604   5
   3  -2  -8 3425.27 187.861   5
   3   2  -8 3430.50 306.409   1
  -3  -2  -8 2391.07 131.619   3
   3  -2  -8 3888.63 293.672   3
   3   2  -7 2768.54 277.501   5
   3  -2  -7 2468.18 168.947   5
   3   2  -7 2543.80 254.332   1
   3   2  -7 2692.59 216.704   2
  -3  -2  -7 1636.66 107.116   3
   3  -2  -7 2450.75 226.040   3
   3   2  -6 1808.78 220.948   5
   3   2  -6 1709.59 210.187   1
   3   2  -6 1819.20 179.243   2
   3   2  -6 1772.31 77.9933   6
   3  -2  -6 1710.72 189.392   3
   3  -2  -5 2530.12 222.252   3
   3   2  -5 2560.55 253.757   5
   3   2  -5 2395.75 238.436   1
   3   2  -5 2538.00 124.720   6
   3   2  -5 2686.31 220.914   2
  -3  -2  -5 2739.39 238.400   5
   3  -2  -4 3820.51 277.413   3
   3   2  -4 4606.39 329.009   5
   3   2  -4 3939.32 290.048   1
   3   2  -4 3916.12 179.828   6
   3   2  -4 3671.21 264.189   2
  -3  -2  -4 4154.55 298.745   5
   3   2  -3 9308.98 475.081   5
   3  -2  -3 8309.79 413.900   3
   3   2  -3 8922.34 433.646   1
   3  -2  -3 8873.57 446.829   6
   3   2  -3 8151.60 311.957   6
  -3  -2  -3 9253.45 441.076   5
   3   2  -2 11049.4 503.746   5
   3  -2  -2 9440.91 445.330   3
   3   2  -2 9193.60 438.851   1
   3  -2  -2 9234.38 450.076   6
  -3   2  -2 10416.1 477.698   6
   3   2  -2 9073.04 355.327   6
  -3  -2  -2 9770.86 455.143   5
   3   2  -1 9574.58 425.497   1
   3  -2  -1 9348.37 446.439   6
  -3   2  -1 9798.81 464.791   6
   3   2  -1 8715.59 367.145   6
  -3  -2  -1 9495.17 447.985   5
   3   2  -1 10799.7 498.914   5
   3   2   0 11398.5 454.785   1
  -3  -2   0 11565.7 446.242   1
   3  -2   0 10858.8 474.337   6
  -3   2   0 11515.9 505.056   6
   3   2   0 10746.9 422.577   6
  -3  -2   0 10220.9 469.680   5
   3   2   1 8536.29 376.090   1
  -3   2   1 9065.95 438.578   6
  -3  -2   1 8405.89 384.044   1
   3   2   1 7984.04 373.968   6
   3  -2   1 8651.24 413.452   6
  -3  -2   1 8614.08 418.944   5
   3   2   2 11097.1 430.763   1
  -3  -2   2 11701.3 469.383   1
  -3   2   2 11516.6 507.534   6
   3  -2   2 11011.9 474.688   6
   3   2   2 11354.8 464.452   6
  -3  -2   2 11327.0 490.690   5
   3   2   3 6910.67 312.658   1
   3  -2   3 6437.07 351.519   6
  -3  -2   3 6882.60 359.849   1
  -3   2   3 7092.38 393.573   6
   3   2   3 6709.48 357.603   6
  -3  -2   3 6695.76 362.165   5
   3   2   4 5024.12 252.775   1
   3  -2   4 4984.22 307.531   6
  -3   2   4 5021.66 323.411   6
  -3  -2   4 4887.01 304.841   1
   3   2   4 4480.10 295.994   6
  -3  -2   4 4977.17 306.733   5
   3   2   5 1786.28 141.736   1
   3  -2   5 2030.23 196.482   6
  -3   2   5 1617.52 194.759   4
   3   2   5 1743.04 194.618   6
  -3   2   5 1911.71 199.323   6
  -3  -2   5 1787.64 184.331   5
   3   2   6 1788.18 144.888   1
  -3   2   6 2169.80 219.755   6
   3  -2   6 2199.69 209.881   6
  -3   2   6 2131.95 232.830   4
   3   2   6 2119.68 218.108   6
  -3  -2   6 2012.96 196.414   5
   3   2   7 2924.59 170.118   1
   3  -2   7 2614.66 232.266   6
  -3   2   7 2932.42 263.821   6
   3   2   7 2558.04 245.940   6
  -3  -2   7 2680.45 226.412   5
  -3   2   8 2876.46 268.474   6
   3  -2   8 2819.75 240.932   6
   3   2   8 2638.79 252.140   6
  -3  -2   8 2967.97 240.230   5
  -3   2   9 5452.36 381.265   6
   3  -2   9 5032.41 335.194   6
   3   2   9 4955.49 363.436   6
  -3  -2   9 5440.45 328.135   5
  -3   2  10 7640.90 476.595   6
   3  -2  10 6720.53 394.756   6
   3   2  10 6465.92 432.810   6
  -3  -2  10 6879.11 379.874   5
   3   2  11 9439.45 532.006   6
   3  -2  11 10196.7 500.625   6
  -3   2  11 9810.65 754.202   2
  -3  -2  11 10150.8 475.769   5
   3  -2  12 6670.42 410.294   6
   3   2  12 6585.80 444.085   6
  -3   2  12 7548.95 687.175   2
  -3  -2  12 7291.81 397.171   5
   3  -2  13 5406.43 368.169   6
   3   2  13 5045.32 393.786   6
  -3   2  13 4662.72 562.793   2
  -3  -2  13 4739.76 393.157   2
  -3  -2  13 5146.77 334.702   5
   3  -2  14 6803.54 434.336   6
   3   2  14 6463.24 460.247   6
  -3  -2  14 6773.49 516.385   2
  -3   2  14 7976.53 756.483   2
  -3  -2  14 6828.36 390.522   5
  -3   2  15 2777.65 456.204   2
   3  -2  15 2752.06 273.210   6
   3   2  15 2390.96 282.688   6
  -3  -2  15 3143.12 374.808   2
  -3  -2  15 2538.00 231.441   5
  -3   2  16 2421.48 442.835   2
  -3  -2  16 2684.91 369.282   2
   3   2  16 2639.94 307.839   6
   3  -2  16 2758.93 281.424   6
  -3  -2  16 2573.39 232.440   5
  -3  -2  17 822.010 219.051   2
  -3   2  17 964.130 302.382   2
  -3  -2  17 536.597 101.760   5
   3  -2  17 759.089 160.600   6
   3   2  17 828.332 189.656   6
  -3  -2  18 832.529 231.234   2
  -3   2  18 1080.77 321.556   2
  -3  -2  18 862.865 127.149   5
   3  -2  18 1020.91 189.784   6
   3   2  18 1094.86 206.704   6
  -3  -2  19 301.449 149.158   2
  -3   2  19 402.260 224.128   2
   3  -2  19 461.030 115.517   6
   3   2  19 353.042 134.879   6
  -3  -2  20 780.982 300.559   2
  -3   2  20 1147.63 337.399   2
   3  -2  20 564.261 158.239   6
   3   2  20 707.330 185.280   6
  -3  -2  21 2013.50 402.541   2
  -3   2  21 3250.80 594.164   2
   3  -2  21 2361.88 291.874   6
   3   2  21 2264.19 315.743   6
  -3   2  22 1189.79 360.782   2
   3  -2  22 1170.76 218.174   6
   3   2  22 1266.54 238.401   6
  -3   2  23 3216.03 614.314   2
   3   2  23 2811.78 362.447   6
   3  -2  23 2529.74 321.918   6
   3  -2  24 2081.54 295.730   6
   3  -2  25 1511.08 262.622   6
   3   3 -22 580.442 244.360   4
   3   3 -21 4850.51 615.037   4
   3   3 -20 514.960 185.974   4
   3   3 -19 7807.60 759.533   4
   3  -3 -19 8696.59 583.320   1
   3  -3 -19 8217.96 641.157   3
   3  -3 -18 1724.26 293.510   3
   3  -3 -18 1056.59 214.176   1
   3   3 -18 1454.30 321.891   4
   3  -3 -17 7773.05 531.188   1
   3   3 -17 8733.12 751.064   4
   3  -3 -17 7924.85 600.918   3
   3  -3 -16 350.237 119.273   1
   3  -3 -16 529.868 166.305   3
   3   3 -16 600.859 196.587   4
   3   3 -15 3035.56 429.084   4
   3  -3 -15 3011.73 317.695   1
   3  -3 -15 3111.90 353.114   3
   3  -3 -14 150.084 107.954   3
   3  -3 -14 179.770 88.8936   1
   3   3 -14 52.3552 87.3315   4
  -3  -3 -13 148.380 61.4616   3
   3  -3 -13 129.839 93.6769   3
  -3   3 -13 214.954 61.0177   4
  -3  -3 -12 163.666 58.2058   3
   3  -3 -12 392.458 139.325   3
  -3   3 -12 178.446 51.7683   4
  -3  -3 -11 437.305 86.4656   3
   3  -3 -11 547.371 152.503   3
   3  -3 -11 419.157 42.9812   5
  -3   3 -11 420.677 83.2252   4
  -3  -3 -10 413.580 82.5506   3
   3  -3 -10 464.504 151.111   3
   3  -3 -10 547.270 70.7324   5
   3  -3  -9 7495.62 330.431   5
  -3  -3  -9 7481.25 470.162   5
   3  -3  -9 8470.74 509.162   3
  -3  -3  -8 1247.54 145.043   3
   3  -3  -8 1943.74 177.339   5
   3   3  -8 1883.59 91.0918   6
   3   3  -8 2036.53 96.6562   6
  -3  -3  -8 2234.38 249.374   5
   3  -3  -8 2243.27 262.010   3
   3  -3  -7 15959.1 727.957   3
   3  -3  -7 16625.2 619.048   5
   3   3  -7 16767.0 456.111   6
  -3  -3  -7 16409.3 705.357   5
   3  -3  -6 2900.19 290.494   3
   3  -3  -6 3139.43 249.185   5
   3   3  -6 3056.80 193.345   6
  -3  -3  -6 2994.89 292.316   5
   3  -3  -5 17778.2 775.309   3
   3  -3  -5 17942.4 665.294   5
  -3  -3  -5 18381.9 743.606   5
   3  -3  -4 1822.20 192.160   5
  -3  -3  -4 1703.50 152.513   1
  -3  -3  -4 1882.79 221.935   5
   3  -3  -3 6508.16 371.479   5
  -3  -3  -3 6406.21 311.395   1
  -3  -3  -3 6898.32 421.948   5
  -3  -3  -2 952.371 164.533   5
  -3  -3  -2 924.515 120.615   1
  -3  -3  -1 947.584 156.540   5
  -3  -3  -1 1002.28 136.404   1
   3  -3  -1 670.370 137.474   6
  -3  -3   0 26.3132 45.3916   1
   3  -3   0-1.31793 51.1410   6
  -3  -3   1 426.329 90.1211   1
  -3  -3   1 359.449 108.396   5
   3  -3   1 379.392 116.546   6
  -3  -3   2 643.428 137.013   5
   3  -3   2 761.802 143.457   6
   3  -3   3 7675.72 433.084   6
  -3  -3   3 7471.06 453.391   5
   3  -3   4 1336.28 189.610   6
  -3  -3   4 1361.97 196.167   5
   3  -3   5 17615.5 687.689   6
  -3  -3   5 17413.1 739.976   5
   3  -3   6 2319.43 234.818   6
  -3  -3   6 2371.83 259.891   5
   3  -3   7 14469.4 618.521   6
  -3  -3   7 14212.8 681.524   5
   3  -3   8 1878.58 224.360   6
  -3  -3   8 2175.14 255.030   5
   3  -3   9 6995.48 417.460   6
  -3  -3   9 6602.07 459.705   5
  -3  -3  10 417.898 105.084   5
   3  -3  10 650.436 141.314   6
  -3  -3  11 287.458 116.724   5
   3  -3  11 395.200 119.175   6
   3   3  11 569.431 142.375   6
  -3  -3  12 226.599 101.433   5
   3  -3  12 174.573 84.1805   6
   3   3  12 232.382 98.7648   6
  -3   3  13 414.754 194.376   2
  -3  -3  13 210.755 75.6006   5
   3  -3  13 282.945 96.2793   6
   3   3  13 265.314 111.059   6
  -3   3  14 413.144 191.843   2
  -3  -3  14 140.638 87.4608   5
   3  -3  14 473.847 124.296   6
   3   3  14 95.6201 77.2181   6
  -3   3  15 2354.04 431.408   2
   3  -3  15 2688.99 290.490   6
   3   3  15 2379.12 292.928   6
  -3  -3  15 2497.34 297.918   5
  -3   3  16 285.433 165.265   2
  -3  -3  16 153.594 72.8574   5
   3  -3  16 291.409 121.004   6
   3   3  16 222.272 117.746   6
   3  -3  17 6196.62 447.479   6
   3   3  17 5282.13 475.361   6
  -3  -3  17 6231.26 488.838   5
  -3   3  18 1193.18 336.049   2
  -3  -3  18 840.450 175.294   5
   3  -3  18 813.863 178.977   6
   3   3  18 1231.96 238.213   6
   3  -3  19 6946.41 499.432   6
   3   3  19 6056.54 518.829   6
  -3   3  20 838.172 303.381   2
   3  -3  20 648.533 159.934   6
   3   3  20 815.301 209.172   6
  -3   3  21 4020.44 670.361   2
   3  -3  21 3255.13 358.105   6
   3   3  21 3056.39 388.947   6
   3  -3  22 237.524 135.745   6
   3  -3  23 328.466 132.552   6
   3  -3  24 383.487 132.532   6
   3   4 -20 1873.86 410.529   4
   3  -4 -19 430.040 175.951   3
   3   4 -19-146.901 146.509   4
   3  -4 -18 2141.91 362.948   3
   3   4 -18 2688.85 458.788   4
   3  -4 -17 1089.72 247.841   3
   3   4 -17 475.646 207.581   4
   3  -4 -17 982.636 195.470   1
   3  -4 -16 1966.77 322.889   3
   3  -4 -16 1758.06 263.416   1
   3   4 -16 1983.65 377.067   4
   3  -4 -15 1473.19 292.096   3
   3  -4 -15 1507.91 238.849   1
  -3  -4 -14 2242.37 228.135   3
   3  -4 -14 3799.81 431.202   3
  -3  -4 -13 339.114 102.045   3
   3  -4 -13 951.917 216.551   3
  -3  -4 -12 2649.60 247.329   3
   3  -4 -12 4807.59 460.234   3
  -3  -4 -11 423.763 137.712   5
   3  -4 -11 662.054 190.293   3
  -3  -4 -11 350.279 92.8960   3
  -3  -4 -10 4390.46 402.552   5
   3  -4 -10 5067.54 297.350   5
   3  -4 -10 5211.60 466.823   3
  -3  -4  -9 1421.23 229.807   5
   3  -4  -9 1368.74 251.680   3
   3  -4  -9 1357.62 166.031   5
   3  -4  -8 2244.93 302.881   3
   3  -4  -8 2625.75 245.379   5
  -3  -4  -8 2570.30 297.691   5
  -3  -4  -7 272.286 117.089   5
   3  -4  -7 85.4198 82.6687   3
   3  -4  -7 298.786 103.506   5
   3  -4  -6 4781.03 433.821   3
   3  -4  -6 5370.89 386.340   5
  -3  -4  -6 4205.25 255.860   1
   3   4  -6 5345.30 325.581   6
  -3  -4  -6 5505.74 436.680   5
  -3  -4  -5 1258.95 215.467   5
   3  -4  -5 1264.49 187.903   5
  -3  -4  -5 1150.33 136.644   1
   3  -4  -4 3246.35 304.933   5
  -3  -4  -4 2927.83 238.732   1
  -3  -4  -4 2802.56 318.779   5
   3  -4  -3 2287.30 260.746   5
  -3  -4  -3 2726.95 235.221   1
  -3  -4  -3 2849.01 311.643   5
   3  -4  -2 6165.14 437.833   5
  -3  -4  -2 5864.52 378.016   1
  -3  -4  -2 6194.41 457.216   5
  -3  -4  -1 1040.20 194.084   5
   3  -4  -1 681.461 155.736   5
   3  -4   0 7892.96 492.789   5
  -3  -4   0 8387.89 527.207   5
  -3  -4   1 665.442 162.308   5
   3  -4   1 653.198 157.731   5
   3  -4   1 705.699 162.838   6
   3   4   1 520.318 83.2041   2
   3  -4   2 6229.10 451.535   5
   3   4   2 5546.49 313.553   2
   3  -4   2 6268.36 442.125   6
  -3  -4   2 5103.72 433.102   5
   3  -4   3 2761.38 305.443   5
   3  -4   3 2551.88 286.374   6
  -3  -4   3 2653.46 306.401   5
   3  -4   4 3331.01 344.022   5
   3  -4   4 2591.72 287.354   6
  -3  -4   4 3000.31 331.734   5
  -3  -4   5 1038.14 193.504   5
   3  -4   5 1191.83 201.709   6
   3  -4   6 4949.83 387.451   6
  -3  -4   6 4201.40 411.576   5
  -3  -4   7 130.202 88.8509   5
   3  -4   7 376.063 122.523   6
  -3  -4   8 1692.91 269.513   5
   3  -4   8 1976.69 253.696   6
  -3  -4   9 991.838 223.758   5
   3  -4   9 1498.63 213.507   6
   3  -4  10 4089.77 356.271   6
  -3  -4  10 4106.43 438.049   5
  -3  -4  11 658.568 180.665   5
   3  -4  11 517.394 140.139   6
   3  -4  12 4070.32 360.820   6
  -3  -4  12 4084.94 447.238   5
  -3  -4  13 336.458 122.441   5
   3  -4  13 540.883 143.394   6
  -3  -4  14 2586.78 367.838   5
   3  -4  14 3005.62 316.626   6
  -3  -4  15 678.125 178.248   5
   3  -4  15 1062.71 198.147   6
   3   4  15 713.588 184.754   6
  -3   4  16 1876.73 382.401   2
  -3  -4  16 1342.07 258.766   5
   3  -4  16 1738.70 247.489   6
   3   4  16 1777.50 334.204   2
   3   4  16 1332.42 254.517   6
  -3   4  17 1088.52 308.267   2
  -3  -4  17 741.046 205.445   5
   3  -4  17 696.751 194.653   5
   3  -4  17 752.013 178.794   6
   3   4  17 858.443 243.634   2
   3   4  17 538.231 177.127   6
  -3   4  18 1941.78 424.034   2
  -3  -4  18 1692.22 303.253   5
   3  -4  18 1721.70 283.868   5
   3  -4  18 1823.92 263.756   6
   3   4  18 2192.89 396.305   2
   3   4  18 1546.33 290.937   6
  -3   4  19 159.402 186.898   2
   3   4  19 207.974 153.472   2
  -3  -4  19-245.624 139.195   5
   3  -4  19-48.5071 101.741   5
   3  -4  19-102.931 111.831   6
   3   4  19 290.691 141.717   6
   3  -4  20 1290.64 281.389   5
   3  -4  20 1577.22 256.960   6
   3   4  20 1489.22 337.009   2
   3  -4  21 559.504 165.693   6
   3  -4  22 2121.56 295.776   6
   3  -5 -16 361.447 163.592   3
   3  -5 -15 1768.56 338.990   3
   3  -5 -14 1449.54 307.455   3
   3  -5 -13 3187.46 419.816   3
  -3  -5 -12 397.992 140.376   5
   3  -5 -12 224.290 149.585   3
  -3  -5 -12 265.518 98.9676   3
   3  -5 -11 3360.70 429.116   3
  -3  -5 -11 2461.86 281.436   3
  -3  -5 -11 3377.74 382.454   5
  -3  -5 -10 1718.84 276.762   5
   3  -5 -10 2106.31 342.324   3
  -3  -5 -10 1250.17 201.766   3
   3  -5  -9 2376.93 249.623   5
   3  -5  -9 1752.34 305.018   3
  -3  -5  -9 2529.37 332.601   5
  -3  -5  -8 577.817 155.758   5
   3  -5  -8 516.317 153.889   3
   3  -5  -8 562.243 133.118   5
   3  -5  -7 798.087 205.405   3
   3  -5  -7 1107.93 183.366   5
  -3  -5  -6 257.809 121.398   5
   3  -5  -6 456.041 121.127   5
  -3  -5  -5 217.553 119.411   5
   3  -5  -5 371.595 126.876   5
   3  -5  -4 247.401 104.545   5
  -3  -5  -4 265.251 110.776   5
   3  -5  -3 3484.96 362.347   5
  -3  -5  -3 3404.61 376.082   5
  -3  -5  -2 1911.59 286.688   5
   3  -5  -2 1560.81 251.902   5
   3  -5  -1 4425.39 414.188   5
  -3  -5  -1 4158.44 427.815   5
  -3  -5   0 883.430 218.467   5
   3  -5   0 1282.05 232.363   5
   3  -5   1 4043.21 408.551   5
  -3  -5   1 3990.81 420.918   5
  -3  -5   2 1599.16 272.437   5
   3  -5   2 1624.66 262.264   5
   3  -5   3 3236.71 378.752   5
  -3  -5   3 3315.44 387.766   5
  -3  -5   4 315.223 131.995   5
   3  -5   4 262.188 122.640   5
  -3  -5   5 372.450 157.301   5
   3  -5   5 207.215 129.086   5
   3  -5   5 363.514 135.474   6
  -3  -5   6 150.166 92.0261   5
   3  -5   6 270.266 121.475   5
   3  -5   6 400.175 137.415   6
   3   5   6 133.800 72.7113   2
  -3  -5   7 1037.02 243.775   5
   3  -5   7 1282.30 256.626   5
   3  -5   7 1133.89 212.375   6
   3   5   7 848.810 173.993   2
  -3  -5   8 96.9713 117.952   5
   3  -5   8 330.771 149.847   6
   3   5   8 267.985 119.856   2
   3  -5   8 335.010 144.188   5
  -3  -5   9 2321.60 358.394   5
   3  -5   9 2172.00 320.718   5
   3  -5   9 2045.33 281.483   6
   3   5   9 1734.45 265.682   2
  -3  -5  10 1938.69 331.741   5
   3  -5  10 1646.99 281.285   5
   3  -5  10 1455.35 247.054   6
   3   5  10 1282.92 244.250   2
   3  -5  11 3743.11 439.415   5
   3  -5  11 2954.11 350.913   6
   3   5  11 3314.57 390.747   2
  -3  -5  11 4079.06 500.267   5
   3  -5  12 595.583 192.607   5
  -3  -5  12 390.368 176.211   5
   3  -5  12 666.622 183.190   6
   3   5  12 512.179 163.248   2
   3  -5  13 3126.94 406.696   5
  -3  -5  13 3161.33 453.858   5
   3  -5  13 2966.92 346.267   6
   3   5  13 2649.68 370.091   2
  -3  -5  14 1251.99 294.372   5
   3  -5  14 1592.83 290.838   5
   3  -5  14 1485.64 251.758   6
   3   5  14 1359.92 284.561   2
  -3  -5  15 1810.68 367.450   5
   3  -5  15 1657.70 310.965   5
   3  -5  15 1889.91 277.848   6
   3   5  15 1396.01 288.303   2
  -3  -5  16 657.407 225.581   5
   3  -5  16 72.6279 81.9896   5
   3  -5  16 480.182 174.894   6
   3   5  16 45.0777 104.426   2
  -3  -5  17 677.268 214.544   5
   3  -5  17 129.492 106.302   6
   3   5  17 567.264 211.841   2
   3  -5  18 164.397 119.719   6
   3   5  18-54.7088 111.014   2
  -3  -5  19 948.311 263.505   5
   3  -5  19 580.633 165.177   6
   3   5  19 546.936 208.315   2
  -3  -6 -13 64.7441 137.071   5
  -3  -6 -12 127.669 134.828   5
   3  -6 -12 388.571 230.363   3
  -3  -6 -11 355.499 158.402   5
   3  -6 -11 272.227 171.012   3
  -3  -6 -10 586.100 197.908   5
   3  -6 -10 485.127 222.224   3
  -3  -6  -9 714.806 223.454   5
   3  -6  -9 921.132 257.401   3
  -3  -6  -8 1212.98 277.178   5
   3  -6  -8 1236.47 273.750   3
   3  -6  -7 2981.94 331.937   5
  -3  -6  -7 2822.27 383.249   5
   3  -6  -7 2113.74 368.516   3
  -3  -6  -6 1654.64 300.977   5
   3  -6  -6 2016.10 279.295   5
   3  -6  -5 2450.91 312.421   5
  -3  -6  -5 2655.53 379.597   5
  -3  -6  -4 1916.30 326.127   5
   3  -6  -4 1729.76 281.100   5
  -3  -6  -3 534.018 192.515   5
   3  -6  -3 802.814 180.869   5
  -3  -6  -2 113.629 116.029   5
   3  -6  -2 23.9266 106.662   5
  -3  -6  -1 28.3397 96.3905   5
   3  -6  -1 118.742 119.183   5
  -3  -6   0 141.008 99.7154   5
   3  -6   0 208.768 127.847   5
  -3  -6   1 116.804 116.374   5
   3  -6   1 185.927 86.7380   5
  -3  -6   2 112.388 94.1139   5
   3  -6   2 171.926 107.571   5
  -3  -6   3 932.607 240.473   5
   3  -6   3 1609.85 300.487   5
  -3  -6   4 1363.95 297.561   5
   3  -6   4 1722.55 307.299   5
   3  -6   5 3107.42 411.413   5
  -3  -6   5 2607.23 390.281   5
  -3  -6   6 1808.63 337.126   5
   3  -6   6 1935.82 324.086   5
   3  -6   7 2173.18 354.544   5
  -3  -6   7 3079.58 442.856   5
  -3  -6   8 2080.15 373.521   5
   3  -6   8 1627.35 316.676   5
  -3  -6   9 1541.00 331.571   5
   3  -6   9 1085.49 265.788   5
  -3  -6  10 288.692 193.058   5
   3  -6  10 518.504 197.876   5
  -3  -6  11 317.666 173.683   5
   3  -6  11 185.881 144.430   5
   3  -6  12 307.778 219.007   5
  -3  -6  12 761.119 261.775   5
   3  -6  12 326.644 147.193   6
  -3  -6  13 422.284 180.907   5
   3  -6  13 164.098 139.716   6
  -3  -6  14 172.508 198.941   5
   3  -6  14 113.131 137.870   6
   3  -7  -4 804.274 213.360   5
  -3  -7  -3 297.469 166.779   5
   3  -7  -3 450.583 179.691   5
  -3  -7  -2 560.292 203.397   5
   3  -7  -2 772.386 190.460   5
  -3  -7  -1 394.733 167.835   5
   3  -7  -1 284.839 136.576   5
  -3  -7   0 1286.26 288.886   5
   3  -7   0 1153.87 262.659   5
   3  -7   1 406.632 185.069   5
   3  -7   2 1464.08 300.004   5
   3  -7   3 375.874 186.705   5
   3  -7   4 580.540 225.319   5
   3  -7   5 916.934 255.028   5
   4   0 -23 216.893 207.820   1
   4   0 -22-70.5508 139.828   1
   4   0 -21 170.736 148.947   1
   4   0 -20 10687.9 772.964   1
   4   0 -19-2.71218 91.7390   1
   4   0 -18 2368.17 337.369   1
   4   0 -17 150.608 128.777   1
   4   0 -16 21361.4 978.933   1
   4   0 -15 109.623 124.814   1
   4   0 -14 1448.52 236.153   1
   4   0 -13 147.167 107.672   1
   4   0 -12 59620.8 1779.99   4
   4   0 -12 57598.9 1604.27   1
   4   0 -11 75.2748 36.2171   5
   4   0 -11-3.66442 63.8252   1
   4   0 -11-8.75024 67.6051   4
   4   0 -10 285.677 102.608   1
   4   0 -10 202.804 58.9843   5
   4   0 -10 245.569 115.374   4
   4   0  -9-26.9627 58.4562   1
   4   0  -9 3.28684 28.2961   5
   4   0  -9 68.4426 79.4951   4
   4   0  -8 19128.3 814.816   4
   4   0  -8 16749.2 705.293   1
   4   0  -8 18667.6 615.391   5
   4   0  -7 16.2108 51.2634   1
   4   0  -7 13.1002 35.6757   5
   4   0  -7 42.5600 71.4946   4
   4   0  -6 10799.3 418.626   6
   4   0  -6 11389.4 513.454   1
   4   0  -6 11918.5 588.054   4
   4   0  -6 11414.9 447.444   5
   4   0  -5 55.3088 34.3039   5
   4   0  -5 32.1931 39.1359   6
   4   0  -5 0.51681 52.0448   4
   4   0  -5 52.7388 61.3648   1
   4   0  -4 44147.4 1206.51   1
   4   0  -4 46760.6 1095.93   6
   4   0  -4 47414.2 1303.85   4
   4   0  -3 10.0392 40.0613   6
   4   0  -3 87.8240 59.7432   1
   4   0  -3 7.03061 46.7626   4
  -4   0  -3 43.2871 55.3335   6
   4   0  -2 1393.98 168.911   4
   4   0  -2 1339.12 138.302   6
  -4   0  -2 1224.90 153.985   6
   4   0  -1 62.3706 49.2808   5
   4   0  -1 78.1007 62.9968   6
   4   0  -1 87.1821 65.0501   4
  -4   0  -1 22.9517 52.5735   6
   4   0   0 170381. 3416.95   6
  -4   0   0 174433. 3431.99   6
   4   0   0 171792. 3448.22   4
   4   0   0 171639. 3434.80   5
   4   0   1 12.8140 52.9112   5
   4   0   1 86.2911 62.7098   6
   4   0   1 62.2292 49.4394   4
  -4   0   1 88.6861 56.1733   6
  -4   0   2 1307.11 137.883   3
   4   0   2 1591.16 163.293   6
  -4   0   2 1218.85 136.836   6
   4   0   2 1464.99 135.449   4
  -4   0   3 75.3501 38.5058   3
   4   0   3 22.9084 50.8729   6
   4   0   3 65.8441 34.5115   4
  -4   0   3 41.3570 51.0499   6
  -4   0   4 45298.2 1090.95   3
   4   0   4 43340.1 1132.23   6
  -4   0   4 43315.5 1006.56   6
  -4   0   5 15.1497 40.2470   3
   4   0   5 29.8228 20.6543   4
   4   0   5 77.0860 70.0697   6
  -4   0   5 35.9605 43.5131   6
  -4   0   6 12067.3 481.628   3
   4   0   6 10931.2 482.930   6
  -4   0   6 10765.7 363.311   6
   4   0   7 36.8777 64.8387   6
  -4   0   7-1.33761 27.5107   6
   4   0   8 16196.3 651.541   6
  -4   0   8 15657.3 452.556   6
  -4   0   9-4.83670 23.9317   6
   4   0   9-12.3003 58.1650   6
  -4   0  10 363.767 51.4966   6
   4   0  10 534.879 132.136   6
  -4   0  11 2.38595 36.1693   6
   4   0  11 138.167 107.256   6
  -4   0  12 45894.3 939.301   6
   4   0  12 48405.4 1401.80   6
  -4   0  13 25.7188 23.1663   6
   4   0  13 169.987 103.684   6
   4   0  14 1666.88 234.644   6
   4   0  15 90.7211 83.7669   6
   4   0  16 16417.2 785.042   6
   4   0  17 48.2588 80.5033   6
   4   0  18 3457.27 358.585   6
  -4   0  19 422.922 208.297   2
   4   0  19-45.9970 80.0165   6
   4   0  20 8096.11 577.738   6
  -4   0  20 7840.60 887.021   2
  -4   0  21 59.9254 133.181   2
   4   0  21 76.6040 96.0076   6
  -4   0  22 409.888 225.346   2
   4   0  22 539.218 174.771   6
  -4   0  23-121.930 171.785   2
   4   0  23 108.088 97.9147   6
  -4   0  24 12103.0 1218.07   2
   4  -1 -23 3572.70 471.027   1
   4  -1 -22 2992.92 420.862   1
   4  -1 -21 1735.25 292.836   1
   4  -1 -20 964.133 239.186   1
   4   1 -20 963.002 259.549   1
   4  -1 -19 9807.60 687.654   1
   4   1 -19 9460.92 747.366   1
   4   1 -18 986.063 248.001   4
   4   1 -18 647.857 200.770   1
   4  -1 -18 862.435 207.999   1
   4   1 -17 3019.61 381.685   1
   4   1 -17 2796.54 406.171   4
   4  -1 -17 2888.48 348.390   1
   4   1 -16 5247.92 485.312   1
   4   1 -16 5408.78 536.693   4
   4  -1 -16 4942.10 445.563   1
   4   1 -15 9936.92 656.290   1
   4   1 -15 9303.71 697.224   4
   4  -1 -15 9616.71 602.865   1
   4  -1 -14 1567.82 235.811   1
   4   1 -14 1214.35 234.960   1
   4   1 -14 1369.11 258.642   4
   4  -1 -13 1368.75 206.711   1
   4   1 -13 1552.41 246.164   1
   4   1 -13 1367.67 250.909   4
   4  -1 -12 328.910 112.311   1
   4   1 -12 428.915 146.603   1
   4   1 -12 431.375 105.429   5
   4   1 -12 309.301 122.648   4
   4   1 -11 5317.24 412.924   1
   4   1 -11 6000.01 494.057   4
   4  -1 -11 5067.29 385.935   1
   4  -1 -10 7001.46 267.123   5
   4  -1 -10 7555.38 454.870   1
   4   1 -10 8416.82 574.897   4
   4   1 -10 7553.74 488.341   1
   4  -1  -9 7450.43 454.729   1
   4   1  -9 8112.75 568.762   2
   4   1  -9 8502.72 561.669   4
   4  -1  -9 7859.33 441.664   3
   4   1  -9 7424.05 468.679   1
   4  -1  -9 7738.72 301.986   5
   4  -1  -8 2347.84 238.646   1
   4   1  -8 2875.54 343.148   2
   4   1  -8 2988.85 323.430   4
   4   1  -8 2824.53 270.323   1
   4  -1  -8 2884.53 252.712   3
   4  -1  -8 2639.52 170.011   5
   4   1  -7 9759.64 636.528   2
   4   1  -7 10828.9 606.237   4
   4   1  -7 10308.0 524.728   1
   4  -1  -7 10736.5 489.347   3
   4  -1  -7 9438.92 362.332   5
   4   1  -6 2159.37 129.965   6
   4   1  -6 2327.91 296.185   2
   4   1  -6 2528.69 278.186   4
   4   1  -6 2448.61 239.928   1
   4  -1  -6 2578.78 223.877   3
   4  -1  -6 2177.91 163.060   5
   4  -1  -5 10552.7 473.512   6
   4   1  -5 10556.6 345.947   6
   4   1  -5 10344.5 628.904   2
   4   1  -5 11391.1 588.631   4
   4   1  -5 10338.9 496.624   1
   4  -1  -5 10756.0 466.848   3
   4  -1  -5 9532.72 377.908   5
   4  -1  -4 6474.33 352.142   6
   4   1  -4 6365.79 268.148   6
   4   1  -4 5913.06 464.221   2
   4   1  -4 6136.07 363.906   1
   4  -1  -4 5546.56 283.108   5
   4  -1  -4 6996.47 351.789   3
   4   1  -4 7434.24 382.950   5
   4  -1  -3 10303.1 448.457   6
   4   1  -3 10453.1 373.726   6
   4   1  -3 9907.02 466.233   1
   4  -1  -3 10798.2 440.617   3
   4   1  -3 10351.9 464.799   5
   4  -1  -2 3748.54 255.483   6
   4   1  -2 3476.49 210.657   6
   4   1  -2 3544.30 261.401   1
   4  -1  -2 3669.60 239.277   3
   4   1  -2 3869.06 265.186   5
   4  -1  -1 5216.21 304.056   6
   4   1  -1 5275.86 270.143   6
   4   1  -1 4919.85 300.244   1
   4  -1  -1 5930.13 293.080   3
  -4  -1  -1 5129.72 207.906   3
   4   1   0 966.104 127.258   1
  -4   1   0 1095.02 143.722   6
   4  -1   0 835.985 119.360   6
   4   1   0 847.579 108.080   6
   4  -1   0 759.898 103.776   3
  -4  -1   0 842.316 86.0033   3
   4  -1   1 4860.44 298.510   6
   4   1   1 4548.76 276.244   1
  -4   1   1 4760.41 301.653   6
   4   1   1 4608.62 269.490   6
  -4  -1   1 4937.69 232.031   3
   4  -1   1 4745.15 245.626   3
   4   1   2 4121.77 251.958   1
   4  -1   2 4080.64 276.516   6
  -4   1   2 4274.13 271.170   6
   4   1   2 4085.32 264.587   6
  -4  -1   2 4384.36 232.508   3
   4  -1   2 3865.32 215.208   3
   4  -1   3 8646.80 329.515   3
   4   1   3 8329.07 364.574   1
  -4   1   3 8809.61 403.227   6
   4   1   3 8506.90 409.566   6
   4  -1   3 8638.86 425.656   6
  -4  -1   3 9226.31 370.878   3
   4  -1   4 5957.52 267.047   3
   4   1   4 6708.95 311.371   1
   4  -1   4 7282.80 384.164   6
  -4   1   4 7290.37 351.042   6
   4   1   4 6650.51 376.000   6
  -4  -1   4 7427.22 342.614   3
   4   1   5 9909.44 386.521   1
   4  -1   5 10510.7 482.684   6
  -4   1   5 10497.9 435.688   6
   4   1   5 10261.6 488.763   6
  -4  -1   5 9536.36 414.559   5
  -4  -1   5 10771.2 448.262   3
   4   1   6 1613.07 139.787   1
   4   1   6 1697.12 202.033   6
  -4   1   6 1755.83 167.127   6
  -4  -1   6 1694.09 162.690   5
  -4  -1   6 1815.56 184.452   3
   4  -1   6 1805.20 194.434   6
   4   1   7 9174.82 352.832   1
  -4   1   7 9540.99 408.246   6
   4  -1   7 9038.44 468.415   6
   4   1   7 10052.8 505.089   6
  -4  -1   7 9282.86 393.283   5
   4   1   8 2145.44 153.050   1
   4  -1   8 2227.39 228.875   6
   4   1   8 1876.87 227.805   6
  -4   1   8 1882.81 171.764   6
  -4  -1   8 2059.13 172.182   5
   4   1   9 7093.33 286.902   1
   4  -1   9 7789.20 437.426   6
   4   1   9 8362.67 477.063   6
  -4  -1   9 7358.83 333.173   5
   4   1  10 5020.27 232.820   1
  -4   1  10 5821.40 303.604   6
   4  -1  10 5875.09 390.463   6
   4   1  10 6056.65 414.956   6
  -4  -1  10 5643.88 287.267   5
   4   1  11 4019.12 199.934   1
  -4   1  11 5494.07 293.863   6
   4  -1  11 5455.27 384.244   6
   4   1  11 5413.83 400.632   6
  -4  -1  11 5344.63 272.018   5
  -4  -1  12 480.394 81.5333   5
   4   1  12 312.599 57.4972   1
  -4   1  12 608.469 100.298   6
   4  -1  12 483.104 122.094   6
   4   1  12 312.716 109.615   6
   4  -1  13 932.405 159.121   6
   4   1  13 1072.00 188.996   6
  -4  -1  13 901.907 106.560   5
   4  -1  14 1545.70 228.339   6
   4   1  14 1534.30 228.445   6
  -4  -1  14 1595.95 131.517   5
   4  -1  15 7145.14 486.786   6
   4   1  15 7278.48 513.621   6
   4  -1  16 4470.10 389.898   6
   4   1  16 4744.26 422.498   6
   4  -1  17 1936.40 259.988   6
   4   1  17 1935.96 271.768   6
  -4   1  18 703.685 289.720   2
   4  -1  18 1031.98 210.093   6
   4   1  18 612.562 168.903   6
   4  -1  19 6883.46 519.131   6
   4   1  19 7054.70 544.190   6
  -4   1  19 7519.37 865.663   2
  -4   1  20 965.212 325.933   2
   4  -1  20 827.397 195.684   6
   4   1  20 571.025 173.388   6
  -4   1  21 2249.81 504.047   2
   4  -1  21 1999.50 288.642   6
   4   1  21 1628.13 272.012   6
  -4   1  22 1812.12 466.435   2
   4  -1  22 1870.46 285.621   6
   4   1  22 1781.12 289.366   6
  -4   1  23 3011.22 595.521   2
   4  -1  23 3045.40 377.710   6
   4  -2 -22 1605.01 308.404   1
   4  -2 -21 6842.81 607.768   1
   4   2 -21 6916.09 745.100   4
   4   2 -20 1277.61 320.683   4
   4  -2 -20 1075.13 247.297   1
   4   2 -19 6965.44 691.855   4
   4  -2 -19 6052.28 540.708   1
   4   2 -18 6136.49 639.403   4
   4  -2 -18 6021.76 517.056   1
   4   2 -17 6905.49 670.157   4
   4  -2 -17 5667.47 492.064   1
   4  -2 -16 2255.91 310.537   1
   4   2 -16 3187.45 406.399   1
   4   2 -16 2386.94 384.962   4
   4   2 -15 13284.0 832.833   1
   4  -2 -15 12811.8 725.268   1
   4   2 -15 14574.9 928.760   4
   4   2 -14 3574.79 403.199   1
   4  -2 -14 3614.96 360.320   1
   4   2 -14 3362.66 427.887   4
   4  -2 -14 3813.12 369.910   3
   4  -2 -13 7404.38 503.091   1
   4   2 -13 7302.15 565.916   1
   4   2 -13 7367.51 619.715   4
   4  -2 -13 7395.57 500.487   3
   4  -2 -12 396.557 112.056   3
   4   2 -12 356.218 148.938   1
   4   2 -12 242.681 128.284   4
   4  -2 -12 351.902 121.728   1
   4  -2 -11 10286.3 580.535   1
   4   2 -11 10107.0 638.923   1
   4   2 -11 10856.6 727.586   4
   4  -2 -11 10622.1 576.867   3
   4  -2 -10 4550.09 202.593   5
   4   2 -10 6512.64 477.827   1
   4   2 -10 6547.98 540.343   4
   4  -2 -10 6474.59 429.579   3
   4  -2 -10 4776.07 182.900   5
   4   2  -9 24497.2 976.009   1
   4  -2  -9 23127.9 605.058   5
   4  -2  -9 24895.6 897.496   3
   4   2  -8 3509.06 334.996   1
   4   2  -8 3352.71 300.547   2
   4  -2  -8 3048.63 179.477   5
   4  -2  -8 3735.45 306.395   3
   4   2  -7 20523.1 847.310   1
   4   2  -7 23146.9 888.025   2
   4  -2  -7 21748.4 807.491   3
   4   2  -6 13819.5 646.201   1
   4   2  -6 13675.0 358.613   6
   4   2  -6 14624.5 685.856   2
   4  -2  -6 13896.8 601.034   3
   4   2  -5 20879.9 800.544   1
   4   2  -5 21291.0 538.717   6
   4   2  -5 18695.9 817.938   2
   4  -2  -5 20980.3 756.561   3
   4   2  -4 2466.53 243.997   1
   4   2  -4 1506.71 206.791   2
   4  -2  -4 2435.67 245.158   6
   4   2  -4 2381.50 155.155   6
   4  -2  -4 2254.09 222.566   3
   4   2  -3 25355.4 852.568   1
   4  -2  -3 25757.1 880.464   6
   4   2  -3 24593.1 677.329   6
  -4   2  -3 23216.7 654.618   4
   4  -2  -3 26277.3 837.767   3
   4  -2  -2 6733.18 375.744   3
   4   2  -2 6321.09 379.698   1
   4  -2  -2 6875.93 405.730   6
   4   2  -2 6115.00 302.741   6
  -4   2  -2 5684.36 291.975   4
  -4  -2  -2 6888.62 404.982   5
   4  -2  -1 10749.4 485.282   3
   4  -2  -1 10262.7 496.296   6
   4   2  -1 10163.2 415.374   6
  -4   2  -1 9270.80 417.109   4
  -4  -2  -1 10683.1 509.442   5
   4   2  -1 10362.8 478.025   1
   4   2   0 105.859 68.7159   1
  -4  -2   0 94.9624 66.3680   5
   4  -2   0 101.911 66.5885   3
   4  -2   0 55.9965 61.1375   6
  -4   2   0-9.44095 26.4661   4
   4   2   0 90.7991 60.4119   6
   4  -2   1 12180.3 541.647   6
  -4   2   1 11244.3 515.838   4
   4   2   1 12733.5 503.495   6
  -4  -2   1 12124.1 550.173   5
   4   2   1 12853.9 511.071   1
   4  -2   2 8032.08 434.558   6
   4   2   2 8131.55 409.340   6
  -4  -2   2 7832.14 427.044   5
   4   2   2 8094.99 385.310   1
   4  -2   3 20628.1 751.828   6
   4   2   3 20835.6 734.249   6
  -4  -2   3 21776.7 753.615   5
   4   2   3 19992.1 656.897   1
   4  -2   4 1335.87 178.865   6
   4   2   4 1401.93 180.294   6
  -4   2   4 1102.28 170.598   4
  -4  -2   4 1177.93 163.943   5
   4   2   4 1255.44 146.470   1
   4  -2   5 23179.3 815.591   6
   4   2   5 23372.3 840.163   6
  -4  -2   5 23373.0 796.832   5
   4   2   5 24350.6 699.995   1
   4  -2   6 14361.7 615.832   6
   4   2   6 13979.3 636.092   6
  -4  -2   6 14492.5 590.553   5
   4   2   6 14503.7 492.893   1
   4   2   7 17220.1 531.619   1
   4  -2   7 15054.2 659.819   6
   4   2   7 15890.8 701.871   6
  -4  -2   7 16683.1 639.109   5
   4   2   8 2813.52 181.786   1
   4  -2   8 2372.79 244.201   6
   4   2   8 2661.29 282.919   6
  -4  -2   8 2559.15 233.121   5
   4   2   9 28912.9 706.207   1
   4  -2   9 25887.1 922.416   6
   4   2   9 25749.1 969.551   6
  -4  -2   9 24894.1 835.155   5
   4   2  10 5535.92 230.271   1
   4  -2  10 5348.68 381.758   6
   4   2  10 5519.09 411.281   6
  -4  -2  10 4964.08 322.345   5
   4  -2  11 6760.87 434.255   6
   4   2  11 6746.37 477.172   6
  -4  -2  11 6776.39 377.391   5
  -4  -2  12 513.139 99.6027   5
   4  -2  12 532.163 133.226   6
   4   2  12 641.584 163.624   6
   4  -2  13 7685.36 490.778   6
   4   2  13 7657.66 521.985   6
  -4  -2  13 7734.98 402.631   5
   4  -2  14 3082.20 309.138   6
   4   2  14 3021.99 337.540   6
  -4  -2  14 2998.58 240.773   5
   4  -2  15 9026.65 550.771   6
   4   2  15 9213.75 595.001   6
  -4  -2  15 9671.92 447.408   5
   4  -2  16 2655.79 304.636   6
   4   2  16 3155.77 351.854   6
  -4  -2  16 2767.12 222.865   5
   4  -2  17 6629.36 489.123   6
   4   2  17 6888.92 528.699   6
   4  -2  18 3511.18 362.393   6
   4   2  18 3584.25 382.339   6
   4  -2  19 3997.66 398.419   6
   4   2  19 3663.38 400.063   6
   4  -2  20 1044.31 230.070   6
   4   2  20 790.904 194.731   6
   4  -2  21 5472.07 480.211   6
   4   2  21 5940.34 525.786   6
  -4   2  21 5823.43 798.303   2
   4  -2  22 1467.93 261.001   6
   4  -3 -20 1197.39 259.194   1
   4   3 -20 1433.55 354.618   4
   4  -3 -19-29.0711 96.5051   1
   4   3 -19 9.20267 100.173   4
   4  -3 -18 336.446 157.472   3
   4  -3 -18 284.745 135.072   1
   4   3 -18 751.312 262.298   4
   4  -3 -17 1401.24 267.129   3
   4  -3 -17 1326.88 249.277   1
   4   3 -17 1104.34 293.479   4
   4  -3 -16 1904.44 296.927   3
   4   3 -16 1223.81 291.611   4
   4  -3 -16 1438.32 254.284   1
   4  -3 -15 279.777 131.694   3
   4   3 -15 372.778 162.860   4
   4  -3 -15 282.284 142.715   1
   4  -3 -14 5469.18 465.047   1
   4   3 -14 5732.15 600.717   4
   4  -3 -14 5460.69 479.336   3
   4  -3 -13 3078.17 353.905   1
   4   3 -13 3751.74 476.456   4
   4  -3 -13 3073.18 347.057   3
   4  -3 -12 11963.2 691.739   3
   4  -3 -11 332.121 133.889   3
  -4  -3 -10 1676.54 111.357   3
   4  -3 -10 6998.84 489.564   3
   4  -3  -9 1510.39 158.891   5
   4  -3  -9 1783.58 246.685   3
   4  -3  -8 1992.01 189.940   5
   4   3  -8 1854.24 272.443   1
   4  -3  -8 2330.76 276.384   3
  -4  -3  -8 1245.70 102.118   3
   4  -3  -7-21.5952 70.4116   3
  -4  -3  -7 17.8480 30.6083   3
   4   3  -7-21.1345 71.0040   1
   4  -3  -7 18.0898 43.3877   5
   4   3  -7 28.3172 19.9398   6
  -4  -3  -6 1184.27 204.448   5
   4  -3  -6 1007.52 181.077   3
   4  -3  -6 1160.44 159.423   5
   4   3  -6 1062.58 95.3406   6
   4   3  -6 940.949 112.232   2
   4   3  -6 829.657 172.068   1
   4   3  -5 316.617 115.283   1
  -4  -3  -5 443.382 130.006   5
   4  -3  -5 494.956 139.135   3
   4   3  -5 456.041 75.1765   6
   4   3  -5 102.441 56.6967   2
   4  -3  -4 1577.71 221.816   3
   4   3  -4 1586.33 166.422   2
   4   3  -4 1889.85 245.838   1
   4   3  -4 1921.34 157.585   6
  -4  -3  -4 1937.85 244.967   5
   4   3  -3 343.166 86.7354   2
  -4  -3  -3 638.446 153.029   5
   4  -3  -3 811.560 159.832   3
   4  -3  -3 725.759 154.723   6
   4   3  -3 772.337 109.074   6
   4   3  -3 603.834 136.166   1
   4  -3  -2 9188.67 543.277   3
   4  -3  -2 9455.38 547.542   6
   4   3  -2 10238.1 550.852   1
   4   3  -2 9771.54 435.850   6
  -4  -3  -2 9655.52 544.795   5
   4  -3  -1 1868.51 234.729   6
   4   3  -1 1547.69 210.910   1
   4   3  -1 2011.86 202.206   6
  -4  -3  -1 1710.06 230.889   5
   4  -3   0 14532.5 678.263   6
   4   3   0 14738.9 660.718   1
   4   3   0 15427.8 616.544   6
  -4  -3   0 15172.3 698.741   5
   4  -3   1 1921.83 225.804   6
   4   3   1 2145.10 233.098   1
   4   3   1 1562.86 195.506   6
  -4   3   1 1582.05 204.464   4
  -4  -3   1 1991.05 240.391   5
   4  -3   2 9065.86 513.635   6
  -4   3   2 7696.89 500.737   4
   4   3   2 9976.51 502.095   1
   4   3   2 8996.80 484.743   6
  -4  -3   2 9692.67 539.740   5
  -4  -3   3 291.074 88.9336   5
   4  -3   3 422.204 117.382   6
   4   3   3 322.112 97.0194   6
   4  -3   4 2473.71 255.376   6
   4   3   4 2297.59 260.759   6
  -4  -3   4 2623.64 273.506   5
  -4  -3   5 476.274 129.840   5
   4  -3   5 458.123 137.165   6
   4   3   5 358.982 116.763   6
  -4  -3   6 673.320 136.890   5
   4  -3   6 820.278 154.423   6
   4   3   6 599.315 137.552   6
  -4  -3   7 13.1517 53.6043   5
   4  -3   7 16.2294 63.8791   6
   4   3   7-72.1294 79.9105   6
   4  -3   8 2600.21 264.321   6
   4   3   8 2304.15 280.877   6
  -4  -3   8 2764.87 284.157   5
  -4  -3   9 1387.59 209.273   5
   4  -3   9 1290.53 195.660   6
   4   3   9 1217.74 208.281   6
   4  -3  10 4642.86 381.209   6
   4   3  10 4979.74 422.491   6
  -4  -3  10 5640.48 413.719   5
  -4  -3  11 918.176 172.692   5
   4  -3  11 474.504 135.889   6
   4   3  11 464.722 157.043   6
   4  -3  12 9405.97 557.364   6
   4   3  12 9737.66 621.870   6
  -4  -3  12 9476.89 548.165   5
   4  -3  13 2479.12 283.939   6
   4   3  13 2245.99 303.568   6
  -4  -3  13 2410.03 274.159   5
   4  -3  14 4575.94 394.519   6
   4   3  14 4607.99 435.874   6
  -4  -3  14 5205.22 401.303   5
  -4  -3  15 442.235 120.836   5
   4  -3  15 518.327 142.882   6
   4   3  15 460.329 139.493   6
   4  -3  16 1466.56 237.773   6
   4   3  16 1385.44 253.500   6
  -4  -3  16 1779.92 241.340   5
  -4  -3  17 1135.30 184.328   5
   4  -3  17 774.866 190.812   6
   4   3  17 816.578 208.277   6
   4  -3  18 344.434 153.710   6
   4   3  18 205.271 116.001   6
   4  -3  19 256.667 136.156   6
   4   3  19 273.509 133.126   6
   4  -3  20 952.703 194.210   6
   4  -3  21 732.574 194.353   6
   4  -4 -18 1325.61 257.039   1
   4  -4 -17 4463.04 464.031   1
   4   4 -17 4618.08 616.005   4
   4  -4 -17 4082.77 489.757   3
   4  -4 -16 3339.44 403.029   1
   4   4 -16 3547.69 532.481   4
   4  -4 -16 4379.34 491.079   3
   4  -4 -15 2312.60 333.349   1
   4   4 -15 2508.78 439.845   4
   4  -4 -15 3492.31 425.546   3
   4  -4 -14 4645.92 485.601   3
   4  -4 -13 2612.39 373.414   3
   4  -4 -12 6035.32 538.624   3
   4  -4 -11 3262.78 387.399   3
   4  -4 -10 8462.12 612.684   3
  -4  -4  -9 4695.87 442.245   5
   4  -4  -9 5638.60 490.253   3
   4  -4  -8 9781.55 510.835   5
  -4  -4  -8 9416.42 620.125   5
   4  -4  -8 9521.71 653.195   3
   4  -4  -7 8530.91 610.020   3
   4  -4  -7 9465.41 517.656   5
  -4  -4  -7 8554.80 583.790   5
   4  -4  -6 6247.62 510.408   3
   4  -4  -6 7049.64 456.240   5
   4   4  -6 7295.03 339.851   6
  -4  -4  -6 6714.48 510.270   5
   4  -4  -5 5761.16 490.257   3
   4  -4  -5 6706.21 447.988   5
   4   4  -5 6255.86 347.789   6
  -4  -4  -5 6680.45 506.695   5
   4  -4  -4 10520.3 582.144   5
   4   4  -4 10958.8 503.154   6
  -4  -4  -4 10908.1 647.899   5
   4  -4  -3 7719.08 495.319   5
  -4  -4  -3 7520.35 539.575   5
   4  -4  -2 6230.28 449.553   5
  -4  -4  -2 6196.65 497.136   5
   4  -4  -1 4149.34 369.861   5
  -4  -4  -1 4096.15 399.528   5
   4  -4   0 6762.92 490.143   6
  -4  -4   0 6044.68 480.616   5
   4  -4   1 2369.33 295.398   6
  -4  -4   1 2725.25 331.519   5
   4  -4   2 7115.57 509.131   6
  -4  -4   2 7597.44 540.033   5
   4  -4   3 8151.15 539.715   6
  -4  -4   3 8699.04 588.810   5
   4  -4   4 9752.56 589.475   6
  -4  -4   4 9665.79 626.066   5
   4  -4   5 4933.15 414.534   6
  -4  -4   5 4862.95 440.115   5
   4  -4   6 6597.28 471.851   6
   4   4   6 6246.49 485.109   6
  -4  -4   6 7526.34 551.579   5
   4  -4   7 9564.30 577.714   6
   4   4   7 8015.26 582.483   6
  -4  -4   7 9857.04 642.758   5
   4  -4   8 9491.48 575.041   6
   4   4   8 8695.95 591.336   6
  -4  -4   8 9490.85 639.301   5
   4  -4   9 3618.24 353.255   6
   4   4   9 2974.72 349.987   6
  -4  -4   9 3144.22 371.411   5
   4  -4  10 6685.74 485.623   6
  -4  -4  10 7057.40 550.557   5
   4  -4  11 3856.36 369.800   6
   4   4  11 3302.08 390.361   6
  -4  -4  11 3998.79 428.181   5
   4  -4  12 5267.56 439.505   6
   4   4  12 4488.36 452.755   6
  -4  -4  12 5517.37 496.484   5
  -4  -4  13 1563.41 266.854   5
   4  -4  13 1766.69 264.880   6
   4   4  13 1303.27 256.663   6
   4  -4  14 4046.35 386.385   6
   4   4  14 3079.59 387.140   6
  -4  -4  14 3313.23 384.458   5
  -4  -4  15 2791.22 347.414   5
   4  -4  15 3014.68 354.348   6
   4   4  15 3174.07 392.250   6
   4  -4  16 3605.02 374.972   6
   4   4  16 2249.74 344.584   6
  -4  -4  16 2950.19 363.212   5
   4  -4  17 3486.66 383.939   6
   4   4  17 2565.31 370.891   6
  -4  -4  17 2979.98 367.015   5
   4  -4  18 1713.31 277.548   6
   4  -4  19 2751.50 331.212   6
   4  -5 -14 1521.29 308.642   3
   4  -5 -13 488.458 196.973   3
   4  -5 -12 981.216 253.034   3
   4  -5 -11 490.187 198.942   3
  -4  -5 -10 411.401 168.000   5
   4  -5 -10 436.046 176.058   3
  -4  -5  -9 562.008 173.473   5
   4  -5  -9 522.455 188.897   3
   4  -5  -8 3120.38 418.361   3
  -4  -5  -8 4948.12 483.779   5
   4  -5  -7 2298.65 273.563   5
  -4  -5  -7 1672.88 288.590   5
   4  -5  -7 1351.95 272.738   3
   4  -5  -6 5493.06 436.542   5
  -4  -5  -6 4682.20 472.847   5
  -4  -5  -5 955.698 226.066   5
   4  -5  -5 774.858 198.083   3
   4  -5  -5 1091.19 209.086   5
   4  -5  -4 2576.22 317.687   5
  -4  -5  -4 2120.16 335.199   5
  -4  -5  -3 1313.78 278.045   5
   4  -5  -3 1282.40 227.693   5
  -4  -5  -2 1390.29 264.255   5
   4  -5  -2 1830.10 274.893   5
  -4  -5  -1 92.4508 102.900   5
   4  -5  -1 301.610 138.975   5
  -4  -5   0-53.8669 101.371   5
   4  -5   0-69.8148 107.618   5
  -4  -5   1 106.428 75.9685   5
   4  -5   1 45.8011 87.5990   5
  -4  -5   2 2095.35 319.823   5
   4  -5   2 1963.19 300.638   5
  -4  -5   3 1675.89 300.325   5
   4  -5   3 926.389 220.936   5
  -4  -5   4 2299.13 347.339   5
   4  -5   4 2247.45 329.745   5
   4  -5   4 2564.12 334.680   6
  -4  -5   5 703.528 210.340   5
   4  -5   5 693.026 207.906   5
   4  -5   5 1008.20 219.638   6
   4  -5   6 4750.67 472.591   5
   4  -5   6 5454.51 481.628   6
  -4  -5   6 4634.49 497.653   5
  -4  -5   7 1815.18 304.082   5
   4  -5   7 1812.76 308.547   5
   4  -5   7 1755.17 278.342   6
   4  -5   8 3947.17 447.622   5
   4  -5   8 4552.02 439.756   6
  -4  -5   8 3864.65 459.600   5
  -4  -5   9 425.384 159.497   5
   4  -5   9 372.456 166.774   5
   4  -5   9 617.089 179.334   6
  -4  -5  10 617.267 202.515   5
   4  -5  10 566.311 181.684   5
   4  -5  10 431.507 167.183   6
  -4  -5  11 890.973 230.937   5
   4  -5  11 578.370 198.674   5
   4  -5  11 678.454 178.459   6
   4   5  11 349.075 135.127   6
  -4  -5  12 656.686 212.831   5
   4  -5  12 839.787 222.628   5
   4  -5  12 660.304 181.490   6
   4   5  12 514.251 166.713   2
   4   5  12 840.257 216.980   6
  -4  -5  13 286.157 165.533   5
   4  -5  13 56.2479 129.409   5
   4  -5  13 146.009 106.805   6
   4   5  13 6.18474 74.6927   2
   4   5  13 6.72510 133.135   6
  -4  -5  14 1571.85 314.981   5
   4  -5  14 1271.31 274.423   5
   4  -5  14 1332.53 255.846   6
   4   5  14 1811.24 328.796   2
   4   5  14 1152.87 244.109   6
  -4  -5  15 191.310 142.534   5
   4  -5  15 538.907 167.108   6
   4   5  15 448.066 217.182   2
  -4  -5  16 868.623 217.702   5
   4   5  16 764.379 214.499   2
  -4  -5  17 535.501 157.564   5
   4   5  17 292.243 162.195   2
  -4  -6 -11 2359.25 388.764   5
  -4  -6 -10 4100.81 500.526   5
   4  -6  -9 2260.67 391.214   3
  -4  -6  -9 3412.81 447.553   5
  -4  -6  -8 218.861 111.476   5
   4  -6  -8 223.924 151.645   3
  -4  -6  -7 1968.26 356.392   5
   4  -6  -7 1201.59 265.490   3
  -4  -6  -6 1937.20 358.026   5
   4  -6  -6 1272.22 298.550   3
  -4  -6  -5 1977.69 337.768   5
   4  -6  -5 1237.91 286.178   3
   4  -6  -5 2265.49 305.170   5
  -4  -6  -4 808.607 217.266   5
   4  -6  -4 884.240 207.230   5
   4  -6  -3 4683.16 459.379   5
  -4  -6  -3 4274.06 516.477   5
   4  -6  -2 8605.65 644.479   5
  -4  -6  -2 8529.68 709.374   5
   4  -6  -1 5339.30 515.422   5
  -4  -6  -1 5236.51 571.909   5
  -4  -6   0-37.6484 143.204   5
   4  -6   0-71.4353 89.3307   5
   4  -6   1 4097.77 458.294   5
  -4  -6   1 4612.23 527.216   5
   4  -6   2 7880.13 652.691   5
  -4  -6   2 7744.78 703.431   5
   4  -6   3 5314.92 541.203   5
  -4  -6   3 5147.86 569.278   5
  -4  -6   4 157.295 111.002   5
   4  -6   4 858.439 241.423   5
  -4  -6   5 1887.23 355.496   5
   4  -6   5 2014.12 335.764   5
  -4  -6   6 2178.82 388.127   5
   4  -6   6 2041.34 330.893   5
  -4  -6   7 2002.37 369.505   5
   4  -6   7 2270.36 368.503   5
  -4  -6   8 155.029 142.457   5
   4  -6   8 373.832 194.352   5
  -4  -6   9 2245.02 406.792   5
   4  -6   9 1885.52 359.554   5
   4  -6   9 2338.89 327.506   6
  -4  -6  10 4223.85 542.969   5
  -4  -6  11 2801.09 456.253   5
   4  -7  -2 572.428 172.038   5
   4  -7  -1 866.581 223.168   5
   4  -7   0 135.943 159.053   5
   4  -7   1 788.487 222.450   5
   5   0 -21 6695.95 666.349   1
   5   0 -20-87.1526 131.292   1
   5   0 -19 9861.25 767.237   1
   5   0 -18 203.660 148.313   1
   5   0 -17 8391.58 651.646   1
   5   0 -16 198.092 136.915   1
   5   0 -15 4306.60 441.952   1
   5   0 -14-7.44940 84.1539   1
   5   0 -13 154.107 115.829   1
   5   0 -12 20.8193 74.8413   1
   5   0 -11 664.135 156.002   1
   5   0 -10-85.0376 92.0480   1
   5   0 -10-49.7274 80.2822   4
   5   0  -9 11079.8 670.647   4
   5   0  -9 9136.55 548.069   1
   5   0  -8 41.9838 73.2130   1
   5   0  -8-50.4264 77.2320   4
   5   0  -7 16456.8 723.789   1
   5   0  -7 17564.1 818.358   4
   5   0  -7 17307.0 647.495   5
   5   0  -6 73.3840 50.3572   5
   5   0  -6-25.5785 48.6676   6
   5   0  -6-28.5533 60.9474   4
   5   0  -6 79.9302 82.4433   1
   5   0  -5 22653.0 726.107   6
   5   0  -5 21907.9 835.133   1
   5   0  -5 24989.7 935.922   4
   5   0  -4 133.539 75.7200   6
   5   0  -4 44.8140 53.3494   4
   5   0  -4 55.9490 76.3357   1
   5   0  -3 6398.22 402.702   1
   5   0  -3 6725.68 356.993   6
   5   0  -3 7138.46 437.099   4
   5   0  -2 17.5462 47.3223   6
   5   0  -2-52.7748 48.8309   4
   5   0  -2-23.3464 45.2989   1
   5   0  -1 372.765 105.189   1
   5   0  -1 590.911 109.631   6
   5   0  -1 664.089 129.600   4
   5   0   0 65.6419 54.3977   6
   5   0   0-0.20836 37.1572   4
   5   0   1 779.333 126.809   6
   5   0   1 665.459 111.116   4
   5   0   2 27.4440 42.3047   4
   5   0   2-65.3146 67.7986   6
  -5   0   2-1.89724 41.9661   6
   5   0   3 6334.62 377.062   6
   5   0   3 5816.33 293.687   4
  -5   0   3 5893.71 335.391   6
   5   0   4 5.63515 37.1665   4
   5   0   4 52.3022 84.1551   6
  -5   0   4 32.3795 53.3785   6
   5   0   5 21276.1 792.084   6
  -5   0   5 21206.6 662.960   6
   5   0   6 81.2527 86.5817   6
  -5   0   6 78.8853 55.0201   6
   5   0   7 16045.7 685.578   6
  -5   0   7 15092.3 501.166   6
   5   0   8 118.353 105.050   6
  -5   0   8 97.4155 40.8909   6
   5   0   9 8791.65 515.690   6
   5   0  10 74.4262 91.5582   6
   5   0  11 604.935 153.062   6
   5   0  12 16.9480 82.0506   6
   5   0  13 508.810 151.191   6
   5   0  14-30.5384 96.9468   6
   5   0  15 2728.42 333.666   6
   5   0  16 185.156 141.525   6
   5   0  17 6897.67 539.748   6
   5   0  18 29.2225 114.645   6
   5   0  19 8038.79 607.060   6
   5   0  20 85.6199 132.090   6
   5  -1 -22 2456.58 393.844   1
   5  -1 -21 1711.44 339.254   1
   5  -1 -20 2263.51 384.487   1
   5   1 -20 1350.76 303.740   1
   5  -1 -19 688.091 209.749   1
   5   1 -19 389.046 198.371   1
   5   1 -18 2955.67 409.795   1
   5  -1 -18 2873.94 390.795   1
   5   1 -17 1206.49 281.475   4
   5  -1 -17 1041.22 238.099   1
   5   1 -17 1160.65 255.241   1
   5  -1 -16 2085.84 315.267   1
   5   1 -16 2664.17 402.837   4
   5   1 -16 2517.99 351.141   1
   5  -1 -15 1697.85 270.667   1
   5   1 -15 1548.95 273.750   1
   5   1 -15 1905.61 336.197   4
   5   1 -14 4671.47 463.672   1
   5   1 -14 5865.72 564.272   4
   5  -1 -14 5445.13 473.127   1
   5   1 -13 1887.53 280.497   1
   5  -1 -13 1925.77 275.842   1
   5   1 -13 1736.22 309.281   4
   5   1 -12 7651.40 548.331   1
   5   1 -12 8078.24 641.507   4
   5  -1 -12 7713.66 537.412   1
   5  -1 -11 2329.82 292.663   1
   5   1 -11 2419.67 338.017   4
   5   1 -11 2384.31 304.610   1
   5  -1 -10 5479.20 423.091   1
   5   1 -10 6209.89 529.560   4
   5   1 -10 6076.25 464.286   1
   5  -1  -9 2934.58 303.853   1
   5   1  -9 3594.22 387.612   4
   5   1  -9 3144.70 327.432   1
   5  -1  -8 4285.34 359.395   1
   5   1  -8 4379.85 423.130   4
   5   1  -8 4587.22 379.893   1
   5   1  -7 958.659 168.701   1
   5   1  -7 1005.93 107.727   6
   5  -1  -7 946.306 181.694   1
   5   1  -7 1373.53 233.974   4
   5  -1  -6 3698.00 297.293   6
   5   1  -6 3827.30 218.099   6
   5   1  -6 3937.28 377.429   4
   5   1  -6 3881.06 330.882   1
   5  -1  -6 4332.58 324.206   3
   5  -1  -5 1756.97 202.480   6
   5   1  -5 1848.47 154.711   6
   5   1  -5 1668.40 237.846   4
   5   1  -5 1692.91 214.652   1
   5  -1  -5 2078.07 216.082   3
   5  -1  -5 1612.99 172.024   5
   5  -1  -4 4065.78 309.565   6
   5   1  -4 4543.31 257.395   6
   5   1  -4 4439.25 379.731   4
   5   1  -4 4111.57 331.566   1
   5  -1  -4 4693.64 317.154   3
   5  -1  -4 3937.95 271.607   5
   5  -1  -3 5987.76 365.934   6
   5   1  -3 5796.31 305.225   6
   5   1  -3 5588.29 378.003   1
   5   1  -3 6178.72 437.399   4
   5  -1  -3 5693.14 347.332   3
   5  -1  -2 7709.65 419.924   6
   5   1  -2 7677.87 369.425   6
   5   1  -2 7067.30 422.310   1
   5   1  -2 8136.50 493.965   4
   5  -1  -2 8325.12 403.627   3
   5  -1  -1 2771.25 246.211   6
   5   1  -1 2618.07 215.415   6
   5   1  -1 2415.23 236.255   1
   5   1  -1 2569.08 266.953   4
   5  -1  -1 2851.91 223.141   3
   5  -1   0 8851.11 449.304   6
   5   1   0 8201.33 397.791   6
   5   1   0 8316.05 438.579   1
   5  -1   0 9151.33 388.829   3
  -5  -1   1 1360.90 134.048   3
   5  -1   1 2088.55 217.617   6
   5   1   1 2299.42 207.079   6
   5   1   1 2027.41 206.805   1
   5  -1   1 2001.06 172.931   3
   5  -1   2 8000.46 438.591   6
   5   1   2 7915.35 409.342   1
   5   1   2 7816.11 419.510   6
   5  -1   2 7094.75 328.326   3
  -5  -1   2 7679.00 352.325   3
   5  -1   3 4673.30 338.147   6
   5   1   3 4457.39 298.578   1
   5   1   3 4822.69 332.540   6
   5  -1   3 4267.95 233.080   3
  -5  -1   3 4791.72 280.130   3
   5   1   4 4766.13 300.107   1
   5  -1   4 5072.61 356.293   6
   5   1   4 5289.97 349.122   6
   5  -1   4 4089.07 218.111   3
  -5  -1   4 4950.19 297.634   3
   5   1   5 1347.65 161.706   1
   5  -1   5 1204.47 182.150   6
   5   1   5 1336.11 185.513   6
   5  -1   5 931.443 94.6309   3
   5   1   6 3546.38 249.579   1
   5  -1   6 4083.18 323.529   6
  -5   1   6 3680.63 265.151   6
   5   1   6 3950.34 322.522   6
   5  -1   7 511.640 60.7711   3
   5   1   7 982.279 130.630   1
   5  -1   7 844.314 159.976   6
  -5   1   7 1064.93 135.609   6
   5   1   7 977.855 166.129   6
   5   1   8 3473.69 228.751   1
   5  -1   8 3861.11 327.993   6
  -5   1   8 3636.99 250.329   6
   5   1   8 3433.89 309.791   6
   5   1   9 3060.07 212.514   1
   5  -1   9 3676.40 325.523   6
   5   1   9 3132.32 324.589   6
   5   1  10 4179.31 246.479   1
   5  -1  10 4741.67 379.439   6
   5   1  10 4453.99 379.142   6
   5   1  11 2235.61 172.604   1
   5  -1  11 2455.39 284.152   6
   5   1  11 2716.68 307.388   6
   5  -1  12 6310.70 456.495   6
   5   1  12 6683.35 484.221   6
   5  -1  13 1438.94 237.474   6
   5   1  13 1228.59 208.938   6
   5  -1  14 4520.89 405.097   6
   5   1  14 4947.63 442.163   6
   5  -1  15 789.992 179.504   6
   5   1  15 730.197 181.801   6
   5  -1  16 1894.81 282.097   6
   5   1  16 2243.54 310.029   6
   5  -1  17 620.870 177.505   6
   5   1  17 566.320 171.753   6
   5  -1  18 1791.12 288.991   6
   5   1  18 1973.75 303.787   6
   5  -1  19 140.379 122.093   6
   5   1  19 202.680 122.306   6
   5  -1  20 1373.06 265.756   6
   5  -2 -21 1700.27 329.991   1
   5  -2 -20 1121.73 246.412   1
   5  -2 -19 1086.64 267.346   1
   5   2 -19 648.622 244.215   4
   5   2 -18 562.596 214.434   1
   5  -2 -18 450.331 167.170   1
   5   2 -18 355.483 187.511   4
   5   2 -17 578.305 211.730   1
   5  -2 -17 377.924 144.007   1
   5   2 -17 555.789 224.621   4
   5  -2 -16 1816.06 300.266   1
   5   2 -16 1854.63 339.164   1
   5   2 -16 2519.78 421.858   4
   5  -2 -15 2014.93 307.730   1
   5   2 -15 2497.67 404.395   4
   5   2 -15 2467.11 372.917   1
   5   2 -14 3865.00 452.389   1
   5  -2 -14 3681.22 402.007   1
   5   2 -14 4065.80 504.537   4
   5   2 -13 3885.33 439.309   1
   5  -2 -13 3937.67 397.815   1
   5   2 -13 4390.84 506.493   4
   5   2 -12 4830.49 458.340   1
   5  -2 -12 4497.69 427.501   1
   5   2 -12 5392.50 547.206   4
   5  -2 -12 5298.24 438.286   3
   5   2 -11 5229.88 469.826   1
   5  -2 -11 4607.34 415.882   1
   5   2 -11 4995.79 514.278   4
   5  -2 -11 5497.16 438.335   3
   5   2 -10 3781.31 390.466   1
   5  -2 -10 3973.65 371.172   1
   5   2 -10 3936.00 458.122   4
   5  -2 -10 4275.28 379.192   3
   5   2  -9 2309.80 297.744   1
   5   2  -9 2965.24 383.813   4
   5  -2  -9 2624.56 283.617   3
   5   2  -8 1463.60 228.365   1
   5   2  -8 1618.99 279.515   4
   5  -2  -8 1944.00 242.272   3
   5  -2  -7 1495.24 206.893   3
   5   2  -7 1266.55 214.962   1
   5   2  -7 1451.87 261.456   4
   5  -2  -6 1184.58 181.416   3
   5   2  -6 1126.66 192.848   1
   5   2  -6 984.123 93.0338   6
   5   2  -5 957.120 206.060   2
   5  -2  -5 1184.39 185.643   3
   5   2  -5 1092.09 184.415   1
   5   2  -5 1119.33 111.649   6
   5  -2  -5 967.197 171.033   6
   5   2  -4 2133.87 247.372   1
   5   2  -4 1433.99 248.866   2
   5  -2  -4 2258.26 254.388   6
   5   2  -4 2314.23 175.811   6
   5  -2  -4 2701.99 266.752   3
   5  -2  -3 3187.89 298.449   6
   5   2  -3 3319.32 214.145   6
   5  -2  -3 3678.74 300.554   3
   5   2  -3 3416.26 299.650   1
   5  -2  -2 4877.30 360.468   6
   5   2  -2 4395.10 267.668   6
   5   2  -2 4752.86 347.744   1
   5  -2  -2 5398.08 352.254   3
   5  -2  -1 4906.57 365.335   6
   5   2  -1 4885.30 294.424   6
   5   2  -1 5204.49 356.056   1
  -5  -2  -1 3700.05 203.881   3
   5  -2  -1 5215.20 345.787   3
   5  -2   0 6076.67 404.436   6
   5   2   0 5907.79 338.300   6
   5   2   0 5605.15 367.967   1
  -5  -2   0 5212.37 260.599   3
   5  -2   0 5508.62 358.567   3
   5  -2   1 5123.55 367.652   6
   5   2   1 4791.57 321.511   6
   5   2   1 5063.58 339.435   1
  -5  -2   1 4808.03 262.538   3
   5  -2   1 5085.08 343.437   3
   5  -2   2 4694.90 325.432   3
   5  -2   2 5604.30 383.314   6
   5   2   2 5272.31 346.917   6
   5   2   2 5076.89 330.597   1
  -5  -2   2 4731.20 281.212   3
   5  -2   3 2333.91 230.913   3
   5  -2   3 2920.17 277.311   6
   5   2   3 2540.51 252.866   6
   5   2   3 3114.76 249.927   1
  -5  -2   3 2659.44 260.368   5
  -5  -2   3 2735.03 219.302   3
   5  -2   4 1442.37 182.111   3
   5  -2   4 2404.72 257.866   6
   5   2   4 2056.72 237.249   6
   5   2   4 2336.54 212.373   1
  -5  -2   4 1912.98 221.685   5
  -5  -2   5 1025.25 157.130   5
   5  -2   5 629.518 127.787   3
   5  -2   5 932.069 167.748   6
   5   2   5 910.423 126.207   1
   5   2   5 944.884 166.667   6
  -5  -2   6 1163.70 168.577   5
   5  -2   6 1029.00 174.536   6
   5   2   6 872.420 130.520   1
   5   2   6 1169.77 187.541   6
   5  -2   7 1373.83 209.857   6
   5   2   7 1230.42 200.938   6
  -5  -2   7 1390.58 178.297   5
   5   2   7 1420.26 155.820   1
   5  -2   8 1613.42 218.416   6
   5   2   8 1460.25 224.631   6
  -5  -2   8 1400.42 183.100   5
   5   2   8 1442.57 158.091   1
   5  -2   9 2353.79 269.704   6
   5   2   9 2179.65 277.470   6
  -5  -2   9 2183.78 222.385   5
   5   2   9 2253.05 182.384   1
   5   2  10 3198.79 211.152   1
   5  -2  10 3424.59 333.154   6
   5   2  10 3681.44 363.463   6
  -5  -2  10 3473.47 275.997   5
   5  -2  11 4834.17 402.017   6
   5   2  11 5113.62 437.062   6
  -5  -2  11 4899.82 326.534   5
   5  -2  12 4090.87 382.981   6
   5   2  12 4129.33 409.906   6
  -5  -2  12 4188.51 299.627   5
   5  -2  13 3220.82 339.832   6
   5   2  13 2652.35 332.798   6
  -5  -2  13 2840.36 247.040   5
   5  -2  14 3506.89 365.439   6
   5   2  14 3454.01 375.588   6
  -5  -2  14 3428.13 264.063   5
   5  -2  15 1666.60 267.284   6
   5   2  15 1434.91 265.954   6
   5  -2  16 1648.78 268.513   6
   5   2  16 1568.79 277.774   6
   5  -2  17 574.718 164.802   6
   5   2  17 580.152 181.353   6
   5  -2  18 294.570 136.069   6
   5   2  18 294.107 154.864   6
   5  -2  19 370.563 147.865   6
   5   2  19 257.812 129.781   6
   5  -3 -19 4354.61 518.418   1
   5  -3 -18 954.214 262.193   1
   5  -3 -17 5376.01 539.085   1
   5   3 -17 4740.42 621.091   4
   5  -3 -16 267.685 154.452   1
   5  -3 -16 506.403 188.024   3
   5   3 -16 108.589 137.084   4
   5  -3 -15 2120.47 323.917   3
   5   3 -15 2395.06 412.700   4
   5  -3 -15 2024.30 326.446   1
   5  -3 -14 364.509 178.687   3
   5   3 -14 261.592 166.759   4
   5  -3 -14 164.583 91.4509   1
   5  -3 -13 240.664 129.049   3
   5  -3 -13 448.453 171.096   1
   5   3 -13 520.096 190.875   4
   5  -3 -12-43.6199 80.3471   3
   5  -3 -12 133.978 101.026   1
   5   3 -12-45.0763 127.399   1
   5   3 -12-16.8107 103.900   4
   5  -3 -11 561.356 161.960   3
   5   3 -11 411.556 171.623   4
   5   3 -11 355.105 121.768   1
   5  -3 -10 84.8860 89.1612   3
   5   3 -10 251.868 114.840   1
   5   3  -9 4047.89 435.759   1
   5  -3  -9 4471.25 417.222   3
   5  -3  -8 1108.33 210.305   3
   5  -3  -8 828.876 134.621   5
   5   3  -8 1018.99 229.518   1
   5   3  -7 7854.35 567.219   1
   5  -3  -7 8312.70 552.896   3
   5   3  -6 1575.50 258.701   1
   5  -3  -6 1193.13 211.873   3
   5   3  -5 8930.62 586.799   1
   5   3  -5 9178.51 350.241   6
   5  -3  -5 9311.37 572.364   3
   5  -3  -4 587.670 143.181   3
   5   3  -4 734.783 102.792   6
   5   3  -4 885.600 194.743   1
   5  -3  -3 4276.17 396.822   6
   5   3  -3 4401.78 391.572   1
   5   3  -3 4235.22 265.576   6
  -5  -3  -3 4163.22 386.211   5
   5  -3  -3 4646.06 397.985   3
  -5  -3  -2 418.255 137.125   5
   5  -3  -2 137.711 69.5958   3
   5   3  -2 239.141 113.389   1
   5  -3  -2 361.096 135.568   6
   5   3  -2 310.556 90.5513   6
  -5  -3  -1 861.970 186.190   5
   5  -3  -1 956.956 176.527   3
   5   3  -1 983.281 187.854   1
   5  -3  -1 976.904 184.433   6
   5   3  -1 1085.01 156.501   6
  -5  -3   0 20.3257 76.9616   5
   5  -3   0 45.3837 70.3317   3
   5   3   0 12.7662 62.0032   1
   5  -3   0 96.4022 105.463   6
   5   3   0 43.9171 69.0648   6
  -5  -3   1 897.178 177.586   5
   5  -3   1 401.345 121.799   3
   5   3   1 854.858 164.011   1
   5  -3   1 648.894 168.745   6
   5   3   1 739.491 150.613   6
  -5  -3   2 293.956 118.017   5
   5  -3   2 324.274 105.929   3
   5  -3   2 446.001 132.609   6
   5   3   2 284.596 125.772   1
   5   3   2 417.030 127.799   6
   5  -3   3 4526.30 376.100   6
   5   3   3 3976.09 336.901   1
   5   3   3 4908.09 383.401   6
  -5  -3   3 4309.81 376.373   5
  -5  -3   4 1137.32 204.631   5
   5   3   4 663.741 150.705   1
   5  -3   4 887.143 173.562   6
   5   3   4 717.220 155.731   6
   5  -3   5 7971.15 515.872   6
   5   3   5 9443.00 517.206   1
   5   3   5 8449.31 544.033   6
  -5  -3   5 8684.96 535.728   5
  -5  -3   6 1028.06 180.804   5
   5  -3   6 1056.54 196.668   6
   5   3   6 1078.46 197.154   6
   5  -3   7 7235.52 484.213   6
   5   3   7 7303.14 512.376   6
  -5  -3   7 6906.18 471.058   5
  -5  -3   8 1093.16 189.099   5
   5  -3   8 1042.82 196.848   6
   5   3   8 1051.57 207.564   6
   5  -3   9 3627.05 356.177   6
   5   3   9 4340.29 407.683   6
  -5  -3   9 3564.71 334.177   5
  -5  -3  10 69.8757 67.1288   5
   5  -3  10 35.6664 82.8981   6
   5   3  10 156.609 88.6518   6
  -5  -3  11 414.158 119.792   5
   5  -3  11 343.214 129.796   6
   5   3  11 323.407 128.930   6
  -5  -3  12 147.533 64.3827   5
   5  -3  12 47.8783 101.245   6
   5   3  12 37.0858 101.208   6
  -5  -3  13 695.172 141.622   5
   5  -3  13 296.589 134.701   6
   5   3  13 333.297 144.939   6
  -5  -3  14 236.022 91.3112   5
   5  -3  14 205.147 125.943   6
   5   3  14 322.186 164.644   6
   5  -3  15 2120.33 295.283   6
   5   3  15 2078.25 318.916   6
   5  -3  16 328.588 140.017   6
   5   3  16 334.082 158.555   6
   5  -3  17 4086.03 421.243   6
   5   3  17 4294.14 461.573   6
   5  -4 -17 384.445 170.210   1
   5  -4 -16 1514.33 297.141   1
   5  -4 -15 1116.79 256.349   3
   5  -4 -15 916.578 226.701   1
   5  -4 -14 2619.85 386.844   1
   5   4 -14 3200.21 509.353   4
   5  -4 -14 3228.71 435.407   3
   5  -4 -13 415.566 175.989   3
   5   4 -13 33.8908 113.461   4
   5  -4 -12 3854.82 446.520   3
   5  -4 -11 176.784 132.323   3
   5  -4 -10 3278.99 402.873   3
   5  -4  -9 1243.27 255.432   3
   5  -4  -8 850.835 205.389   3
   5  -4  -7 270.609 154.779   3
   5  -4  -6 2009.00 247.150   5
  -5  -4  -6 2020.74 311.036   5
   5  -4  -6 2647.14 343.559   3
  -5  -4  -5 766.933 195.425   5
   5  -4  -5 508.217 156.263   3
   5  -4  -5 514.275 130.097   5
  -5  -4  -4 1637.01 275.867   5
   5  -4  -4 1294.87 250.193   3
   5  -4  -4 1477.46 218.215   5
  -5  -4  -3 1448.80 258.796   5
   5  -4  -3 1544.24 265.054   3
   5  -4  -3 1630.86 232.905   5
   5   4  -3 1447.50 178.723   6
   5  -4  -2 3950.78 414.934   3
   5   4  -2 5043.61 353.830   6
  -5  -4  -2 4758.31 452.312   5
  -5  -4  -1 591.918 170.533   5
   5  -4  -1 538.683 159.563   3
   5  -4  -1 480.046 141.190   6
   5   4  -1 532.248 136.034   6
   5  -4   0 4369.31 445.150   3
   5  -4   0 5880.15 495.648   6
   5   4   0 6163.74 436.379   6
  -5  -4   0 5118.06 473.359   5
  -5  -4   1 738.812 184.784   5
   5  -4   1 454.566 159.512   6
   5   4   1 492.373 151.962   6
   5  -4   2 4350.34 429.868   6
   5   4   2 5250.96 434.140   6
  -5  -4   2 5410.41 478.475   5
  -5  -4   3 1978.96 288.384   5
   5  -4   3 1486.44 256.911   6
   5   4   3 1429.47 244.205   6
  -5  -4   4 1217.55 233.914   5
   5  -4   4 1596.31 252.700   6
   5   4   4 1643.06 258.982   6
  -5  -4   5 595.873 163.468   5
   5  -4   5 610.928 174.543   6
   5   4   5 731.547 178.179   6
   5  -4   6 2125.37 296.696   6
   5   4   6 2089.47 303.690   6
  -5  -4   6 2488.60 324.060   5
  -5  -4   7 11.9249 111.933   5
   5  -4   7 382.690 155.618   6
   5   4   7 149.185 121.698   6
  -5  -4   8 1031.91 217.849   5
   5  -4   8 1020.82 212.162   6
   5   4   8 793.991 207.984   6
  -5  -4   9 1059.13 215.029   5
   5  -4   9 992.170 208.290   6
   5   4   9 774.407 208.450   6
   5  -4  10 2709.09 335.693   6
   5   4  10 2245.97 337.685   6
  -5  -4  10 2710.19 342.304   5
  -5  -4  11 75.4388 85.5682   5
   5  -4  11 345.774 137.671   6
   5   4  11 254.845 134.027   6
   5  -4  12 3394.01 375.486   6
   5   4  12 3459.41 425.968   6
  -5  -4  12 3105.87 359.500   5
  -5  -4  13 315.124 133.464   5
   5  -4  13 433.155 161.868   6
   5   4  13 377.063 168.763   6
   5  -4  14 2529.91 338.367   6
   5   4  14 2663.16 382.988   6
  -5  -4  14 3093.41 356.453   5
  -5  -4  15 760.323 196.839   5
   5  -4  15 905.823 225.909   6
   5   4  15 511.298 195.195   6
   5  -5 -11 2414.84 404.267   3
   5  -5 -10 1275.59 290.995   3
   5  -5  -9 1182.78 276.143   3
   5  -5  -8 307.401 167.883   3
  -5  -5  -7 521.016 206.063   5
   5  -5  -7 390.866 179.566   3
  -5  -5  -6 41.6969 86.4394   5
   5  -5  -6 53.2927 109.499   3
  -5  -5  -5 95.6355 97.4114   5
   5  -5  -5-78.7410 134.366   3
  -5  -5  -4 214.584 154.174   5
   5  -5  -4-49.9829 137.681   3
   5  -5  -4 315.727 126.038   5
   5  -5  -3 1369.36 272.712   3
   5  -5  -3 2020.63 288.777   5
  -5  -5  -2 955.160 235.858   5
   5  -5  -2 838.905 220.750   3
   5  -5  -2 1040.73 211.252   5
   5  -5  -1 2908.60 357.256   5
   5  -5  -1 2396.07 365.005   3
  -5  -5  -1 3245.17 413.370   5
  -5  -5   0 741.263 224.546   5
   5  -5   0 821.976 196.090   5
   5   5   0 872.563 176.988   6
   5  -5   1 2627.79 355.348   5
   5   5   1 3343.77 406.962   6
  -5  -5   1 2987.68 414.730   5
  -5  -5   2 1408.14 272.797   5
   5  -5   2 1351.86 259.327   5
   5   5   2 1320.96 238.867   6
  -5  -5   3 2272.66 356.727   5
   5  -5   3 2022.44 317.523   5
   5  -5   3 2009.23 314.869   6
   5   5   3 2220.81 322.154   6
  -5  -5   4 22.0949 119.273   5
   5  -5   4 457.608 157.210   5
   5  -5   4 88.7178 116.942   6
   5   5   4 223.242 102.066   6
  -5  -5   5 32.5892 118.007   5
   5  -5   5 318.123 144.001   5
   5  -5   5 146.298 94.1556   6
   5   5   5 257.624 148.303   6
  -5  -5   6-16.4776 134.531   5
   5  -5   6 13.1440 112.601   5
   5  -5   6-29.1888 97.1348   6
   5   5   6 229.360 113.740   6
  -5  -5   7 209.474 121.736   5
   5  -5   7 241.648 142.460   5
   5  -5   7 242.849 132.111   6
   5   5   7 387.225 166.039   6
  -5  -5   8 61.2202 118.728   5
   5  -5   8 246.861 158.300   5
   5  -5   8 249.790 149.819   6
  -5  -5   9 1371.98 284.794   5
   5  -5   9 1331.49 273.613   5
   5  -5   9 1261.21 255.120   6
   5   5   9 975.556 261.576   6
  -5  -5  10 1179.13 263.206   5
   5  -5  10 1249.28 249.710   6
   5   5  10 1269.06 270.216   6
  -5  -5  11 3088.91 430.953   5
   5   5  11 1873.00 347.182   6
  -5  -5  12 373.326 188.234   5
   5   5  12 249.119 138.264   6
  -5  -5  13 2212.49 374.170   5
  -5  -5  14 1043.06 257.934   5
   5  -6  -4 352.371 153.419   3
   5  -6  -3 239.439 188.547   3
   5  -6  -2 53.3535 141.514   3
   5  -6  -2 148.843 116.733   5
   5  -6  -1 323.879 141.668   5
   5  -6   0 224.800 131.051   5
   5  -6   1 47.5909 126.813   5
   5  -6   2-60.8927 114.225   5
   5  -6   3 830.359 232.452   5
   5  -6   4 1080.84 268.387   5
   5   6   4 843.625 265.665   6
   5  -6   5 1775.62 320.474   5
   5   6   5 1790.04 368.143   6
   5   6   6 1378.12 342.919   6
   5   6   7 1672.69 339.378   6
   5   6   8 745.430 290.719   6
   6   0 -17-200.001 122.609   1
   6   0 -16 3526.08 440.322   1
   6   0 -15 88.5824 91.3349   1
   6   0 -14 5690.00 530.512   1
   6   0 -13 171.963 135.233   1
   6   0 -12 14211.4 799.305   1
   6   0 -11 60.5676 106.969   1
   6   0 -10 5007.23 445.037   1
   6   0  -9-5.05896 82.8112   1
   6   0  -8 1812.45 257.329   1
   6   0  -7 2.15396 68.5533   1
   6   0  -7-21.4631 86.8450   6
   6   0  -6 1043.01 192.517   1
   6   0  -6 1216.89 170.648   6
   6   0  -5 7.65557 67.3854   1
   6   0  -5-0.93976 57.0260   6
   6   0  -5-8.69625 79.4960   4
   6   0  -4 2314.65 224.048   6
   6   0  -4 1925.10 244.096   1
   6   0  -4 1760.08 250.299   4
   6   0  -3-8.21669 53.2913   6
   6   0  -3 106.987 79.9968   4
   6   0  -3 0.93296 81.9160   1
   6   0  -2 10123.0 558.346   1
   6   0  -2 10235.6 506.364   6
   6   0  -2 10679.5 597.178   4
   6   0  -1-49.4038 71.8719   6
   6   0  -1 17.2631 63.5052   1
   6   0   0 15707.8 702.522   1
   6   0   0 15809.1 665.365   6
   6   0   1 25.0560 83.4868   1
   6   0   1 52.8236 78.2963   6
   6   0   2 9949.87 541.659   1
   6   0   2 10344.2 533.868   6
   6   0   3 12.0550 70.1087   6
   6   0   4 1961.58 236.787   6
   6   0   5-78.3534 95.4970   6
   6   0   6 607.341 141.242   6
   6   0   7-34.4470 79.3528   6
   6   0   8 2419.28 292.682   6
   6   0   9 126.579 111.882   6
   6   0  10 3598.04 364.175   6
   6   0  11 152.800 128.616   6
   6   0  12 11775.9 698.249   6
   6   0  13 93.4264 122.064   6
   6   0  14 3631.97 407.637   6
   6   0  15-19.8935 92.4434   6
   6   0  16 2810.89 362.072   6
   6   0  17 56.5698 107.790   6
   6   1 -17 5176.93 571.052   1
   6  -1 -17 5201.58 549.447   1
   6   1 -16 7211.83 632.417   1
   6  -1 -16 7346.76 624.131   1
   6   1 -15 4285.19 486.073   1
   6   1 -15 4373.78 536.925   4
   6  -1 -15 4707.52 480.199   1
   6   1 -14 1588.46 291.712   1
   6  -1 -14 1685.01 295.667   1
   6   1 -14 1753.55 338.174   4
   6   1 -13 3918.14 439.995   1
   6   1 -13 3845.11 477.258   4
   6  -1 -13 4400.94 446.488   1
   6   1 -12 7078.71 640.000   4
   6  -1 -12 6287.91 518.346   1
   6   1 -12 5956.82 522.929   1
   6  -1 -11 3384.73 375.088   1
   6   1 -11 3648.43 446.167   4
   6   1 -11 4075.34 424.084   1
   6  -1 -10 3784.53 389.092   1
   6   1 -10 4486.99 481.568   4
   6   1 -10 3553.13 380.364   1
   6  -1  -9 8790.82 585.529   1
   6   1  -9 9987.05 707.297   4
   6   1  -9 9437.25 617.412   1
   6  -1  -8 12323.6 692.437   1
   6   1  -8 13491.6 812.978   4
   6   1  -8 13061.0 725.608   1
   6  -1  -7 11157.8 648.838   1
   6   1  -7 12740.3 769.987   4
   6   1  -7 11297.3 657.554   1
   6   1  -6 2409.90 317.578   4
   6  -1  -6 1823.79 229.614   6
   6   1  -6 1861.63 259.835   1
   6  -1  -6 1604.70 241.631   1
   6  -1  -5 6258.08 466.731   1
   6  -1  -5 6191.06 429.251   6
   6   1  -5 6493.90 348.067   6
   6   1  -5 6924.92 532.050   4
   6   1  -5 6593.41 467.995   1
   6  -1  -4 12508.8 617.626   6
   6   1  -4 12524.1 514.622   6
   6   1  -4 12103.3 698.206   4
   6   1  -4 11948.8 636.970   1
   6  -1  -3 11621.6 589.564   6
   6   1  -3 11904.5 514.790   6
   6   1  -3 11399.4 660.294   4
   6   1  -3 11721.2 618.961   1
   6  -1  -2 3885.91 326.716   6
   6   1  -2 3701.94 281.259   6
   6   1  -2 3700.09 354.938   4
   6   1  -2 3534.29 326.536   1
   6  -1  -1 3052.90 295.430   6
   6   1  -1 2930.38 257.652   6
   6   1  -1 2617.63 292.434   4
   6   1  -1 2642.58 276.023   1
   6  -1   0 6987.71 450.613   6
   6   1   0 7172.86 411.910   6
   6   1   0 6896.17 446.816   1
   6   1   0 6026.77 436.818   4
   6  -1   1 4322.71 349.062   6
   6   1   1 3896.60 312.717   6
   6   1   1 4167.41 335.371   1
   6   1   1 3790.13 332.614   4
   6  -1   2 3919.74 336.899   6
   6   1   2 4391.59 328.855   6
   6   1   2 4410.27 338.379   1
   6   1   2 3147.23 294.275   4
   6  -1   3 10031.2 552.977   6
   6   1   3 10147.4 530.207   6
   6   1   3 10462.7 527.260   1
   6   1   3 9071.60 485.249   4
   6  -1   4 10723.0 580.635   6
   6   1   4 10059.1 553.346   6
   6   1   4 10937.3 536.377   1
   6   1   4 9325.33 475.838   4
   6  -1   5 8300.40 518.671   6
   6   1   5 8285.58 457.467   1
   6   1   5 8592.62 504.713   6
   6   1   5 7299.08 393.824   4
   6   1   6 1753.53 202.667   1
   6   1   6 1375.04 156.621   4
   6  -1   6 1808.08 243.932   6
   6   1   6 1738.73 235.318   6
   6  -1   7 8767.30 556.214   6
   6   1   7 9152.76 461.420   1
   6   1   7 9505.95 564.694   6
   6  -1   8 12222.1 661.350   6
   6   1   8 11998.2 528.405   1
   6   1   8 11976.3 652.706   6
   6  -1   9 10087.2 604.065   6
   6   1   9 9702.02 461.533   1
   6   1   9 9972.34 609.501   6
   6  -1  10 2465.17 299.691   6
   6   1  10 1873.88 189.325   1
   6   1  10 2750.53 323.187   6
   6   1  11 2053.09 300.585   6
   6  -1  11 1883.24 277.096   6
   6  -1  12 5671.20 474.850   6
   6   1  12 5923.20 490.649   6
   6  -1  13 4367.08 430.734   6
   6   1  13 4578.41 442.183   6
   6  -1  14 2074.60 309.727   6
   6   1  14 2059.94 303.271   6
   6   1  15 2779.68 366.036   6
   6  -1  15 2547.92 347.130   6
   6  -1  16 5369.93 500.408   6
   6   1  16 5900.58 529.175   6
   6  -2 -17 915.741 225.717   1
   6  -2 -16 1482.01 300.047   1
   6   2 -16 2010.43 392.917   4
   6  -2 -15 2957.07 398.785   1
   6   2 -15 3245.59 451.272   1
   6   2 -15 3162.33 479.672   4
   6  -2 -14 1497.05 283.077   1
   6   2 -14 1059.11 246.710   1
   6   2 -14 1934.26 364.192   4
   6  -2 -13 386.680 135.831   1
   6   2 -13 447.294 199.138   4
   6   2 -13 240.279 102.113   1
   6   2 -12 644.101 197.997   4
   6   2 -12 566.087 166.291   1
   6  -2 -12 946.883 210.035   1
   6   2 -11 3201.36 394.053   1
   6  -2 -11 2876.26 365.442   1
   6   2 -11 3327.14 448.861   4
   6   2 -10 1879.44 288.524   1
   6   2 -10 1791.49 324.361   4
   6  -2 -10 2174.66 314.116   1
   6  -2  -9 1214.39 227.678   3
   6   2  -9 1374.68 242.001   1
   6  -2  -9 1575.78 266.097   1
   6   2  -9 1079.73 246.268   4
   6   2  -8 3129.96 351.855   1
   6  -2  -8 2908.23 346.833   1
   6   2  -8 3404.81 419.057   4
   6  -2  -8 3267.77 344.669   3
   6   2  -7 6281.88 496.900   1
   6   2  -7 6081.26 558.782   4
   6  -2  -7 7047.58 503.604   3
   6   2  -6 4383.95 407.300   1
   6   2  -6 4163.23 447.223   4
   6  -2  -6 4824.38 401.948   3
   6   2  -5 2925.85 328.560   1
   6  -2  -5 2677.45 312.510   6
   6   2  -5 2563.33 342.823   4
   6  -2  -5 3115.71 325.377   3
   6  -2  -4 2940.55 312.038   6
   6   2  -4 2446.06 334.485   4
   6  -2  -4 3210.83 313.609   3
   6   2  -4 2702.75 303.300   1
   6  -2  -3 3788.04 360.086   6
   6   2  -3 4092.59 274.898   6
   6  -2  -3 4565.16 368.169   3
   6   2  -3 3808.99 353.707   1
   6   2  -2 1918.94 195.363   6
   6  -2  -2 1873.70 250.444   6
   6  -2  -2 1842.22 236.093   3
   6   2  -2 1681.40 238.457   1
   6  -2  -1 835.751 158.488   3
   6  -2  -1 608.785 160.888   6
   6   2  -1 672.987 129.343   6
   6   2  -1 905.472 175.474   1
   6  -2   0 360.049 119.726   3
   6  -2   0 390.754 122.368   6
   6   2   0 406.955 109.923   6
   6   2   0 365.229 116.245   1
   6  -2   1 683.988 149.028   3
   6  -2   1 811.790 179.849   6
   6   2   1 783.046 129.329   6
   6   2   1 676.196 148.030   1
   6  -2   2 2203.04 269.278   6
   6   2   2 2286.01 242.964   6
   6   2   2 2363.17 254.394   1
   6  -2   2 2175.13 230.932   3
   6  -2   3 3268.87 325.603   6
   6   2   3 2771.24 278.240   6
   6   2   3 3071.44 283.377   1
   6  -2   3 2716.61 247.642   3
   6  -2   4 2904.68 305.607   6
   6   2   4 3090.80 304.732   6
   6   2   4 3572.46 300.202   1
   6  -2   4 2536.35 236.916   3
   6  -2   5 2728.71 296.475   6
   6   2   5 2469.70 290.353   6
   6   2   5 2420.53 240.334   1
   6  -2   6 3839.51 372.942   6
   6   2   6 3610.57 356.587   6
   6   2   6 3674.01 298.274   1
   6  -2   7 5774.09 448.442   6
   6   2   7 6170.20 467.526   6
   6   2   7 6204.61 372.977   1
   6  -2   8 3005.25 329.896   6
   6   2   8 2585.23 318.886   6
   6   2   8 2401.46 224.160   1
   6  -2   9 1616.16 249.681   6
   6   2   9 1656.37 251.966   6
   6  -2  10 1135.74 206.271   6
   6   2  10 912.582 218.922   6
   6  -2  11 2753.95 323.605   6
   6   2  11 2344.04 327.606   6
   6  -2  12 518.158 162.913   6
   6   2  12 685.912 190.977   6
   6  -2  13-77.3090 123.932   6
   6   2  13 52.8654 93.5125   6
   6  -2  14 1315.75 246.289   6
   6   2  14 1499.33 265.355   6
   6  -2  15 2364.67 329.827   6
   6   2  15 2657.16 365.567   6
   6   2  16 1676.79 298.029   6
   6  -3 -15 3776.17 472.364   1
   6  -3 -14 2074.89 339.853   3
   6   3 -14 2187.94 410.919   4
   6  -3 -14 1982.55 334.825   1
   6  -3 -13 2472.61 354.594   3
   6   3 -13 2758.83 402.542   1
   6   3 -13 2073.42 396.322   4
   6  -3 -13 2353.13 359.072   1
   6  -3 -12 10653.2 751.249   1
   6   3 -12 11197.6 818.107   1
   6   3 -12 10961.0 880.067   4
   6  -3 -12 12039.4 780.897   3
   6  -3 -11 2987.92 402.760   1
   6   3 -11 3102.61 459.787   4
   6   3 -11 2980.34 412.780   1
   6  -3 -11 3653.42 411.992   3
   6  -3 -10 1424.17 271.643   3
   6   3 -10 1329.08 281.842   1
   6   3 -10 1243.87 283.013   4
   6   3  -9 4015.50 456.747   1
   6   3  -9 3408.45 466.025   4
   6  -3  -9 4447.85 442.867   3
   6   3  -8 2686.60 374.940   1
   6   3  -8 2871.65 418.545   4
   6  -3  -8 3335.95 379.681   3
   6   3  -7 3777.43 420.268   1
   6  -3  -7 3749.87 402.633   3
   6  -3  -6 178.391 107.142   3
   6   3  -6 256.046 125.952   1
   6   3  -5 4810.55 446.630   1
   6  -3  -5 5089.50 451.004   3
   6   3  -4 5103.49 461.295   1
   6  -3  -4 5848.17 490.812   3
   6   3  -3 8980.97 598.389   1
   6  -3  -3 8922.34 619.020   6
   6  -3  -3 8819.76 595.396   3
   6   3  -2 1385.39 242.865   1
   6  -3  -2 1524.45 252.067   3
   6  -3  -2 975.108 220.844   6
   6   3  -1 10357.3 618.941   1
   6  -3  -1 10663.2 654.898   6
   6   3  -1 10397.1 504.836   6
   6  -3  -1 10054.1 626.312   3
   6   3   0 20404.3 886.316   1
   6  -3   0 20012.3 938.526   6
   6   3   0 19782.7 760.804   6
   6  -3   0 18657.1 886.344   3
   6   3   1 8939.10 556.344   1
   6  -3   1 9004.96 592.827   6
   6   3   1 9580.93 518.450   6
   6  -3   1 7846.47 552.210   3
   6   3   2 1093.72 203.041   1
   6  -3   2 1059.67 202.986   3
   6  -3   2 1246.58 236.583   6
   6   3   2 969.726 180.643   6
   6  -3   3 9170.08 587.322   3
   6   3   3 8916.63 549.912   1
   6  -3   3 10312.8 626.069   6
   6   3   3 9209.50 554.847   6
   6  -3   4 5089.43 435.139   3
   6   3   4 4787.41 398.374   1
   6  -3   4 4668.67 419.308   6
   6   3   4 5321.06 430.657   6
  -6  -3   4 5221.38 429.782   5
   6  -3   5 3962.71 381.348   3
   6  -3   5 3830.24 387.815   6
   6   3   5 4194.74 356.704   1
   6   3   5 3505.07 360.439   6
  -6  -3   5 3687.36 366.410   5
  -6  -3   6 528.058 147.838   5
   6  -3   6 545.440 161.545   6
   6  -3   7 3950.29 392.148   6
   6   3   7 3459.10 374.529   6
  -6  -3   7 3138.14 333.715   5
   6  -3   8 2649.43 333.560   6
   6   3   8 2896.83 358.006   6
  -6  -3   8 3146.54 326.174   5
   6  -3   9 3071.56 356.439   6
   6   3   9 2619.81 359.345   6
  -6  -3   9 3021.02 317.726   5
  -6  -3  10 1319.95 219.458   5
   6  -3  10 1498.70 255.082   6
   6   3  10 1324.94 276.511   6
   6  -3  11 2843.23 356.138   6
   6   3  11 2987.48 391.581   6
  -6  -3  11 2890.63 304.849   5
   6  -3  12 9390.70 644.388   6
   6   3  12 10248.1 719.015   6
  -6  -3  12 8885.78 541.137   5
   6  -3  13 1634.17 270.872   6
   6   3  13 1609.67 278.528   6
   6   3  14 1663.77 307.772   6
   6  -4 -12 84.2054 166.838   3
   6  -4 -11 1113.47 264.032   3
   6   4 -11 678.550 230.976   4
   6  -4 -10 1985.65 355.753   3
   6  -4  -9 3103.44 423.710   3
   6  -4  -8 700.530 241.663   3
   6  -4  -7 1428.13 286.187   3
   6  -4  -6 28.2319 124.805   3
   6  -4  -5 3634.49 442.702   3
   6  -4  -4 811.710 222.867   3
   6  -4  -4 651.798 168.391   5
   6  -4  -3 2133.25 323.768   3
   6  -4  -2 942.741 230.904   3
   6  -4  -1 1608.61 298.778   3
   6  -4  -1 2178.79 318.872   6
  -6  -4  -1 2329.74 337.591   5
  -6  -4   0 52.2831 103.108   5
   6  -4   0 211.197 126.664   3
   6  -4   0 38.5235 100.432   6
  -6  -4   1 1882.35 296.717   5
   6  -4   1 1760.68 295.505   3
   6  -4   1 2264.93 323.059   6
   6   4   1 2281.57 269.766   6
  -6  -4   2 685.331 192.725   5
   6  -4   2 397.007 151.682   3
   6  -4   2 493.028 163.874   6
   6   4   2 653.442 167.262   6
   6  -4   3 1929.43 326.128   3
   6  -4   3 1988.07 299.583   6
   6   4   3 1977.80 280.218   6
  -6  -4   3 2562.55 339.600   5
  -6  -4   4 1024.37 230.010   5
   6  -4   4 410.006 119.477   3
   6  -4   4 775.188 192.546   6
   6   4   4 752.562 192.384   6
   6  -4   5 3239.30 420.483   3
   6  -4   5 3424.75 399.856   6
   6   4   5 3601.78 410.414   6
  -6  -4   5 3693.87 416.375   5
  -6  -4   6-122.169 113.707   5
   6  -4   6 47.4729 117.416   6
   6   4   6 92.0101 134.808   6
  -6  -4   7 1028.49 228.121   5
   6  -4   7 1092.74 246.104   6
   6   4   7 1099.61 265.951   6
  -6  -4   8 449.656 162.161   5
   6  -4   8 506.485 187.262   6
   6   4   8 689.847 231.268   6
   6  -4   9 2801.36 362.110   6
   6   4   9 2582.44 385.433   6
  -6  -4   9 2746.17 353.937   5
  -6  -4  10 1476.55 251.644   5
   6  -4  10 1442.80 259.255   6
   6   4  10 1502.92 308.767   6
  -6  -4  11 1013.08 201.459   5
   6   4  11 872.702 241.145   6
  -6  -4  12 140.893 101.667   5
   6   4  12-78.4226 102.696   6
   6  -5  -7 518.868 248.023   3
   6  -5  -6 10142.8 804.970   3
   6  -5  -5 909.593 238.647   3
   6  -5  -4 409.375 192.996   3
   6  -5  -3 679.971 230.368   3
   6  -5  -2 5686.45 589.731   3
  -6  -5  -2 6594.51 617.862   5
  -6  -5  -1 421.462 190.143   5
   6  -5  -1-13.2586 145.044   3
   6  -5  -1 159.844 114.210   5
   6  -5   0 1096.81 263.012   3
   6  -5   0 1185.58 230.098   5
  -6  -5   1 213.266 138.574   5
   6  -5   1-183.673 202.332   3
   6  -5   1 222.381 131.860   5
   6  -5   2 6178.74 630.850   3
   6  -5   2 5749.83 545.193   5
  -6  -5   2 7596.50 669.431   5
  -6  -5   3 577.049 215.846   5
   6  -5   3 503.806 174.573   3
   6  -5   3 650.913 202.986   5
   6  -5   3 731.517 217.149   6
  -6  -5   4 399.490 159.211   5
   6  -5   4 657.348 215.164   5
  -6  -5   5 1005.02 272.533   5
   6   5   5 1260.49 285.850   6
   6   5   6 11995.7 852.543   6
  -6  -5   6 13196.6 901.515   5
  -6  -5   7 507.045 199.955   5
   6   5   7 242.507 123.593   6
  -6  -5   8 328.539 168.758   5
   6   5   8 24.5645 107.243   6
  -6  -5   9 900.049 245.308   5
   6   5   9 772.971 244.134   6
   7   0 -12 179.966 126.456   1
   7   0 -11 542.372 152.833   1
   7   0 -10 24.6004 101.345   1
   7   0  -9 4274.02 443.779   1
   7   0  -8 91.0705 97.3028   1
   7   0  -7 5094.31 473.561   1
   7   0  -6 54.5853 111.082   1
   7   0  -5 8579.82 601.320   1
   7   0  -4 116.053 97.3595   1
   7   0  -3 4169.46 343.143   6
   7   0  -3 3606.73 376.443   1
   7   0  -2 198.426 88.9204   6
   7   0  -2-80.9481 92.8931   1
   7   0  -1 1136.21 175.325   6
   7   0  -1 1108.29 219.451   1
   7   0   0-8.37602 92.5051   6
   7   0   0-72.2866 86.7457   1
   7   0   1 1198.75 187.461   6
   7   0   1 618.072 169.544   1
   7   0   2-49.3718 80.9147   6
   7   0   2 3.28953 80.1280   1
   7   0   3 3192.85 361.516   1
   7   0   3 3739.96 350.829   6
   7   0   4 69.6313 72.2099   6
   7   0   4 12.7859 74.2768   1
   7   0   5 7815.48 523.374   1
   7   0   5 6790.67 498.274   6
   7   0   6-46.8599 93.4688   6
   7   0   6 68.5387 88.2569   1
   7   0   7 4841.69 406.616   1
   7   0   7 5363.26 446.377   6
   7   0   8 15.9641 72.8600   1
   7   0   8-72.3649 82.8587   6
   7   0   9 3002.71 308.112   1
   7   0   9 3476.36 383.585   6
   7   0  10-8.92317 97.3283   6
   7   0  11 390.221 148.520   6
   7   0  12-52.0287 125.233   6
   7   0  13 836.532 236.175   6
   7   1 -12 5213.54 524.284   1
   7   1 -12 5170.79 575.686   4
   7  -1 -12 5088.56 512.062   1
   7   1 -11 758.703 185.873   1
   7  -1 -11 818.867 233.057   1
   7  -1 -10 2093.87 332.530   1
   7   1 -10 2625.68 402.123   4
   7   1 -10 3071.42 377.032   1
   7  -1  -9 1142.31 231.653   1
   7   1  -9 908.619 233.016   4
   7   1  -9 1172.61 248.496   1
   7  -1  -8 1266.02 250.746   1
   7   1  -8 1676.75 313.587   4
   7   1  -8 1848.46 292.235   1
   7   1  -7 164.462 101.892   1
   7   1  -7 367.923 150.376   4
   7  -1  -7 198.651 98.5052   1
   7   1  -6 1234.71 233.902   1
   7   1  -6 1336.38 251.354   4
   7  -1  -6 1218.72 242.799   1
   7   1  -5 98.1310 83.2550   1
   7  -1  -5 298.666 121.068   6
   7   1  -5 170.093 104.819   4
   7  -1  -5 273.300 139.535   1
   7   1  -4 1572.27 252.699   1
   7  -1  -4 1974.00 261.806   6
   7   1  -4 1666.74 269.241   4
   7  -1  -4 1591.57 266.997   1
   7   1  -3 1538.41 256.618   1
   7  -1  -3 1811.15 251.345   6
   7   1  -3 1635.39 258.509   4
   7  -1  -3 1379.13 255.132   1
   7  -1  -2 4408.50 442.292   1
   7  -1  -2 4773.96 395.542   6
   7   1  -2 4545.50 337.289   6
   7   1  -2 4760.02 433.587   4
   7   1  -2 4133.68 396.592   1
   7   1  -1 1370.85 227.454   1
   7  -1  -1 1448.40 243.321   6
   7   1  -1 1340.68 199.621   6
   7   1  -1 1297.50 221.206   4
   7  -1   0 5278.87 424.592   6
   7   1   0 5289.02 391.373   6
   7   1   0 5026.79 415.129   4
   7   1   0 5531.63 445.102   1
   7   1   1 894.026 192.223   1
   7  -1   1 1199.11 222.337   6
   7   1   1 996.490 186.351   6
   7  -1   2 4675.86 402.175   6
   7   1   2 4128.10 362.826   6
   7   1   2 5269.03 423.456   1
   7   1   3 1261.85 213.111   1
   7  -1   3 1259.66 210.272   6
   7   1   3 1371.56 219.181   6
   7   1   4 2250.52 268.938   1
   7  -1   4 1954.69 265.503   6
   7   1   4 1441.00 237.771   6
   7   1   5 169.810 101.255   1
   7  -1   5 166.695 85.8440   6
   7   1   5 133.747 85.5760   6
   7   1   6 1089.97 169.996   1
   7  -1   6 1223.57 219.069   6
   7   1   6 1261.61 223.824   6
   7   1   7 209.925 80.5493   1
   7  -1   7 279.322 126.466   6
   7   1   7 406.559 155.434   6
   7  -1   8 1211.11 238.957   6
   7   1   8 1646.04 274.048   6
   7  -1   9 982.884 218.296   6
   7   1   9 905.357 205.949   6
   7  -1  10 2115.72 304.980   6
   7   1  10 2107.20 317.749   6
   7  -1  11 822.647 201.578   6
   7   1  11 873.357 202.743   6
   7  -1  12 4149.38 442.804   6
   7   1  12 4632.66 473.423   6
   7   1  13 881.059 222.632   6
   7   2 -12 2368.66 417.237   4
   7   2 -11 2623.42 425.440   4
   7   2 -11 2692.42 372.465   1
   7   2 -10 2789.45 387.249   1
   7   2 -10 2404.90 403.458   4
   7  -2 -10 2276.76 355.250   1
   7   2  -9 1159.58 246.123   1
   7   2  -9 1482.02 299.761   4
   7  -2  -9 955.502 253.637   1
   7   2  -8 937.533 204.174   1
   7   2  -8 904.897 258.532   4
   7  -2  -8 822.826 220.751   1
   7   2  -7 496.744 149.725   1
   7  -2  -7 403.252 170.794   1
   7   2  -7 758.604 209.310   4
   7   2  -6 393.597 162.703   1
   7  -2  -6 252.833 145.233   1
   7   2  -6 650.779 194.928   4
   7   2  -5 603.289 179.133   1
   7   2  -5 616.356 179.178   4
   7   2  -4 1271.98 238.665   1
   7  -2  -4 1211.54 230.392   6
   7   2  -4 1136.33 246.383   4
   7  -2  -3 2109.44 297.543   6
   7   2  -3 2053.25 320.359   4
   7   2  -3 2290.11 309.558   1
   7   2  -2 2465.52 343.083   4
   7  -2  -2 2336.95 319.428   6
   7   2  -2 2454.18 312.380   1
   7  -2  -1 2917.12 333.145   6
   7   2  -1 2176.44 311.934   4
   7   2  -1 2548.76 321.201   1
   7  -2   0 3234.43 354.479   6
   7   2   0 2484.75 324.533   4
   7   2   0 3024.04 331.910   1
   7   2   1 2481.32 269.206   6
   7  -2   1 2243.85 300.458   6
   7   2   1 2053.63 291.290   4
   7   2   1 2963.29 323.230   1
   7  -2   2 3183.68 348.461   6
   7   2   2 2995.77 306.470   6
   7   2   2 2179.20 294.782   4
   7   2   2 2860.44 313.007   1
   7  -2   3 2026.46 278.699   6
   7   2   3 1799.07 240.721   6
   7   2   3 1698.90 237.994   1
   7  -2   4 1493.80 239.554   6
   7   2   4 1291.85 211.172   6
   7   2   4 1518.28 216.790   1
   7  -2   5 496.506 154.759   6
   7   2   5 471.510 141.964   6
   7   2   5 497.719 137.771   1
   7  -2   6 572.854 161.302   6
   7   2   6 826.395 195.225   6
   7  -2   7 706.411 181.581   6
   7   2   7 874.527 211.226   6
   7  -2   8 893.164 216.644   6
   7   2   8 1300.53 247.956   6
   7  -2   9 1402.18 258.523   6
   7   2   9 1663.75 284.451   6
   7  -2  10 1580.37 270.173   6
   7   2  10 1972.46 318.818   6
   7  -2  11 3231.07 390.410   6
   7   2  11 3133.84 395.446   6
   7   2  12 1853.16 326.754   6
   7  -3 -10 398.000 187.675   3
   7   3 -10-39.5827 125.913   4
   7  -3  -9 2658.96 366.076   3
   7   3  -9 3029.35 429.532   1
   7   3  -9 2261.28 394.240   4
   7  -3  -8 968.544 237.451   3
   7   3  -8 678.386 201.389   4
   7   3  -8 760.632 243.516   1
   7   3  -7 5538.68 551.204   1
   7   3  -7 4022.34 508.336   4
   7  -3  -7 5709.02 548.117   3
   7  -3  -6 1222.97 269.424   3
   7   3  -6 1113.95 262.103   1
   7   3  -6 794.501 224.964   4
   7   3  -5 5087.92 504.917   1
   7   3  -5 5094.24 556.561   4
   7  -3  -5 5896.21 524.767   3
   7  -3  -4 460.774 179.232   3
   7   3  -4 335.344 172.293   1
   7   3  -4 580.897 197.944   4
   7  -3  -3 1780.44 301.066   3
   7   3  -3 1853.43 296.508   1
   7  -3  -3 1939.07 319.046   6
   7   3  -2 175.771 106.132   1
   7  -3  -2 330.362 132.949   6
   7   3  -1 109.297 114.899   1
   7  -3  -1 314.942 145.046   6
   7  -3   0-176.542 123.087   6
   7   3   0-74.6767 90.6473   1
   7   3   1-189.728 105.454   1
   7  -3   1 265.256 115.634   6
   7   3   2-31.3583 77.1063   1
   7  -3   2 456.416 151.643   6
   7   3   3 2035.55 275.367   1
   7  -3   3 2268.64 320.725   6
   7   3   3 2295.16 270.289   6
   7  -3   4 415.047 160.521   6
   7   3   4 442.263 152.303   6
   7  -3   5 5836.75 508.482   6
   7   3   5 4565.84 434.325   6
   7  -3   6 884.343 219.419   6
   7   3   6 443.167 168.465   6
   7  -3   7 4252.64 434.819   6
   7   3   7 4031.42 435.405   6
   7  -3   8 645.690 196.526   6
   7   3   8 463.163 192.616   6
   7   3   9 2277.05 345.558   6
   7   3  10 229.272 107.164   6
   7   3  11 613.123 216.574   6
   7  -4  -8 1071.88 286.017   3
   7  -4  -7 99.2927 153.392   3
   7  -4  -6 1664.38 347.885   3
   7  -4  -5 353.175 192.560   3
   7  -4  -4 1047.75 269.887   3
   7  -4  -3 1070.55 255.883   3
   7  -4   0 2111.16 358.721   6
   7  -4   1 11.1647 132.907   6
   7  -4   2 2016.98 328.184   6
   7   4   6 1440.15 294.231   6
   7   4   7 96.3470 145.016   6
   7   4   8 648.141 201.571   6
   8   0  -5-91.4164 95.4382   1
   8   0  -4 12641.6 798.875   1
   8   0  -3 17.8081 90.6341   1
   8   0  -2 519.076 174.930   1
   8   0  -1 72.1134 118.867   1
   8   0   0 30795.0 1295.15   1
   8   0   1-12.4533 96.5684   1
   8   0   1 197.221 110.094   6
   8   0   2 199.521 102.258   6
   8   0   2 495.115 168.839   1
   8   0   3 57.5680 97.8297   6
   8   0   3 30.9590 82.3245   1
   8   0   4 9942.86 633.822   6
   8   0   4 10994.3 690.263   1
   8   0   5 22.6777 95.2696   6
   8   0   5-91.8906 80.7667   1
   8   0   6 1664.45 259.503   6
   8   0   6 1150.98 225.519   1
   8   0   7 217.574 152.773   6
   8   0   8 5167.05 491.607   6
   8   1  -5 2905.00 386.144   1
   8   1  -4 888.002 206.079   1
   8   1  -3 2330.00 331.439   1
   8  -1  -3 2482.31 362.626   1
   8   1  -2-27.6768 152.258   1
   8  -1  -2 335.022 118.660   1
   8   1  -1 1022.35 200.293   1
   8  -1  -1 1549.54 253.737   6
   8  -1  -1 1247.45 272.592   1
   8   1   0-8.01320 87.6529   1
   8  -1   0 181.672 100.348   6
   8  -1   0 179.563 105.690   1
   8   1   1 880.760 196.521   1
   8  -1   1 1141.27 205.022   6
   8  -1   1 1267.83 263.371   1
   8   1   2 272.152 112.532   1
   8  -1   2 731.758 191.377   6
   8  -1   2 625.513 192.269   1
   8   1   3 1897.45 286.387   1
   8  -1   3 1868.56 287.412   6
   8  -1   3 1979.98 324.746   1
   8   1   3 1753.26 241.355   6
   8   1   4 1052.33 199.340   1
   8  -1   4 1257.44 262.869   1
   8  -1   4 951.369 209.688   6
   8   1   4 1245.31 227.534   6
   8  -1   5 2633.46 340.725   6
   8   1   5 2648.90 322.715   6
   8  -1   6 416.855 165.352   6
   8   1   6 522.332 187.405   6
   8  -1   7 2557.45 359.420   6
   8   1   7 2317.75 324.415   6
   8   1   8 550.951 176.951   6
   8   2  -8 1079.83 279.448   4
   8   2  -7 5027.04 567.502   4
   8   2  -6 2670.73 415.507   4
   8   2  -4 675.899 197.923   1
   8   2  -3 7328.77 606.085   1
   8   2  -2 1451.06 260.048   1
   8  -2  -2 1638.46 269.817   6
   8   2  -1 2721.91 353.168   1
   8  -2  -1 2599.96 350.197   6
   8   2   0 25.0103 97.6270   1
   8  -2   0 123.686 130.167   6
   8  -2   1 3311.41 391.049   6
   8   2   1 3257.01 375.503   1
   8   2   2 1691.23 272.607   1
   8  -2   2 2405.43 339.798   6
   8  -2   3 4609.75 456.253   6
   8  -2   4 276.722 170.264   6
   8  -2   5 4904.33 481.962   6
   8   2   6 3511.21 408.432   6
   8   2   7 3790.81 432.425   6
   8   2   8 713.831 241.543   6
   8   3  -2 2549.74 388.453   1
   8  -3  -2 3160.95 419.095   6
   8  -3  -1 360.016 154.155   6
   8  -3   0 3506.45 448.369   6
   0   0   0    0.00    0.00   0
;
_shelx_hkl_checksum              12090
_olex2_submission_special_instructions 'No special instructions were received'
_oxdiff_exptl_absorpt_empirical_details
;
Empirical correction (ABSPACK) includes:
- Absorption correction using spherical harmonics
- Frame scaling
;
_oxdiff_exptl_absorpt_empirical_full_max 2.417
_oxdiff_exptl_absorpt_empirical_full_min 0.656
loop_
_space_group_symop_operation_xyz
'x, y, z'
'-x+1/2, -y, z+1/2'
'x+1/2, -y, z+1/2'
'-x, y, z'
loop_
_atom_site_label
_atom_site_type_symbol
_atom_site_fract_x
_atom_site_fract_y
_atom_site_fract_z
_atom_site_U_iso_or_equiv
_atom_site_adp_type
_atom_site_occupancy
_atom_site_site_symmetry_order
_atom_site_calc_flag
_atom_site_refinement_flags_posn
_atom_site_refinement_flags_adp
_atom_site_refinement_flags_occupancy
_atom_site_disorder_assembly
_atom_site_disorder_group
U1 U -0.500000 -0.18495(15) -0.60650(5) 0.0180(2) Uani 1 2 d S T P . .
Se1 Se 0.000000 0.1402(5) -0.52743(11) 0.0199(5) Uani 1 2 d S T P . .
Se2 Se -1.000000 -0.5081(4) -0.68983(11) 0.0184(5) Uani 1 2 d S T P . .
Cu1 Cu 0.2502(2) -0.6072(3) -0.36178(10) 0.0104(4) Uani 1 1 d . . . . .
Cu2 Cu 0.000000 -0.1113(4) -0.35404(15) 0.0098(5) Uani 1 2 d S T P . .
Cu3 Cu 0.500000 -0.1023(4) -0.35629(15) 0.0095(4) Uani 1 2 d S T P . .
O1 O -0.500000 -0.457(4) -0.5568(10) 0.038(5) Uani 1 2 d S T P . .
O2 O -0.500000 0.083(4) -0.6555(8) 0.036(5) Uani 1 2 d S T P . .
O3 O -0.2188(19) -0.061(3) -0.5349(7) 0.030(3) Uani 1 1 d . . . . .
O4 O 0.000000 0.202(3) -0.4420(8) 0.012(3) Uani 1 2 d S T P . .
O5 O -0.779(2) -0.310(3) -0.6815(7) 0.029(3) Uani 1 1 d . . . . .
O6 O -1.000000 -0.558(3) -0.7754(8) 0.017(3) Uani 1 2 d S T P . .
O7 O 0.2536(17) -0.277(2) -0.4020(5) 0.0102(13) Uani 1 1 d D . . . .
H7 H 0.26(3) -0.26(4) -0.449(2) 0.015 Uiso 1 1 d D U . . .
O8 O 0.500000 -0.726(3) -0.4144(8) 0.011(3) Uani 1 2 d DS T P . .
H8 H 0.500000 -0.64(4) -0.459(7) 0.016 Uiso 1 2 d DS U P . .
O9 O 0.000000 -0.488(3) -0.3089(8) 0.013(3) Uani 1 2 d DS T P . .
O10 O 0.2494(13) 0.0711(19) -0.3121(6) 0.0102(13) Uani 1 1 d D . . . .
H10 H 0.26(3) 0.10(3) -0.266(2) 0.015 Uiso 1 1 d D U . . .
H9 H -0.08(4) -0.55(6) -0.266(9) 0.015 Uiso 0.5 1 d D U P . .
loop_
_atom_site_aniso_label
_atom_site_aniso_U_11
_atom_site_aniso_U_22
_atom_site_aniso_U_33
_atom_site_aniso_U_23
_atom_site_aniso_U_13
_atom_site_aniso_U_12
U1 0.0139(3) 0.0294(4) 0.0107(3) -0.0048(3) 0.000 0.000
Se1 0.0180(10) 0.0292(13) 0.0126(10) 0.0021(8) 0.000 0.000
Se2 0.0159(9) 0.0271(13) 0.0121(10) 0.0026(9) 0.000 0.000
Cu1 0.0060(7) 0.0084(8) 0.0169(9) 0.0007(7) 0.0010(7) 0.0012(5)
Cu2 0.0045(9) 0.0089(11) 0.0161(11) -0.0008(10) 0.000 0.000
Cu3 0.0040(9) 0.0078(11) 0.0166(11) -0.0025(9) 0.000 0.000
O1 0.055(12) 0.028(11) 0.031(10) 0.011(8) 0.000 0.000
O2 0.056(12) 0.041(12) 0.011(8) 0.008(8) 0.000 0.000
O3 0.022(5) 0.047(9) 0.021(6) -0.011(6) -0.003(5) -0.002(6)
O4 0.009(6) 0.012(8) 0.014(7) -0.002(5) 0.000 0.000
O5 0.030(6) 0.036(8) 0.020(6) -0.011(5) -0.004(5) -0.005(6)
O6 0.012(7) 0.021(8) 0.019(8) -0.012(6) 0.000 0.000
O7 0.006(3) 0.012(3) 0.013(3) -0.004(3) -0.001(2) 0.002(3)
O8 0.005(6) 0.014(8) 0.013(7) -0.003(6) 0.000 0.000
O9 0.007(5) 0.013(7) 0.017(7) -0.001(6) 0.000 0.000
O10 0.006(3) 0.012(3) 0.013(3) -0.004(3) -0.001(2) 0.002(3)
loop_
_atom_type_symbol
_atom_type_description
_atom_type_scat_dispersion_real
_atom_type_scat_dispersion_imag
_atom_type_scat_source
Cu Cu 0.3201 1.2651 'International Tables Vol C Tables 4.2.6.8 and 6.1.1.4'
H H 0.0000 0.0000 'International Tables Vol C Tables 4.2.6.8 and 6.1.1.4'
O O 0.0106 0.0060 'International Tables Vol C Tables 4.2.6.8 and 6.1.1.4'
Se Se -0.0929 2.2259 'International Tables Vol C Tables 4.2.6.8 and 6.1.1.4'
U U -9.6767 9.6646 'International Tables Vol C Tables 4.2.6.8 and 6.1.1.4'
loop_
_exptl_crystal_face_index_h
_exptl_crystal_face_index_k
_exptl_crystal_face_index_l
_exptl_crystal_face_perp_dist
-3 1 25 0.0213
-8 0 1 0.0487
8 0 5 0.0396
-2 5 19 0.0250
1 7 -11 0.0187
2 -4 -21 0.0323
-1 -7 10 0.0219
loop_
_geom_angle_atom_site_label_1
_geom_angle_atom_site_label_2
_geom_angle_atom_site_label_3
_geom_angle
_geom_angle_site_symmetry_1
_geom_angle_site_symmetry_3
O1 U1 O3 86.5(6) . .
O1 U1 O3 86.5(6) . 4_455
O1 U1 O5 94.2(6) . 4_455
O1 U1 O5 94.2(6) . .
O2 U1 O1 179.9(10) . .
O2 U1 O3 93.5(6) . 4_455
O2 U1 O3 93.5(6) . .
O2 U1 O5 85.8(5) . .
O2 U1 O5 85.8(5) . 4_455
O3 U1 O3 95.3(6) 4_455 .
O3 U1 O5 86.1(4) . 4_455
O3 U1 O5 178.6(5) 4_455 4_455
O3 U1 O5 178.6(5) . .
O3 U1 O5 86.1(4) 4_455 .
O5 U1 O5 92.6(6) 4_455 .
O3 Se1 O3 98.4(9) . 4
O4 Se1 O3 102.3(6) . 4
O4 Se1 O3 102.3(6) . .
O5 Se2 O5 99.6(9) . 4_355
O6 Se2 O5 101.3(6) . 4_355
O6 Se2 O5 101.3(6) . .
Cu1 Cu1 Cu1 180.0 4_655 4
O4 Cu1 Cu1 51.3(2) 1_545 4
O4 Cu1 Cu1 128.7(2) 1_545 4_655
O4 Cu1 O6 175.5(5) 1_545 2_445
O6 Cu1 Cu1 128.3(3) 2_445 4
O6 Cu1 Cu1 51.7(3) 2_445 4_655
O7 Cu1 Cu1 90.6(3) . 4
O7 Cu1 Cu1 89.4(3) . 4_655
O7 Cu1 O4 99.8(5) . 1_545
O7 Cu1 O6 84.6(5) . 2_445
O7 Cu1 O10 174.8(4) . 1_545
O8 Cu1 Cu1 38.8(3) . 4_655
O8 Cu1 Cu1 141.2(3) . 4
O8 Cu1 O4 89.9(4) . 1_545
O8 Cu1 O6 90.4(4) . 2_445
O8 Cu1 O7 96.2(6) . .
O8 Cu1 O9 179.9(6) . .
O8 Cu1 O10 86.7(5) . 1_545
O9 Cu1 Cu1 141.1(4) . 4_655
O9 Cu1 Cu1 38.9(4) . 4
O9 Cu1 O4 90.2(4) . 1_545
O9 Cu1 O6 89.5(5) . 2_445
O9 Cu1 O7 83.8(5) . .
O9 Cu1 O10 93.3(5) . 1_545
O10 Cu1 Cu1 90.1(2) 1_545 4_655
O10 Cu1 Cu1 89.9(2) 1_545 4
O10 Cu1 O4 84.5(4) 1_545 1_545
O10 Cu1 O6 91.0(5) 1_545 2_445
O7 Cu2 O4 90.9(4) . .
O7 Cu2 O4 90.9(4) 4 .
O7 Cu2 O7 98.7(6) . 4
O7 Cu2 O9 75.3(4) 4 .
O7 Cu2 O9 75.2(4) . .
O9 Cu2 O4 158.4(5) . .
O10 Cu2 O4 84.9(4) . .
O10 Cu2 O4 84.9(4) 4 .
O10 Cu2 O7 175.8(5) 4 .
O10 Cu2 O7 81.5(4) . .
O10 Cu2 O7 175.8(5) . 4
O10 Cu2 O7 81.5(4) 4 4
O10 Cu2 O9 108.8(4) 4 .
O10 Cu2 O9 108.8(4) . .
O10 Cu2 O10 98.1(6) 4 .
O7 Cu3 Cu2 138.2(3) . 1_655
O7 Cu3 Cu2 41.5(3) 4_655 1_655
O7 Cu3 O7 96.7(6) . 4_655
O7 Cu3 O8 103.4(4) . 1_565
O7 Cu3 O8 103.4(4) 4_655 1_565
O7 Cu3 O10 82.2(4) 4_655 4_655
O7 Cu3 O10 178.9(4) . 4_655
O7 Cu3 O10 178.9(4) 4_655 .
O7 Cu3 O10 82.2(4) . .
O8 Cu3 Cu2 91.23(7) 1_565 1_655
O10 Cu3 Cu2 139.6(3) . 1_655
O10 Cu3 Cu2 40.8(3) 4_655 1_655
O10 Cu3 O8 76.5(4) 4_655 1_565
O10 Cu3 O8 76.5(4) . 1_565
O10 Cu3 O10 98.8(6) 4_655 .
Se1 O3 U1 143.7(8) . .
Se1 O4 Cu1 135.9(4) . 1_565
Se1 O4 Cu1 135.9(4) . 4_565
Se1 O4 Cu2 122.1(8) . .
Cu1 O4 Cu1 77.4(4) 1_565 4_565
Cu1 O4 Cu2 82.9(4) 4_565 .
Cu1 O4 Cu2 82.9(4) 1_565 .
Se2 O5 U1 143.4(8) . .
Se2 O6 Cu1 127.8(6) . 3_344
Se2 O6 Cu1 127.8(6) . 2_444
Cu1 O6 Cu1 76.6(5) 3_344 2_444
Cu1 O7 Cu2 104.1(5) . .
Cu1 O7 H7 120(10) . .
Cu2 O7 H7 114(10) . .
Cu3 O7 Cu1 107.1(5) . .
Cu3 O7 Cu2 97.7(5) . .
Cu3 O7 H7 111(10) . .
Cu1 O8 Cu1 102.3(7) . 4_655
Cu1 O8 Cu3 93.4(5) . 1_545
Cu1 O8 Cu3 93.4(5) 4_655 1_545
Cu1 O8 H8 107(9) . .
Cu1 O8 H8 107(9) 4_655 .
Cu3 O8 H8 147(10) 1_545 .
Cu1 O9 Cu1 102.2(7) 4 .
Cu1 O9 Cu2 96.9(5) 4 .
Cu1 O9 Cu2 96.9(5) . .
Cu1 O9 H9 86(10) 4 .
Cu1 O9 H9 133(10) . .
Cu2 O9 H9 128(10) . .
Cu1 O10 H10 109(10) 1_565 .
Cu2 O10 Cu1 105.5(5) . 1_565
Cu2 O10 H10 122(10) . .
Cu3 O10 Cu1 103.3(5) . 1_565
Cu3 O10 Cu2 98.5(5) . .
Cu3 O10 H10 117(10) . .
loop_
_geom_bond_atom_site_label_1
_geom_bond_atom_site_label_2
_geom_bond_distance
_geom_bond_site_symmetry_2
U1 O1 1.79(2) .
U1 O2 1.760(19) .
U1 O3 2.273(12) 4_455
U1 O3 2.273(12) .
U1 O5 2.306(12) 4_455
U1 O5 2.306(12) .
Se1 O3 1.726(14) 4
Se1 O3 1.726(14) .
Se1 O4 1.667(15) .
Se2 O5 1.725(13) .
Se2 O5 1.725(13) 4_355
Se2 O6 1.655(16) .
Cu1 Cu1 2.983(3) 4_655
Cu1 Cu1 2.989(3) 4
Cu1 O4 2.389(12) 1_545
Cu1 O6 2.406(14) 2_445
Cu1 O7 1.991(12) .
Cu1 O8 1.915(9) .
Cu1 O9 1.921(10) .
Cu1 O10 2.027(11) 1_545
Cu2 O4 2.419(16) .
Cu2 O7 1.997(10) .
Cu2 O7 1.997(10) 4
Cu2 O9 2.268(15) .
Cu2 O10 1.973(9) .
Cu2 O10 1.973(9) 4
Cu3 O7 1.969(11) .
Cu3 O7 1.969(10) 4_655
Cu3 O8 2.373(16) 1_565
Cu3 O10 1.971(9) 4_655
Cu3 O10 1.971(9) .
O7 H7 0.90(3) .
O8 H8 0.97(2) .
O9 H9 1.00(2) .
O10 H10 0.90(3) .
loop_
_geom_torsion_atom_site_label_1
_geom_torsion_atom_site_label_2
_geom_torsion_atom_site_label_3
_geom_torsion_atom_site_label_4
_geom_torsion
_geom_torsion_site_symmetry_1
_geom_torsion_site_symmetry_2
_geom_torsion_site_symmetry_3
_geom_torsion_site_symmetry_4
O3 Se1 O3 U1 -109.4(12) 4 . . .
O3 Se1 O4 Cu1 -65.2(12) . . . 4_565
O3 Se1 O4 Cu1 -166.8(10) 4 . . 4_565
O3 Se1 O4 Cu1 166.8(10) . . . 1_565
O3 Se1 O4 Cu1 65.2(12) 4 . . 1_565
O3 Se1 O4 Cu2 -50.8(5) 4 . . .
O3 Se1 O4 Cu2 50.8(5) . . . .
O4 Se1 O3 U1 145.9(12) . . . .
O5 Se2 O5 U1 106.6(12) 4_355 . . .
O5 Se2 O6 Cu1 0.5(10) . . . 2_444
O5 Se2 O6 Cu1 -0.5(10) 4_355 . . 3_344
O5 Se2 O6 Cu1 102.8(8) 4_355 . . 2_444
O5 Se2 O6 Cu1 -102.8(8) . . . 3_344
O6 Se2 O5 U1 -149.7(11) . . . .
loop_
_exptl_oxdiff_crystal_face_indexfrac_h
_exptl_oxdiff_crystal_face_indexfrac_k
_exptl_oxdiff_crystal_face_indexfrac_l
_exptl_oxdiff_crystal_face_x
_exptl_oxdiff_crystal_face_y
_exptl_oxdiff_crystal_face_z
-2.6320 1.2167 25.1936 -0.0104 -0.0042 0.9999
-8.4076 0.1667 0.5799 -0.9197 0.2163 0.3277
8.2525 0.1046 5.1923 0.9666 -0.2289 -0.1150
-2.1224 5.1811 18.9871 0.1177 0.5188 0.8467
0.8673 7.0849 -11.0871 0.2241 0.9358 -0.2721
2.3067 -4.3550 -21.0966 -0.0902 -0.4047 -0.9100
-0.7693 -7.2103 10.1697 -0.2262 -0.9456 0.2339
