#------------------------------------------------------------------------------
#$Date: 2023-04-20 14:53:48 +0300 (Thu, 20 Apr 2023) $
#$Revision: 282777 $
#$URL: file:///home/coder/svn-repositories/cod/cif/1/56/66/1566631.cif $
#------------------------------------------------------------------------------
#
# This file is available in the Crystallography Open Database (COD),
# http://www.crystallography.net/
#
# All data on this site have been placed in the public domain by the
# contributors.
#
data_1566631
loop_
_publ_author_name
'Tan, Yee Seng'
'Yeo, Chien Ing'
'Kwong, Huey Chong'
'Tiekink, Edward R. T.'
_publ_section_title
;
 Unusual {&#x22EF;HNC <sub>2</sub> O&#x22EF;HC <sub> <i>n</i> </sub> O},
 <i>n</i> = 1 or 2, synthons predominate in the molecular packing of
 one-dimensional coordination polymers, {Cd[S <sub>2</sub> P(OR)
 <sub>2</sub> ] <sub>2</sub> ( <sup>3</sup> LH <sub>2</sub> )} <sub>
 <i>n</i> </sub> , for R = Me and Et, but are precluded when R = i-Pr;
 <sup>3</sup> LH <sub>2</sub> = <i>N</i> , <i>N</i>
 &#x2032;-bis(3-pyridylmethyl)oxalamide
;
_journal_issue                   16
_journal_name_full               CrystEngComm
_journal_page_first              2992
_journal_page_last               3004
_journal_paper_doi               10.1039/D2CE00208F
_journal_volume                  24
_journal_year                    2022
_chemical_formula_moiety         'C22 H34 Cd N4 O6 P2 S4'
_chemical_formula_sum            'C22 H34 Cd N4 O6 P2 S4'
_chemical_formula_weight         753.11
_space_group_crystal_system      triclinic
_space_group_IT_number           2
_space_group_name_Hall           '-P 1'
_space_group_name_H-M_alt        'P -1'
_atom_sites_solution_hydrogens   mixed
_atom_sites_solution_primary     direct
_atom_sites_solution_secondary   difmap
_audit_creation_method           SHELXL-2017/1
_audit_update_record
;
2022-01-29 deposited with the CCDC.	2022-03-17 downloaded from the CCDC.
;
_cell_angle_alpha                82.436(3)
_cell_angle_beta                 77.672(3)
_cell_angle_gamma                64.113(3)
_cell_formula_units_Z            1
_cell_length_a                   9.0611(3)
_cell_length_b                   9.2065(3)
_cell_length_c                   10.5703(4)
_cell_measurement_reflns_used    12867
_cell_measurement_temperature    100(2)
_cell_measurement_theta_max      75.7150
_cell_measurement_theta_min      4.2770
_cell_volume                     774.27(5)
_computing_cell_refinement       'CrysAlisPro 1.171.39.31a (Rigaku OD, 2017)'
_computing_data_collection       'CrysAlisPro 1.171.39.31a (Rigaku OD, 2017)'
_computing_data_reduction        'CrysAlisPro 1.171.39.31a (Rigaku OD, 2017)'
_computing_molecular_graphics
'ORTEP-3 for Windows (Farrugia, 2012), DIAMOND (Brandenburg, 2006)'
_computing_publication_material  'publCIF (Westrip, 2010)'
_computing_structure_refinement  'SHELXL-2014/7 (Sheldrick, 2014)'
_computing_structure_solution    'SHELXS97 (Sheldrick, 2008)'
_diffrn_ambient_temperature      100(2)
_diffrn_measured_fraction_theta_full 1.000
_diffrn_measured_fraction_theta_max 1.000
_diffrn_measurement_device_type  'XtaLAB Synergy, Dualflex, AtlasS2'
_diffrn_measurement_method       '\w scans'
_diffrn_radiation_type           CuK\a
_diffrn_radiation_wavelength     1.54178
_diffrn_reflns_av_R_equivalents  0.0248
_diffrn_reflns_av_unetI/netI     0.0150
_diffrn_reflns_Laue_measured_fraction_full 1.000
_diffrn_reflns_Laue_measured_fraction_max 1.000
_diffrn_reflns_limit_h_max       10
_diffrn_reflns_limit_h_min       -10
_diffrn_reflns_limit_k_max       10
_diffrn_reflns_limit_k_min       -10
_diffrn_reflns_limit_l_max       12
_diffrn_reflns_limit_l_min       -12
_diffrn_reflns_number            16964
_diffrn_reflns_point_group_measured_fraction_full 1.000
_diffrn_reflns_point_group_measured_fraction_max 1.000
_diffrn_reflns_theta_full        67.068
_diffrn_reflns_theta_max         67.068
_diffrn_reflns_theta_min         4.285
_diffrn_source                   'micro-focus sealed X-ray tube'
_exptl_absorpt_coefficient_mu    9.513
_exptl_absorpt_correction_T_max  1.000
_exptl_absorpt_correction_T_min  0.388
_exptl_absorpt_correction_type   gaussian
_exptl_absorpt_process_details
'CrysAlisPro 1.171.39.31a (Rigaku Oxford Diffraction, 2017)'
_exptl_crystal_colour            colourless
_exptl_crystal_density_diffrn    1.615
_exptl_crystal_description       needle
_exptl_crystal_F_000             384
_exptl_crystal_size_max          0.209
_exptl_crystal_size_mid          0.057
_exptl_crystal_size_min          0.036
_refine_diff_density_max         0.310
_refine_diff_density_min         -0.293
_refine_diff_density_rms         0.049
_refine_ls_extinction_method     none
_refine_ls_goodness_of_fit_ref   1.063
_refine_ls_hydrogen_treatment    mixed
_refine_ls_matrix_type           full
_refine_ls_number_parameters     183
_refine_ls_number_reflns         2767
_refine_ls_number_restraints     1
_refine_ls_restrained_S_all      1.063
_refine_ls_R_factor_all          0.0159
_refine_ls_R_factor_gt           0.0158
_refine_ls_shift/su_max          0.001
_refine_ls_shift/su_mean         0.000
_refine_ls_structure_factor_coef Fsqd
_refine_ls_weighting_details
'w=1/[\s^2^(Fo^2^)+(0.0184P)^2^+0.4290P] where P=(Fo^2^+2Fc^2^)/3'
_refine_ls_weighting_scheme      calc
_refine_ls_wR_factor_gt          0.0396
_refine_ls_wR_factor_ref         0.0397
_reflns_Friedel_coverage         0.000
_reflns_number_gt                2752
_reflns_number_total             2767
_reflns_threshold_expression     'I > 2\s(I)'
_cod_data_source_file            d2ce00208f2.cif
_cod_data_source_block           2
_cod_database_code               1566631
_shelx_shelxl_version_number     2017/1
_shelx_space_group_comment
;
The symmetry employed for this shelxl refinement is uniquely defined
by the following loop, which should always be used as a source of
symmetry information in preference to the above space-group names.
They are only intended as comments.
;
_shelx_estimated_absorpt_t_min   0.241
_shelx_estimated_absorpt_t_max   0.726
_shelx_res_file
;
TITL P-1
    a.res
    created by SHELXL-2017/1 at 23:23:50 on 11-Dec-2017
CELL 1.54178 9.0611 9.2065 10.5703 82.436 77.672 64.113
ZERR 1       0.0003 0.0003  0.0004  0.003  0.003  0.003
LATT 1
SFAC C  H  N  O  P  S  Cd
UNIT 22 34 4 6 2 4 1
OMIT  -3.00 150.00
L.S. 18
ACTA
BOND $H
FMAP 2
PLAN -1
SIZE 0.036 0.057 0.209
CONF
DFIX 0.88 0.01 N2 H1n
TEMP -173
WGHT    0.018400    0.429000
FVAR       0.24149
CD    7    0.500000    0.000000    0.500000    10.50000    0.01072    0.00774 =
         0.01599   -0.00140   -0.00444   -0.00164
S1    6    0.768860    0.036405    0.525525    11.00000    0.01067    0.01169 =
         0.01251   -0.00087   -0.00073   -0.00428
S2    6    0.519258   -0.073292    0.762023    11.00000    0.01291    0.01474 =
         0.01447    0.00188   -0.00215   -0.00720
P1    5    0.670585    0.035361    0.713039    11.00000    0.00992    0.00942 =
         0.01173    0.00035   -0.00246   -0.00285
O1    4    0.582239    0.220178    0.749300    11.00000    0.01571    0.01128 =
         0.01345   -0.00243    0.00014   -0.00353
O2    4    0.814417   -0.047574    0.799062    11.00000    0.01412    0.01510 =
         0.01729    0.00378   -0.00706   -0.00744
O3    4    0.051320    0.321394    0.923875    11.00000    0.02335    0.01164 =
         0.01697   -0.00099   -0.00291   -0.00331
N1    3    0.335140    0.273475    0.538214    11.00000    0.01204    0.00999 =
         0.01357   -0.00095   -0.00427   -0.00322
N2    3   -0.071547    0.582980    0.851069    11.00000    0.01559    0.01100 =
         0.01438   -0.00214   -0.00283   -0.00097
H1N   2   -0.107076    0.683495    0.868537    11.00000   -1.50000
C1    1    0.481223    0.270026    0.876653    11.00000    0.02083    0.02175 =
         0.01401   -0.00617    0.00376   -0.00591
AFIX  23
H1A   2    0.551057    0.224322    0.944883    11.00000   -1.20000
H1B   2    0.391783    0.231953    0.895389    11.00000   -1.20000
AFIX   0
C2    1    0.407758    0.451274    0.872686    11.00000    0.02337    0.02207 =
         0.02976   -0.01253    0.00228   -0.00684
AFIX 137
H2A   2    0.340599    0.490153    0.957320    11.00000   -1.50000
H2B   2    0.337095    0.494792    0.806079    11.00000   -1.50000
H2C   2    0.497613    0.487217    0.852068    11.00000   -1.50000
AFIX   0
C3    1    0.927100    0.029960    0.794941    11.00000    0.01872    0.02010 =
         0.02260    0.00232   -0.00789   -0.01254
AFIX  23
H3A   2    0.874623    0.120098    0.854785    11.00000   -1.20000
H3B   2    0.950479    0.074152    0.706207    11.00000   -1.20000
AFIX   0
C4    1    1.086385   -0.094529    0.834545    11.00000    0.01759    0.02789 =
         0.02616    0.00329   -0.00818   -0.01081
AFIX 137
H4A   2    1.157855   -0.042236    0.841833    11.00000   -1.50000
H4B   2    1.144172   -0.176640    0.769181    11.00000   -1.50000
H4C   2    1.060983   -0.145877    0.918443    11.00000   -1.50000
AFIX   0
C5    1    0.188082    0.325880    0.619440    11.00000    0.01390    0.01222 =
         0.01185    0.00041   -0.00486   -0.00480
AFIX  43
H5    2    0.154115    0.248225    0.668676    11.00000   -1.20000
AFIX   0
C6    1    0.083632    0.488677    0.634497    11.00000    0.01350    0.01303 =
         0.01127   -0.00165   -0.00543   -0.00324
C7    1    0.135449    0.601415    0.562932    11.00000    0.01790    0.00936 =
         0.01741   -0.00091   -0.00782   -0.00272
AFIX  43
H7    2    0.067128    0.713821    0.570877    11.00000   -1.20000
AFIX   0
C8    1    0.287853    0.547883    0.479928    11.00000    0.01909    0.01291 =
         0.01692    0.00222   -0.00640   -0.00802
AFIX  43
H8    2    0.325929    0.622773    0.430604    11.00000   -1.20000
AFIX   0
C9    1    0.383246    0.383552    0.470346    11.00000    0.01380    0.01485 =
         0.01502   -0.00102   -0.00383   -0.00603
AFIX  43
H9    2    0.487445    0.347064    0.413157    11.00000   -1.20000
AFIX   0
C10   1   -0.082104    0.541368    0.725938    11.00000    0.01281    0.01440 =
         0.01549   -0.00219   -0.00459   -0.00116
AFIX  23
H10A  2   -0.166533    0.636282    0.686406    11.00000   -1.20000
H10B  2   -0.118859    0.452949    0.739048    11.00000   -1.20000
AFIX   0
C11   1   -0.002924    0.467239    0.937955    11.00000    0.01102    0.01555 =
         0.01364   -0.00137    0.00097   -0.00402
HKLF 4




REM  P-1
REM R1 =  0.0158 for    2752 Fo > 4sig(Fo)  and  0.0159 for all    2767 data
REM    183 parameters refined using      1 restraints

END

WGHT      0.0184      0.4290

REM Highest difference peak  0.310,  deepest hole -0.293,  1-sigma level  0.049
Q1    1   0.0000  0.5000  1.0000  10.50000  0.05    0.31
;
_shelx_res_checksum              68637
_shelx_hkl_file
;
   0   0   1  347.78    6.37
   0   0   1  348.53    6.33
   0   0  -1  363.88    6.33
   0   0  -1  340.13    6.36
   0   0   2   17.27    0.59
   0   0  -2   17.36    0.63
   0   0  -2   17.62    0.61
   0   0   2   17.80    0.64
   0   0  -2   16.13    0.57
   0   0   2   16.58    0.59
   0   0  -2   16.66    0.58
   0   0   3  687.62   12.25
   0   0   3  699.29   12.15
   0   0  -3  682.13   12.21
   0   0  -3  669.73   12.10
   0   0  -3  663.46   12.14
   0   0   3  655.16   12.08
   0   0  -4  411.60    8.13
   0   0   4  392.20    8.15
   0   0  -4  411.60    8.01
   0   0   4  410.78    7.99
   0   0   4  428.90    8.07
   0   0   4  412.40    8.08
   0   0   4  416.91    8.20
   0   0   4  426.53    8.10
   0   0  -4  417.42    8.16
   0   0  -4  415.54    7.98
   0   0  -4  412.47    8.04
   0   0   4  416.24    8.03
   0   0   5  243.53    5.18
   0   0  -5  246.67    5.15
   0   0   5  244.44    5.32
   0   0   5  239.25    5.01
   0   0   5  235.25    5.21
   0   0   5  239.02    5.10
   0   0   5  245.89    5.10
   0   0   5  240.01    5.31
   0   0   5  233.36    5.24
   0   0  -5  241.17    5.11
   0   0  -5  242.74    5.17
   0   0  -5  219.90    5.28
   0   0  -5  233.40    5.24
   0   0   6   14.96    0.92
   0   0   6   13.93    0.82
   0   0  -6   14.07    0.90
   0   0   6   13.35    0.91
   0   0  -6   13.38    0.98
   0   0   6   15.83    0.99
   0   0   6   12.92    0.79
   0   0   6   14.23    0.98
   0   0   7   64.61    2.13
   0   0  -7   66.44    2.57
   0   0  -7   64.29    2.26
   0   0   7   64.87    2.32
   0   0  -7   62.68    2.34
   0   0   7   62.93    2.40
   0   0   7   62.45    2.46
   0   0   7   61.59    2.11
   0   0  -8   91.03    3.02
   0   0   8   85.77    3.24
   0   0   8   92.70    2.78
   0   0   8   85.10    2.96
   0   0   8   89.08    2.89
   0   0  -8   88.00    3.08
   0   0   8   90.52    3.20
   0   0  -8   87.16    3.34
   0   0  -9   64.17    2.86
   0   0   9   61.53    2.37
   0   0   9   59.64    2.59
   0   0   9   57.60    2.67
   0   0  -9   60.29    2.23
   0   0  -9   60.60    2.71
   0   0  -9   58.45    2.47
   0   0   9   53.04    2.28
   0   0  -9   55.42    2.42
   0   0 -10    4.97    0.79
   0   0  10    6.05    0.86
   0   0 -10    4.69    0.68
   0   0 -10    4.58    0.79
   0   0  10    5.21    0.75
   0   0 -10    4.95    0.69
   0   0  10    5.60    0.67
   0   0 -10    6.19    0.66
   0   0 -11    4.67    0.68
   0   0  11    6.76    0.80
   0   0 -11    5.91    0.78
   0   0 -11    5.05    0.60
   0   0  11    5.08    0.71
   0   0  11    5.70    0.71
   0   0 -12    0.75    0.28
   0   0  12    0.44    0.27
   0   0  12    0.21    0.23
   0   0 -12    0.47    0.27
   0   0  12    0.91    0.29
   0  -1  12    7.28    0.67
   0  -1  12    7.07    0.63
   0  -1  11   38.61    1.58
   0   1 -11   37.92    1.56
   0   1 -11   39.85    1.94
   0   1 -11   41.46    1.66
   0  -1  11   38.30    1.66
   0  -1  11   40.64    1.94
   0   1 -11   42.32    1.95
   0   1 -10  103.79    3.73
   0  -1  10  105.60    3.40
   0   1 -10  103.85    3.33
   0   1 -10  104.09    3.32
   0  -1  10  103.36    3.35
   0   1 -10  104.82    3.73
   0   1 -10  102.75    3.61
   0  -1  10  102.58    3.67
   0  -1   9   26.95    1.66
   0   1  -9   36.18    2.06
   0   1  -9   30.89    1.83
   0  -1   9   32.05    1.90
   0   1  -9   31.20    1.69
   0   1  -9   31.91    1.75
   0   1  -9   30.55    1.93
   0  -1   9   29.35    1.67
   0  -1   8   53.90    2.24
   0   1  -8   55.86    2.55
   0  -1   8   51.95    2.39
   0  -1   8   50.74    2.27
   0   1  -8   52.09    2.32
   0   1  -8   56.66    2.53
   0   1  -8   50.90    2.22
   0  -1   7   46.28    1.91
   0   1  -7   46.52    2.11
   0   1  -7   45.40    1.94
   0   1  -7   47.57    1.97
   0  -1   7   48.33    2.03
   0   1  -7   45.59    2.11
   0  -1   7   48.01    2.10
   0  -1   6   85.30    2.31
   0  -1   6   88.68    2.78
   0  -1   6   90.26    2.22
   0   1  -6   90.47    2.68
   0  -1   6   86.44    2.61
   0   1  -6   88.60    2.65
   0   1  -6   83.05    2.78
   0   1  -5   92.51    2.62
   0   1  -5   93.12    2.58
   0  -1   5   90.81    2.34
   0  -1   5   92.77    2.13
   0  -1   5   91.92    2.56
   0  -1   5   92.69    2.48
   0  -1   5   94.24    2.68
   0  -1   5   95.70    2.54
   0  -1   5   92.57    2.61
   0   1  -5   97.68    2.56
   0   1  -5   93.38    2.65
   0   1  -4  336.35    6.79
   0   1  -4  336.41    6.83
   0  -1   4  345.11    6.95
   0   1  -4  343.53    6.68
   0  -1   4  341.55    6.55
   0  -1   4  338.44    6.75
   0   1  -4  348.01    6.86
   0  -1   4  333.55    6.72
   0  -1   4  333.30    6.82
   0  -1   4  326.61    6.60
   0  -1   3  426.59    7.97
   0  -1   3  405.30    7.49
   0  -1   3  415.07    8.02
   0   1  -3  424.33    8.08
   0   1  -3  422.99    8.06
   0   1  -3  419.61    7.81
   0  -1   3  421.58    8.11
   0  -1   3  435.19    7.80
   0  -1   2   31.68    0.93
   0  -1   2   29.98    0.77
   0   1  -2   30.69    0.94
   0  -1   2   31.66    0.97
   0   1  -2   29.58    0.79
   0  -1   2   30.41    0.74
   0  -1   1  285.91    5.34
   0   1  -1  291.94    5.33
   0   1  -1  277.85    5.36
   0   1  -1  291.10    5.25
   0  -1   1  285.41    5.35
   0  -1   1  289.38    5.13
   0  -1   0  267.09    4.86
   0  -1   0  268.07    4.78
   0  -1   0  264.07    4.86
   0   1   0  269.97    4.78
   0   1   0  261.46    4.87
   0  -1   0  272.31    4.95
   0  -1  -1   88.19    1.83
   0  -1  -1   87.38    1.77
   0  -1  -1   89.15    1.67
   0   1   1   89.05    1.79
   0  -1  -1   87.81    1.78
   0   1   1   91.28    1.79
   0   1   2   37.36    1.05
   0  -1  -2   34.32    0.84
   0  -1  -2   36.30    0.95
   0  -1  -2   35.92    1.03
   0  -1  -2   36.52    0.97
   0  -1  -2   36.32    0.96
   0   1   2   35.28    0.98
   0   1   2   37.94    0.98
   0  -1  -3   73.86    1.50
   0  -1  -3   73.73    1.85
   0   1   3   75.09    1.87
   0   1   3   75.82    1.83
   0   1   3   76.38    1.92
   0  -1  -3   75.49    1.89
   0  -1  -3   73.65    1.81
   0   1   3   75.49    1.91
   0  -1  -4  859.24   15.43
   0   1   4  823.31   15.38
   0   1   4  848.24   15.42
   0   1   4  830.68   15.29
   0   1   4  840.76   15.23
   0  -1  -4  822.91   15.31
   0  -1  -4  819.62   15.32
   0  -1  -4  788.85   15.17
   0   1   4  820.65   15.37
   0   1   4  823.32   15.36
   0  -1  -4  812.56   15.32
   0   1   4  835.08   15.36
   0   1   5   19.00    0.96
   0  -1  -5   18.56    0.93
   0   1   5   19.15    0.89
   0  -1  -5   18.29    0.94
   0   1   5   19.56    0.97
   0   1   5   21.72    1.09
   0   1   5   19.70    0.97
   0  -1  -5   18.90    1.03
   0   1   5   19.65    0.98
   0   1   5   19.16    0.89
   0  -1  -5   18.77    0.96
   0   1   5   20.00    1.05
   0  -1  -5   19.80    0.96
   0  -1  -5   18.48    0.87
   0   1   6   22.69    1.13
   0   1   6   21.31    0.97
   0  -1  -6   21.41    1.08
   0   1   6   23.49    1.31
   0   1   6   25.09    1.22
   0  -1  -6   23.06    1.32
   0   1   6   22.44    1.14
   0   1   6   24.03    1.31
   0   1   6   22.32    1.12
   0  -1  -6   23.46    1.22
   0  -1  -7   83.35    3.04
   0   1   7   87.37    2.79
   0  -1  -7   81.92    2.44
   0  -1  -7   81.36    2.79
   0   1   7   79.85    2.90
   0   1   7   78.99    2.64
   0   1   7   80.43    2.93
   0   1   7   86.21    2.64
   0   1   8   23.42    1.58
   0  -1  -8   24.98    1.51
   0   1   8   25.59    1.34
   0   1   8   21.57    1.36
   0  -1  -8   25.69    1.37
   0   1   8   25.60    1.48
   0  -1  -8   23.27    1.61
   0   1   8   21.87    1.52
   0  -1  -9   16.15    1.12
   0   1   9   15.67    1.22
   0   1   9   15.21    1.08
   0   1   9   15.06    1.31
   0  -1  -9   15.24    1.23
   0   1   9   14.80    1.29
   0  -1  -9   18.18    1.48
   0   1  10   20.94    1.20
   0  -1 -10   20.02    1.45
   0   1  10   21.29    1.53
   0   1  10   21.87    1.33
   0   1  10   19.35    1.44
   0   1  10   20.69    1.53
   0  -1 -10   20.37    1.58
   0  -1 -10   19.53    1.35
   0   1  11    5.18    0.68
   0   1  11    5.14    0.69
   0  -1 -11    5.18    0.62
   0  -1 -11    3.53    0.58
   0   1  11    6.28    0.78
   0  -1 -11    6.08    0.79
   0   1  11    5.20    0.55
   0  -1 -12    6.11    0.64
   0  -1 -12    6.28    0.56
   0   1  12    6.19    0.61
   0   1  12    6.94    0.69
   0   1  12    5.74    0.54
   0   2 -11   34.72    1.61
   0   2 -11   34.15    1.60
   0  -2  11   33.54    1.66
   0  -2  11   33.88    1.52
   0   2 -10   63.30    2.75
   0   2 -10   60.10    2.51
   0   2 -10   62.44    2.58
   0  -2  10   59.13    2.14
   0   2 -10   61.26    2.71
   0  -2  10   62.46    2.53
   0   2 -10   59.53    2.27
   0  -2  10   63.84    2.67
   0   2  -9   69.13    2.64
   0  -2   9   63.24    2.36
   0   2  -9   64.11    2.89
   0  -2   9   63.10    2.76
   0  -2   9   66.06    2.78
   0   2  -9   68.11    2.91
   0   2  -9   70.73    2.88
   0   2  -9   61.73    2.68
   0  -2   8   10.51    1.02
   0   2  -8    9.15    0.92
   0   2  -8    9.24    0.98
   0  -2   8    9.49    0.97
   0  -2   8   11.01    0.89
   0   2  -8    9.47    1.07
   0   2  -8   11.04    1.08
   0   2  -7  124.32    4.02
   0   2  -7  125.91    3.73
   0   2  -7  122.72    3.80
   0   2  -7  125.40    3.88
   0  -2   7  125.74    3.84
   0  -2   7  121.67    3.44
   0   2  -7  128.01    3.12
   0  -2   6  326.67    7.41
   0   2  -6  349.69    7.44
   0   2  -6  345.14    7.45
   0   2  -6  328.98    6.76
   0   2  -6  329.95    6.74
   0   2  -6  340.57    7.69
   0   2  -6  350.18    7.51
   0   2  -6  335.52    7.49
   0  -2   6  328.22    7.05
   0  -2   5  105.39    2.90
   0   2  -5  102.94    2.88
   0   2  -5  102.23    2.60
   0  -2   5  103.37    2.66
   0  -2   5  107.74    3.00
   0  -2   5  106.96    2.42
   0  -2   5  106.08    2.71
   0   2  -5  102.24    2.85
   0   2  -5  101.40    3.02
   0  -2   5   99.45    2.81
   0  -2   4  307.84    6.51
   0   2  -4  311.17    6.14
   0  -2   4  303.37    6.37
   0  -2   4  308.87    6.32
   0  -2   4  312.31    6.34
   0   2  -4  315.85    6.60
   0  -2   4  320.67    5.93
   0   2  -4  311.20    6.38
   0   2  -4  299.62    6.34
   0  -2   4  306.14    5.80
   0  -2   4  309.95    6.08
   0   2  -4  316.09    6.52
   0   2  -3  214.07    4.54
   0  -2   3  214.42    4.07
   0   2  -3  217.34    4.68
   0  -2   3  211.19    4.20
   0  -2   3  211.08    4.58
   0  -2   3  219.49    4.52
   0   2  -3  217.45    4.30
   0  -2   2   97.12    2.13
   0   2  -2   92.81    2.28
   0  -2   2   94.27    1.79
   0  -2   2   97.32    2.25
   0   2  -2   97.09    2.07
   0  -2   2   94.47    2.19
   0  -2   1  125.26    2.51
   0   2  -1  124.80    2.55
   0  -2   1  128.12    2.60
   0  -2   1  124.48    2.62
   0  -2   1  128.70    2.69
   0   2  -1  125.83    2.69
   0  -2   0  980.03   17.36
   0  -2   0  926.88   17.19
   0  -2   0  980.08   17.19
   0   2   0  995.06   17.22
   0  -2   0 1000.00   17.56
   0  -2   0  985.53   17.58
   0  -2   0  978.50   17.39
   0  -2  -1  338.98    6.35
   0  -2  -1  336.91    6.48
   0   2   1  339.76    6.38
   0  -2  -1  342.92    6.13
   0  -2  -1  338.34    6.47
   0  -2  -1  337.92    6.47
   0  -2  -1  351.06    6.57
   0   2   1  344.86    6.52
   0  -2  -2   19.45    0.71
   0   2   2   19.07    0.61
   0  -2  -2   19.47    0.74
   0  -2  -2   18.91    0.68
   0   2   2   18.82    0.75
   0  -2  -2   18.42    0.77
   0  -2  -2   20.49    0.62
   0   2   2   19.05    0.76
   0   2   3  213.23    4.67
   0  -2  -3  224.37    4.47
   0   2   3  223.34    4.63
   0  -2  -3  222.50    4.50
   0  -2  -3  222.80    4.70
   0  -2  -3  222.33    4.37
   0  -2  -3  227.53    4.47
   0   2   3  226.08    4.48
   0   2   3  230.97    4.76
   0  -2  -3  224.64    4.66
   0   2   3  222.38    4.67
   0  -2  -4  277.47    5.07
   0   2   4  262.71    5.63
   0  -2  -4  269.29    5.58
   0   2   4  257.28    5.61
   0  -2  -4  262.71    5.59
   0   2   4  271.01    5.74
   0   2   4  273.65    5.69
   0   2   4  269.83    5.54
   0  -2  -4  260.43    5.35
   0   2   4  250.60    5.59
   0  -2  -4  267.44    5.62
   0  -2  -4  262.67    5.40
   0   2   4  262.47    5.42
   0   2   5   85.79    2.77
   0  -2  -5   95.08    2.73
   0   2   5   93.93    2.73
   0  -2  -5   91.00    2.56
   0  -2  -5   89.35    2.41
   0   2   5   93.54    2.81
   0   2   5   90.31    2.48
   0   2   5   95.78    2.66
   0  -2  -5   89.61    2.32
   0   2   5   93.03    2.49
   0   2   6    6.46    0.73
   0   2   6    5.88    0.62
   0   2   6    6.42    0.64
   0   2   6    6.40    0.72
   0   2   6    7.14    0.72
   0  -2  -6    6.04    0.68
   0   2   6    5.59    0.52
   0  -2  -6    6.38    0.67
   0   2   7    6.05    0.80
   0   2   7    7.18    0.83
   0   2   7    8.01    0.88
   0  -2  -7    6.53    0.81
   0   2   7    6.58    0.73
   0  -2  -7    6.51    0.74
   0   2   8   74.49    2.85
   0   2   8   72.06    2.82
   0  -2  -8   73.21    3.03
   0   2   8   73.10    2.72
   0   2   8   73.95    2.98
   0   2   8   75.66    2.93
   0   2   8   73.64    3.09
   0  -2  -8   73.14    2.85
   0  -2  -9   69.20    3.01
   0   2   9   66.02    2.80
   0   2   9   63.73    2.93
   0   2   9   63.26    2.63
   0   2   9   67.29    2.62
   0  -2  -9   66.10    2.76
   0   2   9   68.22    2.86
   0   2   9   63.80    2.81
   0   2  10   15.51    1.32
   0   2  10   15.31    1.21
   0  -2 -10   15.67    1.36
   0  -2 -10   14.31    1.16
   0   2  10   14.51    1.31
   0   2  10   13.89    1.10
   0   2  10   14.43    1.10
   0  -2 -10   14.11    1.17
   0  -2 -11    1.95    0.43
   0   2  11    1.75    0.47
   0   2  11    0.78    0.33
   0   2  11    1.94    0.39
   0   2  11    1.78    0.45
   0  -2 -11    1.47    0.42
   0  -2 -11    1.43    0.39
   0   2  11    1.34    0.31
   0   2  12    4.27    0.50
   0   2  12    3.96    0.49
   0  -2 -12    5.47    0.56
   0   3 -11   55.08    2.12
   0  -3  11   55.91    2.01
   0  -3  11   57.90    2.01
   0   3 -10  122.95    4.05
   0  -3  10  124.70    3.83
   0   3 -10  128.86    4.03
   0   3 -10  122.70    3.62
   0  -3  10  128.37    3.84
   0   3  -9    8.85    0.91
   0   3  -9    7.76    0.98
   0   3  -9    7.18    0.95
   0   3  -9    7.32    0.79
   0  -3   9    6.74    0.82
   0   3  -9    7.55    0.92
   0  -3   9    6.81    0.86
   0   3  -8    6.14    0.88
   0  -3   8    5.13    0.57
   0   3  -8    6.19    0.63
   0   3  -8    4.29    0.68
   0  -3   8    4.59    0.71
   0   3  -8    4.71    0.69
   0   3  -8    5.73    0.86
   0  -3   8    4.19    0.73
   0   3  -7  104.14    3.10
   0   3  -7  103.13    3.68
   0  -3   7  102.35    3.38
   0   3  -7  109.32    3.61
   0   3  -7  109.32    3.47
   0   3  -7  103.16    3.38
   0  -3   7  102.72    2.89
   0   3  -6   91.95    3.01
   0  -3   6   94.53    2.98
   0   3  -6   89.70    3.17
   0   3  -6   92.79    3.04
   0   3  -6   94.83    3.07
   0   3  -6   94.78    2.95
   0  -3   6   93.21    2.56
   0   3  -6   92.83    2.79
   0   3  -5   53.91    1.90
   0  -3   5   54.55    1.63
   0   3  -5   55.09    1.98
   0   3  -5   55.57    1.86
   0   3  -5   54.90    2.14
   0   3  -5   54.53    2.03
   0   3  -5   51.53    1.91
   0  -3   5   55.43    1.95
   0   3  -4   30.18    1.05
   0  -3   4   29.66    1.29
   0  -3   4   28.96    0.96
   0  -3   4   30.95    1.00
   0   3  -4   30.01    1.33
   0  -3   4   30.59    1.24
   0  -3   4   30.75    1.19
   0   3  -4   31.16    1.23
   0   3  -4   30.54    1.39
   0  -3   3  268.50    5.56
   0   3  -3  277.21    5.72
   0   3  -3  244.53    5.19
   0  -3   3  272.85    5.50
   0  -3   3  274.87    5.35
   0   3  -3  273.42    5.72
   0   3  -3  279.46    5.28
   0   3  -3  261.40    5.25
   0   3  -3  260.89    5.74
   0   3  -3  257.28    5.18
   0   3  -3  264.41    5.29
   0  -3   2  256.60    5.16
   0   3  -2  256.53    5.32
   0   3  -2  253.15    5.32
   0   3  -2  254.05    5.06
   0  -3   2  262.67    5.20
   0  -3   2  254.54    5.15
   0   3  -2  256.89    5.13
   0   3  -2  253.24    5.13
   0  -3   2  250.12    5.41
   0   3  -2  256.04    5.01
   0  -3   1   21.80    0.72
   0   3  -1   23.65    0.87
   0  -3   1   22.57    0.95
   0  -3   1   22.64    0.89
   0  -3   1   23.14    0.74
   0   3  -1   20.95    0.74
   0   3  -1   22.50    0.86
   0  -3   1   22.37    0.80
   0  -3   0  414.60    7.93
   0  -3   0  428.75    8.29
   0  -3   0  426.56    7.64
   0  -3   0  418.42    8.18
   0  -3   0  427.95    7.67
   0  -3   0  436.08    8.26
   0  -3   0  423.57    7.99
   0   3   1  680.66   12.65
   0  -3  -1  676.85   12.79
   0   3   1  688.22   12.66
   0   3   1  700.40   12.55
   0  -3  -1  690.33   12.89
   0  -3  -1  689.37   12.51
   0  -3  -1  701.29   12.81
   0  -3  -1  674.91   12.71
   0  -3  -1  684.25   12.48
   0   3   2   34.01    1.21
   0  -3  -2   35.26    1.17
   0   3   2   34.79    1.12
   0   3   2   34.07    1.26
   0   3   2   36.72    1.16
   0   3   2   35.78    1.19
   0  -3  -2   34.46    0.80
   0  -3  -2   33.11    1.08
   0  -3  -2   34.41    1.25
   0   3   2   35.10    1.08
   0   3   2   34.35    1.07
   0  -3  -2   32.93    1.13
   0  -3  -2   34.02    1.22
   0   3   2   32.29    1.10
   0   3   3   84.05    2.32
   0   3   3   76.98    1.96
   0   3   3   79.38    2.27
   0   3   3   80.29    2.19
   0   3   3   84.17    1.95
   0  -3  -3   81.73    2.15
   0  -3  -3   78.47    2.03
   0  -3  -3   79.51    2.25
   0   3   3   80.86    1.98
   0   3   3   83.84    2.25
   0   3   3   79.64    2.21
   0  -3  -3   82.53    1.97
   0  -3  -3   78.83    2.06
   0  -3  -3   76.58    2.22
   0  -3  -3   79.77    1.83
   0  -3  -4  343.70    6.70
   0  -3  -4  342.02    7.16
   0  -3  -4  341.89    7.03
   0  -3  -4  343.59    6.70
   0   3   4  337.51    7.14
   0   3   4  370.41    7.49
   0  -3  -4  344.18    6.76
   0   3   4  345.12    6.86
   0   3   4  343.99    6.73
   0  -3  -4  339.16    7.20
   0  -3  -4  344.52    6.85
   0   3   4  355.44    7.43
   0   3   4  345.13    6.58
   0  -3  -4  336.59    7.12
   0   3   4  354.91    7.21
   0   3   5  162.09    3.98
   0  -3  -5  159.20    4.09
   0  -3  -5  160.16    3.49
   0   3   5  170.58    4.10
   0   3   5  161.55    4.10
   0   3   5  155.92    3.83
   0   3   5  172.46    4.45
   0   3   5  161.56    4.45
   0   3   5  160.28    3.63
   0   3   6   19.35    1.23
   0   3   6   18.36    1.14
   0   3   6   16.86    1.32
   0  -3  -6   19.12    1.23
   0   3   6   18.72    1.21
   0   3   6   18.76    1.32
   0   3   6   17.45    1.28
   0   3   6   19.11    1.13
   0   3   7    6.04    0.75
   0   3   7    6.36    0.78
   0  -3  -7    5.35    0.75
   0   3   7    5.13    0.81
   0   3   7    6.42    0.87
   0   3   7    5.83    0.79
   0  -3  -7    6.32    0.79
   0   3   7    5.80    0.75
   0   3   7    5.65    0.73
   0   3   8   26.47    1.74
   0  -3  -8   23.05    1.60
   0   3   8   21.64    1.68
   0   3   8   26.08    1.68
   0   3   8   22.70    1.52
   0   3   8   26.60    1.59
   0   3   8   22.55    1.56
   0  -3  -8   22.59    1.54
   0   3   9   67.36    2.62
   0   3   9   70.74    3.16
   0   3   9   66.17    2.79
   0   3   9   66.34    2.87
   0  -3  -9   75.10    3.05
   0  -3  -9   68.50    2.84
   0   3   9   65.43    2.79
   0   3   9   73.55    3.03
   0  -3 -10    9.95    0.98
   0   3  10   10.53    1.08
   0   3  10   12.99    1.10
   0   3  10   11.76    0.91
   0   3  10    8.92    1.06
   0   3  10   11.36    0.98
   0  -3 -10    9.25    0.99
   0   3  11    6.87    0.77
   0   3  11    7.85    0.72
   0   3  11    6.94    0.77
   0  -3 -11    6.58    0.72
   0  -3 -11    6.44    0.61
   0  -3 -11    6.68    0.66
   0   4 -11   38.41    1.56
   0   4 -10  124.74    3.85
   0  -4  10  124.01    3.41
   0   4 -10  118.86    3.81
   0  -4  10  120.62    3.58
   0  -4   9   23.48    1.40
   0  -4   9   23.22    1.53
   0   4  -9   23.24    1.60
   0   4  -9   25.41    1.24
   0   4  -9   25.31    1.67
   0   4  -8   13.61    1.28
   0  -4   8   13.58    1.09
   0  -4   8   13.97    1.20
   0   4  -8   11.17    0.94
   0   4  -8   13.62    1.25
   0   4  -8   13.93    1.10
   0  -4   7  108.12    3.41
   0   4  -7  107.46    3.41
   0   4  -7  110.27    3.64
   0   4  -7  103.71    3.67
   0   4  -6  214.94    5.46
   0  -4   6  215.67    5.36
   0   4  -6  213.04    5.25
   0   4  -6  228.98    5.81
   0   4  -6  214.52    5.58
   0   4  -5  122.60    3.52
   0   4  -5  130.13    3.81
   0  -4   5  123.37    3.36
   0   4  -5  119.82    3.49
   0   4  -5  121.16    3.55
   0   4  -4   73.87    2.22
   0   4  -4   77.35    2.09
   0   4  -4   73.12    2.21
   0   4  -4   77.14    2.50
   0  -4   4   74.13    2.21
   0   4  -4   80.76    2.66
   0  -4   4   69.40    2.11
   0  -4   3  194.40    4.35
   0  -4   3  200.26    4.36
   0   4  -3  201.20    4.85
   0   4  -3  201.51    4.46
   0  -4   3  200.20    4.29
   0   4  -3  200.52    4.44
   0  -4   3  190.44    4.68
   0  -4   2  129.69    3.35
   0  -4   2  125.21    3.10
   0   4  -2  129.78    2.77
   0  -4   2  125.06    2.98
   0   4  -2  129.98    3.20
   0   4  -2  129.62    3.12
   0  -4   2  127.41    2.89
   0   4  -2  129.69    3.19
   0   4  -1  109.88    2.75
   0  -4   1   97.96    2.25
   0  -4   1  108.12    2.43
   0  -4   1  100.93    2.15
   0  -4   1   98.71    2.62
   0  -4   1   99.01    2.71
   0   4  -1  102.37    2.70
   0  -4   1  100.62    2.73
   0   4  -1   92.38    2.54
   0  -4   0  339.42    6.90
   0  -4   0  340.55    6.87
   0   4   0  318.27    6.75
   0   4   0  327.15    6.89
   0   4   0  316.47    6.86
   0  -4   0  356.22    6.99
   0  -4   0  339.63    6.47
   0  -4   0  333.91    6.52
   0   4   1  119.99    3.16
   0  -4  -1  126.76    3.14
   0  -4  -1  129.13    2.99
   0   4   1  118.71    3.14
   0  -4  -1  129.31    2.77
   0  -4  -1  130.06    3.13
   0  -4  -1  131.87    3.23
   0   4   1  122.11    3.04
   0  -4  -1  126.26    2.66
   0   4   2    3.84    0.44
   0  -4  -2    3.26    0.38
   0  -4  -2    2.27    0.33
   0  -4  -2    2.74    0.37
   0  -4  -2    2.84    0.28
   0  -4  -2    3.11    0.42
   0  -4  -2    3.11    0.30
   0   4   2    2.72    0.32
   0   4   2    3.16    0.37
   0   4   2    3.11    0.41
   0   4   3    1.92    0.32
   0   4   3    2.39    0.35
   0  -4  -3    2.00    0.31
   0  -4  -3    2.20    0.34
   0   4   3    2.46    0.38
   0   4   3    2.08    0.32
   0  -4  -3    2.06    0.36
   0   4   3    1.96    0.31
   0  -4  -3    2.25    0.31
   0  -4  -3    2.54    0.27
   0  -4  -3    2.04    0.30
   0   4   3    1.91    0.35
   0   4   4  209.26    5.02
   0   4   4  203.65    4.70
   0   4   4  206.72    4.62
   0  -4  -4  199.80    4.45
   0   4   4  210.54    5.14
   0   4   4  212.24    4.64
   0   4   4  212.94    4.91
   0   4   4  213.50    4.87
   0   4   4  224.08    5.32
   0  -4  -4  216.00    4.85
   0   4   5  124.24    3.20
   0   4   5  127.54    3.43
   0   4   5  123.50    3.98
   0   4   5  134.82    3.77
   0   4   5  127.39    3.61
   0   4   5  129.07    3.50
   0  -4  -5  122.20    3.48
   0   4   5  125.43    3.96
   0   4   6    2.11    0.52
   0   4   6    2.19    0.53
   0   4   6    1.82    0.42
   0   4   6    0.77    0.48
   0   4   6    1.40    0.32
   0   4   6    1.24    0.52
   0  -4  -6    1.83    0.46
   0   4   6    1.47    0.41
   0   4   7    2.11    0.67
   0   4   7    4.08    0.83
   0   4   7    3.23    0.63
   0  -4  -7    3.47    0.65
   0   4   7    2.50    0.54
   0  -4  -7    2.76    0.55
   0   4   7    2.55    0.57
   0   4   8   74.04    3.25
   0   4   8   68.06    2.95
   0   4   8   73.78    3.36
   0   4   8   68.24    2.91
   0  -4  -8   68.35    2.91
   0   4   8   70.97    3.01
   0  -4  -8   74.65    2.92
   0   4   9   66.05    2.81
   0  -4  -9   63.14    2.65
   0   4   9   56.27    2.79
   0   4   9   59.96    2.70
   0   4   9   62.74    2.75
   0  -4  -9   59.55    2.56
   0   4  10    0.16    0.36
   0  -4 -10    0.41    0.32
   0   4  10    0.16    0.33
   0   4  10    0.52    0.35
   0   4  10    0.10    0.25
   0  -4 -10    0.31    0.31
   0  -4 -11    7.43    0.62
   0   4  11    6.33    0.68
   0  -4 -11    6.94    0.62
   0   4  11    7.76    0.70
   0  -5  10   92.03    2.67
   0  -5  10   91.72    2.59
   0   5 -10   87.42    2.81
   0   5  -9   46.62    1.77
   0   5  -9   45.71    2.18
   0   5  -9   47.13    2.13
   0  -5   9   47.17    1.74
   0  -5   9   45.12    2.00
   0   5  -8   13.31    1.19
   0  -5   8   15.97    1.04
   0  -5   8   13.84    1.14
   0   5  -8   14.25    1.09
   0   5  -8   14.42    1.28
   0  -5   7   47.87    1.94
   0  -5   7   46.41    2.21
   0   5  -7   49.79    2.46
   0   5  -7   47.48    2.23
   0   5  -7   44.17    2.21
   0   5  -6  268.84    6.78
   0  -5   6  269.42    6.30
   0  -5   5  135.22    3.48
   0   5  -5  124.48    3.73
   0   5  -5  124.59    4.05
   0   5  -4   70.60    2.22
   0   5  -4   65.69    2.20
   0  -5   4   75.15    2.20
   0   5  -4   72.41    2.08
   0   5  -4   69.53    2.22
   0   5  -4   75.46    2.81
   0   5  -4   73.11    2.13
   0   5  -3  153.17    3.98
   0  -5   3  162.65    3.54
   0   5  -3  158.18    4.34
   0   5  -3  156.16    3.78
   0   5  -3  149.19    3.78
   0   5  -2  129.48    3.50
   0   5  -2  126.76    3.52
   0   5  -2  131.38    3.37
   0   5  -2  126.57    3.51
   0  -5   2  119.73    2.89
   0   5  -2  129.60    3.60
   0   5  -2  127.65    3.24
   0   5  -1  170.28    4.06
   0   5  -1  168.26    4.26
   0   5  -1  163.92    4.13
   0   5  -1  165.25    4.01
   0   5  -1  163.48    4.12
   0  -5   1  162.29    3.48
   0  -5   1  155.01    3.95
   0   5  -1  171.37    3.93
   0   5  -1  161.05    3.85
   0   5  -1  162.93    4.05
   0   5   0   45.25    1.65
   0   5   0   46.75    1.81
   0  -5   0   50.72    1.76
   0   5   0   49.08    1.71
   0   5   0   47.50    1.80
   0  -5   0   49.83    1.80
   0  -5   0   46.94    1.35
   0   5   0   54.76    2.04
   0   5   0   48.66    1.80
   0   5   0   50.63    1.96
   0   5   0   47.12    1.83
   0   5   0   49.05    1.62
   0   5   1  104.77    3.15
   0   5   1  103.52    2.80
   0   5   1  103.08    3.06
   0   5   1  103.88    2.81
   0   5   1  104.87    3.03
   0   5   1  103.09    2.78
   0   5   1  104.97    2.95
   0   5   1  104.85    2.95
   0  -5  -1   99.69    2.75
   0   5   1  107.47    3.17
   0  -5  -2   21.75    1.00
   0   5   2   22.54    1.08
   0   5   2   21.30    1.25
   0   5   2   22.02    1.15
   0   5   2   21.76    1.10
   0   5   2   22.52    1.15
   0   5   2   23.53    1.28
   0   5   2   21.74    1.23
   0   5   2   21.94    1.21
   0   5   3   29.49    1.34
   0   5   3   30.45    1.28
   0   5   3   30.18    1.15
   0   5   3   31.16    1.38
   0   5   3   32.50    1.49
   0   5   3   30.43    1.60
   0   5   3   29.91    1.37
   0   5   3   30.53    1.54
   0   5   4  129.53    3.37
   0   5   4  133.43    3.89
   0   5   4  123.56    3.33
   0   5   4  133.43    3.40
   0  -5  -4  137.36    3.34
   0   5   4  132.40    3.53
   0   5   4  128.89    3.26
   0   5   4  131.77    4.10
   0   5   4  136.89    3.74
   0   5   4  135.51    3.60
   0   5   5   34.63    1.39
   0   5   5   32.54    1.54
   0   5   5   34.81    1.83
   0   5   5   31.08    1.55
   0   5   5   36.92    2.11
   0   5   5   34.84    1.57
   0  -5  -5   33.74    1.52
   0   5   5   31.94    1.70
   0   5   6    1.34    0.39
   0  -5  -6    1.34    0.38
   0   5   6    1.24    0.45
   0   5   6    1.64    0.50
   0   5   6    2.12    0.69
   0   5   6    0.99    0.35
   0   5   6    1.30    0.46
   0   5   6    1.60    0.44
   0  -5  -7   10.76    0.96
   0  -5  -7   12.38    1.16
   0   5   7   10.55    0.84
   0   5   7   12.97    1.32
   0   5   7   10.79    1.06
   0   5   7   11.11    1.14
   0   5   7    8.58    1.19
   0   5   7   11.55    1.13
   0   5   8    5.50    0.85
   0  -5  -8    6.18    0.83
   0   5   8    5.35    0.84
   0   5   8    6.48    1.00
   0  -5  -8    6.35    0.74
   0  -5  -9    8.03    0.88
   0   5   9    7.82    0.93
   0  -5  -9    7.72    0.77
   0   5   9    6.65    0.85
   0   5   9    6.43    0.82
   0  -5 -10    2.06    0.42
   0   5  10    1.78    0.47
   0   5  10    2.15    0.41
   0   5  10    1.56    0.44
   0   5  10    2.20    0.48
   0   6  -9   45.39    1.57
   0  -6   9   44.71    1.67
   0   6  -9   46.79    1.86
   0   6  -8    0.65    0.35
   0  -6   8    0.51    0.29
   0   6  -8    0.68    0.30
   0   6  -7   54.97    2.56
   0   6  -7   58.04    2.55
   0  -6   7   57.54    2.33
   0   6  -7   54.91    2.32
   0   6  -6  130.06    4.34
   0   6  -6  123.61    4.18
   0   6  -6  126.19    3.84
   0  -6   6  119.95    3.75
   0   6  -5   79.29    3.07
   0   6  -5   80.29    3.34
   0   6  -4    0.98    0.32
   0   6  -4    0.41    0.24
   0   6  -4    0.50    0.38
   0   6  -4    1.13    0.38
   0   6  -4    0.70    0.48
   0   6  -3   15.82    1.34
   0   6  -3   16.31    1.14
   0   6  -3   16.52    1.08
   0   6  -3   16.07    1.05
   0   6  -2  180.56    4.31
   0   6  -2  188.56    5.07
   0   6  -2  194.03    4.94
   0   6  -2  194.99    4.79
   0   6  -2  189.07    5.20
   0   6  -1   80.40    2.81
   0   6  -1   77.33    2.87
   0   6  -1   79.23    2.82
   0   6  -1   79.16    2.63
   0   6  -1   79.96    2.76
   0   6  -1   77.70    2.45
   0   6   0   12.10    0.93
   0   6   0   13.04    0.90
   0   6   0   13.24    1.12
   0   6   0   14.31    1.10
   0   6   0   12.94    1.03
   0   6   0   12.73    1.04
   0   6   0   12.93    0.94
   0   6   1   30.14    1.49
   0   6   1   28.30    1.57
   0   6   1   32.11    1.72
   0   6   1   33.00    1.77
   0   6   1   30.10    1.63
   0   6   1   31.68    1.30
   0   6   1   32.37    1.51
   0   6   2   43.12    1.85
   0   6   2   42.99    2.04
   0   6   2   42.40    1.92
   0   6   2   37.94    1.71
   0   6   2   38.40    1.90
   0   6   2   42.40    2.05
   0   6   3   44.73    1.88
   0   6   3   48.38    2.13
   0   6   3   47.62    2.01
   0   6   3   49.01    2.35
   0   6   3   46.37    1.89
   0   6   3   44.27    1.88
   0   6   3   47.78    2.18
   0   6   3   42.76    1.94
   0   6   4   33.01    1.42
   0   6   4   32.91    1.54
   0   6   4   34.88    1.73
   0   6   4   32.74    1.70
   0   6   4   32.85    1.60
   0   6   4   33.13    1.71
   0   6   4   34.44    1.88
   0   6   4   31.26    1.97
   0   6   4   31.07    1.60
   0   6   5   22.50    1.80
   0   6   5   25.11    1.28
   0   6   5   23.51    1.30
   0   6   5   28.20    1.56
   0   6   5   26.01    1.29
   0   6   5   25.41    1.31
   0   6   5   25.74    1.58
   0   6   5   22.85    1.53
   0   6   5   28.80    1.80
   0   6   6    4.03    0.68
   0   6   6    4.39    0.59
   0   6   6    3.51    0.58
   0   6   6    2.68    0.70
   0   6   6    4.11    0.71
   0   6   6    3.74    0.70
   0   6   7   36.59    2.09
   0   6   7   35.92    1.71
   0  -6  -7   35.59    2.01
   0   6   7   38.55    2.41
   0   6   7   35.64    2.04
   0   6   7   34.99    2.02
   0   6   8   29.06    1.76
   0   6   8   33.62    1.90
   0  -6  -8   31.56    1.76
   0   6   8   31.12    1.98
   0   6   8   25.94    1.71
   0   6   9   56.25    2.29
   0  -6  -9   56.27    2.18
   0   6   9   56.92    2.27
   0   6   9   54.78    2.34
   0   6   9   57.04    2.36
   0   6  10   11.06    0.82
   0   6  10   10.54    0.81
   0   6  10    9.74    0.74
   0   7  -8    7.12    0.63
   0   7  -8    6.40    0.55
   0  -7   8    6.38    0.58
   0   7  -7   17.75    1.10
   0  -7   7   18.12    0.99
   0  -7   6  138.62    3.68
   0   7  -6  134.08    3.97
   0   7  -5  118.51    3.74
   0  -7   5  126.95    3.39
   0   7  -5  127.26    4.53
   0   7  -4    1.87    0.39
   0   7  -4    1.82    0.68
   0   7  -4    1.56    0.40
   0   7  -4    2.11    0.51
   0   7  -3   94.24    3.87
   0   7  -3   99.85    3.33
   0   7  -3   99.52    3.28
   0   7  -3  100.86    3.33
   0   7  -2  161.44    4.69
   0   7  -2  161.90    5.02
   0   7  -2  154.37    4.05
   0   7  -2  161.29    4.78
   0   7  -2  158.91    4.56
   0   7  -1  133.31    3.74
   0   7  -1  122.77    3.95
   0   7  -1  128.38    4.29
   0   7  -1  125.39    4.02
   0   7   0    8.19    1.00
   0   7   0    9.32    0.88
   0   7   0    9.47    1.05
   0   7   0    8.00    0.94
   0   7   0   10.73    1.01
   0   7   0    9.24    0.85
   0   7   1    0.57    0.32
   0   7   1    1.33    0.38
   0   7   1    0.63    0.44
   0   7   1    1.56    0.49
   0   7   1    0.79    0.45
   0   7   1    1.16    0.40
   0   7   1    2.03    0.56
   0   7   2   84.16    3.07
   0   7   2   87.09    2.90
   0   7   2   82.25    3.10
   0   7   3   15.11    1.26
   0   7   3   16.06    1.24
   0   7   3   15.03    1.38
   0   7   3   17.22    1.08
   0   7   3   14.36    1.26
   0   7   3   14.71    1.16
   0   7   3   14.29    1.22
   0   7   4    5.97    0.74
   0   7   4    5.65    0.93
   0   7   4    5.56    0.71
   0   7   4    5.63    0.69
   0   7   4    5.65    0.84
   0   7   4    4.16    0.61
   0   7   4    6.15    0.74
   0   7   4    5.57    0.77
   0   7   5   18.50    1.15
   0   7   5   18.08    1.18
   0   7   5   20.12    1.41
   0   7   5   17.60    1.27
   0   7   5   19.60    1.50
   0   7   5   21.35    1.41
   0   7   5   21.70    1.77
   0   7   6   14.28    1.25
   0   7   6   16.03    1.52
   0   7   6   13.44    1.14
   0   7   6   15.60    1.22
   0   7   6   16.40    1.24
   0   7   7    3.56    0.64
   0   7   7    4.19    0.58
   0   7   7    4.42    0.66
   0   7   7    4.38    0.69
   0  -7  -7    2.95    0.55
   0   7   7    4.09    0.74
   0   7   8    1.49    0.42
   0  -7  -8    1.47    0.38
   0   7   8    2.14    0.46
   0   7   8    2.04    0.43
   0   7   8    1.87    0.41
   0   7   9    8.67    0.64
   0   7   9    7.68    0.62
   0   7   9    7.13    0.64
   0   7   9    8.55    0.67
   0   8  -6  128.11    3.66
   0  -8   6  115.32    2.88
   0  -8   5   52.43    1.74
   0   8  -5   52.07    2.43
   0   8  -4    6.76    0.98
   0   8  -4    4.38    0.50
   0   8  -3    0.52    0.34
   0   8  -3    0.15    0.44
   0   8  -3    0.47    0.32
   0   8  -2   99.34    3.73
   0   8  -2  103.78    3.59
   0   8  -2   99.14    3.51
   0   8  -2  103.40    3.56
   0   8  -1   83.25    2.84
   0   8  -1   83.82    3.23
   0   8  -1   90.36    3.47
   0   8  -1   91.20    3.19
   0   8  -1   88.40    3.46
   0   8   0    0.89    0.40
   0   8   0    0.40    0.43
   0   8   0    0.51    0.32
   0   8   0    0.42    0.37
   0   8   0    0.13    0.37
   0   8   1   12.89    1.28
   0   8   1   11.30    1.16
   0   8   1   13.27    1.19
   0   8   1   13.37    1.34
   0   8   1   10.59    1.05
   0   8   2   35.94    2.08
   0   8   2   32.72    2.04
   0   8   2   34.51    1.93
   0   8   2   33.94    1.92
   0   8   2   35.85    2.12
   0   8   2   33.35    1.89
   0   8   3   58.62    2.79
   0   8   3   55.01    2.53
   0   8   3   52.92    2.43
   0   8   3   59.64    2.58
   0   8   3   56.46    2.54
   0   8   3   55.02    2.45
   0   8   4    5.59    0.79
   0   8   4    5.48    0.86
   0   8   4    6.43    0.81
   0   8   4    5.77    0.70
   0   8   5    1.84    0.37
   0   8   5    2.15    0.50
   0   8   5    2.71    0.64
   0   8   5    1.37    0.46
   0  -8  -6    3.44    0.54
   0   8   6    3.05    0.52
   0   8   6    3.32    0.63
   0   8   6    2.72    0.51
   0  -8  -7    1.26    0.31
   0   8   7    2.01    0.39
   0   8   7    1.51    0.37
   0   9  -4   11.54    0.86
   0   9  -3    1.81    0.33
   0   9  -3    2.20    0.44
   0   9  -2   25.77    1.32
   0   9  -2   26.88    1.44
   0   9  -1   58.42    1.92
   0   9  -1   55.48    2.44
   0   9   0    2.54    0.63
   0   9   0    2.06    0.50
   0   9   1   13.88    1.31
   0   9   1   15.89    1.13
   0   9   1   14.34    1.20
   0   9   2   20.44    1.48
   0   9   2   19.66    1.28
   0   9   3   18.10    1.22
   0   9   3   17.51    1.27
   0   9   3   17.97    1.22
   0   9   4    0.65    0.29
   0   9   4    0.88    0.38
   0   9   4    1.12    0.28
   0   9   5    1.40    0.38
  -1   9   3   61.60    2.15
  -1   9   3   61.67    2.01
  -1   9   2   25.79    1.32
  -1   9   2   27.62    1.46
  -1   9   1   12.54    1.06
  -1   9   1   13.26    1.02
  -1   9   1   15.03    0.95
  -1   9   0   42.96    1.92
  -1   9   0   41.92    2.03
  -1   9  -1  117.36    3.52
  -1   9  -2   30.19    1.20
  -1   9  -2   28.19    1.32
  -1   9  -3    2.74    0.37
  -1   8   6   17.28    1.12
  -1   8   6   16.17    1.05
  -1   8   6   17.71    1.02
  -1   8   5   49.13    2.04
  -1   8   5   54.34    2.21
  -1   8   5   46.17    2.25
   1  -8  -5   49.48    1.85
  -1   8   4   29.79    1.65
  -1   8   4   31.47    1.75
  -1   8   4   28.44    1.82
  -1   8   4   30.98    1.43
  -1   8   3   20.87    1.42
  -1   8   3   21.47    1.37
  -1   8   3   22.28    1.40
  -1   8   3   22.50    1.63
  -1   8   3   23.75    1.54
  -1   8   2   57.50    2.55
  -1   8   2   55.52    2.53
  -1   8   2   58.86    2.46
  -1   8   2   57.51    2.67
  -1   8   2   55.99    2.40
  -1   8   1   17.00    1.39
  -1   8   1   15.02    1.20
  -1   8   0   79.13    2.99
  -1   8   0   79.17    2.81
  -1   8   0   80.75    2.56
  -1   8   0   81.32    3.26
  -1   8  -1  126.24    4.13
  -1   8  -1  126.36    3.77
  -1   8  -1  117.20    3.43
  -1   8  -1  125.08    3.95
  -1   8  -2   77.19    2.86
  -1   8  -2   68.99    2.85
  -1   8  -2   69.76    2.71
  -1   8  -3   17.76    1.19
  -1   8  -3   16.35    1.11
  -1   8  -4   22.50    1.05
  -1   8  -4   20.44    1.55
  -1   8  -5  114.12    3.65
  -1   8  -6   40.22    1.67
  -1   7   8   10.86    0.74
  -1   7   8   10.95    0.84
   1  -7  -7   12.53    0.92
  -1   7   7   12.20    1.00
  -1   7   7   12.19    1.03
  -1   7   7   12.66    0.86
  -1   7   7   13.10    0.93
  -1   7   6   48.83    2.34
   1  -7  -6   52.35    2.16
  -1   7   6   49.96    2.10
  -1   7   6   46.01    2.48
  -1   7   6   47.39    1.99
  -1   7   6   53.13    1.93
  -1   7   5   88.23    2.68
  -1   7   5   86.44    2.72
  -1   7   5   98.42    3.58
  -1   7   5   96.45    3.00
  -1   7   5  105.08    3.37
  -1   7   5   83.03    3.65
  -1   7   5   90.03    2.67
  -1   7   4   39.63    2.39
  -1   7   4   42.53    1.78
  -1   7   4   44.77    1.92
  -1   7   4   41.89    2.11
  -1   7   4   39.21    1.87
  -1   7   4   45.99    2.38
  -1   7   4   41.56    1.68
  -1   7   3  120.92    4.17
  -1   7   3  116.12    3.81
  -1   7   3  122.12    3.73
  -1   7   3  114.26    3.81
  -1   7   3  112.91    4.27
  -1   7   2   95.78    3.30
  -1   7   2   92.57    3.57
  -1   7   2   93.62    3.71
  -1   7   2   90.28    3.26
  -1   7   2   99.23    3.56
  -1   7   2   93.65    3.46
  -1   7   1  101.10    3.70
  -1   7   1  101.33    3.79
  -1   7   1  102.29    3.75
  -1   7   1  103.89    3.76
  -1   7   1   99.12    2.97
  -1   7   1   96.71    3.43
  -1   7   1  106.32    3.46
  -1   7   0   50.91    2.15
  -1   7   0   50.30    2.16
  -1   7   0   54.13    2.55
  -1   7   0   53.48    2.34
  -1   7   0   50.17    2.47
  -1   7   0   46.13    2.40
  -1   7  -1  121.28    4.00
  -1   7  -1  134.83    4.32
  -1   7  -1  132.33    4.31
  -1   7  -1  134.59    4.08
  -1   7  -1  124.97    3.68
  -1   7  -2  174.55    5.02
  -1   7  -2  167.12    5.18
  -1   7  -2  175.85    5.01
  -1   7  -2  166.11    4.29
  -1   7  -2  179.51    4.90
  -1   7  -3    4.32    0.66
  -1   7  -3    4.00    0.79
  -1   7  -3    4.65    0.65
  -1   7  -4   43.21    1.77
  -1   7  -4   39.30    1.82
  -1   7  -4   37.50    2.32
  -1   7  -5  185.32    5.61
  -1   7  -6  155.75    4.74
   1  -7   6  158.04    3.72
   1  -7   7    5.44    0.48
  -1   7  -7    6.42    0.70
   1  -6  -9   80.93    2.48
  -1   6   9   83.77    2.71
  -1   6   9   83.82    2.68
  -1   6   9   84.23    2.59
  -1   6   8   16.78    1.17
  -1   6   8   17.00    1.28
   1  -6  -8   18.12    1.18
  -1   6   8   18.33    1.18
  -1   6   8   17.75    1.26
   1  -6  -7    0.40    0.33
  -1   6   7    0.59    0.38
  -1   6   7    0.60    0.29
  -1   6   7    1.59    0.46
  -1   6   7    1.09    0.51
  -1   6   7    0.75    0.50
  -1   6   6  157.18    4.40
  -1   6   6  165.21    5.14
  -1   6   6  143.98    5.16
  -1   6   6  156.37    4.35
   1  -6  -6  161.05    4.80
  -1   6   6  159.40    4.71
  -1   6   6  155.98    4.58
  -1   6   5  112.66    3.20
  -1   6   5  119.66    3.70
  -1   6   5  110.03    3.65
  -1   6   5  116.43    3.70
  -1   6   5  118.56    3.20
  -1   6   5  114.92    4.44
  -1   6   5  107.76    3.42
  -1   6   5  122.07    4.27
  -1   6   4  110.70    3.43
  -1   6   4  114.99    3.66
  -1   6   4  110.45    3.32
  -1   6   4  110.02    3.47
  -1   6   4  112.00    4.19
  -1   6   4  109.69    3.38
  -1   6   4  110.59    4.03
  -1   6   3   43.25    1.99
  -1   6   3   46.67    2.40
  -1   6   3   44.96    1.81
  -1   6   3   46.43    1.94
  -1   6   3   42.44    2.25
  -1   6   3   42.10    1.77
  -1   6   3   43.56    2.05
  -1   6   3   44.19    2.04
  -1   6   2   57.80    2.65
  -1   6   2   59.62    2.64
  -1   6   2   58.59    2.05
  -1   6   2   62.92    2.44
  -1   6   2   63.09    2.59
  -1   6   2   65.79    2.56
  -1   6   2   59.98    2.31
  -1   6   1  107.05    3.52
  -1   6   1  104.51    3.62
  -1   6   1  107.84    3.44
  -1   6   1  100.97    3.26
  -1   6   1  106.46    2.86
  -1   6   1  102.09    3.25
  -1   6   1  106.75    3.05
  -1   6   1  101.79    3.55
  -1   6   1  103.72    3.59
  -1   6   0   69.26    2.81
  -1   6   0   72.75    2.49
  -1   6   0   74.43    2.87
  -1   6   0   66.86    2.51
  -1   6   0   70.37    2.57
  -1   6   0   74.02    2.88
  -1   6   0   76.40    2.73
  -1   6   0   71.15    2.77
  -1   6   0   75.06    2.57
  -1   6  -1  141.20    3.73
  -1   6  -1  143.53    4.12
  -1   6  -1  140.59    4.19
  -1   6  -1  133.74    4.24
  -1   6  -1  137.03    4.28
  -1   6  -1  141.14    4.01
  -1   6  -1  135.96    4.08
  -1   6  -2   80.27    2.87
  -1   6  -2   78.48    2.73
  -1   6  -2   80.17    3.06
  -1   6  -2   76.73    2.92
  -1   6  -2   83.12    2.48
  -1   6  -3   34.01    1.77
  -1   6  -3   36.29    2.08
  -1   6  -3   39.58    1.82
  -1   6  -3   39.53    1.77
  -1   6  -4    6.47    0.94
  -1   6  -4    7.32    0.72
  -1   6  -4    6.31    0.68
  -1   6  -5   87.18    3.23
  -1   6  -5   91.00    2.71
  -1   6  -5   89.34    3.52
  -1   6  -6   24.70    1.64
  -1   6  -6   25.49    1.72
  -1   6  -7   14.74    1.21
  -1   6  -7   15.06    1.24
   1  -6   7   15.54    1.09
  -1   6  -8    0.46    0.27
   1  -6   8    0.21    0.27
  -1   6  -8    0.52    0.30
  -1   6  -9   29.94    1.15
  -1   6  -9   31.09    1.34
   1  -5 -10   55.67    1.90
  -1   5  10   54.18    2.06
  -1   5  10   53.27    2.05
  -1   5  10   57.81    2.11
  -1   5   9  165.03    4.67
  -1   5   9  167.99    4.75
   1  -5  -9  164.02    4.43
  -1   5   9  151.25    4.02
  -1   5   8   57.61    2.61
   1  -5  -8   59.73    2.56
  -1   5   8   54.23    2.43
  -1   5   8   61.06    2.76
   1  -5  -7   46.26    2.31
  -1   5   7   48.88    2.25
  -1   5   7   44.09    2.41
  -1   5   7   46.21    2.16
  -1   5   7   50.68    2.59
  -1   5   7   43.75    2.32
  -1   5   7   48.84    1.88
  -1   5   6   15.24    1.40
   1  -5  -6   14.14    1.23
  -1   5   6   16.44    1.10
  -1   5   6   15.68    1.19
  -1   5   6   15.69    1.48
  -1   5   6   16.83    1.23
  -1   5   6   14.96    1.26
  -1   5   5  250.94    6.01
  -1   5   5  248.61    6.02
  -1   5   5  255.52    6.81
  -1   5   5  251.35    6.35
  -1   5   5  246.35    6.86
  -1   5   5  252.07    6.09
  -1   5   4  133.32    3.83
  -1   5   4  134.71    3.68
  -1   5   4  129.29    3.44
  -1   5   4  133.84    3.58
  -1   5   4  135.63    4.29
  -1   5   4  137.62    3.66
  -1   5   4  132.68    3.77
  -1   5   4  134.54    4.32
  -1   5   4  132.13    3.47
  -1   5   3    4.92    0.60
  -1   5   3    4.14    0.51
  -1   5   3    4.82    0.53
  -1   5   3    5.16    0.61
  -1   5   3    4.90    0.54
  -1   5   3    4.58    0.54
  -1   5   3    5.43    0.60
  -1   5   3    4.55    0.69
  -1   5   3    4.22    0.69
  -1   5   3    5.56    0.61
  -1   5   2  164.81    4.51
  -1   5   2  163.51    4.19
  -1   5   2  161.60    4.04
  -1   5   2  162.96    4.08
  -1   5   2  163.73    4.42
  -1   5   2  162.40    3.94
  -1   5   2  162.26    4.23
  -1   5   2  168.18    4.55
  -1   5   2  165.15    4.24
  -1   5   1  207.13    5.17
  -1   5   1  201.19    4.51
  -1   5   1  205.52    4.82
  -1   5   1  202.01    4.78
  -1   5   1  206.08    4.98
  -1   5   1  193.80    4.51
  -1   5   1  207.84    5.02
  -1   5   1  196.48    5.14
  -1   5   1  202.81    4.80
  -1   5   1  210.19    5.20
  -1   5   0  178.33    4.36
  -1   5   0  177.79    4.62
  -1   5   0  180.97    4.51
  -1   5   0  179.23    4.01
  -1   5   0  180.85    4.56
  -1   5   0  171.72    4.63
  -1   5   0  175.96    4.25
  -1   5   0  170.77    4.28
  -1   5   0  180.55    4.34
  -1   5   0  176.20    4.62
  -1   5  -1  111.14    3.25
  -1   5  -1  113.68    3.25
  -1   5  -1  111.75    2.80
  -1   5  -1  113.93    2.96
  -1   5  -1  110.03    3.24
  -1   5  -1  116.26    3.14
  -1   5  -1  105.47    3.33
  -1   5  -1  111.92    3.38
  -1   5  -1  119.36    3.43
  -1   5  -1  109.87    3.08
  -1   5  -2   84.50    2.54
  -1   5  -2   81.83    2.67
  -1   5  -2   82.69    2.78
  -1   5  -2   84.57    2.32
  -1   5  -2   82.30    2.23
  -1   5  -2   85.37    2.53
  -1   5  -2   80.24    2.61
  -1   5  -2   87.02    2.82
  -1   5  -3   23.22    1.43
  -1   5  -3   22.83    1.22
  -1   5  -3   24.42    1.11
  -1   5  -3   26.78    1.26
  -1   5  -3   23.36    1.17
  -1   5  -3   24.61    1.28
  -1   5  -3   25.48    1.35
  -1   5  -4   61.03    2.05
  -1   5  -4   58.47    1.98
  -1   5  -4   57.74    2.08
  -1   5  -4   56.53    1.97
  -1   5  -4   59.03    2.50
  -1   5  -4   60.45    2.31
  -1   5  -5  112.41    3.21
   1  -5   5  114.83    3.25
  -1   5  -5  118.60    3.36
  -1   5  -5  114.09    3.84
  -1   5  -5  119.29    3.76
  -1   5  -6  100.59    3.30
  -1   5  -6  100.75    3.55
  -1   5  -6  101.56    3.61
   1  -5   6   98.14    3.03
  -1   5  -6   98.47    3.00
   1  -5   7   20.03    1.20
  -1   5  -7   18.24    1.32
  -1   5  -7   19.37    1.50
  -1   5  -7   21.23    1.44
  -1   5  -7   18.91    1.13
  -1   5  -8    1.05    0.35
   1  -5   8    1.79    0.47
  -1   5  -8    1.17    0.43
   1  -5   8    1.00    0.29
  -1   5  -9   61.60    2.53
   1  -5   9   62.60    2.32
   1  -5   9   61.93    1.99
  -1   5  -9   64.14    2.07
  -1   5 -10   23.55    1.24
   1  -5  10   22.70    1.09
   1  -4 -10   32.83    1.57
  -1   4  10   30.57    1.69
  -1   4  10   32.46    1.67
   1  -4  -9   92.40    3.26
   1  -4  -9   97.95    2.98
  -1   4   9   84.31    2.89
  -1   4   9   97.04    3.46
  -1   4   9   95.92    3.53
  -1   4   9   87.71    3.31
  -1   4   8   52.73    2.64
   1  -4  -8   47.13    2.05
  -1   4   8   44.01    2.33
  -1   4   8   50.54    2.35
   1  -4  -8   47.69    2.33
  -1   4   8   47.15    2.35
  -1   4   7   24.89    1.62
  -1   4   7   29.33    1.26
  -1   4   7   22.69    1.64
  -1   4   7   24.00    1.38
  -1   4   7   26.17    1.61
  -1   4   7   25.14    1.79
   1  -4  -7   22.36    1.58
  -1   4   7   21.62    1.88
  -1   4   7   25.96    1.70
   1  -4  -7   26.03    1.45
  -1   4   6   93.43    3.28
  -1   4   6   91.35    3.12
  -1   4   6   87.68    3.39
  -1   4   6   82.44    3.32
   1  -4  -6   91.12    2.87
   1  -4  -6   86.97    3.24
  -1   4   6   90.92    2.88
  -1   4   6   88.77    3.08
  -1   4   6   82.30    3.71
  -1   4   6   88.22    2.69
  -1   4   5  449.95    9.60
   1  -4  -5  465.42    9.27
  -1   4   5  449.24   10.15
  -1   4   5  457.79    9.33
  -1   4   5  448.10    9.55
  -1   4   5  451.77    9.34
  -1   4   5  456.01   10.64
  -1   4   5  444.92   10.12
  -1   4   4   74.19    2.21
  -1   4   4   75.42    1.95
  -1   4   4   73.30    2.28
  -1   4   4   75.94    2.71
  -1   4   4   76.68    1.96
  -1   4   4   78.83    2.22
  -1   4   4   74.00    2.23
  -1   4   4   70.30    2.03
  -1   4   4   76.63    2.42
  -1   4   4   75.54    2.35
  -1   4   3   18.82    0.99
  -1   4   3   17.53    1.12
  -1   4   3   18.00    0.94
  -1   4   3   19.06    1.02
  -1   4   3   19.62    1.17
  -1   4   3   17.74    0.93
   1  -4  -2   31.44    1.09
   1  -4  -2   34.22    1.37
   1  -4  -2   32.68    1.17
   1  -4  -2   30.68    1.15
  -1   4   2   32.78    1.33
  -1   4   2   29.60    1.34
   1  -4  -2   32.41    1.13
  -1   4   2   32.99    1.33
  -1   4   2   32.57    1.30
  -1   4   1  300.64    6.35
   1  -4  -1  287.52    6.26
   1  -4  -1  291.48    6.10
   1  -4  -1  304.95    5.88
  -1   4   1  295.08    6.32
  -1   4   1  296.88    6.44
   1  -4  -1  302.43    5.77
   1  -4  -1  289.13    6.02
  -1   4   0  144.53    3.53
   1  -4   0  138.89    2.83
   1  -4   0  142.52    3.45
  -1   4   0  143.79    3.62
   1  -4   0  144.40    3.49
   1  -4   0  137.76    3.25
   1  -4   0  143.95    2.90
  -1   4   0  143.44    3.53
  -1   4  -1    7.83    0.62
   1  -4   1    8.67    0.63
  -1   4  -1    7.26    0.63
   1  -4   1    8.30    0.64
  -1   4  -1    7.98    0.64
   1  -4   1    7.13    0.52
  -1   4  -2   65.18    2.06
   1  -4   2   65.15    2.01
  -1   4  -2   68.08    2.15
  -1   4  -2   67.02    2.07
   1  -4   2   66.96    2.13
   1  -4   2   64.39    1.91
   1  -4   3  194.80    4.42
  -1   4  -3  199.66    4.76
  -1   4  -3  191.01    4.52
  -1   4  -3  190.76    4.44
  -1   4  -4   32.92    1.32
  -1   4  -4   31.07    1.26
  -1   4  -4   32.61    1.13
  -1   4  -4   32.57    1.49
  -1   4  -4   31.79    1.27
  -1   4  -4   31.90    1.53
  -1   4  -4   31.20    1.12
  -1   4  -4   31.21    1.14
  -1   4  -5   48.77    2.06
  -1   4  -5   47.23    2.02
  -1   4  -5   53.10    2.01
  -1   4  -6   58.38    2.36
  -1   4  -6   62.50    2.57
  -1   4  -6   56.15    2.39
  -1   4  -6   61.22    2.39
   1  -4   6   58.52    2.29
  -1   4  -7    1.68    0.49
  -1   4  -7    2.46    0.56
  -1   4  -7    2.67    0.53
   1  -4   7    2.17    0.50
  -1   4  -8    9.32    0.86
   1  -4   8   10.49    0.96
  -1   4  -8   10.94    1.16
  -1   4  -8    8.67    0.98
   1  -4   9   25.22    1.55
  -1   4  -9   25.02    1.21
  -1   4  -9   24.67    1.64
   1  -4   9   23.26    1.38
   1  -4  10   17.05    1.10
   1  -4  10   17.08    1.03
  -1   4 -10   18.41    1.26
   1  -3 -11   17.60    1.01
  -1   3  11   15.70    0.98
   1  -3 -11   16.46    0.89
  -1   3  11   15.84    1.08
   1  -3 -10   22.82    1.35
  -1   3  10   21.25    1.46
   1  -3 -10   22.14    1.39
  -1   3  10   25.17    1.61
  -1   3  10   21.68    1.42
  -1   3  10   21.44    1.16
   1  -3  -9  132.40    4.14
  -1   3   9  135.21    4.31
  -1   3   9  129.78    4.57
  -1   3   9  137.12    4.06
   1  -3  -9  136.15    4.27
  -1   3   9  135.28    4.51
  -1   3   9  127.48    3.83
  -1   3   9  131.61    4.35
  -1   3   8  108.34    3.66
  -1   3   8  115.55    4.11
  -1   3   8  110.50    4.27
   1  -3  -8  108.46    3.81
   1  -3  -8  109.22    3.71
  -1   3   8  117.66    3.90
  -1   3   8  109.85    3.85
  -1   3   8  110.22    3.87
  -1   3   7    6.87    0.89
  -1   3   7    5.49    0.76
  -1   3   7    6.93    0.87
  -1   3   7    7.60    0.88
   1  -3  -7    7.17    0.80
   1  -3  -7    6.87    0.87
  -1   3   7    6.39    0.96
  -1   3   7    7.21    0.88
  -1   3   6   81.30    2.82
  -1   3   6   82.17    2.82
   1  -3  -6   79.20    2.75
  -1   3   6   80.51    3.00
  -1   3   6   78.10    2.96
  -1   3   6   78.45    3.24
   1  -3  -6   80.73    2.94
  -1   3   6   86.53    3.12
  -1   3   5  443.33    9.41
  -1   3   5  445.73    9.55
  -1   3   5  434.94    9.18
   1  -3  -5  434.98    9.13
  -1   3   5  443.97    9.20
  -1   3   5  453.18    9.97
  -1   3   5  443.53    8.61
  -1   3   5  427.61    9.41
  -1   3   5  443.60    9.12
   1  -3  -4  169.73    4.12
   1  -3  -4  168.07    3.80
   1  -3  -4  167.97    3.97
  -1   3   4  179.58    4.39
  -1   3   4  169.83    4.18
  -1   3   4  178.33    4.21
  -1   3   4  188.51    4.70
   1  -3  -4  167.06    3.63
  -1   3   4  169.42    3.69
  -1   3   4  177.25    3.70
  -1   3   3    0.81    0.26
   1  -3  -3    0.74    0.16
   1  -3  -3    1.57    0.28
  -1   3   3    0.81    0.26
   1  -3  -3    0.83    0.19
   1  -3  -3    0.64    0.21
  -1   3   3    0.90    0.23
  -1   3   3    1.21    0.25
   1  -3  -3    1.10    0.28
  -1   3   3    1.35    0.25
  -1   3   3    0.95    0.23
  -1   3   3    0.95    0.29
  -1   3   3    1.32    0.22
  -1   3   2  198.71    4.28
   1  -3  -2  199.67    4.29
   1  -3  -2  204.28    4.45
  -1   3   2  196.00    4.49
  -1   3   2  205.85    4.37
   1  -3  -2  201.92    4.14
   1  -3  -2  204.19    4.37
  -1   3   2  199.15    4.17
   1  -3  -2  202.92    4.37
  -1   3   2  201.74    4.30
   1  -3  -1  680.90   12.57
  -1   3   1  680.74   12.67
   1  -3  -1  669.98   12.52
  -1   3   1  683.37   12.67
   1  -3  -1  696.40   12.77
   1  -3  -1  677.68   12.75
   1  -3  -1  667.81   12.49
  -1   3   1  669.12   12.73
   1  -3   0  215.74    4.60
   1  -3   0  220.71    4.62
  -1   3   0  218.07    4.66
  -1   3   0  220.29    4.60
   1  -3   0  218.88    4.66
   1  -3   0  218.03    4.25
  -1   3   0  223.35    4.61
   1  -3   0  219.06    4.54
   1  -3   0  216.90    4.27
   1  -3   1  146.24    2.81
   1  -3   1  143.38    3.24
  -1   3  -1  145.44    3.28
   1  -3   1  144.43    3.33
   1  -3   1  146.10    3.36
  -1   3  -1  148.54    3.34
   1  -3   1  141.78    3.28
  -1   3  -1  139.38    3.25
   1  -3   2  152.63    2.91
  -1   3  -2  147.50    3.13
   1  -3   2  146.71    3.14
  -1   3  -2  155.84    3.21
   1  -3   2  150.13    3.20
   1  -3   2  125.77    2.39
   1  -3   2  151.09    3.18
  -1   3  -2  150.38    3.15
   1  -3   2  148.62    3.33
   1  -3   3  166.37    3.69
  -1   3  -3  166.88    3.70
  -1   3  -3  156.68    3.63
  -1   3  -3  167.03    3.74
   1  -3   3  162.32    3.68
   1  -3   3  171.59    3.81
  -1   3  -3  167.52    3.67
  -1   3  -4   96.91    2.70
  -1   3  -4   96.84    2.35
  -1   3  -4   92.43    2.30
  -1   3  -4  101.44    2.81
   1  -3   4   97.16    2.47
   1  -3   4   95.17    2.31
   1  -3   4   94.50    2.61
   1  -3   4   98.67    2.64
   1  -3   4   94.83    2.37
  -1   3  -5   28.11    1.32
  -1   3  -5   27.56    1.29
  -1   3  -5   27.44    1.42
   1  -3   5   26.15    1.14
  -1   3  -5   27.77    1.43
  -1   3  -5   26.93    1.09
   1  -3   6   65.47    2.40
  -1   3  -6   62.56    2.20
  -1   3  -6   59.41    2.45
  -1   3  -6   62.38    2.39
   1  -3   6   64.65    2.08
  -1   3  -6   62.80    2.10
  -1   3  -6   66.45    2.43
  -1   3  -7    7.22    0.88
   1  -3   7    7.19    0.81
   1  -3   7    7.25    0.66
  -1   3  -7    6.11    0.66
  -1   3  -7    6.35    0.68
  -1   3  -7    6.34    0.81
  -1   3  -7    6.44    0.75
  -1   3  -7    7.58    0.87
  -1   3  -8    0.98    0.35
   1  -3   8    0.87    0.41
   1  -3   8    1.44    0.35
  -1   3  -8    1.52    0.47
  -1   3  -8    0.84    0.30
  -1   3  -8    1.88    0.51
  -1   3  -8    1.72    0.54
  -1   3  -9   10.96    1.11
   1  -3   9   10.01    0.98
  -1   3  -9   11.97    1.16
   1  -3   9   11.90    1.11
   1  -3   9   11.15    0.79
  -1   3  -9    9.50    0.85
  -1   3  -9   10.94    1.13
   1  -3  10   17.86    1.22
   1  -3  10   19.39    1.30
  -1   3 -10   18.36    1.35
  -1   3 -11    1.01    0.34
   1  -3  11    0.48    0.28
   1  -3  11    0.63    0.27
  -1   2  11   61.47    2.12
   1  -2 -11   68.19    2.38
  -1   2  11   65.10    2.51
  -1   2  11   62.17    2.08
   1  -2 -11   63.12    2.22
  -1   2  10   46.18    2.13
   1  -2 -10   47.23    2.18
  -1   2  10   46.53    2.11
  -1   2  10   48.94    2.30
   1  -2 -10   47.59    1.95
  -1   2  10   49.66    2.39
  -1   2  10   50.64    2.43
   1  -2 -10   49.92    2.29
   1  -2  -9  133.60    4.24
  -1   2   9  130.65    4.25
  -1   2   9  133.46    4.54
  -1   2   9  128.26    4.38
  -1   2   9  124.85    4.23
  -1   2   9  118.53    3.65
   1  -2  -9  123.41    4.20
  -1   2   9  130.38    4.13
   1  -2  -9  134.35    3.89
   1  -2  -8  103.52    3.68
  -1   2   8  102.42    3.84
   1  -2  -8  105.23    3.64
  -1   2   8  102.85    3.38
  -1   2   8  106.35    3.67
  -1   2   8  109.60    3.90
  -1   2   8   99.64    3.83
  -1   2   7   54.89    2.29
   1  -2  -7   52.31    2.33
  -1   2   7   52.12    2.24
  -1   2   7   51.47    2.38
  -1   2   7   48.61    2.14
  -1   2   7   50.99    2.54
  -1   2   7   50.39    2.46
   1  -2  -7   49.29    2.24
   1  -2  -6  177.32    4.73
  -1   2   6  181.77    4.85
  -1   2   6  187.55    4.65
  -1   2   6  178.88    4.57
   1  -2  -6  175.28    4.71
  -1   2   6  168.39    5.07
  -1   2   6  188.40    5.12
  -1   2   6  186.28    4.69
  -1   2   6  166.62    4.48
  -1   2   5  373.94    7.81
   1  -2  -5  375.79    8.04
  -1   2   5  353.37    8.32
  -1   2   5  379.14    8.05
   1  -2  -5  371.41    7.94
  -1   2   5  361.32    7.73
  -1   2   5  392.23    7.85
  -1   2   5  370.56    8.24
  -1   2   5  374.62    7.47
   1  -2  -4  255.26    5.58
  -1   2   4  274.87    5.93
  -1   2   4  257.90    5.65
   1  -2  -4  256.01    5.46
   1  -2  -4  266.41    5.61
  -1   2   4  272.44    5.90
  -1   2   4  258.06    5.67
   1  -2  -4  263.95    5.62
  -1   2   4  260.30    5.29
  -1   2   4  250.97    5.36
  -1   2   3    6.31    0.54
  -1   2   3    7.21    0.45
   1  -2  -3    6.75    0.42
  -1   2   3    7.37    0.54
   1  -2  -3    7.28    0.53
  -1   2   3    6.72    0.53
  -1   2   3    7.78    0.56
   1  -2  -3    7.12    0.53
  -1   2   3    7.49    0.41
   1  -2  -2  149.30    3.31
   1  -2  -2  145.32    3.32
   1  -2  -2  147.86    3.03
   1  -2  -2  147.57    3.20
  -1   2   2  151.22    3.09
  -1   2   2  147.57    3.37
  -1   2   2  149.97    3.34
  -1   2   2  152.18    2.88
   1  -2  -1  489.99    8.99
   1  -2  -1  485.28    9.16
   1  -2  -1  488.41    9.09
  -1   2   1  480.15    9.20
   1  -2  -1  487.89    9.17
   1  -2   0  173.23    3.64
   1  -2   0  172.28    3.59
   1  -2   0  169.98    3.42
   1  -2   0  171.97    3.55
   1  -2   0  176.61    3.55
   1  -2   0  172.86    3.34
   1  -2   1    1.39    0.14
   1  -2   1    1.22    0.20
  -1   2  -1    1.41    0.15
   1  -2   1    1.13    0.20
   1  -2   1    1.38    0.15
   1  -2   1    1.27    0.21
   1  -2   2   34.49    1.03
   1  -2   2   34.78    1.08
  -1   2  -2   32.68    1.00
  -1   2  -2   33.52    1.18
   1  -2   2   33.66    1.11
  -1   2  -3  128.96    3.02
  -1   2  -3  138.00    2.62
   1  -2   3  130.80    3.07
  -1   2  -3  134.95    3.02
   1  -2   3  128.24    3.06
  -1   2  -3  135.45    3.23
   1  -2   3  132.54    2.67
   1  -2   3  129.47    2.88
  -1   2  -4   10.22    0.71
   1  -2   4    9.19    0.62
   1  -2   4    8.04    0.56
  -1   2  -4    9.27    0.43
  -1   2  -4    9.72    0.66
   1  -2   4    9.15    0.55
  -1   2  -4    9.11    0.61
   1  -2   4   10.78    0.69
  -1   2  -4    9.01    0.51
  -1   2  -4    9.25    0.58
  -1   2  -5   42.92    1.55
   1  -2   5   47.45    1.27
   1  -2   5   46.47    1.66
   1  -2   5   44.73    1.72
   1  -2   5   41.06    1.37
  -1   2  -5   43.34    1.62
  -1   2  -5   43.89    1.74
  -1   2  -5   42.95    1.25
   1  -2   5   44.19    1.56
  -1   2  -6    0.85    0.26
  -1   2  -6    1.34    0.39
   1  -2   6    0.62    0.21
  -1   2  -6    1.00    0.29
   1  -2   6    0.97    0.32
  -1   2  -6    0.55    0.22
  -1   2  -7    3.93    0.56
  -1   2  -7    5.98    0.67
  -1   2  -7    4.73    0.67
  -1   2  -7    5.08    0.67
   1  -2   7    4.90    0.58
  -1   2  -7    3.96    0.46
   1  -2   7    5.75    0.73
  -1   2  -8   22.25    1.50
   1  -2   8   21.64    1.29
   1  -2   8   20.10    1.44
  -1   2  -8   20.45    1.48
  -1   2  -8   16.83    1.41
  -1   2  -8   20.96    1.27
  -1   2  -8   21.87    1.40
  -1   2  -9   11.05    1.16
   1  -2   9    9.41    0.98
  -1   2  -9   10.71    0.87
   1  -2   9   11.24    1.10
  -1   2  -9   10.08    1.06
   1  -2   9   10.64    0.90
  -1   2  -9   10.67    1.15
  -1   2  -9    9.69    0.97
   1  -2  10   20.23    1.40
  -1   2 -10   17.70    1.34
  -1   2 -10   16.16    1.17
  -1   2 -10   16.94    1.37
   1  -2  10   15.86    1.05
  -1   2 -10   18.40    1.44
   1  -2  10   16.56    1.23
   1  -2  11    0.65    0.26
  -1   2 -11    0.66    0.33
  -1   2 -11    1.05    0.32
   1  -2  11    0.12    0.23
  -1   2 -12    0.45    0.22
  -1   1  11   65.41    2.60
   1  -1 -11   69.80    2.59
  -1   1  11   69.47    2.55
  -1   1  11   67.76    2.05
  -1   1  11   64.35    2.38
   1  -1 -11   68.14    2.26
   1  -1 -11   69.61    2.41
  -1   1  10   29.68    1.53
  -1   1  10   28.99    1.83
  -1   1  10   30.21    1.73
   1  -1 -10   28.93    1.69
   1  -1 -10   31.00    1.86
  -1   1  10   28.54    1.75
   1  -1 -10   31.45    1.66
  -1   1  10   30.47    1.83
  -1   1   9   43.45    2.01
  -1   1   9   40.87    2.27
   1  -1  -9   40.86    2.14
  -1   1   9   39.85    1.77
  -1   1   9   45.39    2.20
  -1   1   9   43.32    2.29
   1  -1  -9   43.77    1.73
   1  -1  -9   41.52    2.05
  -1   1   9   36.92    2.14
   1  -1  -9   41.30    2.26
  -1   1   8  132.78    4.10
  -1   1   8  132.51    4.45
   1  -1  -8  137.60    4.26
   1  -1  -8  138.01    3.60
   1  -1  -8  132.03    4.37
  -1   1   8  124.89    3.73
  -1   1   8  139.80    4.47
  -1   1   8  137.53    3.85
   1  -1  -7   44.13    1.54
  -1   1   7   40.80    1.86
  -1   1   7   40.06    2.11
  -1   1   7   42.30    1.85
  -1   1   7   41.00    2.04
  -1   1   7   35.77    1.61
   1  -1  -7   38.81    2.01
   1  -1  -7   40.21    1.94
  -1   1   6    8.03    0.80
   1  -1  -6    8.08    0.77
  -1   1   6    7.23    0.81
  -1   1   6    8.10    0.73
   1  -1  -6    8.61    0.83
  -1   1   6    7.79    0.76
  -1   1   6    8.10    0.72
  -1   1   6    8.22    0.75
   1  -1  -5  278.76    6.12
  -1   1   5  281.33    5.86
  -1   1   5  280.67    6.18
  -1   1   5  265.71    5.94
  -1   1   5  268.79    5.92
   1  -1  -5  268.42    6.01
   1  -1  -5  265.37    5.86
  -1   1   5  286.10    5.64
  -1   1   5  277.37    6.29
   1  -1  -4  212.37    4.56
  -1   1   4  207.22    4.57
  -1   1   4  214.83    4.76
  -1   1   4  196.68    4.46
  -1   1   4  200.57    4.56
   1  -1  -4  208.31    4.51
  -1   1   4  213.43    4.33
   1  -1  -4  201.33    4.58
  -1   1   4  204.49    4.58
   1  -1  -4  213.65    4.59
  -1   1   4  202.90    4.44
  -1   1   4  210.25    4.65
   1  -1  -4  209.46    4.55
   1  -1  -3    1.10    0.23
  -1   1   3    1.38    0.20
  -1   1   3    1.30    0.21
   1  -1  -3    1.20    0.22
  -1   1   3    1.08    0.23
  -1   1   3    0.94    0.23
   1  -1  -3    1.45    0.25
  -1   1   3    2.10    0.30
  -1   1   2   44.64    1.08
  -1   1   2   43.60    1.30
  -1   1   2   43.66    1.30
  -1   1   2   43.26    1.12
  -1   1   2   45.26    1.14
   1  -1  -2   44.35    1.28
   1  -1  -2   43.66    1.12
   1  -1  -2   47.31    1.32
  -1   1   1  274.05    5.39
   1  -1  -1  281.35    5.15
  -1   1   1  284.16    5.15
  -1   1   1  290.88    5.44
  -1   1   1  287.60    5.36
   1  -1  -1  280.79    5.37
  -1   1   1  283.17    5.16
   1  -1  -1  280.52    5.42
   1  -1  -1  277.06    5.34
   1  -1   0  338.15    6.19
  -1   1   0  317.85    6.22
  -1   1   0  339.15    5.95
   1  -1   0  329.64    6.13
   1  -1   0  334.11    6.12
  -1   1   0  327.49    6.15
   1  -1   1   13.18    0.52
  -1   1  -1   13.52    0.52
   1  -1   1   13.17    0.54
   1  -1   1   13.38    0.47
  -1   1  -1   14.04    0.46
   1  -1   2   30.23    0.94
   1  -1   2   28.63    0.84
  -1   1  -2   30.62    0.86
  -1   1  -2   29.56    0.92
   1  -1   2   32.35    0.99
   1  -1   3    2.94    0.25
   1  -1   3    2.87    0.32
  -1   1  -3    3.40    0.34
  -1   1  -3    2.81    0.32
   1  -1   3    2.96    0.31
   1  -1   3    3.06    0.25
  -1   1  -4  304.28    6.20
   1  -1   4  304.55    6.38
   1  -1   4  305.76    6.19
   1  -1   4  314.07    6.05
  -1   1  -4  312.23    6.31
  -1   1  -4  300.78    6.09
  -1   1  -4  315.43    6.35
   1  -1   4  303.62    5.98
   1  -1   4  310.68    6.26
   1  -1   5   18.43    0.93
  -1   1  -5   17.01    0.90
   1  -1   5   20.14    0.98
   1  -1   5   17.01    0.79
   1  -1   5   17.44    0.82
   1  -1   5   18.37    1.02
  -1   1  -5   16.51    0.93
   1  -1   5   18.75    0.74
  -1   1  -5   18.63    0.88
  -1   1  -5   18.51    0.95
  -1   1  -5   19.64    0.98
  -1   1  -6    4.58    0.54
   1  -1   6    4.67    0.43
  -1   1  -6    5.42    0.56
  -1   1  -6    5.53    0.60
   1  -1   6    5.68    0.46
   1  -1   6    5.92    0.60
   1  -1   6    4.71    0.56
   1  -1   7   11.35    0.67
  -1   1  -7    8.84    0.76
   1  -1   7    9.52    0.88
   1  -1   7    9.14    0.81
  -1   1  -7    8.63    0.84
  -1   1  -7    8.92    0.85
   1  -1   8   13.51    1.15
  -1   1  -8   14.51    1.18
  -1   1  -8   16.34    1.27
  -1   1  -8   15.57    1.14
   1  -1   8   13.72    1.07
  -1   1  -8   12.47    0.97
  -1   1  -8   13.56    1.22
   1  -1   9   69.34    2.71
  -1   1  -9   65.42    2.83
  -1   1  -9   61.03    2.37
  -1   1  -9   67.24    2.95
   1  -1   9   69.12    2.66
  -1   1  -9   61.26    2.69
  -1   1  -9   65.20    2.65
   1  -1   9   63.51    2.77
   1  -1  10    4.97    0.67
  -1   1 -10    4.34    0.70
   1  -1  10    5.06    0.76
  -1   1 -10    4.44    0.76
  -1   1 -10    4.82    0.76
  -1   1 -10    4.51    0.58
   1  -1  10    4.45    0.66
  -1   1 -10    4.42    0.67
   1  -1  11    1.01    0.41
   1  -1  11    0.92    0.33
  -1   1 -11    1.17    0.37
   1  -1  11    0.53    0.29
  -1   1 -11    1.52    0.38
  -1   1 -11    0.89    0.40
   1  -1  12   13.32    0.88
   1  -1  12   13.59    0.91
  -1   1 -12   14.66    0.74
  -1   0  12   31.17    1.38
   1   0 -11  122.41    3.54
  -1   0  11  132.28    3.85
  -1   0  11  127.39    3.60
  -1   0  11  122.52    3.86
   1   0 -11  124.76    3.56
   1   0 -11  127.14    3.88
  -1   0  10   61.16    2.37
   1   0 -10   58.75    2.26
  -1   0  10   63.39    2.59
  -1   0  10   56.25    2.10
   1   0 -10   59.31    2.51
  -1   0  10   60.13    2.69
   1   0 -10   56.98    2.67
   1   0 -10   60.61    2.53
   1   0  -9   10.62    0.81
  -1   0   9    9.63    1.01
   1   0  -9    9.73    1.03
  -1   0   9   10.97    1.15
   1   0  -9    9.52    0.90
   1   0  -9   12.01    1.12
  -1   0   9   12.70    0.95
  -1   0   9    9.72    0.94
   1   0  -9   10.02    1.12
  -1   0   9   11.64    1.00
  -1   0   8  177.28    5.00
   1   0  -8  170.23    4.92
  -1   0   8  177.27    4.72
  -1   0   8  165.85    5.12
   1   0  -8  167.61    5.16
   1   0  -8  170.80    4.92
   1   0  -8  175.41    4.61
  -1   0   8  166.48    4.73
  -1   0   7   60.45    2.41
  -1   0   7   64.36    2.42
   1   0  -7   59.40    2.39
   1   0  -7   60.18    2.18
  -1   0   7   62.30    2.25
  -1   0   7   64.69    2.63
   1   0  -7   61.40    2.58
  -1   0   6   87.24    2.87
  -1   0   6   82.36    2.68
  -1   0   6   83.12    2.48
   1   0  -6   82.58    2.69
  -1   0   6   80.74    2.44
   1   0  -6   81.74    2.81
  -1   0   6   83.43    2.67
  -1   0   5  359.31    7.42
  -1   0   5  358.59    7.30
  -1   0   5  331.65    7.02
  -1   0   5  358.77    7.26
   1   0  -5  345.40    7.06
  -1   0   5  355.75    7.14
   1   0  -5  351.47    7.26
  -1   0   5  350.71    7.26
   1   0  -5  344.28    7.09
   1   0  -5  355.09    7.42
   1   0  -4  384.47    7.75
  -1   0   4  388.40    7.58
  -1   0   4  408.24    7.82
  -1   0   4  392.30    7.84
  -1   0   4  387.83    7.79
   1   0  -4  385.67    7.71
  -1   0   4  396.53    7.50
  -1   0   4  388.63    7.73
   1   0  -4  387.54    7.84
  -1   0   4  400.09    7.87
  -1   0   4  382.73    7.72
   1   0  -4  399.09    7.76
  -1   0   3    1.15    0.18
  -1   0   3    0.87    0.10
   1   0  -3    1.07    0.22
  -1   0   3    1.51    0.24
  -1   0   3    1.06    0.23
  -1   0   3    1.13    0.23
   1   0  -3    1.05    0.22
   1   0  -3    1.29    0.24
  -1   0   2   25.96    0.66
   1   0  -2   27.91    0.88
  -1   0   2   26.06    0.86
  -1   0   2   25.36    0.86
  -1   0   1  626.01   10.97
   1   0  -1  612.97   11.06
  -1   0   1  597.57   11.07
  -1   0   1  611.39   11.12
  -1   0   0   98.32    1.87
   1   0   0   99.42    1.93
   1   0   0   98.16    1.86
   1   0   0   99.88    1.82
  -1   0  -1   37.80    0.94
   1   0   1   37.36    0.91
   1   0   1   38.46    0.95
  -1   0  -1   36.74    0.92
  -1   0  -1   39.42    0.84
   1   0   1   39.00    0.82
   1   0   2   14.01    0.44
   1   0   2   13.71    0.52
  -1   0  -2   13.89    0.42
  -1   0  -2   13.59    0.52
  -1   0  -3  527.63    9.37
   1   0   3  533.35    9.63
  -1   0  -3  511.29    9.84
   1   0   3  513.18    9.76
   1   0   3  522.54    9.73
  -1   0  -3  523.06    9.77
   1   0   4  312.41    6.36
  -1   0  -4  311.06    6.34
   1   0   4  324.53    6.55
   1   0   4  324.47    6.42
   1   0   4  310.38    6.36
   1   0   4  319.33    6.31
  -1   0  -4  318.80    6.47
   1   0   4  325.30    6.25
  -1   0  -4  327.43    6.37
  -1   0  -5   15.01    0.75
   1   0   5   15.34    0.78
  -1   0  -5   15.98    0.77
  -1   0  -5   14.09    0.84
   1   0   5   16.01    0.85
   1   0   5   15.40    0.76
   1   0   5   16.51    0.79
   1   0   5   14.65    0.84
   1   0   5   15.71    0.83
  -1   0  -5   14.46    0.85
   1   0   5   15.45    0.89
   1   0   5   14.14    0.82
  -1   0  -5   15.26    0.79
   1   0   6   12.61    0.73
  -1   0  -6   13.99    0.95
   1   0   6   12.72    0.89
  -1   0  -6   14.39    0.78
  -1   0  -6   15.81    0.87
   1   0   6   13.38    0.83
   1   0   6   13.83    0.93
   1   0   6   12.91    0.78
   1   0   6   12.60    0.88
   1   0   6   14.16    0.81
  -1   0  -7    0.88    0.28
   1   0   7    0.58    0.22
  -1   0  -7    0.31    0.28
   1   0   7    0.60    0.31
   1   0   7    0.80    0.25
  -1   0  -7    0.49    0.31
   1   0   7    0.74    0.31
  -1   0  -8  128.72    4.14
   1   0   8  128.81    3.50
   1   0   8  126.66    3.73
  -1   0  -8  124.11    3.83
   1   0   8  127.96    3.49
   1   0   8  134.97    4.03
   1   0   8  124.42    4.01
  -1   0  -8  132.91    3.68
  -1   0  -8  123.20    3.65
  -1   0  -9    0.34    0.29
   1   0   9    0.38    0.30
  -1   0  -9    0.79    0.45
  -1   0  -9    0.83    0.35
  -1   0  -9    0.07    0.31
   1   0   9    0.59    0.34
   1   0   9    0.94    0.28
  -1   0  -9    0.53    0.42
   1   0   9    0.60    0.40
  -1   0 -10    1.15    0.38
   1   0  10    1.36    0.47
   1   0  10    1.36    0.48
  -1   0 -10    1.77    0.51
  -1   0 -10    0.97    0.35
  -1   0 -10    1.97    0.58
   1   0  10    1.07    0.40
  -1   0 -11    3.63    0.64
   1   0  11    3.84    0.61
  -1   0 -11    2.57    0.40
   1   0  11    2.40    0.48
  -1   0 -11    3.31    0.61
  -1   0 -12    3.21    0.47
   1   0  12    2.51    0.40
  -1   0 -12    2.85    0.47
   1   0  12    3.59    0.49
   1   0  12    3.33    0.50
   1   1 -11   81.66    2.23
  -1  -1  11   80.14    2.42
  -1  -1  11   72.78    2.19
   1   1 -11   76.49    2.63
  -1  -1  11   75.67    2.79
   1   1 -11   80.84    2.54
   1   1 -11   76.06    2.79
  -1  -1  11   78.46    2.79
   1   1 -10   18.58    1.36
  -1  -1  10   13.79    1.08
   1   1 -10   16.08    1.35
   1   1 -10   14.49    1.17
   1   1 -10   16.97    1.09
  -1  -1  10   16.69    1.34
   1   1 -10   14.35    1.16
  -1  -1  10   13.86    1.07
  -1  -1   9   51.06    2.04
  -1  -1   9   50.68    2.52
   1   1  -9   52.10    2.50
   1   1  -9   54.63    2.41
   1   1  -9   54.48    2.46
   1   1  -9   47.01    2.48
  -1  -1   9   53.25    2.29
  -1  -1   9   53.17    2.38
  -1  -1   8   51.01    2.43
  -1  -1   8   54.08    2.08
   1   1  -8   50.03    2.31
   1   1  -8   52.39    2.42
   1   1  -8   48.27    2.42
   1   1  -8   50.72    2.25
  -1  -1   8   46.58    2.24
  -1  -1   8   49.90    2.17
   1   1  -7   92.13    3.30
  -1  -1   7   89.82    3.10
  -1  -1   7   94.65    2.74
  -1  -1   7   87.25    2.92
   1   1  -7   93.57    3.14
   1   1  -7   94.01    3.01
  -1  -1   7   94.74    3.26
   1   1  -7   93.53    3.22
  -1  -1   6   55.72    2.16
   1   1  -6   52.52    2.11
  -1  -1   6   56.61    1.75
   1   1  -6   58.40    2.27
  -1  -1   6   54.34    1.97
   1   1  -6   54.01    2.01
  -1  -1   6   58.56    2.16
   1   1  -6   54.99    2.08
  -1  -1   5  127.62    3.12
   1   1  -5  127.96    3.47
   1   1  -5  131.42    3.37
   1   1  -5  129.63    3.11
  -1  -1   5  130.45    2.88
  -1  -1   5  134.62    3.40
  -1  -1   5  131.65    3.43
  -1  -1   5  127.33    3.21
  -1  -1   5  131.03    3.42
   1   1  -4  185.68    4.08
  -1  -1   4  172.60    3.85
  -1  -1   4  178.40    4.02
   1   1  -4  177.88    4.01
  -1  -1   4  178.21    3.87
  -1  -1   4  188.66    4.05
   1   1  -4  176.11    4.08
  -1  -1   4  179.94    4.14
   1   1  -4  179.20    3.87
  -1  -1   4  183.50    4.05
   1   1  -3    1.41    0.26
  -1  -1   3    1.12    0.25
   1   1  -3    1.13    0.20
  -1  -1   3    1.30    0.21
  -1  -1   3    1.22    0.25
  -1  -1   3    1.72    0.26
  -1  -1   2   49.76    1.33
   1   1  -2   45.42    1.18
  -1  -1   2   47.73    1.20
  -1  -1   1  664.71   11.57
   1   1  -1  643.29   11.62
   1   1  -1  631.80   11.47
   1   1  -1  620.93   11.61
   1   1   0  548.11    9.65
  -1  -1   0  534.56    9.64
   1   1   0  531.27    9.69
   1   1   0  528.66    9.52
   1   1   1   29.29    0.81
   1   1   1   28.37    0.60
  -1  -1  -1   28.64    0.79
  -1  -1  -1   29.15    0.73
  -1  -1  -1   28.50    0.79
  -1  -1  -1   28.83    0.59
  -1  -1  -2   15.26    0.54
  -1  -1  -2   15.50    0.60
   1   1   2   14.07    0.53
   1   1   2   15.77    0.54
   1   1   2   15.79    0.62
   1   1   2   14.59    0.59
  -1  -1  -2   15.67    0.61
  -1  -1  -2   15.41    0.48
   1   1   3    3.97    0.35
  -1  -1  -3    4.04    0.32
  -1  -1  -3    5.05    0.38
   1   1   3    3.60    0.31
  -1  -1  -3    4.58    0.31
   1   1   3    4.26    0.38
   1   1   3    4.11    0.37
   1   1   3    3.86    0.34
  -1  -1  -4   21.82    0.93
   1   1   4   21.14    0.86
  -1  -1  -4   20.64    0.84
   1   1   4   22.14    0.92
   1   1   4   19.25    0.87
  -1  -1  -4   21.15    0.92
   1   1   4   20.56    0.89
   1   1   4   21.70    0.95
   1   1   4   20.54    0.90
   1   1   4   22.24    0.88
  -1  -1  -4   22.41    0.82
   1   1   5   48.09    1.58
   1   1   5   46.39    1.68
   1   1   5   47.97    1.61
   1   1   5   51.59    1.68
  -1  -1  -5   51.19    1.75
  -1  -1  -5   51.44    1.58
   1   1   5   51.65    1.75
  -1  -1  -5   51.24    1.59
   1   1   5   50.87    1.67
   1   1   5   51.68    1.66
  -1  -1  -5   51.37    1.53
  -1  -1  -5   49.16    1.69
   1   1   5   50.83    1.65
  -1  -1  -6   43.29    1.59
   1   1   6   42.97    1.69
  -1  -1  -6   43.12    1.53
  -1  -1  -6   40.86    1.27
   1   1   6   43.26    1.69
   1   1   6   39.07    1.70
   1   1   6   47.67    1.72
   1   1   6   43.87    1.62
  -1  -1  -6   41.84    1.78
  -1  -1  -7   30.96    1.66
   1   1   7   29.38    1.32
  -1  -1  -7   28.06    1.39
   1   1   7   28.48    1.56
   1   1   7   27.45    1.49
  -1  -1  -7   29.96    1.39
   1   1   7   30.71    1.48
   1   1   7   28.47    1.18
   1   1   7   28.56    1.38
  -1  -1  -7   28.75    1.13
  -1  -1  -8   85.17    2.85
  -1  -1  -8   84.01    2.87
  -1  -1  -8   83.70    2.48
   1   1   8   86.86    3.10
   1   1   8   84.03    2.66
   1   1   8   86.70    2.92
  -1  -1  -8   83.49    3.25
   1   1   8   85.55    3.17
   1   1   8   84.05    2.85
   1   1   8   88.88    2.56
  -1  -1  -9   23.95    1.44
   1   1   9   22.62    1.38
   1   1   9   23.36    1.26
  -1  -1  -9   24.71    1.23
  -1  -1  -9   24.37    1.71
   1   1   9   23.17    1.61
   1   1   9   22.27    1.54
  -1  -1 -10    0.72    0.45
  -1  -1 -10    0.84    0.46
   1   1  10    0.54    0.30
  -1  -1 -10    1.38    0.41
   1   1  10    1.31    0.48
   1   1  11    1.35    0.42
   1   1  11    1.36    0.38
  -1  -1 -11    1.16    0.42
   1   1  11    0.78    0.39
   1   1  11    0.95    0.37
  -1  -1 -11    0.61    0.32
  -1  -1 -11    1.73    0.49
   1   1  12   27.40    1.38
   1   1  12   24.76    1.18
  -1  -1 -12   25.63    1.36
   1   1  12   26.18    1.31
  -1  -1 -12   24.91    1.31
   1   2 -11  161.49    4.05
   1   2 -11  165.66    4.35
  -1  -2  11  162.58    4.33
   1   2 -11  159.53    3.94
  -1  -2  11  161.55    4.03
  -1  -2  10  209.00    5.58
  -1  -2  10  205.83    5.36
   1   2 -10  196.51    5.51
   1   2 -10  196.74    5.19
   1   2 -10  198.44    5.26
  -1  -2  10  196.66    4.76
   1   2 -10  202.38    5.57
   1   2 -10  205.20    5.58
   1   2  -9    0.81    0.38
  -1  -2   9    0.38    0.35
   1   2  -9    0.46    0.38
   1   2  -9    0.43    0.35
  -1  -2   9    0.38    0.33
  -1  -2   9    0.72    0.29
   1   2  -9   -0.11    0.34
  -1  -2   8   35.75    1.96
   1   2  -8   36.67    1.94
   1   2  -8   33.28    1.90
  -1  -2   8   34.93    1.64
   1   2  -8   33.22    1.96
  -1  -2   8   30.89    1.83
   1   2  -8   35.36    2.03
   1   2  -7  194.47    5.32
   1   2  -7  203.85    5.53
   1   2  -7  198.51    5.28
   1   2  -7  202.77    5.34
  -1  -2   7  196.20    5.36
  -1  -2   7  201.06    5.33
  -1  -2   7  198.38    4.84
   1   2  -7  195.47    5.47
  -1  -2   6   67.59    2.46
   1   2  -6   67.29    2.44
   1   2  -6   70.31    2.45
   1   2  -6   68.09    2.54
   1   2  -6   65.66    2.50
  -1  -2   6   63.84    2.10
  -1  -2   6   71.73    2.48
  -1  -2   5  121.58    3.26
   1   2  -5  112.26    2.94
  -1  -2   5  114.19    3.12
   1   2  -5  113.75    3.15
   1   2  -5  109.81    3.22
  -1  -2   5  112.17    2.67
  -1  -2   5  115.83    2.86
   1   2  -5  113.64    2.70
  -1  -2   5  113.16    3.04
   1   2  -5  114.56    3.24
   1   2  -4   74.00    1.84
   1   2  -4   74.10    2.18
   1   2  -4   81.02    2.29
  -1  -2   4   72.24    1.80
  -1  -2   4   77.67    2.13
   1   2  -4   74.91    2.05
  -1  -2   4   69.77    1.54
   1   2  -4   69.33    2.08
  -1  -2   4   72.39    2.06
   1   2  -4   74.28    2.20
  -1  -2   4   66.76    2.16
  -1  -2   4   69.98    2.07
  -1  -2   4   71.96    1.80
   1   2  -3   87.90    2.41
  -1  -2   3   89.09    2.41
   1   2  -3   88.64    2.29
   1   2  -3   90.69    2.28
   1   2  -3   96.18    2.03
  -1  -2   3   89.23    1.98
   1   2  -3   91.29    2.26
  -1  -2   3   87.77    2.26
   1   2  -3   86.05    2.30
  -1  -2   3   87.56    2.30
   1   2  -2  177.05    3.39
  -1  -2   2  176.74    3.82
   1   2  -2  180.73    3.71
  -1  -2   2  181.93    3.69
  -1  -2   1  206.17    4.10
  -1  -2   1  207.26    3.97
   1   2  -1  206.35    4.10
   1   2  -1  192.52    4.03
  -1  -2   1  198.32    4.13
   1   2  -1  207.88    3.74
   1   2   0   44.61    0.99
  -1  -2   0   43.09    1.20
   1   2   0   45.07    1.23
  -1  -2   0   46.34    1.26
  -1  -2   0   46.59    0.98
   1   2   1   10.14    0.43
   1   2   1    9.47    0.50
  -1  -2  -1    9.77    0.50
  -1  -2  -1    9.55    0.50
  -1  -2  -1    9.53    0.49
   1   2   2   23.86    0.89
  -1  -2  -2   24.93    0.86
   1   2   2   25.31    0.86
   1   2   2   24.43    0.87
  -1  -2  -2   26.06    0.61
  -1  -2  -2   23.87    0.80
  -1  -2  -3    3.33    0.33
   1   2   3    2.78    0.31
  -1  -2  -3    3.15    0.33
  -1  -2  -3    2.69    0.32
   1   2   3    3.45    0.34
  -1  -2  -3    2.61    0.29
   1   2   3    2.93    0.32
  -1  -2  -3    3.47    0.24
   1   2   3    2.98    0.34
  -1  -2  -4  136.96    3.21
  -1  -2  -4  140.97    2.97
   1   2   4  135.53    3.26
  -1  -2  -4  146.59    3.37
   1   2   4  146.19    3.38
   1   2   4  133.68    3.24
  -1  -2  -4  138.81    3.24
   1   2   4  143.60    3.34
   1   2   4  141.05    3.36
   1   2   4  139.98    3.27
   1   2   5    2.15    0.34
   1   2   5    2.80    0.41
  -1  -2  -5    2.37    0.28
   1   2   5    2.40    0.37
  -1  -2  -5    2.19    0.32
   1   2   5    2.28    0.40
   1   2   5    1.91    0.31
  -1  -2  -5    1.64    0.30
  -1  -2  -5    2.10    0.14
   1   2   5    2.69    0.42
  -1  -2  -5    2.29    0.40
   1   2   5    1.98    0.35
  -1  -2  -6    0.85    0.20
  -1  -2  -6    1.03    0.27
   1   2   6    0.74    0.29
   1   2   6    1.09    0.33
   1   2   6    0.80    0.29
  -1  -2  -6    1.12    0.30
  -1  -2  -6    1.08    0.35
   1   2   6    1.34    0.34
   1   2   6    0.64    0.27
   1   2   7    0.79    0.33
   1   2   7    1.05    0.39
   1   2   7    1.11    0.33
   1   2   7    1.01    0.36
   1   2   7    0.62    0.28
  -1  -2  -7    1.02    0.36
  -1  -2  -7    0.79    0.30
   1   2   8   10.34    0.89
  -1  -2  -8    9.28    1.02
   1   2   8    9.27    0.94
   1   2   8   10.25    0.97
   1   2   8    8.37    0.88
  -1  -2  -8    9.57    0.90
   1   2   8    8.97    0.98
  -1  -2  -9   16.36    1.22
  -1  -2  -9   14.52    1.34
   1   2   9   13.24    1.07
   1   2   9   16.13    1.26
   1   2   9   13.79    1.18
   1   2   9   15.65    1.36
   1   2  10   12.45    1.22
  -1  -2 -10   12.24    1.04
   1   2  10   13.68    1.00
   1   2  10   13.66    1.13
   1   2  10   15.60    1.27
   1   2  10   16.32    1.27
  -1  -2 -10   14.17    1.33
   1   2  11    0.57    0.29
  -1  -2 -11    0.32    0.30
   1   2  11    0.28    0.30
  -1  -2 -11    0.27    0.23
   1   2  11    0.75    0.36
   1   2  11    0.24    0.29
  -1  -2 -11   -0.04    0.31
   1   2  12   24.98    1.12
   1   2  12   27.32    1.35
   1   2  12   25.12    1.31
  -1  -2 -12   26.51    1.30
  -1  -2 -12   25.86    1.36
  -1  -3  11   88.24    2.56
   1   3 -11   85.69    2.64
  -1  -3  11   83.14    2.57
   1   3 -10   51.56    2.36
   1   3 -10   48.57    1.96
  -1  -3  10   46.50    2.10
  -1  -3  10   49.12    2.13
   1   3 -10   46.71    2.16
  -1  -3  10   49.19    1.84
   1   3 -10   50.98    2.17
  -1  -3   9    2.00    0.57
   1   3  -9    1.15    0.47
   1   3  -9    2.33    0.52
   1   3  -9    1.33    0.54
  -1  -3   9    1.44    0.47
   1   3  -8    8.35    0.93
   1   3  -8    7.94    0.75
   1   3  -8    7.51    0.98
  -1  -3   8    7.83    0.89
  -1  -3   8    7.76    0.93
   1   3  -8    8.81    1.00
   1   3  -8    6.52    0.90
   1   3  -7  147.54    4.53
  -1  -3   7  146.86    4.35
   1   3  -7  153.61    4.05
   1   3  -7  149.93    4.50
   1   3  -7  150.87    4.72
  -1  -3   7  153.09    4.57
   1   3  -7  153.61    4.65
  -1  -3   7  156.24    3.78
   1   3  -7  152.96    4.58
  -1  -3   6  123.97    3.78
   1   3  -6  123.71    3.77
   1   3  -6  128.86    3.82
  -1  -3   6  122.86    3.60
  -1  -3   6  129.61    3.11
   1   3  -6  120.58    3.87
   1   3  -6  125.48    3.78
   1   3  -5    3.38    0.50
  -1  -3   5    3.31    0.34
   1   3  -5    2.92    0.50
   1   3  -5    3.29    0.40
   1   3  -5    2.58    0.44
  -1  -3   5    3.25    0.45
   1   3  -5    2.74    0.47
   1   3  -4   39.87    1.64
  -1  -3   4   38.57    1.43
  -1  -3   4   39.81    1.13
  -1  -3   4   39.03    1.41
  -1  -3   4   40.32    1.58
   1   3  -4   36.81    1.59
   1   3  -4   41.10    1.61
   1   3  -4   40.52    1.56
   1   3  -4   39.92    1.39
  -1  -3   3   20.56    0.89
   1   3  -3   19.83    0.97
   1   3  -3   20.64    1.07
   1   3  -3   20.22    0.87
   1   3  -3   21.64    0.98
  -1  -3   3   19.20    0.80
   1   3  -3   20.36    1.01
  -1  -3   3   19.75    0.99
  -1  -3   3   20.66    0.79
  -1  -3   2    1.07    0.20
   1   3  -2    1.49    0.26
   1   3  -2    0.70    0.23
   1   3  -2    1.36    0.24
  -1  -3   2    1.66    0.28
  -1  -3   2    1.13    0.27
  -1  -3   1   42.03    1.09
  -1  -3   1   40.34    1.21
  -1  -3   1   38.65    1.20
  -1  -3   1   38.40    1.30
   1   3  -1   39.01    1.14
  -1  -3   0   13.68    0.70
   1   3   0   13.57    0.39
  -1  -3   0   13.65    0.46
  -1  -3   0   12.81    0.63
   1   3   0   12.37    0.64
  -1  -3  -1    6.79    0.50
   1   3   1    8.12    0.40
   1   3   1    7.18    0.52
  -1  -3  -1    7.43    0.51
  -1  -3  -1    7.61    0.50
   1   3   1    7.71    0.51
  -1  -3  -1    7.41    0.27
  -1  -3  -1    8.35    0.42
  -1  -3  -2    2.55    0.33
  -1  -3  -2    2.78    0.33
   1   3   2    2.63    0.34
  -1  -3  -2    3.02    0.26
  -1  -3  -2    2.35    0.32
   1   3   2    2.80    0.30
  -1  -3  -2    2.86    0.17
  -1  -3  -3    3.04    0.34
  -1  -3  -3    3.47    0.23
  -1  -3  -3    3.84    0.33
   1   3   3    3.36    0.37
  -1  -3  -3    3.57    0.40
  -1  -3  -3    3.33    0.39
   1   3   3    3.44    0.39
   1   3   3    4.56    0.45
   1   3   3    3.66    0.39
   1   3   4   43.41    1.60
  -1  -3  -4   40.52    1.21
   1   3   4   39.77    1.46
  -1  -3  -4   40.49    1.33
  -1  -3  -4   38.59    1.48
  -1  -3  -4   40.79    1.11
  -1  -3  -4   38.92    1.36
  -1  -3  -4   40.77    1.45
   1   3   4   39.71    1.47
   1   3   4   39.20    1.48
   1   3   4   39.92    1.55
   1   3   5  116.55    2.98
   1   3   5  116.80    3.19
  -1  -3  -5  118.31    2.89
  -1  -3  -5  114.84    3.08
   1   3   5  117.18    3.07
   1   3   5  120.11    3.40
  -1  -3  -5  119.05    3.31
   1   3   5  107.19    3.32
   1   3   5  120.51    2.94
  -1  -3  -5  117.95    2.51
  -1  -3  -5  115.63    2.58
   1   3   6    1.79    0.31
   1   3   6    0.93    0.31
   1   3   6    1.55    0.36
   1   3   6    1.61    0.36
   1   3   6    1.12    0.34
   1   3   6    1.34    0.43
  -1  -3  -6    0.72    0.31
   1   3   6    1.92    0.45
   1   3   7    4.46    0.68
   1   3   7    4.39    0.67
   1   3   7    4.13    0.57
   1   3   7    4.27    0.61
   1   3   7    4.61    0.62
   1   3   7    4.80    0.66
  -1  -3  -7    3.92    0.59
   1   3   7    4.62    0.73
  -1  -3  -7    4.20    0.69
  -1  -3  -8  158.40    4.89
  -1  -3  -8  154.10    4.54
   1   3   8  153.53    4.63
   1   3   8  157.87    4.51
   1   3   8  157.16    4.37
   1   3   8  154.18    4.48
   1   3   8  158.53    4.75
   1   3   8  154.36    4.83
   1   3   8  153.33    4.87
   1   3   9   80.41    3.04
   1   3   9   77.36    3.11
   1   3   9   69.81    3.11
   1   3   9   76.88    3.15
  -1  -3  -9   73.12    2.89
  -1  -3  -9   73.68    3.17
   1   3   9   80.01    2.97
   1   3   9   75.16    2.73
   1   3  10    1.75    0.45
   1   3  10    1.93    0.53
   1   3  10    2.03    0.54
   1   3  10    1.48    0.45
   1   3  10    1.20    0.49
  -1  -3 -10    1.74    0.45
  -1  -3 -10    2.75    0.63
   1   3  11    0.33    0.31
   1   3  11    0.08    0.21
  -1  -3 -11    0.33    0.24
  -1  -3 -11    0.58    0.32
  -1  -3 -11    0.28    0.29
   1   3  11    0.17    0.26
   1   3  11    0.09    0.28
   1   3  12   32.40    1.37
  -1  -3 -12   33.12    1.46
   1   3  12   34.48    1.49
   1   3  12   34.33    1.43
   1   4 -11   73.92    2.27
  -1  -4  10   52.68    2.12
   1   4 -10   53.78    1.80
   1   4 -10   52.26    2.30
  -1  -4  10   57.33    2.04
   1   4 -10   53.62    2.26
  -1  -4  10   54.31    1.95
  -1  -4   9    0.74    0.38
  -1  -4   9    1.08    0.37
   1   4  -9    0.71    0.27
   1   4  -9    1.07    0.47
   1   4  -9    1.02    0.48
   1   4  -8    3.46    0.64
  -1  -4   8    3.06    0.55
   1   4  -8    3.37    0.69
   1   4  -8    3.27    0.57
  -1  -4   8    2.29    0.56
   1   4  -7  107.26    3.38
  -1  -4   7  106.44    3.38
  -1  -4   7  103.49    3.62
   1   4  -7  111.05    3.84
   1   4  -7  100.89    3.51
   1   4  -7  101.64    3.58
   1   4  -7  104.39    3.71
   1   4  -6   50.99    2.13
   1   4  -6   51.11    2.28
  -1  -4   6   48.74    2.22
  -1  -4   6   49.80    2.02
   1   4  -6   48.93    2.24
   1   4  -6   50.64    2.19
   1   4  -6   55.55    2.33
   1   4  -5    6.14    0.67
   1   4  -5    5.19    0.61
  -1  -4   5    6.15    0.59
   1   4  -5    6.32    0.73
   1   4  -4    6.51    0.46
   1   4  -4    6.46    0.49
   1   4  -4    6.32    0.47
   1   4  -4    7.26    0.71
  -1  -4   4    5.25    0.53
   1   4  -4    6.00    0.62
  -1  -4   4    6.01    0.53
   1   4  -3   88.36    2.31
  -1  -4   3   84.39    2.28
  -1  -4   3   85.47    2.22
  -1  -4   3   82.89    2.45
  -1  -4   3   84.52    2.14
   1   4  -3   91.51    2.55
  -1  -4   3   83.53    2.55
   1   4  -3   87.53    2.29
   1   4  -3   85.96    2.65
   1   4  -3   85.66    2.29
   1   4  -2  144.44    3.28
  -1  -4   2  137.32    3.26
   1   4  -2  143.21    3.31
  -1  -4   2  136.90    3.10
   1   4  -2  133.67    3.50
  -1  -4   2  130.58    3.24
   1   4  -2  141.10    3.29
   1   4  -2  137.96    3.28
  -1  -4   2  132.60    3.43
  -1  -4   1    3.58    0.34
  -1  -4   1    4.06    0.31
   1   4  -1    3.45    0.38
  -1  -4   1    3.59    0.35
   1   4  -1    3.40    0.40
  -1  -4   1    4.56    0.47
   1   4  -1    3.16    0.39
  -1  -4   0   93.10    2.53
  -1  -4   0   95.11    2.03
  -1  -4   0   89.28    2.35
   1   4   0   95.16    2.50
  -1  -4   0   90.37    2.55
   1   4   0   99.56    2.53
   1   4   0   94.89    2.41
  -1  -4   0   92.53    2.16
   1   4   1   76.40    2.16
  -1  -4  -1   72.14    2.06
   1   4   1   76.20    2.16
   1   4   1   76.42    1.76
  -1  -4  -1   71.35    2.17
  -1  -4  -1   73.65    1.61
   1   4   1   74.96    2.20
  -1  -4  -1   73.27    2.15
   1   4   2   16.44    0.86
   1   4   2   17.26    0.77
  -1  -4  -2   15.84    0.85
  -1  -4  -2   16.82    0.50
   1   4   2   16.14    0.86
   1   4   2   16.89    0.81
   1   4   2   16.84    0.92
  -1  -4  -2   15.89    0.60
  -1  -4  -2   15.68    0.88
  -1  -4  -2   15.63    0.85
  -1  -4  -3  111.61    2.83
  -1  -4  -3  115.38    2.51
  -1  -4  -3  107.56    2.53
   1   4   3  111.03    2.64
   1   4   3  119.16    3.08
   1   4   3  119.72    2.91
  -1  -4  -3  115.83    2.30
   1   4   3  111.51    2.86
  -1  -4  -3  110.26    2.97
  -1  -4  -3  113.76    2.29
   1   4   3  112.50    3.04
  -1  -4  -3  108.66    2.85
   1   4   3  111.96    2.87
  -1  -4  -3  107.42    2.95
  -1  -4  -4   33.42    1.07
  -1  -4  -4   31.04    1.36
  -1  -4  -4   28.21    1.09
   1   4   4   33.17    1.56
   1   4   4   31.46    1.20
   1   4   4   29.81    1.17
   1   4   4   28.72    1.30
   1   4   4   33.03    1.40
   1   4   4   28.38    1.32
  -1  -4  -4   34.46    1.32
   1   4   5   24.58    1.42
   1   4   5   25.10    1.26
   1   4   5   26.67    1.55
   1   4   5   25.02    1.30
   1   4   5   26.85    1.47
   1   4   5   26.41    1.08
   1   4   5   24.55    1.23
  -1  -4  -5   24.79    1.35
  -1  -4  -5   24.66    1.08
   1   4   6    0.29    0.36
   1   4   6    0.40    0.29
   1   4   6    0.86    0.37
  -1  -4  -6    0.38    0.28
   1   4   6    0.52    0.25
   1   4   6    0.24    0.35
   1   4   6    0.17    0.35
   1   4   6    0.56    0.28
   1   4   7    1.03    0.44
   1   4   7    0.85    0.46
   1   4   7    0.18    0.30
  -1  -4  -7    1.15    0.45
  -1  -4  -7    0.43    0.30
   1   4   7    0.89    0.48
   1   4   7    0.06    0.40
   1   4   7    0.71    0.37
  -1  -4  -8   75.57    3.07
   1   4   8   82.96    3.04
  -1  -4  -8   74.33    2.95
   1   4   8   67.33    3.09
   1   4   8   67.62    3.05
   1   4   8   79.44    3.08
   1   4   8   68.36    3.12
   1   4   9   43.89    2.20
  -1  -4  -9   47.24    2.39
   1   4   9   47.36    2.43
   1   4   9   45.19    2.28
   1   4   9   45.29    2.40
  -1  -4  -9   46.72    2.23
   1   4  10    0.79    0.39
   1   4  10    0.58    0.40
  -1  -4 -10   -0.09    0.29
   1   4  10    0.78    0.38
  -1  -4 -10    1.36    0.49
   1   4  10   -0.05    0.33
  -1  -4 -11    0.33    0.29
   1   4  11   -0.53    0.27
  -1  -4 -11    0.68    0.25
   1   4  11    0.45    0.31
   1   4  11    0.32    0.25
  -1  -4 -11    0.64    0.30
   1   4  11    0.54    0.31
   1   4  11    0.15    0.23
   1   5 -10   69.14    2.42
  -1  -5  10   73.08    2.33
  -1  -5  10   74.28    2.17
   1   5 -10   73.48    2.48
  -1  -5   9   27.76    1.54
   1   5  -9   28.73    1.66
   1   5  -9   26.06    1.60
   1   5  -9   24.48    1.24
  -1  -5   9   26.66    1.26
  -1  -5   9   27.22    1.49
   1   5  -8    0.50    0.45
   1   5  -8   -0.10    0.38
   1   5  -8   -0.03    0.31
  -1  -5   8    0.55    0.33
   1   5  -8    0.21    0.36
  -1  -5   8    0.43    0.29
   1   5  -7   66.02    2.85
  -1  -5   7   69.61    2.82
   1   5  -7   70.27    2.81
  -1  -5   7   67.25    2.39
   1   5  -7   69.27    2.83
   1   5  -6  128.59    4.19
  -1  -5   6  125.37    4.02
   1   5  -6  131.56    4.15
  -1  -5   6  130.61    3.56
   1   5  -6  134.45    4.20
   1   5  -6  128.29    4.11
   1   5  -5    5.36    0.76
   1   5  -5    5.77    0.72
  -1  -5   5    4.91    0.65
  -1  -5   5    4.84    0.53
   1   5  -5    3.31    0.57
   1   5  -5    5.68    0.77
   1   5  -4    0.26    0.29
   1   5  -4    0.15    0.27
   1   5  -4   -0.09    0.19
  -1  -5   4    0.54    0.21
   1   5  -4    0.33    0.19
   1   5  -4    0.75    0.31
   1   5  -3   43.25    1.95
   1   5  -3   39.51    1.44
   1   5  -3   37.81    1.50
   1   5  -3   39.31    1.40
   1   5  -3   42.11    1.89
   1   5  -3   40.84    1.61
   1   5  -3   42.79    1.62
   1   5  -3   40.79    1.49
   1   5  -2   39.21    1.43
   1   5  -2   43.24    1.78
   1   5  -2   39.43    1.63
   1   5  -2   41.47    1.50
   1   5  -2   39.37    1.46
   1   5  -2   39.67    1.62
  -1  -5   2   40.38    1.27
   1   5  -1   72.49    2.39
  -1  -5   1   68.36    2.29
   1   5  -1   75.00    2.42
  -1  -5   1   75.83    1.87
   1   5  -1   67.28    2.02
  -1  -5   1   73.30    2.38
  -1  -5   1   71.74    1.80
  -1  -5   0    8.19    0.56
  -1  -5   0    9.52    0.44
  -1  -5   0    9.54    0.75
  -1  -5   0    8.44    0.42
   1   5   0    9.01    0.76
   1   5   0    8.41    0.75
  -1  -5   0    7.58    0.66
   1   5   1   42.21    1.74
  -1  -5  -1   40.12    1.43
  -1  -5  -1   38.70    1.61
  -1  -5  -1   42.52    1.04
   1   5   1   41.65    1.73
  -1  -5  -1   42.15    1.61
  -1  -5  -2   40.98    1.60
  -1  -5  -2   46.04    1.76
   1   5   2   45.02    1.82
   1   5   2   47.23    1.85
   1   5   2   46.49    1.40
   1   5   3    1.54    0.35
   1   5   3    0.56    0.28
  -1  -5  -3    0.68    0.22
   1   5   3    0.66    0.23
   1   5   3    1.18    0.35
   1   5   3    0.54    0.23
   1   5   3    0.94    0.33
   1   5   3    0.48    0.23
   1   5   3    0.99    0.23
   1   5   3    0.75    0.28
   1   5   3    0.93    0.28
  -1  -5  -3    0.39    0.22
   1   5   4    3.35    0.43
   1   5   4    2.87    0.45
   1   5   4    3.27    0.41
   1   5   4    3.26    0.59
   1   5   4    5.18    0.57
   1   5   4    2.86    0.42
   1   5   4    3.82    0.54
   1   5   4    2.94    0.40
   1   5   4    2.97    0.54
   1   5   4    4.53    0.52
   1   5   4    2.81    0.48
   1   5   5   17.00    1.14
   1   5   5   16.81    0.92
   1   5   5   18.48    1.08
   1   5   5   17.29    1.39
   1   5   5   16.36    1.12
   1   5   5   16.16    1.14
   1   5   5   18.27    1.36
  -1  -5  -5   17.97    1.18
   1   5   5   15.54    0.90
   1   5   6    8.85    0.89
   1   5   6    7.65    0.74
   1   5   6    7.94    1.00
   1   5   6    5.37    0.75
   1   5   6    6.84    0.85
  -1  -5  -6    6.49    0.77
  -1  -5  -7   21.68    1.49
   1   5   7   21.74    1.22
   1   5   7   23.31    1.52
   1   5   7   24.81    1.68
   1   5   7   20.51    1.51
   1   5   8   31.94    2.05
  -1  -5  -8   30.14    1.81
   1   5   8   31.41    1.93
   1   5   8   31.04    1.81
  -1  -5  -8   33.96    1.90
   1   5   8   26.93    1.79
   1   5   9   11.20    1.13
   1   5   9   11.87    1.09
   1   5   9   12.22    1.22
  -1  -5  -9   12.46    1.10
  -1  -5  -9   12.50    1.10
   1   5   9   12.72    1.17
   1   5  10    4.33    0.65
   1   5  10    3.81    0.66
   1   5  10    3.35    0.57
   1   5  10    3.42    0.60
   1   5  10    3.04    0.55
  -1  -5 -10    3.63    0.55
  -1  -5 -10    3.20    0.54
   1   5  11    3.68    0.54
   1   5  11    3.60    0.49
   1   5  11    3.75    0.49
  -1  -5 -11    4.05    0.44
   1   5  11    4.88    0.52
  -1  -6   9    1.23    0.32
   1   6  -9    0.85    0.32
  -1  -6   9    1.18    0.30
   1   6  -9    1.00    0.29
   1   6  -9    1.21    0.27
   1   6  -8    3.11    0.53
   1   6  -8    2.29    0.48
  -1  -6   8    2.08    0.44
   1   6  -8    2.54    0.53
   1   6  -7   25.67    1.59
   1   6  -7   24.41    1.61
  -1  -6   7   24.25    1.48
   1   6  -7   23.28    1.62
   1   6  -6  136.02    4.26
  -1  -6   6  135.34    4.10
   1   6  -6  142.26    4.63
   1   6  -5    7.57    0.84
  -1  -6   5    5.55    0.69
   1   6  -5    6.34    0.92
   1   6  -5    6.85    0.82
   1   6  -4   10.16    1.14
   1   6  -4    9.68    0.88
  -1  -6   4   10.28    0.85
   1   6  -4   11.72    0.94
   1   6  -4    9.03    0.76
   1   6  -4   10.52    0.76
   1   6  -3   51.81    2.08
  -1  -6   3   51.41    1.85
   1   6  -3   47.10    1.94
   1   6  -3   50.38    1.97
   1   6  -3   52.70    2.08
   1   6  -3   49.47    2.44
   1   6  -2   94.25    2.90
   1   6  -2   92.04    2.94
  -1  -6   2   91.88    2.45
   1   6  -2  103.18    3.24
   1   6  -2   91.99    3.23
   1   6  -2   93.20    3.12
   1   6  -1    8.24    0.78
   1   6  -1    8.27    0.68
   1   6  -1    8.74    0.88
   1   6  -1    8.82    0.88
   1   6  -1    8.44    0.80
   1   6  -1    7.22    0.76
   1   6  -1    8.97    0.77
   1   6   0   41.27    1.66
   1   6   0   40.84    2.00
   1   6   0   41.05    1.72
   1   6   0   40.01    1.96
   1   6   0   43.88    1.84
   1   6   0   41.69    1.75
   1   6   0   39.21    1.59
   1   6   0   40.83    1.85
   1   6   1   13.95    0.85
   1   6   1   15.35    1.03
   1   6   1   16.77    1.25
   1   6   1   17.16    1.03
   1   6   1   16.73    1.14
   1   6   1   16.22    1.11
   1   6   1   16.37    1.04
   1   6   1   16.18    1.24
   1   6   2   42.16    1.82
   1   6   2   43.15    1.79
   1   6   2   45.34    2.10
   1   6   2   43.31    1.62
   1   6   2   42.53    1.72
   1   6   2   45.50    2.00
   1   6   2   45.61    2.10
   1   6   2   43.98    1.93
   1   6   2   44.93    1.81
   1   6   3   63.20    2.29
   1   6   3   66.59    2.43
   1   6   3   65.89    2.61
   1   6   3   67.19    2.57
   1   6   3   65.41    2.29
   1   6   3   66.67    2.42
   1   6   3   62.53    2.34
   1   6   3   60.63    2.45
   1   6   3   62.04    2.35
   1   6   4   10.32    0.88
   1   6   4   11.54    1.01
   1   6   4   10.55    1.06
   1   6   4   11.95    0.99
   1   6   4   12.32    0.98
   1   6   4   11.72    0.91
   1   6   4   12.68    1.03
   1   6   4   11.45    0.95
   1   6   4    9.60    0.88
  -1  -6  -4   13.43    0.92
   1   6   5    2.24    0.50
   1   6   5    2.40    0.44
   1   6   5    1.92    0.48
   1   6   5    2.51    0.64
   1   6   5    2.24    0.49
  -1  -6  -5    1.88    0.42
   1   6   5    1.19    0.38
   1   6   5    1.49    0.45
   1   6   5    1.94    0.39
   1   6   6   93.12    3.37
   1   6   6   90.83    3.60
  -1  -6  -6   90.40    2.89
   1   6   6   86.87    3.22
   1   6   6   79.24    2.83
   1   6   7    4.29    0.61
   1   6   7    4.03    0.83
   1   6   7    2.97    0.64
   1   6   7    2.76    0.60
   1   6   7    3.63    0.74
  -1  -6  -7    2.57    0.55
   1   6   8    9.89    1.10
  -1  -6  -8    9.87    1.02
   1   6   8   10.43    1.17
   1   6   8   10.56    1.04
   1   6   8   11.43    1.14
  -1  -6  -8    9.20    0.90
  -1  -6  -9   57.72    2.37
   1   6   9   56.55    2.37
   1   6   9   62.61    2.64
   1   6   9   64.86    2.69
  -1  -6  -9   60.15    2.14
   1   6   9   61.33    2.67
   1   6  10   13.93    0.96
  -1  -6 -10   15.12    0.94
   1   6  10   15.71    1.06
   1   6  10   15.90    1.15
   1   6  10   16.09    1.12
  -1  -7   8    0.77    0.28
   1   7  -8    1.04    0.28
  -1  -7   8    1.42    0.28
   1   7  -8    0.88    0.27
   1   7  -7   19.44    1.33
   1   7  -7   19.04    1.23
  -1  -7   7   17.17    1.03
   1   7  -6   57.79    2.16
  -1  -7   6   54.52    2.07
   1   7  -6   57.30    2.43
   1   7  -6   59.07    2.69
  -1  -7   5    3.18    0.50
   1   7  -5    2.67    0.72
   1   7  -5    3.14    0.60
   1   7  -4   44.95    1.83
   1   7  -4   40.55    2.51
   1   7  -4   42.61    1.75
   1   7  -4   40.49    2.02
  -1  -7   4   46.02    1.75
   1   7  -3    0.89    0.38
   1   7  -3    1.33    0.41
   1   7  -3    1.43    0.62
   1   7  -3    1.43    0.44
   1   7  -2   91.94    3.62
   1   7  -2   97.62    3.33
   1   7  -2  100.40    3.53
   1   7  -2  103.53    3.44
   1   7  -1    0.87    0.44
   1   7  -1    1.47    0.48
   1   7  -1    2.30    0.53
   1   7  -1    1.16    0.45
   1   7  -1    1.03    0.37
   1   7  -1    1.38    0.45
   1   7  -1    1.07    0.43
   1   7   0    3.25    0.55
   1   7   0    3.16    0.57
   1   7   0    3.02    0.61
   1   7   0    2.75    0.63
   1   7   0    2.51    0.53
   1   7   0    2.10    0.55
   1   7   0    3.40    0.62
   1   7   1    8.14    1.04
   1   7   1    7.34    0.81
   1   7   1    8.13    0.98
   1   7   1    7.30    0.84
   1   7   1    9.07    1.06
   1   7   1    7.59    0.83
   1   7   1    8.18    0.92
   1   7   2   39.89    1.96
   1   7   2   42.64    2.22
   1   7   2   42.17    2.02
   1   7   2   40.96    1.77
   1   7   2   40.94    2.14
   1   7   2   44.84    2.06
   1   7   2   41.63    2.27
   1   7   2   42.33    2.28
   1   7   3   45.60    2.12
   1   7   3   48.13    2.20
   1   7   3   50.54    2.39
   1   7   3   45.70    2.16
   1   7   3   48.35    2.39
   1   7   3   49.91    2.32
   1   7   3   48.13    2.00
   1   7   3   44.90    2.02
   1   7   4    7.82    0.85
   1   7   4    9.16    0.97
   1   7   4    9.92    0.99
   1   7   4    9.11    1.11
   1   7   4    9.15    0.91
   1   7   4    8.17    0.87
   1   7   4    8.56    0.95
   1   7   5    8.74    0.95
   1   7   5    7.42    0.76
   1   7   5    8.72    0.83
   1   7   5    9.14    0.98
   1   7   5    8.09    0.92
   1   7   5    9.22    0.98
   1   7   5    9.99    1.18
   1   7   6   18.39    1.37
   1   7   6   18.46    1.59
   1   7   6   17.62    1.32
   1   7   6   16.40    1.32
   1   7   6   17.36    1.38
   1   7   7   27.78    1.76
   1   7   7   30.32    1.71
   1   7   7   30.24    1.61
   1   7   7   32.12    2.03
   1   7   7   33.06    1.90
   1   7   8   26.19    1.61
  -1  -7  -8   26.47    1.53
   1   7   8   27.88    1.73
   1   7   8   25.22    1.47
   1   7   8   26.21    1.59
  -1  -7  -9   12.90    0.89
   1   7   9   13.23    1.01
   1   7   9   13.16    1.01
   1   7   9   13.98    1.04
   1   7   9   14.33    0.94
   1   8  -7    6.03    0.61
  -1  -8   6   23.71    1.21
   1   8  -6   26.49    1.51
   1   8  -5    7.00    0.90
  -1  -8   5    6.06    0.65
   1   8  -4    3.39    0.75
   1   8  -4    3.41    0.46
  -1  -8   4    3.08    0.49
   1   8  -4    3.66    0.63
   1   8  -3   76.84    2.72
   1   8  -3   76.23    3.37
   1   8  -3   75.44    2.70
  -1  -8   3   73.62    2.37
   1   8  -2   58.10    2.66
   1   8  -2   63.33    2.89
   1   8  -2   61.99    2.68
   1   8  -2   61.44    2.66
   1   8  -1    4.81    0.82
   1   8  -1    4.80    0.77
   1   8  -1    5.71    0.79
   1   8  -1    5.81    0.92
   1   8   0    0.55    0.42
   1   8   0   -0.07    0.47
   1   8   0   -0.15    0.37
   1   8   0    0.16    0.41
   1   8   0    0.07    0.29
   1   8   0    0.61    0.38
   1   8   1    0.79    0.53
   1   8   1    0.54    0.53
   1   8   1    1.47    0.53
   1   8   1    1.03    0.46
   1   8   1    1.04    0.47
   1   8   2   68.75    2.86
   1   8   2   72.71    3.04
   1   8   2   71.05    2.96
   1   8   2   70.60    3.20
   1   8   2   67.51    3.14
   1   8   2   70.88    2.81
   1   8   3   24.66    1.67
   1   8   3   26.34    1.69
   1   8   3   27.16    1.66
   1   8   3   26.65    1.40
   1   8   3   27.40    1.83
   1   8   3   27.14    1.81
   1   8   3   25.00    1.72
   1   8   4   13.17    1.15
   1   8   4   10.97    1.11
   1   8   4   11.21    1.03
   1   8   4   12.98    1.28
   1   8   4   11.48    1.06
   1   8   4   12.25    1.01
   1   8   5   10.45    0.87
   1   8   5   10.28    0.93
   1   8   5    9.57    1.02
   1   8   5    9.51    0.97
   1   8   5   10.74    0.85
   1   8   5    9.38    1.09
   1   8   6   49.72    2.15
   1   8   6   45.88    2.14
   1   8   6   51.75    2.49
   1   8   6   49.45    2.09
   1   8   7   49.79    2.00
  -1  -8  -7   48.70    2.05
   1   8   7   53.26    2.34
   1   8   7   48.11    1.98
   1   8   8    9.54    0.74
  -1  -8  -8    9.58    0.74
   1   8   8    9.30    0.80
   1   8   8    9.18    0.70
   1   9  -5    6.07    0.61
   1   9  -4    0.48    0.30
   1   9  -3    1.45    0.42
   1   9  -3    1.31    0.33
   1   9  -2   36.58    1.72
   1   9  -2   34.44    1.75
   1   9  -2   36.47    1.73
   1   9  -1   19.95    1.13
   1   9  -1   17.03    1.33
   1   9  -1   17.30    1.37
   1   9   0    3.06    0.71
   1   9   0    1.95    0.57
   1   9   1    5.71    0.95
   1   9   1    4.34    0.83
   1   9   2   19.56    1.40
   1   9   2   18.99    1.53
   1   9   2   20.62    1.63
   1   9   3   47.66    2.24
   1   9   3   49.83    2.32
   1   9   3   50.50    2.27
   1   9   3   47.84    2.31
   1   9   4    4.79    0.59
   1   9   4    4.15    0.59
   1   9   4    4.71    0.60
   1   9   5    7.19    0.81
   1   9   5    5.86    0.54
   1   9   5    6.62    0.67
   1   9   6   15.15    1.06
   1   9   6   16.01    0.92
  -1  -9  -6   16.39    1.00
   1  10  -2   11.93    0.71
   1  10  -1    4.60    0.53
   1  10   0    2.15    0.45
   1  10   1    1.52    0.42
   1  10   2   36.10    1.68
   1  10   3   41.19    1.62
  -2   8   4    8.30    0.74
  -2   8   3   36.21    1.65
  -2   8   3   37.29    1.57
  -2   8   3   33.82    1.55
  -2   8   2   22.75    1.33
  -2   8   2   23.55    1.35
  -2   8   2   25.25    1.43
  -2   8   1   25.22    1.54
  -2   8   1   24.04    1.36
  -2   8   1   28.07    1.53
  -2   8   0   15.43    1.22
  -2   8   0   16.11    1.04
  -2   8   0   15.29    1.12
  -2   8  -1   16.27    1.20
  -2   8  -1   15.49    0.91
  -2   8  -1   15.03    1.12
  -2   8  -1   15.79    1.02
  -2   8  -2    6.19    0.70
  -2   8  -2    5.58    0.66
  -2   8  -2    6.81    0.77
  -2   8  -3    1.49    0.34
  -2   8  -3    0.84    0.37
  -2   8  -3    0.69    0.24
  -2   8  -4    6.74    0.78
  -2   7   7    9.23    0.75
  -2   7   6   83.99    2.63
   2  -7  -6   85.84    2.37
  -2   7   6   83.51    2.58
  -2   7   6   86.86    2.99
   2  -7  -5   71.42    2.32
  -2   7   5   74.31    2.93
  -2   7   5   72.03    2.21
  -2   7   5   72.94    2.59
  -2   7   5   65.60    2.65
  -2   7   4    8.92    1.01
  -2   7   4    8.44    0.74
  -2   7   4    6.80    0.79
  -2   7   4    6.89    0.64
   2  -7  -4    7.31    0.71
  -2   7   4    8.65    0.99
  -2   7   4    7.43    0.69
  -2   7   3    9.93    1.12
  -2   7   3   11.52    1.17
  -2   7   3   11.82    0.97
  -2   7   3   11.43    1.02
  -2   7   3   10.84    0.95
  -2   7   3   10.60    0.80
  -2   7   2   95.01    3.29
  -2   7   2  102.04    3.79
  -2   7   2   95.61    3.66
  -2   7   2  102.53    3.42
  -2   7   2  100.49    3.49
  -2   7   2   98.71    2.87
  -2   7   1   18.35    1.30
  -2   7   1   18.89    1.49
  -2   7   1   18.86    1.11
  -2   7   1   17.75    1.31
  -2   7   1   19.78    1.08
  -2   7   1   19.53    1.46
  -2   7   0   62.89    2.68
  -2   7   0   59.17    2.35
  -2   7   0   53.94    2.40
  -2   7   0   56.43    2.26
  -2   7  -1   58.33    2.61
  -2   7  -1   62.78    2.30
  -2   7  -1   61.17    2.55
  -2   7  -1   58.51    2.49
  -2   7  -2    3.73    0.69
  -2   7  -2    2.86    0.43
  -2   7  -2    3.94    0.61
  -2   7  -2    4.04    0.68
  -2   7  -3   13.11    1.03
  -2   7  -3   12.38    1.22
  -2   7  -3   13.06    1.04
  -2   7  -4    8.78    1.04
  -2   7  -4    9.09    0.75
  -2   7  -4    9.27    0.80
  -2   7  -5   32.35    1.88
  -2   7  -6    1.99    0.49
  -2   7  -7    1.80    0.37
  -2   6   8    1.08    0.29
  -2   6   8    2.00    0.41
   2  -6  -8    1.73    0.31
  -2   6   7   11.07    0.81
  -2   6   7   11.10    1.08
  -2   6   7   11.85    0.94
  -2   6   7   10.10    0.75
   2  -6  -7   10.80    0.86
  -2   6   6   74.46    3.17
  -2   6   6   72.90    2.59
   2  -6  -6   72.10    2.62
  -2   6   6   72.26    2.76
  -2   6   6   71.59    2.65
  -2   6   6   71.81    2.58
  -2   6   6   74.40    2.48
  -2   6   5   51.62    2.20
  -2   6   5   56.26    2.37
  -2   6   5   58.10    2.85
  -2   6   5   56.66    2.60
   2  -6  -5   60.06    2.39
  -2   6   5   57.84    2.31
  -2   6   5   55.19    1.87
  -2   6   4    0.98    0.36
  -2   6   4    0.84    0.37
  -2   6   4    1.02    0.34
  -2   6   4    1.13    0.48
  -2   6   4    1.23    0.56
  -2   6   4    1.18    0.42
  -2   6   4    1.34    0.39
  -2   6   3   36.97    1.74
  -2   6   3   34.52    1.77
  -2   6   3   39.29    1.96
  -2   6   3   36.10    1.75
  -2   6   3   37.34    2.19
  -2   6   3   35.23    2.06
  -2   6   2   39.94    2.16
  -2   6   2   34.54    1.84
  -2   6   2   33.00    1.72
  -2   6   2   37.32    2.15
  -2   6   2   36.89    1.69
  -2   6   2   35.59    1.90
  -2   6   2   35.30    1.82
  -2   6   1   43.95    2.02
  -2   6   1   46.34    2.09
  -2   6   1   43.29    2.07
  -2   6   1   43.52    2.25
  -2   6   1   42.29    2.26
  -2   6   1   44.77    2.17
  -2   6   1   40.11    1.80
  -2   6   1   43.75    2.02
  -2   6   1   41.78    1.80
  -2   6   0   16.77    1.36
  -2   6   0   14.17    1.20
  -2   6   0   17.33    1.16
  -2   6   0   16.87    1.35
  -2   6   0   16.82    1.17
  -2   6   0   16.35    1.24
  -2   6   0    8.58    0.94
  -2   6   0   17.06    1.08
  -2   6  -1    2.82    0.58
  -2   6  -1    2.81    0.50
  -2   6  -1    4.28    0.69
  -2   6  -1    2.51    0.52
  -2   6  -1    3.01    0.51
  -2   6  -1    2.93    0.55
  -2   6  -1    2.94    0.56
  -2   6  -2   24.15    1.45
  -2   6  -2   27.62    1.58
  -2   6  -2   27.06    1.38
  -2   6  -2   25.70    1.29
  -2   6  -2   23.15    1.43
  -2   6  -2   24.62    1.66
  -2   6  -2   24.74    1.55
  -2   6  -3    1.21    0.52
  -2   6  -3    0.63    0.37
  -2   6  -3    1.32    0.42
  -2   6  -3    0.60    0.31
  -2   6  -4   51.41    2.02
  -2   6  -4   51.79    2.56
  -2   6  -4   48.35    1.87
  -2   6  -4   48.08    1.99
  -2   6  -5   39.92    1.63
  -2   6  -5   40.44    1.54
  -2   6  -5   38.28    2.16
  -2   6  -5   38.45    1.59
  -2   6  -6    5.48    0.78
  -2   6  -6    6.29    0.81
   2  -6   7    3.26    0.47
  -2   6  -7    3.39    0.59
  -2   6  -7    3.34    0.55
  -2   6  -8    0.46    0.26
   2  -6   8    0.52    0.25
  -2   6  -8    0.23    0.22
  -2   5   9   87.73    2.82
   2  -5  -9   88.41    2.61
  -2   5   9   85.85    2.70
  -2   5   9   91.94    2.96
   2  -5  -8   21.24    1.28
  -2   5   8   20.92    1.52
  -2   5   8   20.90    1.39
  -2   5   7   11.31    0.83
   2  -5  -7   11.38    1.03
  -2   5   7   11.87    1.11
  -2   5   7   12.41    0.99
  -2   5   7   13.16    1.35
  -2   5   7   11.99    1.01
  -2   5   7   12.14    1.07
  -2   5   6  214.01    5.34
  -2   5   6  212.77    5.46
   2  -5  -6  217.32    5.77
  -2   5   6  223.54    6.55
  -2   5   6  208.55    5.68
  -2   5   6  211.24    5.81
  -2   5   6  205.90    5.69
  -2   5   5  197.26    5.22
  -2   5   5  200.80    6.09
  -2   5   5  203.85    5.43
  -2   5   5  203.05    5.59
  -2   5   5  195.89    5.01
   2  -5  -5  198.31    5.46
  -2   5   5  198.38    5.40
  -2   5   4   49.68    2.56
  -2   5   4   49.23    1.85
  -2   5   4   47.15    2.08
  -2   5   4   48.06    2.12
  -2   5   4   46.62    1.86
  -2   5   4   50.20    2.33
  -2   5   4   47.91    2.06
  -2   5   3    0.40    0.32
  -2   5   3    0.53    0.27
  -2   5   3    0.22    0.29
  -2   5   3    0.39    0.32
  -2   5   3    0.46    0.34
  -2   5   3    0.24    0.26
  -2   5   3    0.43    0.38
  -2   5   3    0.87    0.49
  -2   5   3    0.29    0.26
  -2   5   2   56.43    1.89
  -2   5   2   59.20    2.20
  -2   5   2   57.20    2.26
  -2   5   2   57.36    2.26
  -2   5   2   64.07    2.52
  -2   5   2   56.15    2.49
  -2   5   2   57.12    2.15
  -2   5   2   59.43    2.30
  -2   5   2   57.48    2.14
  -2   5   1  110.41    3.20
  -2   5   1  110.11    3.60
  -2   5   1  110.61    3.29
  -2   5   1  109.02    3.16
  -2   5   1  111.94    3.51
  -2   5   1  108.94    3.40
  -2   5   1  110.97    3.30
  -2   5   1  104.91    3.46
  -2   5   1  106.31    3.36
  -2   5   1  107.85    3.25
  -2   5   1  111.66    3.41
  -2   5   0   11.11    1.00
  -2   5   0   11.29    0.95
  -2   5   0   11.34    0.89
  -2   5   0   10.81    0.84
  -2   5   0   10.14    0.96
  -2   5   0   10.96    0.89
  -2   5   0   12.39    0.93
  -2   5   0   10.93    0.97
  -2   5   0   11.09    0.86
  -2   5   0   11.36    0.96
  -2   5   0   10.48    0.92
  -2   5  -1   17.49    1.18
  -2   5  -1   20.59    1.34
  -2   5  -1   22.38    1.33
  -2   5  -1   21.07    1.24
  -2   5  -1   19.24    1.25
  -2   5  -1   20.26    1.18
  -2   5  -1   21.18    1.24
  -2   5  -1   21.01    1.30
  -2   5  -1   21.11    1.14
  -2   5  -1   21.30    1.37
  -2   5  -1   19.54    1.30
  -2   5  -2    5.79    0.68
  -2   5  -2    4.65    0.62
  -2   5  -2    5.67    0.64
  -2   5  -2    4.77    0.60
  -2   5  -2    5.15    0.52
  -2   5  -2    5.79    0.73
  -2   5  -2    5.08    0.63
  -2   5  -2    6.02    0.72
  -2   5  -2    6.33    0.68
  -2   5  -3   49.07    1.92
  -2   5  -3   48.02    1.95
  -2   5  -3   50.18    2.29
  -2   5  -3   48.60    1.99
  -2   5  -3   46.27    1.88
  -2   5  -3   46.38    1.97
  -2   5  -4   33.69    1.56
  -2   5  -4   32.10    1.86
  -2   5  -4   34.54    1.52
  -2   5  -4   32.47    1.49
  -2   5  -4   33.59    1.64
  -2   5  -4   31.55    1.50
  -2   5  -4   36.77    1.75
  -2   5  -5   13.26    0.87
  -2   5  -5   12.49    1.00
  -2   5  -5   14.99    0.88
  -2   5  -5   11.43    1.13
  -2   5  -5   14.48    1.19
  -2   5  -6    3.56    0.68
  -2   5  -6    3.73    0.60
   2  -5   6    3.05    0.48
  -2   5  -6    2.78    0.56
  -2   5  -7    1.76    0.55
  -2   5  -7    1.70    0.47
  -2   5  -7    2.23    0.48
   2  -5   7    1.17    0.35
  -2   5  -8    3.59    0.54
  -2   5  -8    3.09    0.45
   2  -5   8    2.44    0.42
  -2   5  -8    3.00    0.59
  -2   5  -9   13.43    1.03
  -2   5  -9   12.27    0.74
   2  -5   9   10.78    0.66
   2  -5   9   12.33    0.88
   2  -4 -10   54.63    1.87
  -2   4  10   55.66    2.07
  -2   4  10   56.69    2.13
   2  -4  -9   59.06    2.32
  -2   4   9   63.12    2.49
  -2   4   9   66.45    2.74
  -2   4   9   63.12    2.54
  -2   4   8    4.41    0.71
  -2   4   8    3.79    0.67
  -2   4   8    3.64    0.81
   2  -4  -8    3.88    0.63
  -2   4   7    1.67    0.35
  -2   4   7    1.74    0.49
  -2   4   7    1.64    0.58
   2  -4  -7    1.21    0.48
  -2   4   7    1.16    0.59
  -2   4   7    1.94    0.49
  -2   4   7    1.41    0.49
  -2   4   6   17.26    1.07
  -2   4   6   17.28    1.57
   2  -4  -6   17.32    1.32
  -2   4   6   14.55    1.22
  -2   4   6   17.15    1.27
  -2   4   6   17.88    1.28
  -2   4   5   83.28    3.37
  -2   4   5   80.94    2.66
  -2   4   5   78.27    2.73
   2  -4  -5   77.06    2.92
  -2   4   5   78.85    2.86
  -2   4   5   77.19    2.86
  -2   4   4    9.97    0.81
  -2   4   4    9.51    0.68
  -2   4   4   10.46    1.07
  -2   4   4   12.09    0.75
  -2   4   4   11.04    0.91
  -2   4   4    9.71    0.89
  -2   4   4    9.90    0.78
  -2   4   4    9.77    0.73
  -2   4   4   10.98    0.71
  -2   4   4   10.32    0.85
  -2   4   3   26.03    1.27
  -2   4   3   25.09    1.38
  -2   4   3   25.76    1.20
  -2   4   3   28.15    1.38
  -2   4   3   24.97    1.18
  -2   4   3   27.17    1.56
  -2   4   3   23.85    1.29
  -2   4   3   26.97    1.28
  -2   4   3   25.69    1.23
  -2   4   3   25.53    1.10
  -2   4   2  120.01    3.56
  -2   4   2  117.84    3.32
  -2   4   2  123.34    3.37
  -2   4   2  118.54    3.19
  -2   4   2  123.54    3.43
  -2   4   2  119.23    3.18
  -2   4   2  121.39    2.93
  -2   4   2  118.55    3.24
  -2   4   2  117.14    3.29
  -2   4   2  120.15    3.41
  -2   4   2  125.38    3.34
  -2   4   1   61.91    2.24
  -2   4   1   63.02    2.17
  -2   4   1   58.59    2.01
  -2   4   1   58.91    1.99
  -2   4   1   59.96    2.13
  -2   4   1   63.15    2.07
  -2   4   1   59.51    2.01
  -2   4   1   60.60    2.18
  -2   4   1   55.89    1.83
  -2   4   1   63.40    2.18
  -2   4   1   61.54    2.08
   2  -4  -1   58.50    1.78
  -2   4   0   20.19    1.08
  -2   4   0   22.55    1.23
  -2   4   0   20.66    1.06
  -2   4   0   21.52    1.07
  -2   4   0   21.26    1.07
  -2   4   0   21.79    1.19
   2  -4   0   21.19    0.93
  -2   4   0   22.47    1.12
  -2   4   0   19.71    1.17
  -2   4   0   21.46    1.18
  -2   4   0   20.21    1.14
  -2   4   0   21.72    1.14
   2  -4   1    4.60    0.47
  -2   4  -1    4.95    0.57
  -2   4  -1    4.96    0.52
  -2   4  -1    5.58    0.61
  -2   4  -1    5.08    0.54
  -2   4  -1    4.49    0.44
  -2   4  -1    4.76    0.55
  -2   4  -1    4.39    0.53
  -2   4  -1    4.75    0.52
  -2   4  -1    5.49    0.60
  -2   4  -1    4.38    0.54
  -2   4  -1    4.93    0.57
  -2   4  -2    1.58    0.31
  -2   4  -2    1.38    0.35
  -2   4  -2    1.26    0.31
  -2   4  -2    1.63    0.34
  -2   4  -2    1.11    0.32
  -2   4  -2    1.42    0.38
  -2   4  -2    1.52    0.36
  -2   4  -2    0.92    0.28
  -2   4  -2    1.44    0.31
  -2   4  -3   45.14    1.78
  -2   4  -3   49.42    1.74
  -2   4  -3   48.04    1.77
  -2   4  -3   46.66    1.84
  -2   4  -3   44.73    1.65
  -2   4  -3   47.83    1.82
  -2   4  -3   45.52    1.90
  -2   4  -3   45.45    1.68
  -2   4  -4   20.73    1.03
  -2   4  -4   21.31    1.26
  -2   4  -4   21.32    1.11
  -2   4  -4   20.09    1.02
  -2   4  -4   20.00    1.23
  -2   4  -4   20.81    1.30
  -2   4  -4   22.10    1.13
  -2   4  -4   24.59    1.15
  -2   4  -5    3.64    0.42
  -2   4  -5    3.05    0.55
   2  -4   5    3.82    0.44
  -2   4  -5    3.22    0.57
  -2   4  -6    3.86    0.66
  -2   4  -6    4.31    0.65
   2  -4   6    3.05    0.43
  -2   4  -7   61.32    2.47
   2  -4   7   62.47    2.49
  -2   4  -7   61.98    2.76
   2  -4   8   17.83    1.23
  -2   4  -8   18.95    1.20
  -2   4  -8   17.35    1.42
   2  -4   9    1.28    0.40
   2  -4   9    1.41    0.39
  -2   4  -9    0.86    0.26
  -2   4  -9    1.27    0.47
  -2   4 -10   28.06    1.50
  -2   4 -10   27.52    1.19
   2  -4  10   26.01    1.32
   2  -4  10   25.88    1.23
  -2   4 -10   29.72    1.30
   2  -3 -10   51.07    2.01
  -2   3  10   55.70    2.32
   2  -3 -10   53.34    1.66
  -2   3  10   51.12    2.16
  -2   3  10   54.60    2.19
  -2   3   9   49.82    2.33
  -2   3   9   52.01    2.57
  -2   3   9   49.58    2.35
   2  -3  -9   50.75    2.24
  -2   3   9   47.30    2.08
   2  -3  -9   48.64    1.92
  -2   3   8    1.82    0.57
  -2   3   8    2.15    0.57
  -2   3   8    1.95    0.58
  -2   3   8    2.25    0.66
   2  -3  -8    3.22    0.57
   2  -3  -8    1.92    0.47
  -2   3   7    1.90    0.51
  -2   3   7    1.92    0.50
   2  -3  -7    1.41    0.46
  -2   3   7    1.10    0.49
  -2   3   7    1.67    0.57
  -2   3   7    1.44    0.65
   2  -3  -7    1.11    0.39
  -2   3   6  166.35    3.99
  -2   3   6  156.85    5.14
  -2   3   6  163.27    4.72
   2  -3  -6  163.16    4.73
  -2   3   6  160.95    5.00
   2  -3  -6  168.65    4.31
  -2   3   6  155.68    4.31
  -2   3   6  159.74    4.64
  -2   3   5  138.95    4.39
   2  -3  -5  137.03    4.08
  -2   3   5  140.10    4.02
  -2   3   5  140.43    3.60
  -2   3   5  143.19    4.28
  -2   3   5  139.98    3.75
  -2   3   5  133.18    3.85
   2  -3  -5  143.15    3.55
  -2   3   5  137.34    3.85
  -2   3   4    2.11    0.31
  -2   3   4    1.70    0.26
  -2   3   4    1.63    0.39
  -2   3   4    1.94    0.36
  -2   3   4    1.81    0.36
  -2   3   4    2.87    0.43
  -2   3   4    1.78    0.41
  -2   3   4    1.45    0.34
  -2   3   3    6.37    0.62
   2  -3  -3    5.60    0.52
  -2   3   3    6.20    0.56
  -2   3   3    6.09    0.65
  -2   3   3    6.49    0.62
  -2   3   3    5.75    0.51
  -2   3   3    6.51    0.54
  -2   3   2   34.48    1.35
  -2   3   2   38.26    1.41
   2  -3  -2   34.66    1.27
   2  -3  -2   35.39    1.24
   2  -3  -2   36.53    0.98
  -2   3   2   35.92    1.40
  -2   3   2   38.98    1.42
   2  -3  -2   37.71    1.37
  -2   3   1  161.39    3.83
   2  -3  -1  156.89    3.58
   2  -3  -1  161.02    3.41
  -2   3   1  163.03    3.83
   2  -3  -1  163.83    3.78
   2  -3  -1  163.86    3.40
   2  -3  -1  151.41    3.62
  -2   3   1  163.79    3.87
   2  -3   0    1.43    0.14
   2  -3   0    1.21    0.22
   2  -3   0    1.47    0.27
  -2   3   0    1.19    0.27
  -2   3   0    1.35    0.29
  -2   3   0    1.12    0.29
   2  -3   0    1.37    0.23
   2  -3   0    1.01    0.21
  -2   3  -1   29.23    1.22
   2  -3   1   27.67    1.11
   2  -3   1   27.89    0.91
   2  -3   1   28.11    1.15
   2  -3   1   28.48    1.02
  -2   3  -1   28.63    1.22
  -2   3  -1   29.34    1.23
  -2   3  -2   39.41    1.49
  -2   3  -2   41.54    1.52
   2  -3   2   43.31    1.54
   2  -3   2   41.90    1.49
   2  -3   2   40.77    1.27
   2  -3   2   42.65    1.10
  -2   3  -2   42.00    1.53
  -2   3  -3   76.76    2.29
   2  -3   3   85.69    2.06
   2  -3   3   85.20    2.08
   2  -3   3   78.40    2.31
  -2   3  -3   79.33    2.31
  -2   3  -4   59.02    1.85
  -2   3  -4   61.23    1.87
  -2   3  -4   61.73    2.07
  -2   3  -4   59.26    2.07
  -2   3  -5    1.72    0.38
  -2   3  -5    0.99    0.22
  -2   3  -5    1.63    0.37
  -2   3  -5    0.76    0.29
  -2   3  -5    1.29    0.34
   2  -3   5    0.76    0.25
  -2   3  -5    1.17    0.26
  -2   3  -6    1.35    0.39
  -2   3  -6    1.36    0.45
   2  -3   6    1.77    0.35
  -2   3  -6    2.02    0.44
  -2   3  -6    1.42    0.40
  -2   3  -7   60.23    2.54
   2  -3   7   62.49    2.54
  -2   3  -7   60.25    2.56
  -2   3  -7   59.55    2.24
  -2   3  -7   57.52    2.58
   2  -3   7   60.56    2.18
  -2   3  -8   36.84    2.03
   2  -3   8   34.89    1.88
  -2   3  -8   35.72    1.60
  -2   3  -8   34.40    2.00
  -2   3  -8   36.31    1.99
   2  -3   8   35.09    1.57
   2  -3   9    1.17    0.32
   2  -3   9    0.95    0.44
  -2   3  -9    1.61    0.51
   2  -3  10   17.94    1.20
  -2   3 -10   15.94    1.25
   2  -3  10   17.61    1.16
   2  -3  11   14.93    0.91
   2  -3  11   15.26    0.90
  -2   3 -11   16.10    1.06
   2  -2 -11   20.38    1.06
  -2   2  11   21.99    1.21
  -2   2  11   20.75    1.04
  -2   2  10   11.66    1.10
  -2   2  10    9.26    0.93
  -2   2  10   10.07    0.88
   2  -2 -10   10.48    0.90
   2  -2 -10    8.86    0.86
  -2   2  10   10.93    0.96
  -2   2   9   11.20    1.13
   2  -2  -9   10.18    1.03
  -2   2   9    9.44    1.13
  -2   2   9    9.73    1.04
   2  -2  -9    9.63    0.96
  -2   2   9    9.93    1.03
   2  -2  -8   26.04    1.68
  -2   2   8   26.69    1.73
   2  -2  -8   27.41    1.31
  -2   2   8   24.10    1.81
  -2   2   8   28.77    1.96
   2  -2  -8   22.82    1.52
  -2   2   8   27.10    1.92
  -2   2   7   23.06    1.53
  -2   2   7   25.96    1.63
   2  -2  -7   24.27    1.59
  -2   2   7   23.13    1.80
   2  -2  -7   24.45    1.50
  -2   2   7   22.55    1.72
  -2   2   7   24.77    1.81
  -2   2   6   51.04    2.17
  -2   2   6   53.39    2.21
   2  -2  -6   51.35    2.22
  -2   2   6   52.64    2.51
  -2   2   6   50.18    2.19
  -2   2   6   51.91    2.49
  -2   2   6   45.07    2.47
   2  -2  -6   51.75    2.12
  -2   2   5   48.14    1.64
  -2   2   5   46.81    2.11
  -2   2   5   42.75    1.39
  -2   2   5   45.02    2.21
  -2   2   5   46.36    1.84
   2  -2  -5   44.01    1.76
  -2   2   5   43.67    2.10
   2  -2  -5   42.70    1.87
  -2   2   5   46.17    1.87
  -2   2   4   12.98    0.59
   2  -2  -4   12.54    0.79
  -2   2   4   13.73    0.62
  -2   2   4   13.77    1.03
  -2   2   4   15.47    0.81
   2  -2  -4   12.70    0.88
   2  -2  -4   11.93    0.75
  -2   2   4   11.68    0.96
  -2   2   4   11.29    0.57
  -2   2   4   12.10    0.82
  -2   2   3   17.78    0.94
   2  -2  -3   18.81    0.92
  -2   2   3   19.25    1.10
   2  -2  -3   17.92    0.92
  -2   2   3   18.79    0.80
  -2   2   3   18.60    1.04
  -2   2   3   18.71    0.66
  -2   2   3   18.12    0.80
   2  -2  -3   17.32    0.72
  -2   2   3   17.12    0.77
  -2   2   2   76.62    1.98
  -2   2   2   72.85    1.52
   2  -2  -2   72.66    1.49
   2  -2  -2   76.71    2.09
   2  -2  -2   73.63    2.00
  -2   2   2   71.17    1.85
  -2   2   2   73.31    2.15
  -2   2   2   74.90    2.09
  -2   2   2   73.59    1.96
  -2   2   1   99.49    2.47
  -2   2   1   98.74    2.46
   2  -2  -1  100.26    2.12
   2  -2  -1  101.68    2.48
   2  -2  -1  102.34    2.41
  -2   2   1  104.49    2.50
  -2   2   1   99.25    2.48
   2  -2  -1  102.30    2.49
  -2   2   1  101.19    2.47
  -2   2   0   16.26    0.77
   2  -2   0   16.17    0.79
  -2   2   0   17.88    0.81
   2  -2   0   15.86    0.71
   2  -2   0   17.16    0.55
   2  -2   0   17.16    0.79
  -2   2   0   16.06    0.76
   2  -2   0   16.72    0.68
  -2   2   0   17.43    0.78
   2  -2   0   17.22    0.66
  -2   2  -1   62.36    1.77
   2  -2   1   64.68    1.57
   2  -2   1   65.00    1.79
  -2   2  -1   64.48    1.80
   2  -2   1   63.04    1.65
   2  -2   1   63.95    1.83
  -2   2  -1   65.63    1.41
  -2   2  -1   62.69    1.77
  -2   2  -1   69.06    1.82
  -2   2  -2    2.80    0.34
  -2   2  -2    3.07    0.34
  -2   2  -2    3.01    0.34
  -2   2  -2    2.81    0.33
  -2   2  -2    3.04    0.27
   2  -2   2    2.84    0.32
  -2   2  -2    3.39    0.36
   2  -2   2    3.13    0.36
   2  -2   2    3.16    0.26
  -2   2  -3   15.64    0.75
   2  -2   3   15.48    0.76
   2  -2   3   16.91    0.66
   2  -2   3   16.11    0.82
  -2   2  -3   14.66    0.71
  -2   2  -3   15.08    0.67
  -2   2  -3   15.84    0.76
  -2   2  -3   14.98    0.85
  -2   2  -4  151.04    3.77
   2  -2   4  140.86    3.50
   2  -2   4  137.93    3.16
   2  -2   4  146.93    3.55
   2  -2   4  150.05    3.07
  -2   2  -4  144.15    3.20
  -2   2  -4  144.09    3.40
   2  -2   4  149.37    3.10
  -2   2  -4  146.69    3.20
  -2   2  -4  140.72    3.47
  -2   2  -5    4.76    0.52
  -2   2  -5    5.10    0.56
  -2   2  -5    4.11    0.50
   2  -2   5    4.36    0.38
   2  -2   5    3.95    0.47
   2  -2   5    4.48    0.51
  -2   2  -6    3.81    0.54
  -2   2  -6    3.59    0.53
  -2   2  -6    3.24    0.50
   2  -2   6    3.16    0.49
  -2   2  -6    3.59    0.42
  -2   2  -6    3.82    0.49
  -2   2  -7   25.45    1.54
  -2   2  -7   24.83    1.20
   2  -2   7   26.33    1.55
  -2   2  -7   25.75    1.57
   2  -2   7   26.44    1.42
  -2   2  -7   28.70    1.37
  -2   2  -7   24.17    1.53
  -2   2  -8   19.34    1.46
  -2   2  -8   17.45    1.15
   2  -2   8   17.96    1.20
   2  -2   8   16.29    1.28
  -2   2  -8   16.61    1.36
  -2   2  -8   16.76    1.34
   2  -2   9    1.21    0.47
  -2   2  -9    0.82    0.41
   2  -2   9    0.65    0.30
  -2   2  -9    1.00    0.38
  -2   2  -9    0.97    0.45
   2  -2  10    1.67    0.45
   2  -2  10    1.98    0.48
  -2   2 -10    2.53    0.59
   2  -2  10    2.29    0.43
  -2   2 -10    1.87    0.48
   2  -2  11   21.34    1.16
   2  -2  11   24.18    1.33
   2  -2  11   21.82    0.97
  -2   2 -11   24.22    1.38
  -2   1  11   37.78    1.72
   2  -1 -11   37.76    1.58
  -2   1  11   36.14    1.39
  -2   1  11   38.16    1.58
   2  -1 -11   38.77    1.62
   2  -1 -10   16.21    1.20
  -2   1  10   17.04    1.34
  -2   1  10   17.27    1.29
   2  -1 -10   14.81    1.17
  -2   1  10   16.40    1.24
  -2   1  10   15.76    1.12
   2  -1  -9   27.24    1.33
   2  -1  -9   31.14    1.51
  -2   1   9   27.93    1.74
   2  -1  -9   28.97    1.76
  -2   1   9   28.60    1.90
  -2   1   9   24.29    1.73
  -2   1   9   28.90    1.86
   2  -1  -9   25.45    1.68
  -2   1   8    8.47    0.84
  -2   1   8    7.64    0.92
   2  -1  -8    8.46    0.95
  -2   1   8    6.49    0.91
   2  -1  -8    7.48    0.76
  -2   1   8    7.66    1.02
   2  -1  -8    8.49    0.99
  -2   1   8    7.52    1.04
  -2   1   7   46.26    2.36
   2  -1  -7   39.94    2.05
  -2   1   7   46.48    2.42
  -2   1   7   41.55    2.02
  -2   1   7   41.88    2.18
   2  -1  -7   42.35    2.10
  -2   1   7   43.58    2.03
  -2   1   7   42.25    2.05
   2  -1  -6   48.68    2.11
   2  -1  -6   49.72    2.12
  -2   1   6   53.80    2.24
  -2   1   6   52.48    2.34
  -2   1   6   49.25    2.37
  -2   1   6   45.94    1.97
  -2   1   6   48.57    2.22
  -2   1   6   49.58    2.04
   2  -1  -5    2.66    0.45
  -2   1   5    3.06    0.53
  -2   1   5    2.67    0.38
  -2   1   5    3.20    0.57
  -2   1   5    2.35    0.46
  -2   1   5    3.30    0.46
   2  -1  -5    2.22    0.41
  -2   1   5    2.55    0.39
  -2   1   4   48.64    1.14
   2  -1  -4   43.99    1.68
  -2   1   4   49.35    1.94
  -2   1   4   46.57    1.76
   2  -1  -4   46.73    1.66
   2  -1  -4   48.70    1.66
  -2   1   4   46.85    1.72
  -2   1   4   51.40    1.89
  -2   1   4   48.23    1.55
  -2   1   3   39.54    1.50
  -2   1   3   37.58    1.12
  -2   1   3   36.20    1.34
   2  -1  -3   36.22    1.28
   2  -1  -3   39.94    1.39
   2  -1  -3   36.02    1.30
  -2   1   3   35.72    1.18
   2  -1  -3   34.86    1.18
  -2   1   3   37.12    1.41
  -2   1   3   35.81    1.30
   2  -1  -2    2.54    0.32
  -2   1   2    2.04    0.23
   2  -1  -2    2.28    0.28
  -2   1   2    2.93    0.28
  -2   1   2    1.78    0.30
  -2   1   2    2.06    0.28
  -2   1   2    1.93    0.31
  -2   1   1  130.60    2.62
   2  -1  -1  128.01    2.76
  -2   1   1  126.51    2.81
  -2   1   1  132.47    2.86
   2  -1  -1  125.98    2.92
   2  -1   0    8.37    0.35
   2  -1   0    8.61    0.37
  -2   1   0    7.86    0.47
   2  -1   0    7.73    0.47
  -2   1   0    8.03    0.35
  -2   1   0    7.59    0.38
   2  -1   1    3.28    0.19
   2  -1   1    3.76    0.34
  -2   1  -1    2.99    0.30
  -2   1  -1    2.90    0.24
   2  -1   2   15.51    0.46
  -2   1  -2   15.17    0.63
  -2   1  -2   15.03    0.66
   2  -1   2   15.64    0.67
   2  -1   2   14.96    0.70
  -2   1  -3  134.10    2.97
   2  -1   3  124.05    3.00
   2  -1   3  126.29    2.55
  -2   1  -3  131.55    3.08
   2  -1   3  129.82    3.00
  -2   1  -3  132.98    3.04
  -2   1  -3  126.22    2.82
   2  -1   4  137.88    3.08
  -2   1  -4  137.42    2.94
   2  -1   4  136.66    2.87
  -2   1  -4  140.94    2.79
   2  -1   4  136.61    3.36
   2  -1   4  139.30    3.27
   2  -1   4  137.45    3.12
  -2   1  -4  143.66    3.40
  -2   1  -4  134.42    3.37
  -2   1  -4  141.80    3.33
   2  -1   5    1.70    0.36
   2  -1   5    1.91    0.34
  -2   1  -5    1.75    0.20
   2  -1   5    2.10    0.29
   2  -1   5    1.93    0.23
   2  -1   5    1.95    0.31
  -2   1  -5    1.41    0.34
   2  -1   5    1.73    0.33
  -2   1  -5    1.68    0.33
  -2   1  -6   28.34    1.41
   2  -1   6   28.05    1.07
   2  -1   6   27.27    1.15
   2  -1   6   28.39    1.40
  -2   1  -6   30.25    1.34
  -2   1  -6   29.57    1.41
  -2   1  -6   26.89    1.38
  -2   1  -7  111.50    3.57
  -2   1  -7  116.11    3.57
   2  -1   7  109.40    3.52
  -2   1  -7  114.48    3.47
   2  -1   7  112.44    2.94
  -2   1  -7  115.02    3.37
   2  -1   7  112.33    3.45
  -2   1  -8  259.96    6.73
   2  -1   8  264.76    6.68
  -2   1  -8  249.74    6.71
   2  -1   8  254.59    6.43
  -2   1  -8  271.69    6.49
  -2   1  -8  263.59    6.60
   2  -1   9    1.63    0.51
  -2   1  -9    2.61    0.61
   2  -1   9    2.03    0.48
  -2   1  -9    3.06    0.58
  -2   1  -9    1.56    0.48
   2  -1  10    6.87    0.78
  -2   1 -10    7.34    0.87
  -2   1 -10    6.93    0.90
   2  -1  10    7.46    0.82
   2  -1  10    6.36    0.83
  -2   1 -10    6.46    0.76
  -2   1 -11   51.79    2.23
   2  -1  11   50.47    1.91
  -2   1 -11   53.90    2.16
   2  -1  11   53.86    2.21
   2  -1  11   49.03    1.93
  -2   1 -11   48.89    1.90
   2  -1  12   44.54    1.66
  -2   1 -12   41.96    1.49
   2   0 -11   36.14    1.56
  -2   0  11   38.91    1.76
  -2   0  11   35.83    1.62
   2   0 -11   33.21    1.59
   2   0 -10    5.10    0.72
  -2   0  10    4.62    0.65
  -2   0  10    5.06    0.75
   2   0 -10    4.81    0.60
  -2   0  10    5.56    0.74
  -2   0  10    5.45    0.61
   2   0 -10    4.46    0.71
  -2   0  10    3.69    0.68
  -2   0   9    3.74    0.65
  -2   0   9    3.55    0.69
   2   0  -9    3.98    0.69
   2   0  -9    2.67    0.49
   2   0  -9    2.61    0.51
  -2   0   9    3.23    0.56
  -2   0   9    3.59    0.66
   2   0  -9    3.66    0.69
  -2   0   9    2.45    0.60
   2   0  -8   34.00    1.62
   2   0  -8   34.00    1.50
  -2   0   8   33.04    1.80
   2   0  -8   34.55    1.94
  -2   0   8   33.68    2.06
   2   0  -8   31.91    1.70
  -2   0   8   39.02    1.97
  -2   0   8   31.15    1.84
   2   0  -8   30.18    1.90
   2   0  -7   21.60    1.20
  -2   0   7   21.91    1.44
   2   0  -7   20.99    1.43
  -2   0   7   22.63    1.60
  -2   0   7   23.06    1.39
   2   0  -7   23.12    1.36
  -2   0   7   24.93    1.53
   2   0  -7   23.59    1.56
  -2   0   7   23.32    1.40
  -2   0   6    1.76    0.40
  -2   0   6    2.19    0.48
   2   0  -6    2.38    0.47
   2   0  -6    2.72    0.43
  -2   0   6    2.39    0.44
   2   0  -6    2.41    0.41
  -2   0   6    1.97    0.45
  -2   0   6    2.29    0.53
   2   0  -6    1.94    0.44
  -2   0   5   72.98    2.22
  -2   0   5   67.16    2.46
   2   0  -5   73.08    2.36
  -2   0   5   68.81    2.43
  -2   0   5   65.43    1.97
  -2   0   5   67.02    2.30
   2   0  -5   72.92    2.43
  -2   0   5   66.51    2.15
  -2   0   4    2.08    0.34
  -2   0   4    2.07    0.35
   2   0  -4    1.64    0.29
  -2   0   4    1.62    0.21
   2   0  -4    1.33    0.27
  -2   0   4    1.94    0.38
  -2   0   4    2.29    0.35
  -2   0   4    1.49    0.16
  -2   0   4    1.24    0.32
   2   0  -4    1.21    0.27
  -2   0   4    1.25    0.28
  -2   0   4    1.89    0.36
   2   0  -4    1.78    0.34
  -2   0   3   37.53    1.31
  -2   0   3   35.41    1.25
   2   0  -3   35.27    1.26
  -2   0   3   38.20    1.37
  -2   0   3   36.87    1.01
  -2   0   3   37.22    1.35
  -2   0   3   36.58    0.94
   2   0  -3   38.62    1.31
   2   0  -3   36.14    1.25
  -2   0   3   35.60    1.28
   2   0  -3   35.45    1.24
   2   0  -3   35.73    1.23
  -2   0   2   65.55    1.57
   2   0  -2   64.29    1.67
   2   0  -2   64.46    1.76
  -2   0   2   62.97    1.71
  -2   0   2   63.90    1.70
   2   0  -1   12.73    0.52
  -2   0   1   13.04    0.55
  -2   0   1   13.42    0.55
   2   0   0  267.40    4.91
  -2   0   0  268.14    5.23
  -2   0   0  270.66    5.03
   2   0   0  275.53    5.00
   2   0   0  279.65    5.16
  -2   0  -1  188.01    3.84
   2   0   1  192.55    3.67
   2   0   1  196.13    3.87
   2   0   1  191.42    3.72
  -2   0  -1  191.60    3.85
  -2   0  -1  195.17    3.68
  -2   0  -2  134.25    2.68
  -2   0  -2  137.08    2.92
   2   0   2  132.35    2.87
   2   0   2  136.34    2.96
  -2   0  -2  133.21    2.82
   2   0   2  133.99    2.87
  -2   0  -3   57.06    1.40
   2   0   3   56.60    1.25
   2   0   3   54.82    1.58
  -2   0  -3   56.40    1.57
   2   0   3   57.21    1.54
  -2   0  -3   57.83    1.42
  -2   0  -3   58.75    1.63
   2   0   3   58.62    1.69
   2   0   4   81.08    2.12
  -2   0  -4   81.25    1.82
  -2   0  -4   82.79    2.16
   2   0   4   81.68    1.86
  -2   0  -4   79.85    2.21
   2   0   4   82.00    2.31
  -2   0  -4   80.70    1.98
  -2   0  -4   79.63    2.17
   2   0   4   84.97    2.14
   2   0   4   84.57    2.24
   2   0   4   84.78    2.23
   2   0   4   82.82    2.13
  -2   0  -5    0.47    0.16
   2   0   5    0.58    0.16
   2   0   5    0.54    0.19
   2   0   5    0.36    0.22
   2   0   5    0.54    0.22
  -2   0  -5    0.78    0.26
   2   0   5    0.35    0.23
  -2   0  -5    0.47    0.22
  -2   0  -5    0.26    0.22
   2   0   5    0.62    0.25
  -2   0  -5    0.50    0.19
  -2   0  -6    1.53    0.33
   2   0   6    2.71    0.31
  -2   0  -6    3.13    0.38
  -2   0  -6    2.45    0.33
   2   0   6    2.69    0.38
  -2   0  -6    2.16    0.38
   2   0   6    2.29    0.43
  -2   0  -6    2.41    0.41
   2   0   6    2.62    0.38
   2   0   6    1.84    0.34
   2   0   7  109.18    3.14
  -2   0  -7  116.01    3.50
  -2   0  -7  111.67    3.42
  -2   0  -7  117.46    3.27
   2   0   7  115.68    3.51
  -2   0  -7  117.50    3.33
   2   0   7  118.45    3.55
  -2   0  -7  117.11    3.06
   2   0   8  112.83    3.70
  -2   0  -8  112.54    3.19
   2   0   8  115.12    3.74
  -2   0  -8  113.78    3.72
   2   0   8  116.18    3.30
  -2   0  -8  119.00    3.81
  -2   0  -8  122.44    3.59
   2   0   9    9.43    0.99
  -2   0  -9    8.72    1.03
   2   0   9    8.44    0.95
   2   0   9    8.33    0.83
   2   0   9    8.45    0.75
  -2   0  -9    9.06    1.00
  -2   0 -10    8.89    0.98
   2   0  10    8.07    0.93
  -2   0 -10    8.60    1.01
   2   0  10    8.45    0.93
   2   0  10   11.05    0.91
  -2   0 -10    7.45    0.81
  -2   0 -11   86.26    2.72
   2   0  11   83.56    2.97
  -2   0 -11   82.60    3.11
   2   0  11   85.11    2.93
  -2   0 -11   85.23    2.94
   2   0  12   68.43    2.19
   2   0  12   72.92    2.30
   2   0  12   68.95    2.25
  -2   0 -12   70.97    2.40
  -2   0 -12   70.56    2.17
   2   0  12   70.57    2.23
  -2  -1  11   27.37    1.43
  -2  -1  11   27.00    1.39
   2   1 -11   22.99    1.21
   2   1 -11   23.27    1.33
  -2  -1  10    0.92    0.34
   2   1 -10    0.58    0.34
  -2  -1  10    1.13    0.37
   2   1 -10    0.38    0.32
  -2  -1  10    1.31    0.46
   2   1 -10    0.90    0.27
   2   1 -10    0.94    0.32
  -2  -1  10    0.60    0.30
   2   1 -10    1.33    0.42
   2   1  -9   16.29    1.21
  -2  -1   9   15.91    1.14
   2   1  -9   14.58    1.20
   2   1  -9   16.65    1.33
  -2  -1   9   16.05    1.38
  -2  -1   9   14.39    1.19
  -2  -1   9   16.58    1.21
   2   1  -9   17.01    1.42
  -2  -1   8    0.61    0.35
  -2  -1   8    0.61    0.40
   2   1  -8    0.43    0.34
   2   1  -8    0.46    0.36
  -2  -1   8    0.98    0.50
  -2  -1   8    0.55    0.35
   2   1  -8    0.55    0.33
   2   1  -8    1.03    0.52
   2   1  -7   11.39    0.96
   2   1  -7   11.53    1.09
  -2  -1   7   12.09    1.09
  -2  -1   7   10.82    1.07
  -2  -1   7   10.05    0.81
   2   1  -7   10.14    0.96
  -2  -1   7   10.13    0.92
  -2  -1   7    9.24    0.84
   2   1  -7    9.92    0.89
   2   1  -7   10.08    0.98
   2   1  -7   11.13    0.73
   2   1  -6   92.57    2.85
   2   1  -6   90.96    2.55
  -2  -1   6   95.51    3.11
   2   1  -6   95.79    3.07
  -2  -1   6   90.55    2.73
  -2  -1   6   90.31    3.10
  -2  -1   6   86.72    2.80
  -2  -1   6   91.32    2.74
   2   1  -6   90.38    2.90
   2   1  -6   90.64    3.13
   2   1  -5    1.78    0.35
  -2  -1   5    2.09    0.29
  -2  -1   5    1.88    0.41
   2   1  -5    1.41    0.30
  -2  -1   5    1.48    0.33
  -2  -1   5    1.55    0.31
  -2  -1   5    1.98    0.36
   2   1  -5    1.86    0.42
  -2  -1   4    0.93    0.27
  -2  -1   4    1.00    0.12
   2   1  -4    1.25    0.31
   2   1  -4    1.22    0.30
  -2  -1   4    1.05    0.32
  -2  -1   4    0.46    0.25
   2   1  -4    0.83    0.29
  -2  -1   4    0.93    0.22
  -2  -1   4    0.81    0.24
   2   1  -4    0.72    0.22
   2   1  -4    0.82    0.22
   2   1  -3   61.42    1.79
  -2  -1   3   62.11    1.87
  -2  -1   3   59.87    1.81
   2   1  -3   61.04    1.74
   2   1  -3   60.25    1.71
  -2  -1   3   60.83    1.78
  -2  -1   3   58.59    1.77
   2   1  -3   62.21    1.82
  -2  -1   2    4.63    0.39
  -2  -1   2    4.14    0.40
  -2  -1   2    4.27    0.27
   2   1  -2    3.94    0.34
   2   1  -2    3.83    0.35
  -2  -1   1  339.47    6.22
  -2  -1   1  347.49    6.46
   2   1  -1  326.21    6.48
   2   1  -1  340.66    6.54
  -2  -1   0    2.78    0.22
   2   1   0    2.67    0.27
   2   1   0    2.96    0.22
  -2  -1   0    2.47    0.26
  -2  -1  -1   69.12    1.60
  -2  -1  -1   67.04    1.65
   2   1   1   69.28    1.64
   2   1   1   70.38    1.60
  -2  -1  -2  485.69    9.08
  -2  -1  -2  490.80    8.68
   2   1   2  485.44    8.81
   2   1   2  474.06    9.00
  -2  -1  -2  462.93    8.96
   2   1   2  481.30    8.95
  -2  -1  -3  446.24    8.17
   2   1   3  438.76    8.17
   2   1   3  448.53    8.28
   2   1   3  445.45    8.51
  -2  -1  -3  447.22    8.28
  -2  -1  -3  440.22    8.54
  -2  -1  -3  445.48    8.42
   2   1   3  441.43    8.63
   2   1   3  440.97    8.50
   2   1   4  533.21   10.17
   2   1   4  527.57    9.70
  -2  -1  -4  525.41    9.77
  -2  -1  -4  529.90   10.06
   2   1   4  536.21   10.03
   2   1   4  518.05    9.80
  -2  -1  -4  538.93    9.93
  -2  -1  -4  517.82    9.85
   2   1   4  513.20    9.99
   2   1   4  536.20   10.01
   2   1   4  531.60   10.01
   2   1   5   10.08    0.59
  -2  -1  -5   10.97    0.37
   2   1   5   11.43    0.77
  -2  -1  -5   11.23    0.63
   2   1   5   10.59    0.70
  -2  -1  -5   11.16    0.68
  -2  -1  -5    9.60    0.70
  -2  -1  -5   12.17    0.58
   2   1   5   10.78    0.75
   2   1   5   11.24    0.65
   2   1   5   10.77    0.70
  -2  -1  -5   10.38    0.72
   2   1   5   11.40    0.72
  -2  -1  -5   11.32    0.68
  -2  -1  -5   10.95    0.60
   2   1   6    1.18    0.24
   2   1   6    0.37    0.19
  -2  -1  -6    0.71    0.24
  -2  -1  -6    0.83    0.22
   2   1   6    0.95    0.28
   2   1   6    0.71    0.25
   2   1   6    0.77    0.29
  -2  -1  -6    0.58    0.28
  -2  -1  -6    0.76    0.26
   2   1   6    0.75    0.25
   2   1   6    0.45    0.18
  -2  -1  -7  141.56    3.57
   2   1   7  142.18    4.12
  -2  -1  -7  146.98    3.92
  -2  -1  -7  145.13    3.68
  -2  -1  -7  146.63    4.19
   2   1   7  142.37    3.97
  -2  -1  -7  146.11    3.66
   2   1   7  149.92    3.98
   2   1   8  226.78    5.81
  -2  -1  -8  232.87    5.19
   2   1   8  223.69    5.66
   2   1   8  218.96    5.93
  -2  -1  -8  224.91    6.09
  -2  -1  -8  229.26    5.42
  -2  -1  -8  229.97    5.38
   2   1   9    2.54    0.46
  -2  -1  -9    1.71    0.39
   2   1   9    1.75    0.50
   2   1   9    2.37    0.49
   2   1   9    2.25    0.55
  -2  -1  -9    1.99    0.57
  -2  -1  -9    2.50    0.48
   2   1  10    9.45    0.99
   2   1  10    9.32    0.83
   2   1  10    8.30    0.98
  -2  -1 -10    8.14    1.00
  -2  -1 -10   10.12    0.81
   2   1  11   81.76    2.86
  -2  -1 -11   79.46    3.05
   2   1  11   82.22    3.01
   2   1  11   83.88    2.90
  -2  -1 -11   87.37    3.21
   2   1  12   69.32    2.28
   2   1  12   70.71    2.36
   2   1  12   70.65    2.21
   2   1  12   70.87    2.31
  -2  -1 -12   67.50    2.41
  -2  -1 -12   71.53    2.41
   2   2 -11   62.13    2.02
  -2  -2  11   64.03    2.22
  -2  -2  11   60.80    2.14
  -2  -2  11   58.69    1.81
   2   2 -11   56.14    1.74
   2   2 -10    2.75    0.53
  -2  -2  10    1.91    0.47
   2   2 -10    2.73    0.55
   2   2 -10    2.59    0.47
   2   2 -10    2.18    0.53
  -2  -2  10    2.46    0.49
  -2  -2   9    6.89    0.88
  -2  -2   9    5.83    0.84
   2   2  -9    7.35    0.91
   2   2  -9    5.79    0.82
   2   2  -9    6.89    0.87
  -2  -2   9    6.68    0.69
   2   2  -9    6.84    0.94
  -2  -2   8   10.81    0.93
  -2  -2   8   10.22    1.07
   2   2  -8   10.32    1.06
  -2  -2   8    9.66    1.05
   2   2  -8   11.06    1.06
   2   2  -8   12.08    1.14
  -2  -2   8   12.46    0.91
  -2  -2   8    9.73    0.85
   2   2  -8    9.67    1.09
   2   2  -7  119.23    3.94
  -2  -2   7  121.94    3.97
  -2  -2   7  121.40    3.32
   2   2  -7  121.92    3.87
  -2  -2   7  128.03    4.01
   2   2  -7  115.59    4.02
   2   2  -7  122.02    3.93
  -2  -2   7  124.26    3.48
   2   2  -6   60.38    2.29
  -2  -2   6   56.69    2.28
  -2  -2   6   53.56    2.28
  -2  -2   6   54.84    1.95
  -2  -2   6   56.12    1.81
   2   2  -6   55.38    2.27
   2   2  -6   55.95    2.38
   2   2  -6   59.12    2.32
   2   2  -5   27.94    1.34
   2   2  -5   28.44    1.06
  -2  -2   5   30.54    1.49
   2   2  -5   29.97    1.10
  -2  -2   5   29.77    1.41
   2   2  -5   26.62    1.36
   2   2  -5   29.04    1.29
  -2  -2   5   29.28    1.21
   2   2  -5   28.89    1.50
   2   2  -5   30.11    1.45
  -2  -2   4    2.31    0.40
   2   2  -4    2.68    0.37
   2   2  -4    2.89    0.41
   2   2  -4    2.28    0.30
  -2  -2   4    2.89    0.42
   2   2  -4    2.24    0.34
  -2  -2   4    2.51    0.38
  -2  -2   4    1.95    0.26
  -2  -2   4    1.51    0.31
   2   2  -4    2.21    0.37
   2   2  -4    2.01    0.27
   2   2  -4    2.04    0.37
   2   2  -3   50.95    1.63
  -2  -2   3   53.26    1.69
  -2  -2   3   55.21    1.72
   2   2  -3   54.90    1.68
   2   2  -3   56.11    1.69
   2   2  -3   55.49    1.72
  -2  -2   3   57.56    1.59
   2   2  -3   54.18    1.51
  -2  -2   3   56.63    1.63
  -2  -2   3   54.82    1.81
   2   2  -3   51.81    1.71
   2   2  -2  114.51    2.70
  -2  -2   2  121.65    2.64
  -2  -2   2  112.92    2.83
   2   2  -2  111.42    2.52
   2   2  -2  116.79    2.77
   2   2  -1   52.98    1.54
   2   2  -1   56.63    1.44
  -2  -2   1   54.61    1.44
   2   2  -1   54.99    1.38
   2   2   0   55.48    1.24
  -2  -2   0   53.09    1.40
   2   2   0   53.84    1.41
   2   2   1   52.40    1.48
  -2  -2  -1   51.88    1.43
   2   2   1   52.86    1.04
   2   2   1   52.98    1.45
  -2  -2  -2   84.07    2.14
  -2  -2  -2   83.43    2.11
  -2  -2  -2   84.88    1.98
  -2  -2  -2   83.18    2.11
   2   2   2   82.88    2.14
   2   2   2   91.41    1.72
   2   2   3    5.37    0.45
   2   2   3    5.08    0.37
  -2  -2  -3    4.51    0.35
  -2  -2  -3    5.19    0.43
   2   2   3    4.79    0.42
  -2  -2  -3    5.26    0.43
  -2  -2  -3    5.29    0.44
  -2  -2  -3    5.02    0.26
   2   2   3    6.15    0.33
  -2  -2  -4    1.46    0.28
   2   2   4    1.78    0.32
  -2  -2  -4    1.79    0.25
  -2  -2  -4    1.92    0.21
   2   2   4    1.91    0.33
   2   2   4    1.68    0.30
   2   2   4    2.24    0.26
   2   2   4    1.47    0.25
   2   2   4    1.91    0.32
  -2  -2  -4    1.69    0.30
   2   2   4    1.51    0.28
   2   2   5   34.96    1.36
   2   2   5   33.54    1.24
  -2  -2  -5   35.51    1.37
   2   2   5   35.84    1.18
   2   2   5   33.11    1.38
   2   2   5   33.08    1.36
  -2  -2  -5   36.10    1.38
   2   2   5   32.79    1.23
  -2  -2  -5   36.49    1.24
  -2  -2  -5   33.79    1.09
  -2  -2  -5   31.15    1.16
   2   2   5   34.25    1.40
   2   2   5   33.06    1.40
  -2  -2  -6    7.46    0.57
  -2  -2  -6    7.14    0.47
  -2  -2  -6    8.08    0.62
   2   2   6    6.41    0.63
   2   2   6    8.30    0.66
  -2  -2  -6    7.44    0.75
  -2  -2  -6    6.84    0.54
   2   2   6    6.84    0.68
   2   2   6    6.88    0.69
  -2  -2  -7   49.50    1.82
   2   2   7   48.25    2.09
   2   2   7   46.86    1.88
  -2  -2  -7   46.49    1.55
   2   2   7   46.26    1.70
   2   2   7   46.83    2.03
  -2  -2  -7   45.25    2.09
   2   2   8  149.98    4.22
  -2  -2  -8  152.14    4.06
   2   2   8  146.90    4.40
  -2  -2  -8  155.43    4.73
   2   2   8  146.19    4.52
   2   2   8  150.14    3.96
  -2  -2  -9   50.86    2.07
   2   2   9   50.82    1.99
   2   2   9   50.19    2.22
   2   2   9   50.57    2.33
  -2  -2  -9   49.64    2.54
   2   2   9   54.57    2.52
  -2  -2 -10    0.33    0.28
   2   2  10    0.61    0.35
   2   2  10    0.71    0.39
   2   2  10    0.52    0.34
   2   2  10    1.02    0.45
  -2  -2 -10    0.07    0.38
  -2  -2 -11   24.95    1.60
   2   2  11   22.13    1.42
   2   2  11   20.19    1.22
   2   2  11   24.59    1.44
  -2  -2 -11   23.11    1.54
   2   2  11   21.09    1.44
  -2  -2 -12  102.01    3.10
   2   2  12  100.98    2.91
   2   2  12  102.46    2.98
   2   2  12  103.97    3.08
  -2  -2 -12  105.51    3.16
   2   3 -11   40.63    1.64
   2   3 -11   39.89    1.47
  -2  -3  11   42.28    1.53
   2   3 -10    4.57    0.67
  -2  -3  10    6.01    0.69
   2   3 -10    5.72    0.67
  -2  -3  10    5.50    0.69
   2   3 -10    5.41    0.67
   2   3  -9   44.84    2.19
   2   3  -9   49.90    2.42
  -2  -3   9   48.12    2.30
  -2  -3   9   48.04    2.02
  -2  -3   9   47.29    2.23
   2   3  -9   44.94    2.32
   2   3  -8    0.99    0.43
  -2  -3   8    1.41    0.51
   2   3  -8    0.48    0.36
  -2  -3   8    0.70    0.40
   2   3  -8    0.10    0.37
  -2  -3   8    0.30    0.29
   2   3  -8    1.35    0.53
   2   3  -7   80.79    3.17
  -2  -3   7   83.45    3.05
   2   3  -7   84.60    3.20
  -2  -3   7   85.54    3.23
   2   3  -7   84.50    3.23
   2   3  -7   84.52    3.30
   2   3  -6    4.76    0.68
   2   3  -6    5.20    0.71
   2   3  -6    7.89    0.84
  -2  -3   6    5.37    0.66
  -2  -3   6    6.95    0.81
   2   3  -6    5.98    0.77
   2   3  -5    1.13    0.36
  -2  -3   5    0.76    0.32
  -2  -3   5    0.99    0.30
   2   3  -5    0.87    0.34
   2   3  -5    0.51    0.29
   2   3  -5    0.95    0.35
  -2  -3   4    0.51    0.20
   2   3  -4    0.73    0.16
  -2  -3   4    0.56    0.21
   2   3  -4    0.95    0.32
   2   3  -4    1.06    0.28
  -2  -3   4    0.57    0.24
   2   3  -4    0.32    0.20
  -2  -3   4    1.00    0.31
   2   3  -4    0.52    0.25
   2   3  -3  240.28    5.27
  -2  -3   3  246.34    5.22
  -2  -3   3  244.30    5.45
   2   3  -3  241.23    4.86
   2   3  -3  247.01    5.28
  -2  -3   3  242.01    5.04
   2   3  -3  247.35    4.78
  -2  -3   3  237.11    5.28
   2   3  -3  240.05    5.37
   2   3  -3  255.34    5.46
   2   3  -3  249.58    5.45
   2   3  -2  133.19    3.10
  -2  -3   2  143.48    2.99
   2   3  -2  130.98    3.15
  -2  -3   2  132.89    3.27
  -2  -3   2  128.92    3.04
   2   3  -2  132.97    3.17
  -2  -3   2  127.75    3.08
   2   3  -2  128.07    2.68
   2   3  -2  135.37    3.23
   2   3  -1   19.05    0.74
  -2  -3   1   18.84    0.85
   2   3  -1   17.35    0.84
   2   3  -1   17.98    0.81
   2   3  -1   18.72    0.60
  -2  -3   1   18.81    0.84
  -2  -3   0   10.32    0.61
   2   3   0   11.15    0.64
  -2  -3   0   10.88    0.63
   2   3   0   10.53    0.39
   2   3   0   10.44    0.63
   2   3   1  106.83    2.40
  -2  -3  -1  108.47    2.57
   2   3   1  108.92    2.66
  -2  -3  -1  108.49    2.63
  -2  -3  -1  106.96    2.62
   2   3   1  103.09    2.63
  -2  -3  -2   62.43    1.85
  -2  -3  -2   66.64    1.80
   2   3   2   67.41    1.92
  -2  -3  -2   66.06    1.86
   2   3   2   63.87    1.75
   2   3   2   65.44    1.90
  -2  -3  -2   65.84    1.76
   2   3   3   38.94    1.32
  -2  -3  -3   35.25    1.23
  -2  -3  -3   35.43    1.30
   2   3   3   34.15    1.27
   2   3   3   37.36    1.35
  -2  -3  -3   37.43    1.35
  -2  -3  -3   35.64    1.23
   2   3   3   36.44    1.32
  -2  -3  -4  184.02    3.94
  -2  -3  -4  171.15    3.91
  -2  -3  -4  173.81    3.98
   2   3   4  171.68    3.94
  -2  -3  -4  176.89    4.09
   2   3   4  167.79    4.02
   2   3   4  166.86    3.99
   2   3   4  171.18    4.06
  -2  -3  -4  169.42    3.72
  -2  -3  -4  173.54    3.32
   2   3   4  168.93    4.10
   2   3   5   49.86    1.69
  -2  -3  -5   54.57    1.75
  -2  -3  -5   51.47    1.71
   2   3   5   52.23    1.92
   2   3   5   54.51    1.56
   2   3   5   49.35    1.83
  -2  -3  -5   52.57    1.32
   2   3   5   50.14    1.94
  -2  -3  -5   54.66    1.58
   2   3   6   13.83    0.95
  -2  -3  -6   13.93    0.83
  -2  -3  -6   14.26    0.72
   2   3   6   15.48    1.11
   2   3   6   16.29    0.89
  -2  -3  -6   15.12    1.10
   2   3   6   12.86    0.99
   2   3   6   13.92    0.81
   2   3   6   14.87    0.93
   2   3   7   74.59    2.83
   2   3   7   78.54    2.46
   2   3   7   73.74    2.46
   2   3   7   73.47    2.85
  -2  -3  -7   77.79    2.96
  -2  -3  -7   71.16    2.51
   2   3   7   78.20    2.62
   2   3   8  142.97    4.14
   2   3   8  152.15    4.01
   2   3   8  141.35    4.05
   2   3   8  145.83    4.54
  -2  -3  -8  146.35    4.65
   2   3   8  136.96    4.45
  -2  -3  -8  143.92    4.09
   2   3   9   65.88    2.55
  -2  -3  -9   61.26    2.41
   2   3   9   57.66    2.25
   2   3   9   63.25    2.79
   2   3   9   63.52    2.52
  -2  -3  -9   66.48    2.95
   2   3   9   58.41    2.72
   2   3   9   61.70    2.70
   2   3  10    4.53    0.76
   2   3  10    4.56    0.60
  -2  -3 -10    3.43    0.54
   2   3  10    3.81    0.60
   2   3  10    2.90    0.59
   2   3  10    3.18    0.64
  -2  -3 -10    3.73    0.73
   2   3  10    3.44    0.62
   2   3  11   51.59    2.10
  -2  -3 -11   47.18    2.26
  -2  -3 -11   49.19    1.72
   2   3  11   48.09    2.19
   2   3  11   52.11    2.12
   2   3  11   51.56    2.26
   2   3  11   47.78    1.75
   2   3  12  155.62    3.72
   2   3  12  151.58    3.91
  -2  -3 -12  140.64    3.82
   2   3  12  148.58    3.82
  -2  -3 -12  152.69    3.99
   2   3  12  143.90    3.49
   2   4 -10    0.41    0.24
   2   4 -10    0.47    0.34
  -2  -4  10   -0.07    0.25
   2   4 -10    0.23    0.25
  -2  -4  10    0.37    0.30
  -2  -4  10    0.09    0.28
   2   4  -9    4.72    0.73
  -2  -4   9    4.84    0.65
  -2  -4   9    3.84    0.64
   2   4  -9    4.14    0.49
   2   4  -9    5.07    0.68
  -2  -4   9    4.17    0.59
  -2  -4   8    7.27    0.91
   2   4  -8    6.04    0.83
  -2  -4   8    5.56    0.72
  -2  -4   8    6.99    0.85
   2   4  -8    6.34    0.71
   2   4  -8    5.97    0.87
   2   4  -7   25.74    1.78
   2   4  -7   31.30    1.90
   2   4  -7   26.44    1.73
  -2  -4   7   31.91    1.86
  -2  -4   7   28.72    1.59
   2   4  -7   29.19    1.82
   2   4  -6   14.20    1.19
   2   4  -6   13.76    1.20
  -2  -4   6   13.98    1.17
  -2  -4   6   16.08    1.09
   2   4  -6   14.47    1.20
   2   4  -5   27.98    1.56
  -2  -4   5   26.71    1.50
  -2  -4   5   27.04    1.31
   2   4  -5   25.92    1.52
   2   4  -5   26.17    1.53
  -2  -4   4    4.78    0.56
   2   4  -4    3.71    0.53
   2   4  -4    3.68    0.53
   2   4  -4    3.25    0.52
   2   4  -4    4.31    0.47
  -2  -4   4    3.69    0.42
  -2  -4   3   38.62    1.61
   2   4  -3   41.66    1.51
  -2  -4   3   40.14    1.38
  -2  -4   3   41.24    1.58
  -2  -4   3   39.75    1.54
   2   4  -3   43.21    1.41
   2   4  -3   43.12    1.74
   2   4  -3   42.06    1.49
   2   4  -3   40.98    1.37
  -2  -4   3   40.57    1.28
   2   4  -2   12.67    0.74
  -2  -4   2   12.54    0.63
   2   4  -2   13.05    0.71
   2   4  -2   12.37    0.83
  -2  -4   2   11.46    0.75
  -2  -4   2   12.10    0.71
  -2  -4   2   13.76    0.83
   2   4  -2   12.89    0.74
   2   4  -2   12.91    0.71
   2   4  -2   11.81    0.73
  -2  -4   1    1.19    0.25
   2   4  -1    1.43    0.21
  -2  -4   1    0.96    0.26
  -2  -4   1    1.16    0.17
   2   4  -1    0.55    0.21
   2   4  -1    1.15    0.29
  -2  -4   1    1.01    0.26
   2   4  -1    0.97    0.25
   2   4  -1    1.13    0.24
   2   4  -1    0.99    0.27
   2   4   0   26.89    1.13
   2   4   0   26.81    0.77
   2   4   0   25.90    1.08
  -2  -4   0   24.68    1.07
   2   4   0   25.82    1.14
   2   4   0   28.57    1.21
  -2  -4   0   26.34    1.14
  -2  -4   0   25.42    0.69
  -2  -4  -1  114.95    2.93
   2   4   1  117.48    2.99
   2   4   1  112.18    2.90
   2   4   1  116.22    3.01
  -2  -4  -1  112.65    2.89
   2   4   1  114.16    2.93
   2   4   1  112.92    3.01
  -2  -4  -1  117.50    2.96
   2   4   1  116.14    2.61
  -2  -4  -2  100.05    2.40
  -2  -4  -2   95.81    2.61
  -2  -4  -2   97.45    2.59
   2   4   2   98.10    2.68
   2   4   2   98.01    2.45
   2   4   2   98.96    2.67
   2   4   2   96.31    2.63
  -2  -4  -2   98.14    2.63
   2   4   2   94.98    2.65
   2   4   2   96.92    2.43
  -2  -4  -3  108.56    2.83
   2   4   3  107.94    2.79
   2   4   3  101.45    2.75
   2   4   3  109.10    2.83
   2   4   3  107.36    2.93
  -2  -4  -3  110.88    2.93
  -2  -4  -3  109.78    2.71
  -2  -4  -3  108.28    2.82
  -2  -4  -3  106.67    2.63
   2   4   3  102.99    2.92
  -2  -4  -4  174.53    4.15
  -2  -4  -4  172.42    3.89
  -2  -4  -4  178.49    4.18
   2   4   4  174.34    3.95
  -2  -4  -4  176.90    3.91
   2   4   4  176.73    3.99
   2   4   4  168.88    4.42
   2   4   4  173.12    4.03
   2   4   4  173.19    4.22
   2   4   5  157.79    4.14
   2   4   5  168.41    3.61
   2   4   5  163.22    3.56
  -2  -4  -5  165.28    3.62
   2   4   5  169.87    4.26
   2   4   5  162.45    4.23
  -2  -4  -5  162.24    3.69
   2   4   5  159.69    4.50
   2   4   6   69.40    2.28
   2   4   6   68.93    2.75
  -2  -4  -6   73.15    2.77
   2   4   6   71.75    2.60
   2   4   6   76.34    2.74
   2   4   6   70.86    2.04
   2   4   6   76.38    2.59
   2   4   7   82.05    3.02
   2   4   7   77.89    3.14
   2   4   7   80.84    2.69
  -2  -4  -7   77.16    3.06
   2   4   7   85.48    3.15
   2   4   7   81.98    2.92
   2   4   8  201.80    5.09
   2   4   8  191.04    5.64
  -2  -4  -8  186.13    5.59
   2   4   8  195.67    5.48
   2   4   8  191.39    5.52
   2   4   8  191.38    5.32
  -2  -4  -9   74.90    2.82
   2   4   9   83.40    2.97
   2   4   9   77.08    3.18
   2   4   9   79.26    3.28
  -2  -4  -9   77.32    3.27
   2   4   9   77.61    3.17
   2   4   9   78.19    3.04
   2   4  10    3.89    0.63
  -2  -4 -10    5.51    0.67
   2   4  10    4.21    0.72
   2   4  10    3.68    0.68
  -2  -4 -10    5.45    0.81
   2   4  10    4.81    0.69
   2   4  11   44.64    2.00
   2   4  11   41.96    1.75
   2   4  11   43.36    1.81
  -2  -4 -11   39.44    1.53
   2   4  11   44.08    2.00
  -2  -4 -11   45.34    2.07
   2   4  11   43.21    1.94
   2   4  12   88.37    2.48
   2   4  12   87.33    2.35
   2   4  12   92.67    2.56
  -2  -4 -12   89.99    2.61
   2   5 -10    0.27    0.24
  -2  -5  10    0.53    0.23
   2   5 -10    0.46    0.26
   2   5  -9    5.19    0.54
  -2  -5   9    4.51    0.63
   2   5  -9    4.30    0.66
   2   5  -9    4.98    0.60
   2   5  -9    4.00    0.64
  -2  -5   9    4.97    0.54
  -2  -5   9    5.25    0.62
  -2  -5   8    3.22    0.61
   2   5  -8    2.83    0.65
  -2  -5   8    3.00    0.49
  -2  -5   8    2.48    0.54
   2   5  -8    2.93    0.56
   2   5  -8    2.70    0.57
   2   5  -7   26.30    1.77
  -2  -5   7   25.50    1.65
  -2  -5   7   26.30    1.38
   2   5  -7   25.35    1.69
   2   5  -7   27.83    1.83
   2   5  -7   25.55    1.58
   2   5  -6   41.52    2.20
  -2  -5   6   36.79    1.96
  -2  -5   6   39.62    1.68
   2   5  -6   38.21    2.07
  -2  -5   5    0.50    0.36
   2   5  -5    0.07    0.27
  -2  -5   5    0.29    0.22
   2   5  -5    0.44    0.38
   2   5  -4   -0.06    0.26
   2   5  -4    0.48    0.32
   2   5  -4    0.23    0.21
  -2  -5   4    0.11    0.20
   2   5  -4   -0.21    0.28
  -2  -5   4    0.74    0.29
   2   5  -4    0.15    0.14
   2   5  -3   99.67    2.54
   2   5  -3   98.00    3.00
  -2  -5   3  107.64    2.45
   2   5  -3  104.10    2.87
  -2  -5   3  100.39    2.90
   2   5  -3  103.75    3.29
   2   5  -3   95.98    2.62
   2   5  -3  100.51    2.83
   2   5  -3   99.36    2.98
  -2  -5   2  165.44    4.03
   2   5  -2  155.14    3.95
  -2  -5   2  169.03    4.01
   2   5  -2  181.78    4.61
   2   5  -2  175.09    4.08
  -2  -5   2  175.12    3.65
   2   5  -2  185.97    4.37
   2   5  -2  181.40    4.33
   2   5  -1   17.34    1.02
  -2  -5   1   19.77    0.97
  -2  -5   1   19.24    0.70
  -2  -5   1   19.25    1.08
  -2  -5   1   18.55    0.77
   2   5  -1   20.16    1.14
   2   5  -1   19.79    1.04
   2   5  -1   21.33    1.17
  -2  -5   0    0.84    0.11
  -2  -5   0    0.79    0.28
   2   5   0    1.55    0.37
  -2  -5   0    1.44    0.27
   2   5   0    1.07    0.28
   2   5   0    0.94    0.34
  -2  -5   0    1.07    0.23
   2   5   0    1.77    0.39
  -2  -5   0    2.37    0.41
  -2  -5  -1  106.05    2.93
  -2  -5  -1   99.47    2.90
   2   5   1  103.54    3.14
   2   5   1  107.38    2.29
  -2  -5  -1   96.53    2.73
  -2  -5  -1  104.67    2.47
   2   5   1  106.40    3.18
  -2  -5  -2  204.88    4.89
  -2  -5  -2  214.55    4.34
   2   5   2  208.72    4.52
   2   5   2  216.28    5.16
   2   5   2  202.48    5.09
   2   5   2  208.78    4.52
  -2  -5  -2  210.89    4.90
   2   5   3   88.62    2.74
  -2  -5  -3   91.00    2.61
   2   5   3   92.17    2.61
   2   5   3   89.98    2.75
  -2  -5  -3   87.35    2.51
   2   5   3   82.82    2.47
   2   5   3   86.04    2.72
   2   5   4    6.58    0.62
   2   5   4    4.61    0.60
   2   5   4    5.68    0.64
   2   5   4    5.92    0.61
   2   5   4    5.05    0.55
   2   5   4    5.70    0.64
   2   5   4    4.64    0.54
  -2  -5  -4    5.09    0.49
   2   5   4    5.23    0.70
   2   5   4    6.38    0.56
   2   5   5   23.58    1.20
   2   5   5   20.44    1.27
   2   5   5   18.49    1.42
   2   5   5   21.42    1.07
   2   5   5   17.92    1.12
   2   5   5   20.96    1.08
   2   5   5   20.15    1.31
   2   5   5   22.77    1.17
   2   5   6   91.11    3.20
   2   5   6   94.35    2.95
   2   5   6   84.57    3.47
   2   5   6   91.70    3.29
  -2  -5  -6   92.81    3.30
   2   5   6   93.60    3.03
   2   5   6   89.34    2.83
   2   5   7   71.81    3.22
   2   5   7   78.12    3.15
  -2  -5  -7   78.41    3.11
   2   5   7   78.91    2.93
   2   5   7   80.23    2.78
   2   5   7   73.17    2.97
  -2  -5  -8   79.02    3.00
   2   5   8   77.74    2.84
   2   5   8   78.75    3.23
   2   5   8   74.28    3.30
  -2  -5  -8   72.47    3.10
   2   5   8   78.71    3.01
   2   5   8   75.03    3.11
  -2  -5  -9   37.38    1.90
   2   5   9   41.71    2.24
   2   5   9   37.18    1.87
   2   5   9   37.98    2.18
  -2  -5  -9   41.57    2.21
   2   5   9   39.35    1.99
   2   5   9   38.86    2.13
  -2  -5 -10   52.27    2.06
   2   5  10   52.73    2.46
   2   5  10   53.68    2.16
   2   5  10   54.84    2.45
  -2  -5 -10   53.77    2.36
   2   5  10   52.37    2.18
   2   5  10   52.06    2.31
   2   5  11   36.78    1.50
  -2  -5 -11   36.09    1.33
   2   5  11   37.87    1.54
   2   5  11   39.38    1.74
  -2  -5 -11   36.19    1.64
   2   5  11   36.96    1.74
   2   6  -9    2.01    0.40
   2   6  -9    2.00    0.34
  -2  -6   9    1.41    0.34
  -2  -6   9    1.92    0.35
   2   6  -9    2.31    0.44
   2   6  -8    0.35    0.25
  -2  -6   8    0.38    0.26
  -2  -6   8    1.08    0.40
   2   6  -8    0.99    0.42
   2   6  -8    0.24    0.29
   2   6  -7   52.00    2.41
   2   6  -7   52.01    2.37
  -2  -6   7   51.48    2.25
   2   6  -7   49.79    2.30
   2   6  -6   14.03    1.25
   2   6  -6   16.43    1.39
   2   6  -6   13.23    1.19
  -2  -6   6   15.07    1.19
   2   6  -6   13.63    1.23
   2   6  -5    0.10    0.33
  -2  -6   5    0.15    0.25
   2   6  -5    0.33    0.33
   2   6  -5    0.14    0.33
   2   6  -4    8.97    1.00
   2   6  -4    8.36    0.70
   2   6  -4    7.16    1.00
  -2  -6   4    8.51    0.80
   2   6  -4    7.86    0.69
   2   6  -4    6.89    0.81
   2   6  -3   42.52    1.84
   2   6  -3   43.55    1.92
  -2  -6   3   45.34    1.74
   2   6  -3   42.34    2.26
   2   6  -3   40.21    1.83
   2   6  -3   40.55    1.70
   2   6  -3   43.12    1.84
   2   6  -2  252.77    5.84
  -2  -6   2  256.77    5.50
   2   6  -2  234.40    6.45
   2   6  -2  271.11    6.34
   2   6  -2  244.00    6.05
   2   6  -2  275.91    6.39
   2   6  -2  261.91    5.88
   2   6  -2  261.62    6.07
   2   6  -1   55.20    2.13
   2   6  -1   59.71    1.86
   2   6  -1   58.75    2.40
   2   6  -1   61.23    2.45
   2   6  -1   55.63    1.88
   2   6  -1   57.25    1.94
   2   6  -1   53.49    2.21
   2   6  -1   59.05    2.26
   2   6  -1   55.19    1.94
   2   6   0    0.79    0.26
   2   6   0    1.80    0.35
   2   6   0    1.13    0.34
   2   6   0    0.55    0.26
   2   6   0    0.32    0.30
  -2  -6   0    0.71    0.25
   2   6   0    0.46    0.27
   2   6   0    0.66    0.37
   2   6   0    0.32    0.33
   2   6   1  103.53    3.08
   2   6   1  105.30    3.02
   2   6   1   98.36    3.46
   2   6   1  102.41    3.02
   2   6   1  104.44    3.54
   2   6   1   98.35    2.76
   2   6   1   98.97    2.90
   2   6   1   94.98    3.21
   2   6   2  315.50    6.97
   2   6   2  311.86    6.95
   2   6   2  317.21    7.02
   2   6   2  305.96    7.46
   2   6   2  300.98    7.42
   2   6   2  308.77    7.21
   2   6   2  307.22    6.98
   2   6   2  308.42    6.65
   2   6   3   39.96    1.80
   2   6   3   43.57    1.84
   2   6   3   40.45    1.75
   2   6   3   39.72    1.81
   2   6   3   38.02    1.59
   2   6   3   38.74    1.90
   2   6   3   42.42    1.87
   2   6   3   36.75    1.86
  -2  -6  -3   39.00    1.60
   2   6   3   34.80    1.69
   2   6   4   15.20    1.15
   2   6   4   14.47    1.15
   2   6   4   14.37    1.07
   2   6   4   13.52    1.03
   2   6   4   14.22    0.98
  -2  -6  -4   14.32    0.85
   2   6   4   14.85    1.08
   2   6   4   13.30    1.10
   2   6   4   14.67    1.02
   2   6   4   15.77    1.14
   2   6   5  115.86    3.28
   2   6   5  117.38    3.84
   2   6   5  115.36    3.45
   2   6   5  115.66    3.35
   2   6   5  118.29    3.90
   2   6   5  113.25    3.72
   2   6   5  117.61    4.15
   2   6   5  118.90    3.37
   2   6   5  114.26    3.59
   2   6   6  143.00    4.96
   2   6   6  134.35    4.03
   2   6   6  136.35    4.34
   2   6   6  135.79    3.98
   2   6   6  142.35    4.55
  -2  -6  -6  129.58    4.18
   2   6   6  136.37    4.42
   2   6   7  123.14    4.40
   2   6   7  132.10    3.98
   2   6   7  136.65    4.59
  -2  -6  -7  139.38    4.33
   2   6   7  139.75    3.84
   2   6   7  126.68    4.35
   2   6   8   11.61    1.21
   2   6   8   12.09    1.22
  -2  -6  -8   10.55    1.04
   2   6   8   12.10    1.04
  -2  -6  -8   12.75    1.14
   2   6   8   12.07    0.97
   2   6   8   11.66    1.23
   2   6   9   46.16    1.99
   2   6   9   47.68    2.33
   2   6   9   46.63    2.29
   2   6   9   46.45    2.37
  -2  -6  -9   45.21    2.10
   2   6   9   41.90    1.77
  -2  -6  -9   43.73    2.01
  -2  -6 -10   30.05    1.37
   2   6  10   25.36    1.29
   2   6  10   26.83    1.54
   2   6  10   29.45    1.66
   2   6  10   27.38    1.55
  -2  -6 -10   28.25    1.43
   2   6  11    6.10    0.62
   2   6  11    6.19    0.46
   2   6  11    6.64    0.59
   2   7  -8    7.19    0.62
  -2  -7   8    6.69    0.56
   2   7  -8    8.61    0.74
  -2  -7   8    6.84    0.66
   2   7  -8    6.88    0.66
   2   7  -7   15.08    1.06
  -2  -7   7   15.88    1.02
  -2  -7   7   14.90    1.12
   2   7  -7   16.37    1.20
   2   7  -7   15.47    1.13
   2   7  -6    7.31    0.81
   2   7  -6    6.16    0.87
  -2  -7   6    7.23    0.73
  -2  -7   6    7.69    0.87
   2   7  -5    1.32    0.42
   2   7  -5    1.58    0.58
   2   7  -5    2.35    0.57
  -2  -7   5    1.98    0.42
   2   7  -4    3.60    0.51
   2   7  -4    4.99    0.69
  -2  -7   4    3.17    0.50
   2   7  -4    4.09    0.53
   2   7  -4    4.16    0.84
   2   7  -4    4.51    0.66
   2   7  -3   62.71    3.06
   2   7  -3   68.19    2.58
   2   7  -3   65.29    2.47
   2   7  -3   63.12    2.39
   2   7  -3   68.23    2.56
   2   7  -2   33.13    1.76
   2   7  -2   34.65    1.90
   2   7  -2   30.07    1.78
   2   7  -2   34.01    2.06
  -2  -7   1    2.96    0.45
   2   7  -1    2.50    0.56
   2   7  -1    2.86    0.63
   2   7  -1    2.74    0.57
   2   7  -1    2.63    0.64
   2   7  -1    2.21    0.44
   2   7  -1    4.72    0.76
   2   7   0   11.46    1.16
   2   7   0   11.83    1.24
   2   7   0   11.21    1.06
   2   7   0   11.33    0.95
   2   7   0   11.58    0.92
   2   7   0   11.74    0.99
   2   7   0   12.28    1.27
   2   7   1   50.97    2.28
   2   7   1   47.39    1.97
   2   7   1   46.31    2.54
   2   7   1   46.83    2.54
   2   7   1   49.36    2.10
   2   7   1   47.18    1.93
   2   7   1   44.87    2.38
   2   7   1   45.11    2.06
   2   7   2  218.16    5.46
   2   7   2  206.83    5.59
   2   7   2  219.95    5.34
   2   7   2  213.58    6.22
   2   7   2  220.56    5.64
   2   7   2  214.26    5.73
   2   7   2  210.70    6.21
   2   7   2  211.48    6.02
   2   7   3   53.22    2.14
   2   7   3   59.05    2.65
  -2  -7  -3   54.81    2.02
   2   7   3   54.84    2.48
   2   7   3   53.85    2.40
   2   7   3   52.21    2.52
   2   7   3   52.60    2.35
   2   7   3   51.55    2.33
   2   7   3   54.00    2.30
   2   7   4    4.08    0.66
   2   7   4    2.65    0.60
   2   7   4    3.44    0.61
   2   7   4    3.95    0.62
   2   7   4    3.44    0.61
   2   7   4    3.30    0.61
   2   7   4    4.31    0.67
   2   7   4    3.63    0.69
   2   7   5   51.12    2.42
   2   7   5   56.33    2.28
   2   7   5   54.67    2.52
   2   7   5   50.65    2.13
   2   7   5   51.30    2.56
   2   7   5   52.00    2.41
   2   7   5   52.61    2.13
  -2  -7  -5   54.33    2.22
   2   7   6  267.73    6.47
   2   7   6  259.26    6.86
   2   7   6  245.42    6.54
   2   7   6  269.98    7.17
  -2  -7  -6  265.38    6.38
   2   7   6  254.23    6.92
   2   7   7   28.62    1.86
   2   7   7   29.18    1.60
   2   7   7   28.78    1.88
  -2  -7  -7   29.46    1.59
   2   7   7   28.16    1.80
   2   7   8   25.29    1.65
   2   7   8   25.93    1.42
   2   7   8   23.93    1.63
   2   7   8   25.40    1.69
  -2  -7  -8   24.84    1.36
  -2  -7  -8   24.02    1.50
   2   7   9   80.70    2.53
   2   7   9   83.58    2.97
  -2  -7  -9   79.34    2.63
  -2  -7  -9   85.19    2.39
   2   7   9   78.03    2.89
   2   7   9   84.58    3.04
   2   7  10   69.38    2.37
   2   7  10   72.17    2.31
   2   8  -7   16.23    1.01
  -2  -8   7   13.93    0.85
   2   8  -6    9.54    0.91
  -2  -8   6    9.70    0.80
   2   8  -5    2.07    0.56
  -2  -8   5    1.28    0.40
   2   8  -4   49.20    1.78
   2   8  -4   47.14    1.74
   2   8  -4   51.00    2.57
   2   8  -3   24.80    1.44
   2   8  -3   23.08    1.74
  -2  -8   3   24.41    1.34
   2   8  -3   23.79    1.38
   2   8  -2  109.07    3.88
  -2  -8   2  110.36    3.11
   2   8  -2  108.94    3.75
   2   8  -2  103.65    3.62
   2   8  -1  130.47    3.99
   2   8  -1  120.98    4.33
   2   8  -1  116.58    4.18
   2   8  -1  120.80    4.31
   2   8   0   29.31    1.52
   2   8   0   30.35    1.67
   2   8   0   28.52    2.07
   2   8   0   30.87    2.09
   2   8   0   29.21    2.08
   2   8   1  126.90    3.92
   2   8   1  114.86    4.61
   2   8   1  103.76    4.44
   2   8   1  111.57    4.50
   2   8   1  119.85    3.94
   2   8   2  188.43    5.46
  -2  -8  -2  190.53    4.84
   2   8   2  178.96    5.94
   2   8   2  191.97    5.40
   2   8   2  189.50    6.06
   2   8   2  198.18    5.09
   2   8   2  181.00    5.88
   2   8   2  195.54    5.03
   2   8   3   89.97    3.37
   2   8   3   87.12    3.33
   2   8   3   87.22    3.52
   2   8   3   86.22    2.99
   2   8   3   87.15    3.54
   2   8   3   82.90    3.01
   2   8   3   86.85    3.52
   2   8   4    5.27    0.74
   2   8   4    4.21    0.74
   2   8   4    4.87    0.76
   2   8   4    6.47    0.76
   2   8   4    5.58    0.78
   2   8   4    6.00    0.87
   2   8   5   64.93    2.78
   2   8   5   66.39    2.76
   2   8   5   66.47    2.52
   2   8   5   68.63    2.97
   2   8   5   66.25    2.44
   2   8   5   66.52    2.52
   2   8   6  109.97    3.69
   2   8   6  107.13    3.31
   2   8   6  111.60    3.88
   2   8   6  101.30    2.90
   2   8   7   92.98    2.90
   2   8   7   93.19    3.27
   2   8   7   96.68    3.43
   2   8   8   26.61    1.21
   2   8   8   24.93    1.44
   2   8   8   23.39    1.42
  -2  -8  -8   26.81    1.36
   2   8   9   13.56    0.90
   2   8   9   15.20    0.95
   2   8   9   14.63    0.66
   2   9  -5   14.32    0.99
   2   9  -4   33.76    1.71
   2   9  -3   39.68    1.64
   2   9  -3   37.26    1.57
   2   9  -3   42.84    1.98
   2   9  -2   30.45    1.61
   2   9  -2   28.08    1.60
   2   9  -2   30.86    1.62
   2   9  -1   34.72    1.60
   2   9  -1   33.55    1.92
   2   9  -1   35.14    1.99
   2   9   0   23.67    1.75
   2   9   0   23.66    1.73
   2   9   1   12.02    1.06
  -2  -9  -1    9.78    0.84
   2   9   1   11.50    1.32
   2   9   1    9.58    1.19
   2   9   2  184.15    5.24
   2   9   2  192.38    6.04
   2   9   2  203.99    6.07
   2   9   3   96.19    3.43
   2   9   3  105.85    3.75
   2   9   3  101.51    3.81
   2   9   4    6.52    0.80
   2   9   4    6.52    0.68
   2   9   4    6.16    0.76
   2   9   4    6.54    0.84
   2   9   5   44.27    1.83
   2   9   5   45.71    1.71
   2   9   5   43.07    1.76
   2   9   5   47.20    2.16
   2   9   5   42.61    1.77
   2   9   6  151.86    3.92
   2   9   6  143.00    3.68
   2   9   7   68.82    2.36
   2   9   7   66.40    2.10
   2   9   7   63.68    1.86
   2  10  -3   13.12    0.70
   2  10  -3   13.53    0.56
  -2 -10   2   23.69    1.07
   2  10  -2   25.25    1.15
  -2 -10   1   65.53    1.98
   2  10  -1   69.93    2.31
   2  10  -1   70.67    2.43
   2  10   0   12.70    1.05
   2  10   0   13.29    1.00
   2  10   1   23.10    1.40
   2  10   1   24.82    1.53
   2  10   2   82.04    2.82
   2  10   2   84.01    3.00
   2  10   3   68.45    2.32
   2  10   3   67.55    2.45
   2  10   4    5.42    0.54
   2  10   4    4.92    0.57
   2  10   5    3.31    0.44
  -3   8   2   31.00    1.32
  -3   8   2   31.51    1.31
  -3   8   1    7.53    0.65
  -3   8   1    6.19    0.56
  -3   8   0    2.07    0.33
  -3   8   0    1.28    0.33
  -3   8  -1    1.97    0.37
  -3   8  -2    6.38    0.60
  -3   7   5    0.38    0.21
  -3   7   5    0.53    0.30
  -3   7   4   10.24    0.67
  -3   7   4   12.10    0.90
  -3   7   4   10.27    0.96
  -3   7   4    9.62    0.66
  -3   7   3    2.02    0.43
  -3   7   3    1.65    0.32
  -3   7   3    1.83    0.38
  -3   7   3    1.99    0.48
  -3   7   2    8.65    0.80
  -3   7   2    9.16    0.85
  -3   7   2    8.18    0.67
  -3   7   2    9.52    0.87
  -3   7   1   22.69    1.38
  -3   7   1   20.42    1.28
  -3   7   1   20.97    1.39
  -3   7   1   22.31    1.11
  -3   7   0    6.38    0.86
  -3   7   0    6.69    0.81
  -3   7   0    5.56    0.65
  -3   7   0    6.86    0.77
  -3   7   0    4.82    0.51
  -3   7  -1    1.35    0.46
  -3   7  -1    1.17    0.39
  -3   7  -1    0.77    0.24
  -3   7  -1    0.17    0.37
  -3   7  -1    0.84    0.30
  -3   7  -2   38.22    1.96
  -3   7  -2   40.47    1.88
  -3   7  -3   10.53    1.02
  -3   7  -3    9.65    0.83
  -3   7  -4   11.84    0.81
  -3   7  -4   11.59    1.07
  -3   7  -5   18.86    1.23
  -3   7  -6   20.40    1.12
  -3   6   7    1.43    0.36
  -3   6   7    1.44    0.28
  -3   6   6   27.34    1.31
  -3   6   6   30.86    1.41
  -3   6   6   28.26    1.72
  -3   6   5    2.93    0.50
  -3   6   5    2.45    0.48
   3  -6  -5    3.15    0.43
  -3   6   5    3.22    0.71
  -3   6   5    3.45    0.46
  -3   6   4   -0.04    0.29
  -3   6   4   -0.14    0.27
  -3   6   4    0.16    0.28
  -3   6   4    0.77    0.44
  -3   6   4    0.74    0.39
  -3   6   3    1.17    0.37
  -3   6   3    0.79    0.36
  -3   6   3    1.66    0.46
  -3   6   3    0.75    0.31
  -3   6   3    1.08    0.52
  -3   6   3    1.61    0.48
  -3   6   2   31.04    1.66
  -3   6   2   32.25    1.78
  -3   6   2   31.44    1.73
  -3   6   2   31.62    1.67
  -3   6   2   30.93    1.96
  -3   6   2   31.87    1.64
  -3   6   1   45.28    2.09
  -3   6   1   45.84    2.12
  -3   6   1   47.38    2.39
  -3   6   1   44.75    2.10
  -3   6   1   46.36    2.12
  -3   6   1   45.68    2.00
  -3   6   1   46.29    2.00
  -3   6   1   44.18    2.18
  -3   6   0    5.09    0.68
  -3   6   0    6.47    0.79
  -3   6   0    5.91    0.70
  -3   6   0    5.28    0.74
  -3   6   0    6.99    0.82
  -3   6   0    5.44    0.75
  -3   6   0    5.30    0.79
  -3   6  -1    2.18    0.49
  -3   6  -1    2.85    0.59
  -3   6  -1    2.63    0.58
  -3   6  -1    2.18    0.50
  -3   6  -1    2.04    0.45
  -3   6  -1    2.57    0.49
  -3   6  -1    1.92    0.47
  -3   6  -2   16.40    1.21
  -3   6  -2   16.56    1.23
  -3   6  -2   16.75    1.25
  -3   6  -2   18.63    1.19
  -3   6  -2   18.39    1.34
  -3   6  -2   18.68    1.09
  -3   6  -2   18.24    1.42
  -3   6  -3   68.84    2.59
  -3   6  -3   67.45    2.43
  -3   6  -3   66.50    2.57
  -3   6  -3   71.61    2.99
  -3   6  -4    4.62    0.57
  -3   6  -4    4.49    0.56
  -3   6  -4    3.91    0.76
  -3   6  -4    3.54    0.53
  -3   6  -5   24.05    1.18
  -3   6  -5   22.02    1.18
  -3   6  -6   25.19    1.51
  -3   6  -7   25.13    1.30
   3  -6   7   21.10    0.99
  -3   5   8    7.58    0.79
  -3   5   8    5.99    0.62
   3  -5  -8    7.05    0.64
  -3   5   7   22.60    1.07
  -3   5   7   26.24    1.74
   3  -5  -7   21.80    1.21
  -3   5   7   23.74    1.38
  -3   5   7   22.62    1.35
  -3   5   6    8.25    0.73
  -3   5   6    6.95    0.82
  -3   5   6    7.85    0.73
   3  -5  -6    8.40    0.78
  -3   5   6    7.73    1.06
  -3   5   6    8.10    0.85
  -3   5   5   12.35    0.89
  -3   5   5   12.51    1.03
  -3   5   5   13.97    1.03
  -3   5   5   14.99    1.47
   3  -5  -5   14.14    1.04
  -3   5   5   15.06    1.21
  -3   5   5   12.53    1.04
  -3   5   4    2.71    0.46
  -3   5   4    3.60    0.66
  -3   5   4    3.25    0.56
  -3   5   4    3.65    0.49
   3  -5  -4    3.80    0.57
  -3   5   4    3.71    0.78
  -3   5   4    3.93    0.59
  -3   5   4    3.52    0.56
  -3   5   3    0.25    0.25
  -3   5   3    0.67    0.34
  -3   5   3    0.15    0.23
   3  -5  -3    1.51    0.36
  -3   5   3    0.41    0.31
  -3   5   3    0.23    0.42
  -3   5   3    0.08    0.31
  -3   5   3    0.83    0.38
  -3   5   3    0.85    0.38
  -3   5   2   68.70    2.51
  -3   5   2   64.26    2.52
  -3   5   2   60.13    2.40
  -3   5   2   62.29    2.50
  -3   5   2   60.70    2.48
  -3   5   2   60.21    2.43
  -3   5   2   62.56    2.54
  -3   5   2   57.64    2.70
  -3   5   2   64.33    2.51
  -3   5   1  119.61    3.79
  -3   5   1  116.84    3.68
  -3   5   1  120.79    3.70
  -3   5   1  127.02    3.84
  -3   5   1  125.53    3.79
  -3   5   1  121.13    4.02
  -3   5   1  128.36    3.81
  -3   5   1  116.49    3.50
  -3   5   1  117.49    3.76
  -3   5   1  120.27    3.79
  -3   5   0    0.18    0.30
  -3   5   0    0.88    0.37
  -3   5   0    0.58    0.33
  -3   5   0    0.38    0.38
  -3   5   0    0.48    0.37
  -3   5   0    0.62    0.38
  -3   5   0    0.68    0.35
  -3   5   0    0.64    0.42
  -3   5   0    0.50    0.35
  -3   5  -1   26.81    1.52
  -3   5  -1   24.99    1.54
  -3   5  -1   26.46    1.40
  -3   5  -1   24.59    1.48
  -3   5  -1   24.75    1.49
  -3   5  -1   24.56    1.54
  -3   5  -1   26.89    1.59
  -3   5  -1   25.78    1.55
  -3   5  -2  102.29    3.33
  -3   5  -2   93.35    3.18
  -3   5  -2   98.30    3.45
  -3   5  -2   93.96    3.19
  -3   5  -2   95.06    2.86
  -3   5  -2   99.88    3.26
  -3   5  -2   91.52    3.21
  -3   5  -2  101.41    3.32
  -3   5  -3   72.33    2.94
  -3   5  -3   71.88    2.64
  -3   5  -3   66.62    2.52
  -3   5  -3   72.56    2.66
  -3   5  -3   70.20    2.57
  -3   5  -3   70.76    2.69
  -3   5  -4   15.77    1.21
  -3   5  -4   14.70    1.27
  -3   5  -4   14.81    1.04
  -3   5  -4   13.16    0.99
  -3   5  -4   15.67    1.06
  -3   5  -4   14.65    1.03
  -3   5  -5    2.29    0.41
  -3   5  -5    1.73    0.48
  -3   5  -5    1.91    0.54
  -3   5  -5    2.25    0.54
  -3   5  -6   29.85    1.75
   3  -5   6   33.08    1.55
  -3   5  -6   30.22    1.76
  -3   5  -6   31.60    1.71
   3  -5   7   44.71    1.77
  -3   5  -7   43.49    1.99
  -3   5  -7   44.60    1.92
  -3   5  -7   47.15    2.16
  -3   5  -8    0.69    0.27
  -3   5  -8    1.03    0.30
  -3   5  -8    0.92    0.32
   3  -5   8    1.39    0.35
   3  -5   9    9.15    0.67
  -3   5  -9    8.81    0.52
   3  -4  -9    0.41    0.23
   3  -4  -9    0.34    0.22
  -3   4   9    0.97    0.30
  -3   4   9    0.38    0.27
   3  -4  -8    6.66    0.69
  -3   4   8    5.43    0.68
  -3   4   8    7.25    0.92
  -3   4   8    6.12    0.76
  -3   4   7    0.72    0.38
  -3   4   7    0.81    0.47
  -3   4   7    0.18    0.21
   3  -4  -7    1.00    0.37
  -3   4   7    0.41    0.45
  -3   4   7    0.12    0.32
  -3   4   6   60.09    2.64
   3  -4  -6   60.60    2.44
  -3   4   6   58.28    2.18
  -3   4   6   55.83    3.04
  -3   4   6   56.00    2.39
  -3   4   6   60.13    2.63
  -3   4   5   43.48    1.96
  -3   4   5   44.22    1.96
   3  -4  -5   42.85    1.99
  -3   4   5   42.57    2.51
  -3   4   5   43.38    1.83
  -3   4   5   44.60    2.21
  -3   4   4    7.63    0.66
   3  -4  -4    7.29    0.76
  -3   4   4    7.84    0.81
  -3   4   4    5.74    0.89
  -3   4   4    7.76    0.78
  -3   4   4    8.18    0.76
  -3   4   4    7.16    0.65
  -3   4   4    7.47    0.74
  -3   4   4    7.38    0.87
  -3   4   4    7.75    0.68
  -3   4   4    7.30    0.64
  -3   4   3    2.24    0.41
  -3   4   3    2.08    0.37
  -3   4   3    1.26    0.29
  -3   4   3    1.78    0.39
  -3   4   3    1.83    0.44
  -3   4   3    1.53    0.37
   3  -4  -3    2.47    0.43
  -3   4   3    2.12    0.46
  -3   4   3    3.02    0.63
  -3   4   3    1.68    0.38
  -3   4   3    2.48    0.51
  -3   4   2   14.35    1.08
  -3   4   2   14.50    1.05
  -3   4   2   14.10    0.98
  -3   4   2   16.37    1.05
  -3   4   2   14.50    1.03
  -3   4   2   14.86    1.06
  -3   4   2   16.05    1.15
  -3   4   2   15.71    1.20
  -3   4   2   15.81    1.09
  -3   4   2   15.89    1.05
  -3   4   1  100.53    2.98
  -3   4   1   98.67    3.06
  -3   4   1  103.17    3.09
  -3   4   1  100.48    3.08
  -3   4   1  101.64    3.14
  -3   4   1  102.37    3.24
  -3   4   1   97.36    3.18
  -3   4   1  101.00    3.17
  -3   4   1  100.40    3.25
  -3   4   1  102.47    3.12
  -3   4   0    5.88    0.65
  -3   4   0    3.79    0.58
  -3   4   0    5.56    0.65
  -3   4   0    4.42    0.57
  -3   4   0    4.51    0.57
  -3   4   0    4.90    0.65
  -3   4   0    4.45    0.61
  -3   4   0    5.25    0.58
  -3   4   0    5.22    0.63
  -3   4   0    4.57    0.61
  -3   4  -1   11.30    0.92
  -3   4  -1    9.01    0.83
  -3   4  -1   11.00    0.89
  -3   4  -1   10.83    0.90
  -3   4  -1   11.27    0.94
  -3   4  -1   10.25    0.85
  -3   4  -1    9.43    0.88
  -3   4  -1   10.01    0.78
  -3   4  -1   11.83    0.93
  -3   4  -2   83.63    2.84
  -3   4  -2   84.51    2.70
  -3   4  -2   79.47    2.42
  -3   4  -2   78.71    2.64
  -3   4  -2   82.52    2.81
  -3   4  -2   79.28    2.76
  -3   4  -2   75.32    2.71
  -3   4  -2   79.17    2.66
  -3   4  -3  373.13    7.98
  -3   4  -3  379.57    8.40
  -3   4  -3  365.97    7.96
  -3   4  -3  359.04    7.73
  -3   4  -3  361.73    8.34
  -3   4  -3  368.74    8.16
  -3   4  -3  363.12    8.13
  -3   4  -3  373.82    8.02
  -3   4  -4    5.38    0.59
  -3   4  -4    3.79    0.51
  -3   4  -4    4.02    0.64
  -3   4  -4    4.75    0.57
  -3   4  -4    4.90    0.72
  -3   4  -4    4.60    0.57
  -3   4  -4    5.27    0.62
  -3   4  -4    4.49    0.63
  -3   4  -5    2.10    0.53
  -3   4  -5    2.18    0.39
  -3   4  -5    1.63    0.34
  -3   4  -5    2.15    0.36
  -3   4  -5    2.83    0.57
   3  -4   5    1.50    0.35
  -3   4  -5    1.88    0.36
  -3   4  -5    1.74    0.55
  -3   4  -6  145.78    4.34
   3  -4   6  139.78    3.69
  -3   4  -6  148.77    4.69
  -3   4  -6  140.84    4.44
  -3   4  -7   68.88    2.95
  -3   4  -7   68.87    2.62
   3  -4   7   69.23    2.61
  -3   4  -7   68.78    2.92
  -3   4  -7   64.26    2.72
  -3   4  -8   68.11    2.37
   3  -4   8   71.41    2.54
  -3   4  -8   64.23    2.70
  -3   4  -8   66.02    2.79
  -3   4  -8   61.06    2.51
   3  -4   9   68.72    2.33
  -3   4  -9   71.33    2.06
  -3   4  -9   73.00    2.75
  -3   4  -9   70.56    2.48
  -3   4 -10   52.90    1.98
   3  -4  10   55.60    1.86
  -3   4 -10   50.57    1.65
  -3   3  10    0.42    0.23
  -3   3  10    1.02    0.31
  -3   3   9    2.28    0.52
   3  -3  -9    1.93    0.40
  -3   3   9    1.93    0.49
   3  -3  -9    1.18    0.34
  -3   3   9    1.65    0.45
   3  -3  -8    0.72    0.35
  -3   3   8    0.35    0.37
  -3   3   8    0.16    0.31
  -3   3   8    0.28    0.40
  -3   3   7   12.71    1.17
  -3   3   7   12.98    1.44
   3  -3  -7   11.93    1.08
  -3   3   7   12.89    1.28
  -3   3   7   12.06    1.16
   3  -3  -6    4.75    0.69
  -3   3   6    5.35    0.80
  -3   3   6    4.87    0.85
  -3   3   6    5.49    0.78
  -3   3   6    5.43    0.60
  -3   3   6    5.21    0.97
  -3   3   6    5.07    0.73
  -3   3   5    5.84    0.79
  -3   3   5    3.81    0.61
  -3   3   5    5.61    0.64
   3  -3  -5    4.60    0.65
  -3   3   5    4.60    0.80
  -3   3   5    4.71    0.67
  -3   3   5    4.52    0.84
  -3   3   4    0.66    0.27
  -3   3   4    0.66    0.21
  -3   3   4    0.54    0.22
  -3   3   4    0.07    0.30
  -3   3   4    0.69    0.30
   3  -3  -4    0.49    0.28
  -3   3   4    0.96    0.48
  -3   3   4    0.58    0.19
  -3   3   3    4.94    0.61
  -3   3   3    3.94    0.49
  -3   3   3    3.33    0.43
  -3   3   3    4.16    0.47
  -3   3   3    4.85    0.60
   3  -3  -3    4.31    0.52
  -3   3   3    3.43    0.48
  -3   3   3    4.22    0.61
  -3   3   3    4.17    0.46
  -3   3   3    2.90    0.41
  -3   3   3    3.90    0.49
  -3   3   2   78.80    2.55
  -3   3   2   76.91    2.36
  -3   3   2   74.60    2.57
  -3   3   2   78.60    2.16
  -3   3   2   78.54    2.37
  -3   3   2   73.72    2.19
  -3   3   2   78.40    2.50
  -3   3   2   79.46    2.50
  -3   3   2   76.95    2.48
  -3   3   2   75.88    2.24
  -3   3   2   73.60    2.31
  -3   3   1  129.81    3.41
  -3   3   1  128.96    3.47
  -3   3   1  132.04    3.42
  -3   3   1  133.29    3.47
  -3   3   1  126.19    3.19
  -3   3   1  125.77    3.50
  -3   3   1  127.81    3.27
  -3   3   1  130.26    3.54
  -3   3   1  131.87    3.40
  -3   3   1  130.42    3.53
  -3   3   0    2.87    0.44
  -3   3   0    2.58    0.38
  -3   3   0    2.88    0.45
  -3   3   0    3.36    0.44
  -3   3   0    3.14    0.43
  -3   3   0    3.42    0.46
  -3   3   0    4.46    0.53
  -3   3   0    2.44    0.42
  -3   3   0    3.38    0.43
  -3   3   0    2.92    0.45
  -3   3  -1   12.57    0.84
  -3   3  -1   11.86    0.75
  -3   3  -1   12.08    0.84
  -3   3  -1   12.29    0.82
  -3   3  -1   13.75    0.93
  -3   3  -1   13.93    0.85
  -3   3  -1   13.00    0.91
  -3   3  -1   13.02    0.91
  -3   3  -1   11.95    0.82
  -3   3  -2  101.68    2.94
  -3   3  -2  105.41    2.88
   3  -3   2  100.72    2.56
  -3   3  -2  101.92    2.58
  -3   3  -2   97.75    2.82
  -3   3  -2   98.36    3.01
  -3   3  -2   98.79    2.97
  -3   3  -2  101.06    2.83
  -3   3  -2   94.21    2.93
  -3   3  -3  166.11    4.03
  -3   3  -3  160.40    4.00
  -3   3  -3  166.38    4.18
  -3   3  -3  168.79    4.26
  -3   3  -3  158.02    3.98
  -3   3  -3  170.60    4.45
  -3   3  -3  163.23    4.16
  -3   3  -3  167.25    4.03
  -3   3  -4    2.22    0.38
  -3   3  -4    3.03    0.44
  -3   3  -4    2.03    0.40
  -3   3  -4    3.63    0.44
  -3   3  -4    1.53    0.38
   3  -3   4    2.17    0.32
  -3   3  -4    2.05    0.36
  -3   3  -4    1.88    0.35
  -3   3  -4    2.41    0.47
  -3   3  -5    0.92    0.26
  -3   3  -5    2.04    0.33
  -3   3  -5    1.39    0.45
   3  -3   5    1.62    0.41
  -3   3  -5    1.47    0.31
  -3   3  -5    1.76    0.47
  -3   3  -5    1.27    0.31
  -3   3  -6  128.93    3.77
  -3   3  -6  124.66    4.01
   3  -3   6  126.24    3.65
  -3   3  -7  178.78    4.72
  -3   3  -7  180.02    5.28
   3  -3   7  178.39    4.63
  -3   3  -8   18.84    1.12
  -3   3  -8   18.12    1.48
   3  -3   8   16.34    1.27
   3  -3   8   18.88    1.14
   3  -3   9   14.65    1.13
   3  -3   9   15.78    0.94
  -3   3  -9   13.95    1.23
  -3   3 -10   77.07    2.70
   3  -3  10   75.37    2.56
   3  -3  10   79.70    2.60
  -3   3 -10   78.66    2.85
  -3   3 -11   28.99    1.34
  -3   3 -11   30.13    1.23
  -3   3 -11   29.72    1.20
  -3   2  10    3.04    0.52
   3  -2 -10    2.72    0.46
  -3   2  10    2.55    0.45
  -3   2  10    4.04    0.54
  -3   2   9    0.82    0.41
   3  -2  -9    1.23    0.35
   3  -2  -9    1.02    0.34
  -3   2   9    0.39    0.36
  -3   2   9    0.71    0.43
   3  -2  -9    0.97    0.35
  -3   2   9    1.43    0.42
   3  -2  -8    4.89    0.72
  -3   2   8    5.11    0.84
  -3   2   8    3.33    0.66
  -3   2   8    6.08    0.96
   3  -2  -8    4.42    0.61
   3  -2  -7   10.84    1.04
  -3   2   7   12.83    1.38
  -3   2   7   11.97    1.15
   3  -2  -7   10.88    0.92
  -3   2   7   10.39    1.33
  -3   2   7   11.59    1.12
  -3   2   6    8.73    0.96
  -3   2   6    8.21    0.92
   3  -2  -6    9.57    0.94
  -3   2   6    7.91    0.64
  -3   2   6    9.63    0.99
   3  -2  -6    8.45    0.77
  -3   2   6    7.07    1.08
  -3   2   6    7.27    1.07
  -3   2   5    6.62    0.75
  -3   2   5    6.95    0.69
   3  -2  -5    6.11    0.72
  -3   2   5    6.48    0.96
  -3   2   5    6.89    0.64
   3  -2  -5    8.44    0.67
  -3   2   5    6.74    0.89
  -3   2   5    8.05    0.84
  -3   2   4   25.98    1.24
  -3   2   4   27.91    1.32
   3  -2  -4   24.08    1.29
  -3   2   4   24.23    1.57
  -3   2   4   24.60    1.48
  -3   2   4   25.18    1.32
  -3   2   4   23.95    1.03
  -3   2   4   26.06    1.07
  -3   2   4   24.60    1.34
  -3   2   3   37.72    1.42
  -3   2   3   36.06    1.56
   3  -2  -3   37.82    1.36
  -3   2   3   38.80    1.52
   3  -2  -3   38.63    1.53
  -3   2   3   39.48    1.56
  -3   2   3   38.69    1.82
  -3   2   3   38.19    1.51
  -3   2   3   36.90    1.41
  -3   2   3   38.66    1.62
  -3   2   2   18.45    0.91
   3  -2  -2   17.84    0.85
  -3   2   2   19.66    0.98
  -3   2   2   17.49    0.94
  -3   2   2   19.13    1.00
  -3   2   1  101.67    2.58
   3  -2  -1  104.79    2.72
   3  -2  -1  103.70    2.49
  -3   2   1  106.89    2.79
  -3   2   1  110.76    2.79
  -3   2   1  101.47    2.37
  -3   2   1  104.21    2.80
  -3   2   1  105.30    2.82
   3  -2   0  156.09    3.38
   3  -2   0  163.72    3.89
   3  -2   0  165.38    3.28
  -3   2   0  165.44    3.83
   3  -2   0  166.38    3.20
  -3   2   0  164.80    3.91
   3  -2   0  157.05    3.70
  -3   2   0  161.64    3.90
   3  -2   1    0.65    0.12
  -3   2  -1    0.59    0.24
  -3   2  -1    0.60    0.11
   3  -2   1    0.68    0.22
  -3   2  -1    0.77    0.25
  -3   2  -1    0.61    0.22
  -3   2  -1    0.58    0.22
   3  -2   1    0.81    0.25
   3  -2   1    0.77    0.18
  -3   2  -2  144.02    3.44
  -3   2  -2  146.70    3.00
   3  -2   2  138.20    3.23
   3  -2   2  140.05    2.71
  -3   2  -2  142.12    3.46
   3  -2   2  137.33    3.46
  -3   2  -2  139.20    3.50
  -3   2  -2  143.54    3.53
   3  -2   3  647.22   12.82
  -3   2  -3  668.62   12.37
  -3   2  -3  667.63   12.69
  -3   2  -3  666.41   13.04
  -3   2  -3  664.05   12.83
  -3   2  -3  683.14   12.84
  -3   2  -4   99.03    2.67
  -3   2  -4  103.84    2.80
  -3   2  -4  106.07    3.14
   3  -2   4   95.06    2.67
  -3   2  -4  102.14    2.70
  -3   2  -4   98.96    2.87
  -3   2  -5   18.23    1.04
  -3   2  -5   19.02    1.17
   3  -2   5   17.62    0.93
  -3   2  -5   18.79    1.03
  -3   2  -5   18.10    0.86
  -3   2  -5   18.38    0.88
  -3   2  -6  117.43    3.30
  -3   2  -6  118.02    3.69
   3  -2   6  123.10    3.01
  -3   2  -6  123.42    3.54
   3  -2   6  115.06    3.53
  -3   2  -7  229.84    5.31
  -3   2  -7  224.93    5.79
  -3   2  -7  226.82    6.05
   3  -2   7  218.49    5.65
  -3   2  -8   75.10    2.28
   3  -2   8   77.43    2.99
  -3   2  -8   70.86    2.83
   3  -2   8   72.05    2.68
  -3   2  -8   74.63    3.07
   3  -2   9   23.73    1.39
   3  -2   9   24.46    1.56
  -3   2  -9   23.26    1.50
  -3   2  -9   23.50    1.65
   3  -2  10   29.52    1.55
   3  -2  10   26.55    1.54
   3  -2  10   27.60    1.36
  -3   2 -10   27.61    1.68
   3  -2  11   29.14    1.39
   3  -2  11   29.31    1.31
  -3   2 -11   32.39    1.59
  -3   2 -11   30.19    1.52
   3  -1 -10    8.60    0.79
  -3   1  10    8.50    0.84
  -3   1  10    8.57    0.81
  -3   1  10    9.38    0.88
   3  -1 -10    8.07    0.72
  -3   1  10    9.02    0.81
   3  -1  -9    0.97    0.41
  -3   1   9    1.13    0.42
   3  -1  -9    1.02    0.33
   3  -1  -9    0.83    0.34
  -3   1   9    0.97    0.49
  -3   1   9    0.51    0.35
  -3   1   8   57.31    2.82
  -3   1   8   65.31    2.80
   3  -1  -8   61.41    2.39
   3  -1  -8   56.56    2.55
   3  -1  -8   61.26    2.55
  -3   1   8   58.56    2.87
  -3   1   7   43.55    2.33
   3  -1  -7   60.75    2.57
  -3   1   7   61.45    2.96
  -3   1   7   63.87    2.53
  -3   1   7   51.63    2.72
  -3   1   7   39.52    2.22
   3  -1  -7   63.37    2.51
  -3   1   7   57.94    2.51
  -3   1   6    0.57    0.34
  -3   1   6    0.14    0.35
   3  -1  -6    0.54    0.35
  -3   1   6    0.77    0.44
  -3   1   6    0.48    0.31
  -3   1   6   -0.29    0.37
   3  -1  -6    0.24    0.24
  -3   1   6    0.43    0.51
  -3   1   5   20.16    1.22
   3  -1  -5   18.68    1.19
  -3   1   5   20.04    1.47
  -3   1   5   17.13    1.31
  -3   1   5   19.39    0.88
  -3   1   5   18.46    1.34
   3  -1  -5   20.75    1.19
  -3   1   5   18.79    1.33
  -3   1   5   17.54    1.14
  -3   1   4  101.78    2.53
  -3   1   4  107.63    3.25
   3  -1  -4   98.82    2.93
  -3   1   4  100.16    3.05
  -3   1   4  101.41    2.99
   3  -1  -4  103.74    2.85
  -3   1   4  105.71    3.44
  -3   1   4  104.43    2.95
  -3   1   3  111.39    3.30
  -3   1   3  107.59    2.86
  -3   1   3  108.56    2.63
  -3   1   3  111.00    2.66
  -3   1   3  107.19    3.08
   3  -1  -3  108.21    2.78
   3  -1  -3  110.41    2.86
   3  -1  -3  109.80    2.62
  -3   1   3  105.81    2.63
  -3   1   3  109.71    2.66
  -3   1   2   45.12    1.44
  -3   1   2   44.35    1.41
  -3   1   2   43.50    1.48
   3  -1  -2   42.32    1.36
  -3   1   2   43.06    1.27
   3  -1  -2   43.72    1.55
  -3   1   2   42.72    1.58
   3  -1  -2   42.43    1.36
  -3   1   2   42.03    1.66
  -3   1   2   41.86    1.40
  -3   1   1  111.29    2.87
   3  -1  -1  109.10    2.51
  -3   1   1  111.98    2.47
  -3   1   1  108.10    2.72
   3  -1  -1  114.60    2.84
  -3   1   1  110.82    2.62
  -3   1   1  113.94    2.95
  -3   1   1  116.31    2.76
  -3   1   1  114.95    2.77
   3  -1   0  170.83    3.19
  -3   1   0  167.09    3.46
   3  -1   0  170.75    3.21
   3  -1   0  170.65    3.37
   3  -1   0  161.43    3.80
  -3   1   0  165.69    3.85
   3  -1   0  168.78    3.44
  -3   1   0  177.40    3.82
  -3   1   0  167.52    3.45
  -3   1   0  172.38    3.67
  -3   1   0  172.50    3.81
  -3   1   0  168.04    3.78
  -3   1  -1   12.77    0.61
  -3   1  -1   12.14    0.55
   3  -1   1   12.44    0.37
   3  -1   1   11.07    0.68
  -3   1  -1   11.21    0.66
   3  -1   1   12.50    0.39
  -3   1  -1   13.20    0.70
  -3   1  -1   12.09    0.68
  -3   1  -1   13.25    0.71
  -3   1  -2   46.28    1.35
   3  -1   2   46.44    1.52
  -3   1  -2   45.03    1.46
  -3   1  -2   44.51    1.48
  -3   1  -2   45.70    1.52
  -3   1  -2   46.73    1.48
  -3   1  -2   47.14    1.50
  -3   1  -3  306.28    6.06
  -3   1  -3  291.79    6.01
  -3   1  -3  282.46    6.23
  -3   1  -3  296.59    6.06
  -3   1  -3  296.20    6.07
   3  -1   3  305.69    6.17
  -3   1  -4  217.30    4.81
   3  -1   4  223.20    5.02
   3  -1   4  222.66    4.90
  -3   1  -4  231.26    4.71
  -3   1  -4  227.97    5.19
   3  -1   4  217.71    4.90
  -3   1  -4  223.52    4.64
  -3   1  -4  212.52    4.67
  -3   1  -4  223.51    4.71
   3  -1   5   21.11    1.10
   3  -1   5   20.22    0.89
  -3   1  -5   21.37    0.83
  -3   1  -5   20.56    1.23
   3  -1   5   22.31    1.08
  -3   1  -5   20.34    1.06
  -3   1  -5   20.79    1.14
  -3   1  -5   21.42    0.82
  -3   1  -6  103.16    3.16
  -3   1  -6  101.53    2.53
  -3   1  -6   97.62    3.20
  -3   1  -6   97.62    3.01
   3  -1   6   98.83    2.79
   3  -1   6  101.03    3.15
  -3   1  -7  308.78    7.34
  -3   1  -7  306.51    7.32
  -3   1  -7  303.02    7.22
   3  -1   7  298.98    6.58
   3  -1   7  308.37    7.23
  -3   1  -7  308.03    6.70
  -3   1  -8   31.33    1.81
   3  -1   8   32.23    1.84
  -3   1  -8   28.41    1.74
   3  -1   8   32.23    1.36
   3  -1   8   32.08    1.74
  -3   1  -8   29.28    1.49
   3  -1   9   23.98    1.59
  -3   1  -9   22.74    1.56
   3  -1   9   22.98    1.48
  -3   1  -9   24.22    1.35
  -3   1  -9   22.39    1.57
   3  -1  10   29.21    1.67
  -3   1 -10   27.90    1.64
  -3   1 -10   29.87    1.74
   3  -1  11   99.40    3.14
  -3   1 -11  101.96    3.13
   3  -1  11   95.94    2.84
   3  -1  11  104.18    3.00
  -3   1 -11  107.64    3.29
   3  -1  12   68.29    1.84
  -3   1 -12   66.79    2.26
  -3   0  11   12.34    0.79
   3   0 -10    1.16    0.35
  -3   0  10    0.65    0.34
  -3   0  10    0.93    0.33
   3   0 -10    1.29    0.43
  -3   0  10    1.07    0.36
  -3   0  10    0.94    0.31
  -3   0   9    1.33    0.43
  -3   0   9    1.57    0.53
  -3   0   9    1.44    0.47
  -3   0   9    2.56    0.51
   3   0  -9    1.29    0.41
   3   0  -9    1.12    0.41
  -3   0   8   34.20    1.87
  -3   0   8   39.53    2.27
   3   0  -8   35.84    1.66
   3   0  -8   39.30    2.08
  -3   0   8   34.81    1.97
  -3   0   8   37.49    2.13
   3   0  -8   38.56    2.09
   3   0  -8   38.91    1.62
  -3   0   8   34.66    1.94
   3   0  -7   21.16    1.29
  -3   0   7   19.04    1.49
   3   0  -7   22.91    1.21
   3   0  -7   20.85    1.46
  -3   0   7   24.10    1.74
  -3   0   7   22.35    1.55
  -3   0   7   21.46    1.50
   3   0  -7   20.66    1.48
  -3   0   7   22.40    1.48
  -3   0   6    3.64    0.54
  -3   0   6    2.83    0.61
   3   0  -6    2.74    0.55
  -3   0   6    3.00    0.63
   3   0  -6    3.70    0.48
  -3   0   6    2.61    0.54
  -3   0   6    2.85    0.54
   3   0  -6    3.03    0.55
  -3   0   5    0.56    0.31
  -3   0   5    0.20    0.28
  -3   0   5    0.36    0.29
  -3   0   5    0.30    0.29
   3   0  -5    0.61    0.29
   3   0  -5    0.64    0.22
  -3   0   5    0.36    0.26
   3   0  -5    0.58    0.29
  -3   0   4   31.15    1.58
  -3   0   4   28.29    0.93
   3   0  -4   29.19    1.33
  -3   0   4   28.17    1.23
  -3   0   4   27.76    1.24
  -3   0   4   29.90    1.53
  -3   0   4   31.06    1.47
   3   0  -4   31.08    1.39
  -3   0   4   30.37    1.34
  -3   0   3    3.31    0.39
  -3   0   3    3.85    0.53
  -3   0   3    4.25    0.52
   3   0  -3    4.34    0.46
  -3   0   3    4.33    0.36
   3   0  -3    3.68    0.43
   3   0  -3    3.79    0.41
  -3   0   3    3.82    0.43
  -3   0   3    3.12    0.38
  -3   0   3    3.33    0.31
  -3   0   3    3.74    0.31
  -3   0   3    4.60    0.52
   3   0  -3    3.80    0.43
  -3   0   2    7.88    0.54
  -3   0   2    9.07    0.58
  -3   0   2    9.58    0.54
   3   0  -2    8.19    0.59
  -3   0   2    8.69    0.66
   3   0  -2    7.74    0.48
  -3   0   2    8.72    0.66
  -3   0   2    8.23    0.54
  -3   0   2    8.07    0.48
  -3   0   2    9.25    0.51
   3   0  -1  137.99    3.08
  -3   0   1  134.70    3.24
  -3   0   1  136.43    3.00
  -3   0   1  134.86    3.08
  -3   0   1  140.18    3.27
   3   0  -1  130.72    3.19
  -3   0   1  138.40    3.05
  -3   0   1  139.13    3.04
  -3   0   0  117.53    2.43
   3   0   0  117.02    2.21
  -3   0   0  119.36    2.82
   3   0   0  120.44    2.62
  -3   0   0  113.82    2.72
  -3   0   0  116.16    2.69
  -3   0   0  117.86    2.69
  -3   0  -1   45.71    1.34
   3   0   1   44.52    1.15
  -3   0  -1   42.33    1.35
  -3   0  -1   44.99    1.40
   3   0   1   45.57    1.19
  -3   0  -1   43.90    1.34
  -3   0  -1   46.63    1.35
  -3   0  -2   11.70    0.62
   3   0   2   10.99    0.55
  -3   0  -2   11.02    0.60
   3   0   2   10.98    0.43
  -3   0  -2   13.00    0.65
  -3   0  -2   10.38    0.61
   3   0   2    9.64    0.57
  -3   0  -2    9.96    0.56
  -3   0  -2   11.03    0.58
  -3   0  -3  678.58   12.90
   3   0   3  672.18   12.75
  -3   0  -3  675.23   12.83
   3   0   3  697.39   12.76
  -3   0  -3  681.61   12.40
  -3   0  -3  700.83   12.70
  -3   0  -3  667.39   12.62
  -3   0  -3  683.76   12.65
  -3   0  -3  690.48   12.91
  -3   0  -4   74.09    2.12
   3   0   4   76.16    2.02
  -3   0  -4   71.12    1.84
  -3   0  -4   74.45    1.75
   3   0   4   72.00    2.19
  -3   0  -4   76.14    2.22
   3   0   4   70.68    2.07
  -3   0  -4   72.44    1.80
  -3   0  -4   69.95    1.77
   3   0   4   71.49    2.07
   3   0   5    9.82    0.66
  -3   0  -5   10.71    0.53
   3   0   5   10.98    0.81
   3   0   5    9.69    0.65
  -3   0  -5    9.02    0.74
  -3   0  -5   10.82    0.54
   3   0   5    8.94    0.69
   3   0   5   10.33    0.79
  -3   0  -5    9.24    0.64
   3   0   6   69.89    2.08
  -3   0  -6   76.20    2.45
  -3   0  -6   70.63    2.47
   3   0   6   78.24    2.40
   3   0   6   71.90    2.52
  -3   0  -6   72.60    2.31
  -3   0  -7  261.11    6.35
   3   0   7  262.99    6.07
   3   0   7  263.73    6.47
  -3   0  -7  264.11    6.20
  -3   0  -7  274.03    6.36
   3   0   8  230.02    5.93
  -3   0  -8  222.73    5.66
   3   0   8  219.87    5.38
   3   0   8  224.19    5.93
  -3   0  -8  215.99    5.65
  -3   0  -8  229.52    5.84
   3   0   9    0.16    0.32
  -3   0  -9    0.36    0.38
   3   0   9    0.48    0.27
   3   0   9    0.44    0.40
  -3   0  -9    0.75    0.43
  -3   0  -9    0.56    0.39
   3   0  10   40.60    1.78
   3   0  10   38.38    1.99
  -3   0 -10   39.41    2.11
   3   0  10   39.50    2.01
  -3   0 -10   39.62    1.91
  -3   0 -10   39.22    1.97
   3   0  11  115.03    3.48
  -3   0 -11  111.78    3.58
   3   0  11  108.27    3.41
  -3   0 -11  113.24    3.26
  -3   0 -11  112.34    3.37
   3   0  12   50.03    1.75
   3   0  12   49.43    1.60
  -3   0 -12   49.42    1.82
   3   0  12   46.17    1.69
  -3  -1  11   28.71    1.23
  -3  -1  11   28.95    1.29
  -3  -1  10    9.96    0.80
   3   1 -10    7.79    0.63
  -3  -1  10    8.71    0.70
  -3  -1  10    8.58    0.87
   3   1 -10    9.76    0.88
  -3  -1  10    8.38    0.83
   3   1 -10    8.13    0.84
  -3  -1  10    9.59    0.68
   3   1  -9   -0.27    0.26
  -3  -1   9    0.64    0.38
   3   1  -9    0.56    0.35
  -3  -1   9   -0.11    0.29
  -3  -1   9   -0.07    0.34
   3   1  -9    0.13    0.32
  -3  -1   9    0.11    0.36
   3   1  -8   44.55    1.97
   3   1  -8   41.38    1.66
  -3  -1   8   40.93    2.16
   3   1  -8   43.25    2.22
  -3  -1   8   41.12    2.29
  -3  -1   8   43.39    2.08
   3   1  -8   41.46    1.87
  -3  -1   8   41.52    2.01
   3   1  -8   41.06    2.25
   3   1  -7   76.96    2.95
   3   1  -7   70.27    2.57
  -3  -1   7   67.95    2.89
  -3  -1   7   73.98    3.06
   3   1  -7   70.71    2.53
  -3  -1   7   69.19    2.68
   3   1  -7   69.23    2.95
  -3  -1   7   68.95    2.66
   3   1  -7   69.96    2.39
  -3  -1   6    2.24    0.45
   3   1  -6    1.47    0.42
   3   1  -6    1.73    0.37
  -3  -1   6    1.74    0.43
   3   1  -6    2.55    0.53
  -3  -1   6    2.68    0.56
  -3  -1   6    1.45    0.33
   3   1  -6    3.12    0.47
  -3  -1   6    1.87    0.45
   3   1  -6    2.34    0.49
  -3  -1   5    1.54    0.34
  -3  -1   5    1.16    0.32
   3   1  -5    1.38    0.33
  -3  -1   5    2.66    0.52
   3   1  -5    1.41    0.38
  -3  -1   5    1.52    0.40
  -3  -1   5    1.63    0.36
   3   1  -5    2.24    0.39
   3   1  -5    2.07    0.37
  -3  -1   5    1.87    0.40
   3   1  -5    1.85    0.45
  -3  -1   4   48.19    1.81
  -3  -1   4   52.39    1.33
   3   1  -4   48.71    1.81
  -3  -1   4   52.63    1.99
  -3  -1   4   49.73    1.83
  -3  -1   4   48.84    1.97
   3   1  -4   51.28    1.63
   3   1  -4   51.44    1.77
  -3  -1   4   51.65    1.83
   3   1  -4   48.23    1.89
  -3  -1   3  380.29    7.93
  -3  -1   3  393.69    7.91
   3   1  -3  388.99    7.84
  -3  -1   3  385.78    7.08
  -3  -1   3  399.62    7.11
  -3  -1   3  392.17    7.43
   3   1  -3  388.80    7.85
  -3  -1   3  408.80    8.17
   3   1  -3  385.87    7.92
   3   1  -3  381.90    7.79
  -3  -1   3  399.11    7.98
  -3  -1   3  368.66    7.97
  -3  -1   3  376.62    7.83
   3   1  -3  382.14    7.92
  -3  -1   2  240.18    4.46
  -3  -1   2  241.48    5.18
  -3  -1   2  250.11    5.13
   3   1  -2  230.65    5.07
   3   1  -2  252.36    5.18
  -3  -1   2  253.43    5.31
   3   1  -2  238.91    4.95
  -3  -1   2  253.13    5.24
   3   1  -2  251.99    5.22
   3   1  -2  243.51    5.10
   3   1  -2  246.42    5.12
  -3  -1   1    6.33    0.42
  -3  -1   1    6.70    0.26
   3   1  -1    5.27    0.40
   3   1  -1    6.06    0.46
   3   1  -1    6.44    0.50
  -3  -1   1    6.28    0.49
  -3  -1   0  393.93    7.24
   3   1   0  391.24    7.59
  -3  -1   0  396.97    7.35
   3   1   0  392.13    7.22
  -3  -1  -1   91.32    1.80
   3   1   1   90.47    2.03
  -3  -1  -1   92.24    2.19
  -3  -1  -2  305.14    6.16
   3   1   2  303.68    5.90
  -3  -1  -2  297.15    5.99
   3   1   2  296.22    5.98
  -3  -1  -3  367.51    7.32
  -3  -1  -3  365.81    7.43
  -3  -1  -3  369.24    7.22
   3   1   3  372.71    7.15
   3   1   3  370.94    7.33
  -3  -1  -3  383.46    7.41
   3   1   3  382.38    7.40
   3   1   4  263.47    5.23
  -3  -1  -4  255.36    5.13
  -3  -1  -4  252.69    5.52
  -3  -1  -4  262.16    5.29
  -3  -1  -4  258.93    5.53
  -3  -1  -4  256.50    5.42
   3   1   4  254.62    5.46
   3   1   4  254.75    5.50
   3   1   4  262.64    5.49
   3   1   5  248.50    5.65
   3   1   5  249.09    5.19
   3   1   5  258.79    4.84
  -3  -1  -5  244.18    5.18
   3   1   5  249.86    5.44
  -3  -1  -5  246.60    4.89
  -3  -1  -5  248.13    5.23
  -3  -1  -5  260.40    5.58
   3   1   5  226.60    5.43
  -3  -1  -5  240.82    5.43
   3   1   5  246.81    5.58
   3   1   6  199.39    4.47
  -3  -1  -6  198.42    4.37
  -3  -1  -6  211.40    4.94
  -3  -1  -6  203.93    4.66
   3   1   6  206.11    4.92
  -3  -1  -6  207.37    4.95
   3   1   6  201.31    5.00
   3   1   7  477.85   10.25
  -3  -1  -7  504.33   10.25
   3   1   7  488.31   10.29
  -3  -1  -7  482.33   10.40
   3   1   7  497.79   10.52
  -3  -1  -7  486.98   10.10
   3   1   8   75.31    2.80
  -3  -1  -8   83.18    2.73
   3   1   8   81.75    2.84
   3   1   8   77.40    2.98
  -3  -1  -8   81.26    3.03
  -3  -1  -8   78.40    2.71
  -3  -1  -9   10.35    0.93
   3   1   9   12.39    1.09
  -3  -1  -9   10.74    1.08
   3   1   9   11.80    0.99
   3   1   9   12.51    1.16
  -3  -1 -10   37.39    1.74
   3   1  10   35.23    1.85
   3   1  10   38.07    1.74
   3   1  10   39.29    2.06
  -3  -1 -10   33.56    1.91
   3   1  11   71.71    2.54
   3   1  11   73.14    2.44
  -3  -1 -11   71.01    2.80
   3   1  11   72.83    2.72
  -3  -1 -11   67.90    2.60
  -3  -1 -11   71.26    2.29
   3   1  12   63.06    1.93
   3   1  12   63.81    1.99
  -3  -1 -12   65.70    2.27
   3   1  12   62.37    2.16
   3   1  12   66.37    2.27
  -3  -1 -12   61.78    2.03
  -3  -2  11    3.07    0.38
   3   2 -10    0.28    0.21
  -3  -2  10    0.17    0.23
   3   2 -10    0.58    0.32
  -3  -2  10    0.55    0.28
  -3  -2  10    0.17    0.24
   3   2 -10    0.25    0.20
   3   2  -9   37.15    1.88
   3   2  -9   38.46    2.02
  -3  -2   9   43.00    2.17
  -3  -2   9   37.54    1.96
  -3  -2   9   39.40    1.69
   3   2  -9   40.17    2.17
   3   2  -8   19.37    1.38
   3   2  -8   18.89    1.46
  -3  -2   8   20.46    1.52
  -3  -2   8   17.86    1.15
  -3  -2   8   18.59    1.46
  -3  -2   8   17.67    1.20
   3   2  -8   19.39    1.33
  -3  -2   8   19.55    1.21
   3   2  -8   17.63    1.47
   3   2  -7  138.37    4.18
  -3  -2   7  126.60    4.31
   3   2  -7  139.55    4.37
  -3  -2   7  127.07    4.27
  -3  -2   7  128.85    3.86
   3   2  -7  138.66    4.08
  -3  -2   7  136.67    3.79
   3   2  -7  139.44    4.50
  -3  -2   7  132.63    3.82
   3   2  -6   14.11    1.14
   3   2  -6   14.17    0.90
  -3  -2   6   13.68    1.17
  -3  -2   6   12.48    1.08
  -3  -2   6   14.96    1.07
   3   2  -6   13.31    1.02
  -3  -2   6   15.09    0.99
   3   2  -6   14.21    1.20
   3   2  -6   12.36    1.02
  -3  -2   6   13.43    0.97
  -3  -2   5    0.38    0.26
   3   2  -5    0.16    0.26
  -3  -2   5    0.59    0.33
   3   2  -5    0.88    0.34
  -3  -2   5    0.93    0.35
   3   2  -5    0.98    0.26
  -3  -2   5    0.52    0.21
   3   2  -5    0.62    0.28
  -3  -2   5    0.78    0.26
   3   2  -5    0.54    0.30
   3   2  -4   93.11    2.57
  -3  -2   4   98.00    2.30
  -3  -2   4   99.42    2.88
  -3  -2   4   97.49    2.96
   3   2  -4   93.08    2.73
   3   2  -4   91.38    2.78
  -3  -2   4   93.06    2.78
  -3  -2   4   93.83    2.81
   3   2  -4   91.96    2.64
   3   2  -4   92.88    2.47
  -3  -2   4   93.56    2.53
   3   2  -4   94.64    2.95
  -3  -2   3  289.95    6.29
   3   2  -3  293.76    6.18
  -3  -2   3  300.20    5.85
   3   2  -3  299.09    6.15
   3   2  -3  293.57    6.12
  -3  -2   3  298.52    6.46
  -3  -2   3  291.89    6.41
   3   2  -3  300.46    5.75
   3   2  -3  297.74    6.32
   3   2  -3  312.21    6.32
  -3  -2   3  301.83    6.37
  -3  -2   3  299.04    6.28
   3   2  -3  297.63    6.13
  -3  -2   3  284.12    5.91
   3   2  -3  303.30    6.48
   3   2  -2   65.60    1.87
   3   2  -2   68.02    2.00
   3   2  -2   68.96    1.88
  -3  -2   2   68.22    1.68
  -3  -2   2   67.61    1.98
   3   2  -2   63.82    1.83
   3   2  -2   69.37    1.90
  -3  -2   2   67.86    1.98
  -3  -2   2   65.78    1.94
  -3  -2   2   63.36    1.83
   3   2  -2   65.11    1.98
  -3  -2   1   81.27    1.94
   3   2  -1   83.48    2.13
  -3  -2   1   84.80    2.16
   3   2  -1   83.72    2.12
   3   2  -1   82.74    2.23
  -3  -2   1   83.43    2.19
   3   2  -1   84.03    2.05
   3   2   0    4.22    0.33
   3   2   0    3.95    0.39
  -3  -2   0    3.52    0.38
  -3  -2   0    4.05    0.33
   3   2   1  754.75   13.89
   3   2   1  739.73   13.72
  -3  -2  -1  751.77   13.74
  -3  -2  -1  737.90   13.89
  -3  -2  -2  318.28    6.68
  -3  -2  -2  339.08    6.28
   3   2   2  336.90    6.19
   3   2   2  335.23    6.61
  -3  -2  -2  341.52    6.62
   3   2   2  327.38    6.62
  -3  -2  -2  323.88    6.64
  -3  -2  -3   44.17    1.50
  -3  -2  -3   44.87    1.18
   3   2   3   45.22    1.15
   3   2   3   44.24    1.47
  -3  -2  -3   44.63    1.46
  -3  -2  -3   46.07    1.46
  -3  -2  -3   44.15    1.44
   3   2   3   42.46    1.42
   3   2   4  403.75    8.05
  -3  -2  -4  402.08    7.58
   3   2   4  409.69    7.57
   3   2   4  401.89    8.06
   3   2   4  387.72    7.71
  -3  -2  -4  397.42    7.98
  -3  -2  -4  397.68    8.10
  -3  -2  -4  405.30    8.02
  -3  -2  -4  397.80    7.73
   3   2   4  395.09    8.05
   3   2   4  405.64    7.97
   3   2   5    7.76    0.49
  -3  -2  -5    8.18    0.50
  -3  -2  -5    7.34    0.46
   3   2   5    8.35    0.50
  -3  -2  -5    8.19    0.62
  -3  -2  -5    6.73    0.60
   3   2   5    7.13    0.65
   3   2   5    6.40    0.59
   3   2   5    7.65    0.63
   3   2   6   32.01    1.33
  -3  -2  -6   32.09    1.12
  -3  -2  -6   30.74    1.10
   3   2   6   32.08    1.11
  -3  -2  -6   30.08    1.37
   3   2   6   28.87    1.45
  -3  -2  -6   29.74    1.51
   3   2   6   31.18    1.49
  -3  -2  -7  132.14    3.20
   3   2   7  128.77    3.55
  -3  -2  -7  123.73    3.49
   3   2   7  132.55    3.89
  -3  -2  -7  129.78    3.97
   3   2   7  132.60    3.93
  -3  -2  -7  131.69    3.32
   3   2   7  134.44    3.25
  -3  -2  -8   87.70    2.70
   3   2   8   84.83    2.87
   3   2   8   87.33    3.11
  -3  -2  -8   84.98    3.24
   3   2   8   89.67    3.21
  -3  -2  -8   85.26    2.62
   3   2   9   26.79    1.52
   3   2   9   27.10    1.63
  -3  -2  -9   25.52    1.75
   3   2   9   25.71    1.68
  -3  -2  -9   25.26    1.29
   3   2  10   25.64    1.46
   3   2  10   25.19    1.39
   3   2  10   22.22    1.44
  -3  -2 -10   24.09    1.67
   3   2  10   23.33    1.61
   3   2  11   80.48    2.66
   3   2  11   83.39    2.67
  -3  -2 -11   86.97    3.18
   3   2  11   82.06    2.73
   3   2  11   86.46    3.08
  -3  -2 -11   88.91    3.16
   3   2  12   63.84    1.93
  -3  -2 -12   67.61    2.35
   3   2  12   66.07    2.32
   3   2  12   67.73    2.30
  -3  -2 -12   64.42    2.26
  -3  -2 -12   63.47    2.18
   3   3 -10    1.04    0.33
  -3  -3  10    0.64    0.27
   3   3 -10   -0.10    0.25
  -3  -3  10    0.08    0.23
   3   3 -10    0.67    0.29
   3   3  -9   10.90    1.03
  -3  -3   9    9.74    0.95
  -3  -3   9   11.02    1.04
  -3  -3   9   10.72    0.82
   3   3  -9    9.82    0.99
   3   3  -8  113.05    3.93
  -3  -3   8  112.15    3.93
   3   3  -8  107.21    3.86
  -3  -3   8  118.74    3.87
  -3  -3   8  112.06    3.54
   3   3  -8  109.69    4.03
   3   3  -7  142.05    4.50
  -3  -3   7  138.08    4.48
  -3  -3   7  137.42    4.27
  -3  -3   7  129.88    4.10
   3   3  -7  134.96    4.38
   3   3  -7  132.56    4.52
  -3  -3   7  138.84    3.61
   3   3  -6   19.24    1.37
  -3  -3   6   19.19    1.30
  -3  -3   6   20.01    1.43
  -3  -3   6   17.32    1.25
   3   3  -6   20.14    1.48
   3   3  -6   19.34    1.39
  -3  -3   5    3.87    0.58
   3   3  -5    3.69    0.42
  -3  -3   5    3.75    0.60
   3   3  -5    2.72    0.54
  -3  -3   5    3.57    0.54
   3   3  -5    3.61    0.59
   3   3  -5    3.80    0.62
   3   3  -4  162.61    4.27
  -3  -3   4  171.21    3.77
   3   3  -4  161.96    3.86
  -3  -3   4  164.37    4.34
   3   3  -4  163.55    4.32
  -3  -3   4  157.63    4.04
   3   3  -4  163.83    4.44
  -3  -3   3  381.60    8.16
   3   3  -3  383.23    7.71
  -3  -3   3  394.02    7.71
   3   3  -3  378.43    7.72
  -3  -3   3  396.62    8.10
   3   3  -3  388.25    7.42
   3   3  -3  400.02    8.03
   3   3  -3  384.09    8.06
  -3  -3   3  381.50    8.08
  -3  -3   3  373.68    7.76
   3   3  -3  379.59    7.51
   3   3  -3  393.66    8.25
   3   3  -2  191.07    4.09
  -3  -3   2  189.64    4.28
   3   3  -2  179.96    3.95
   3   3  -2  186.77    4.06
   3   3  -2  189.98    4.35
   3   3  -2  190.79    4.31
  -3  -3   2  197.32    4.40
  -3  -3   2  183.66    3.95
   3   3  -2  189.98    4.17
  -3  -3   2  193.28    4.12
   3   3  -1    6.95    0.43
  -3  -3   1    6.70    0.48
  -3  -3   1    6.40    0.48
   3   3  -1    6.85    0.50
   3   3  -1    5.90    0.52
   3   3  -1    6.51    0.51
  -3  -3   1    6.21    0.51
   3   3  -1    6.28    0.42
   3   3  -1    6.07    0.48
   3   3   0  393.00    7.83
   3   3   0  395.88    7.27
   3   3   0  396.62    7.70
  -3  -3   0  385.02    7.63
   3   3   0  402.14    7.69
   3   3   0  399.44    7.72
  -3  -3   0  391.85    7.67
  -3  -3  -1  677.23   12.67
   3   3   1  687.19   12.67
   3   3   1  683.58   11.97
  -3  -3  -1  668.51   12.78
   3   3   1  689.31   12.83
   3   3   1  652.15   12.66
  -3  -3  -2  104.19    2.67
  -3  -3  -2  102.66    2.62
  -3  -3  -2  103.84    2.44
   3   3   2  101.88    2.63
  -3  -3  -2  100.19    2.58
   3   3   2   97.81    2.55
   3   3   2  107.10    2.59
  -3  -3  -2  104.56    2.60
   3   3   2   99.62    2.65
  -3  -3  -3   66.73    1.97
  -3  -3  -3   67.84    1.80
   3   3   3   65.78    2.00
  -3  -3  -3   66.88    1.98
   3   3   3   62.72    1.91
   3   3   3   66.76    1.94
   3   3   3   66.21    1.86
  -3  -3  -3   64.94    1.98
  -3  -3  -3   66.67    1.96
   3   3   3   68.38    1.96
   3   3   4   96.97    2.66
  -3  -3  -4   98.19    2.44
  -3  -3  -4  102.67    2.70
   3   3   4   98.91    2.73
  -3  -3  -4   98.99    2.69
   3   3   4   98.95    2.65
   3   3   4   96.74    2.40
  -3  -3  -4   96.38    2.69
  -3  -3  -4  100.22    2.64
   3   3   4   94.15    2.68
   3   3   4  101.73    2.58
   3   3   5  291.50    6.38
  -3  -3  -5  300.28    6.04
   3   3   5  289.90    5.69
   3   3   5  294.79    5.79
  -3  -3  -5  280.45    6.22
   3   3   5  300.50    6.57
   3   3   5  304.72    6.38
   3   3   5  286.64    5.73
  -3  -3  -6   90.06    2.37
   3   3   6   93.73    2.43
  -3  -3  -6   87.96    2.62
   3   3   6   92.69    3.01
   3   3   6   89.34    2.84
   3   3   6   90.44    2.66
  -3  -3  -7   69.08    2.21
   3   3   7   70.71    2.19
  -3  -3  -7   65.79    2.17
   3   3   7   63.37    2.00
   3   3   7   70.00    2.69
  -3  -3  -7   64.25    2.68
   3   3   7   66.04    2.55
   3   3   7   66.27    2.36
  -3  -3  -8  148.51    4.78
  -3  -3  -8  160.36    4.07
   3   3   8  153.30    4.03
  -3  -3  -8  166.26    3.89
   3   3   8  153.17    4.06
   3   3   8  156.47    4.75
   3   3   8  155.44    4.65
   3   3   8  155.64    4.33
  -3  -3  -9   18.24    1.08
   3   3   9   15.48    1.04
   3   3   9   15.22    1.06
   3   3   9   15.45    1.32
  -3  -3  -9   16.27    1.41
   3   3   9   17.79    1.37
   3   3   9   14.34    1.06
   3   3  10    2.92    0.55
   3   3  10    1.63    0.40
   3   3  10    1.44    0.42
   3   3  10    2.15    0.58
   3   3  10    1.17    0.40
  -3  -3 -10    1.86    0.58
   3   3  10    2.91    0.61
   3   3  11   39.11    1.62
   3   3  11   39.39    1.62
   3   3  11   36.04    1.77
   3   3  11   40.76    1.99
  -3  -3 -11   39.06    2.01
   3   3  11   33.26    1.78
  -3  -3 -12   31.34    1.17
   3   3  12   31.21    1.12
  -3  -3 -12   32.14    1.49
   3   3  12   32.30    1.51
   3   3  12   31.84    1.45
  -3  -3 -12   33.53    1.54
   3   4 -10    4.72    0.59
  -3  -4  10    3.62    0.48
  -3  -4  10    4.27    0.44
   3   4 -10    4.60    0.55
   3   4 -10    4.73    0.54
   3   4  -9    0.65    0.37
   3   4  -9    0.79    0.25
  -3  -4   9    0.46    0.30
  -3  -4   9    1.24    0.43
   3   4  -9    0.30    0.31
  -3  -4   9    0.98    0.36
   3   4  -8   18.80    1.49
  -3  -4   8   20.19    1.47
   3   4  -8   18.94    1.42
  -3  -4   8   17.59    1.27
  -3  -4   8   18.33    1.26
  -3  -4   7   84.92    3.33
   3   4  -7   84.72    3.33
  -3  -4   7   81.81    3.16
  -3  -4   7   87.60    3.04
   3   4  -7   82.75    3.38
   3   4  -6    6.62    0.88
  -3  -4   6    7.49    0.87
   3   4  -6    7.84    0.92
  -3  -4   6    7.45    0.78
  -3  -4   6    6.26    0.82
  -3  -4   5   20.80    1.40
   3   4  -5   23.03    1.48
  -3  -4   5   24.00    1.28
   3   4  -5   23.22    1.50
   3   4  -4   69.18    2.03
  -3  -4   4   68.88    2.50
   3   4  -4   71.53    2.61
  -3  -4   4   68.97    2.19
   3   4  -4   69.06    2.54
  -3  -4   3  193.77    4.47
   3   4  -3  191.08    4.40
  -3  -4   3  194.26    4.73
   3   4  -3  191.68    4.33
   3   4  -3  197.25    4.61
   3   4  -3  190.55    4.87
  -3  -4   3  202.16    4.30
   3   4  -3  198.28    4.33
   3   4  -3  196.43    4.81
   3   4  -2  156.29    3.46
  -3  -4   2  160.25    3.78
  -3  -4   2  155.71    3.95
   3   4  -2  149.55    3.65
  -3  -4   2  150.61    3.71
   3   4  -2  154.23    3.17
   3   4  -2  166.43    3.73
   3   4  -2  152.22    3.83
   3   4  -2  160.70    3.99
   3   4  -2  146.57    3.66
   3   4  -1    0.94    0.26
   3   4  -1    1.06    0.17
   3   4  -1    0.76    0.28
   3   4  -1    0.81    0.15
  -3  -4   1    1.00    0.23
   3   4  -1    1.22    0.29
   3   4  -1    0.64    0.24
  -3  -4   1    1.13    0.30
   3   4  -1    0.75    0.26
  -3  -4   1    1.03    0.25
   3   4   0   22.45    0.64
   3   4   0   24.37    1.08
  -3  -4   0   23.99    1.07
   3   4   0   21.49    1.07
  -3  -4   0   22.79    1.08
   3   4   0   25.96    1.12
   3   4   0   22.06    1.07
  -3  -4   0   22.14    1.01
  -3  -4  -1  322.25    6.49
   3   4   1  301.06    6.53
  -3  -4  -1  315.11    6.51
   3   4   1  309.01    6.65
  -3  -4  -1  314.51    6.58
   3   4   1  309.45    6.63
  -3  -4  -1  307.63    6.25
   3   4   1  320.47    6.56
  -3  -4  -2  196.60    4.51
  -3  -4  -2  202.01    4.49
   3   4   2  203.97    4.66
  -3  -4  -2  211.82    4.65
  -3  -4  -2  197.37    4.59
   3   4   2  210.64    4.43
   3   4   2  213.36    4.71
   3   4   2  209.85    4.76
  -3  -4  -2  194.68    4.63
   3   4   2  204.78    4.70
   3   4   2  201.91    4.37
  -3  -4  -3   31.31    1.25
  -3  -4  -3   31.92    1.23
   3   4   3   32.69    1.38
  -3  -4  -3   30.27    1.29
   3   4   3   30.94    1.24
   3   4   3   30.73    1.37
   3   4   3   29.54    1.29
  -3  -4  -3   33.38    1.37
  -3  -4  -3   31.00    1.30
   3   4   3   31.70    1.36
   3   4   3   34.61    1.39
  -3  -4  -4  142.26    3.42
  -3  -4  -4  140.81    3.40
  -3  -4  -4  135.46    3.54
   3   4   4  135.19    3.52
   3   4   4  138.94    3.40
   3   4   4  137.39    3.44
  -3  -4  -4  136.88    3.48
   3   4   4  137.80    3.71
   3   4   4  142.52    3.26
   3   4   5  158.07    4.05
  -3  -4  -5  148.17    3.66
   3   4   5  159.65    3.57
   3   4   5  153.68    3.59
  -3  -4  -5  153.57    3.80
   3   4   5  156.00    4.23
   3   4   5  158.35    3.87
   3   4   5  152.23    3.88
   3   4   5  147.84    3.95
  -3  -4  -6   65.06    2.13
   3   4   6   66.87    2.61
   3   4   6   65.93    2.35
   3   4   6   72.24    2.49
   3   4   7  135.24    3.53
  -3  -4  -7  141.07    3.48
   3   4   7  139.10    4.39
  -3  -4  -7  139.89    4.43
   3   4   7  140.06    4.09
   3   4   7  143.37    4.15
   3   4   7  141.61    4.12
  -3  -4  -8  102.53    3.19
   3   4   8  102.15    3.08
   3   4   8  108.75    3.82
  -3  -4  -8  102.93    3.80
   3   4   8  103.94    3.52
   3   4   8   99.39    3.53
   3   4   8  101.46    3.44
   3   4   9   29.34    1.75
  -3  -4  -9   25.04    1.37
   3   4   9   29.39    1.48
   3   4   9   25.41    1.75
  -3  -4  -9   26.60    1.85
   3   4   9   25.68    1.70
   3   4   9   27.16    1.69
   3   4   9   26.78    1.62
   3   4  10   24.58    1.53
  -3  -4 -10   24.51    1.22
   3   4  10   24.91    1.33
   3   4  10   23.59    1.61
   3   4  10   23.25    1.61
  -3  -4 -10   25.26    1.73
   3   4  10   24.20    1.54
   3   4  10   25.72    1.46
   3   4  11   54.55    2.14
   3   4  11   57.01    1.94
   3   4  11   58.91    2.43
  -3  -4 -11   58.22    2.45
   3   4  11   58.31    2.26
   3   4  12   59.99    1.70
  -3  -4 -12   65.31    2.13
   3   4  12   61.89    2.14
  -3  -4 -12   64.54    2.18
   3   4  12   63.37    2.00
   3   5  -9   19.73    1.01
   3   5  -9   21.04    1.35
  -3  -5   9   21.37    1.27
   3   5  -9   19.03    1.16
  -3  -5   9   19.80    1.12
  -3  -5   9   18.29    0.89
   3   5  -8   18.56    1.43
   3   5  -8   18.81    1.22
  -3  -5   8   18.59    1.35
   3   5  -8   21.25    1.44
  -3  -5   8   20.13    1.35
  -3  -5   8   18.52    1.09
   3   5  -7   32.36    1.93
   3   5  -7   34.02    2.07
  -3  -5   7   36.40    1.99
  -3  -5   7   33.57    1.56
  -3  -5   7   32.91    1.91
   3   5  -6   60.92    2.71
   3   5  -6   62.13    2.82
  -3  -5   6   56.31    2.56
  -3  -5   6   57.72    2.64
  -3  -5   6   58.69    2.12
   3   5  -5   11.53    1.12
   3   5  -5   11.66    1.13
  -3  -5   5    9.95    0.98
  -3  -5   5   11.98    0.82
   3   5  -4   39.88    1.98
  -3  -5   4   39.99    1.87
   3   5  -4   42.20    1.48
   3   5  -4   44.46    2.12
   3   5  -4   45.01    2.08
   3   5  -3  265.85    6.55
   3   5  -3  262.76    5.95
   3   5  -3  276.33    5.86
  -3  -5   3  263.27    6.18
   3   5  -3  273.67    5.99
   3   5  -3  279.02    6.46
   3   5  -3  276.37    5.63
   3   5  -2  156.08    4.10
   3   5  -2  159.86    3.93
  -3  -5   2  154.67    3.80
   3   5  -2  162.95    4.05
   3   5  -2  160.32    4.02
   3   5  -2  154.43    4.28
   3   5  -2  148.41    3.66
  -3  -5   1   56.52    1.96
  -3  -5   1   55.90    1.97
   3   5  -1   59.97    2.04
  -3  -5   1   58.36    1.71
   3   5  -1   58.69    2.14
   3   5  -1   60.03    2.20
   3   5  -1   59.47    2.01
  -3  -5   1   56.45    2.02
   3   5  -1   58.23    2.14
  -3  -5   0  114.55    3.14
   3   5   0  123.44    3.30
   3   5   0  116.44    3.42
   3   5   0  124.40    3.25
  -3  -5   0  114.95    3.02
   3   5   0  106.72    3.36
   3   5   0  114.32    2.50
  -3  -5  -1  319.15    6.69
  -3  -5  -1  310.96    6.68
   3   5   1  310.89    6.21
   3   5   1  314.38    6.87
   3   5   1  320.60    6.78
   3   5   1  287.27    7.00
  -3  -5  -1  305.46    6.28
   3   5   1  281.28    7.01
  -3  -5  -2  486.03    9.56
  -3  -5  -2  493.41    9.92
  -3  -5  -2  501.25    9.99
   3   5   2  503.94   10.28
   3   5   2  497.72   10.47
   3   5   2  478.50   10.51
   3   5   2  503.49    9.74
   3   5   2  489.31    9.49
  -3  -5  -3   30.22    1.31
  -3  -5  -3   26.55    1.08
   3   5   3   27.21    1.30
   3   5   3   28.63    1.47
  -3  -5  -3   27.80    1.32
   3   5   3   26.33    1.21
   3   5   3   28.85    1.33
   3   5   3   27.28    1.32
   3   5   3   29.01    1.45
   3   5   3   28.33    1.37
   3   5   4   61.02    2.29
   3   5   4   62.18    1.99
   3   5   4   62.21    2.08
   3   5   4   61.50    2.18
  -3  -5  -4   64.33    2.15
   3   5   4   66.04    2.41
   3   5   4   66.13    2.18
   3   5   4   62.09    2.18
   3   5   4   63.46    2.27
   3   5   5  345.23    7.79
   3   5   5  334.28    7.21
  -3  -5  -5  337.52    7.24
   3   5   5  334.41    7.25
   3   5   5  363.37    8.16
   3   5   5  348.04    7.63
   3   5   5  350.32    7.06
   3   5   5  335.41    7.69
   3   5   5  333.98    6.94
   3   5   6  118.05    3.79
   3   5   6  116.85    3.07
  -3  -5  -6  120.52    3.14
   3   5   6  128.88    4.12
   3   5   6  119.15    3.70
   3   5   6  122.21    3.40
   3   5   6  115.26    3.73
   3   5   7   35.55    1.97
   3   5   7   39.61    1.64
   3   5   7   35.58    2.07
  -3  -5  -7   36.11    2.06
   3   5   7   34.42    1.91
   3   5   7   33.13    1.66
   3   5   7   35.15    1.92
   3   5   8   34.41    2.01
   3   5   8   33.62    1.59
  -3  -5  -8   32.94    1.71
   3   5   8   30.80    1.96
   3   5   8   33.02    1.94
  -3  -5  -8   29.06    1.89
   3   5   8   32.99    1.72
   3   5   8   33.62    1.94
   3   5   9   23.39    1.64
   3   5   9   21.94    1.25
  -3  -5  -9   18.53    1.22
   3   5   9   21.27    1.60
   3   5   9   20.44    1.54
  -3  -5  -9   22.32    1.64
   3   5   9   23.58    1.43
   3   5   9   22.21    1.53
   3   5  10   16.09    1.27
   3   5  10   13.73    1.13
   3   5  10   15.82    0.98
  -3  -5 -10   15.04    0.97
   3   5  10   17.55    1.35
   3   5  10   17.26    1.34
  -3  -5 -10   14.75    1.26
   3   5  10   15.89    1.12
   3   5  11   35.85    1.73
   3   5  11   34.91    1.65
   3   5  11   34.81    1.25
  -3  -5 -11   32.84    1.65
   3   5  11   34.74    1.47
   3   6  -9   34.27    1.55
   3   6  -9   33.70    1.26
  -3  -6   9   35.11    1.37
   3   6  -9   35.91    1.58
  -3  -6   9   34.49    1.41
  -3  -6   8   32.14    1.59
   3   6  -8   29.81    1.55
  -3  -6   8   32.26    1.62
   3   6  -8   32.28    1.58
   3   6  -8   33.33    1.76
   3   6  -7   64.72    2.80
  -3  -6   7   73.23    2.75
   3   6  -7   63.87    2.70
  -3  -6   7   70.67    2.82
   3   6  -7   68.06    2.73
   3   6  -7   65.39    2.86
   3   6  -6  119.24    4.11
  -3  -6   6  112.70    3.72
   3   6  -6  114.48    3.96
  -3  -6   6  113.01    3.93
   3   6  -6  114.52    3.95
   3   6  -5   32.40    1.94
  -3  -6   5   32.65    1.75
   3   6  -5   33.47    1.97
  -3  -6   5   36.04    2.02
   3   6  -4   49.88    2.31
   3   6  -4   47.66    2.29
   3   6  -4   53.36    1.87
   3   6  -4   47.30    2.35
   3   6  -4   50.81    1.80
  -3  -6   4   48.06    2.05
  -3  -6   3  230.58    5.39
   3   6  -3  225.85    5.80
   3   6  -3  230.33    5.84
   3   6  -3  229.60    5.47
   3   6  -3  224.58    6.04
   3   6  -3  225.81    5.42
   3   6  -3  216.49    5.20
   3   6  -2  254.09    5.96
   3   6  -2  252.72    5.91
   3   6  -2  263.73    6.19
  -3  -6   2  258.14    5.62
   3   6  -2  247.44    6.13
  -3  -6   2  244.91    6.12
   3   6  -2  256.16    6.16
   3   6  -1   31.33    1.70
  -3  -6   1   29.70    1.45
   3   6  -1   30.78    1.68
   3   6  -1   30.40    1.57
   3   6  -1   31.92    1.54
   3   6  -1   31.18    1.57
   3   6  -1   29.94    1.48
   3   6   0    2.85    0.52
   3   6   0    2.24    0.52
  -3  -6   0    4.06    0.49
   3   6   0    2.94    0.49
   3   6   0    2.45    0.53
   3   6   0    2.21    0.48
   3   6   1  535.26   11.45
   3   6   1  509.72   11.40
   3   6   1  487.27   11.64
  -3  -6  -1  563.72   10.37
   3   6   1  537.77   10.45
   3   6   1  484.48   11.65
   3   6   1  557.89   11.10
   3   6   1  551.26   10.94
   3   6   2  284.01    6.63
   3   6   2  282.86    7.27
   3   6   2  277.65    7.28
   3   6   2  287.80    6.28
   3   6   2  297.33    7.04
   3   6   2  293.26    6.67
   3   6   3    5.41    0.69
   3   6   3    5.13    0.66
   3   6   3    4.73    0.70
  -3  -6  -3    5.70    0.65
   3   6   3    4.98    0.55
   3   6   3    4.57    0.68
   3   6   3    4.10    0.55
   3   6   3    4.32    0.59
   3   6   4    9.06    0.90
   3   6   4    9.07    0.85
   3   6   4    7.70    0.82
   3   6   4    9.52    0.87
  -3  -6  -4    8.30    0.74
   3   6   4    8.81    0.86
   3   6   4    8.83    0.84
   3   6   4    9.94    0.90
   3   6   4    8.42    0.78
   3   6   5   82.95    3.13
   3   6   5   85.61    2.48
   3   6   5   86.18    2.76
  -3  -6  -5   88.89    2.62
   3   6   5   81.55    2.72
   3   6   5   84.23    3.01
   3   6   5   82.08    2.68
   3   6   5   89.16    3.22
   3   6   5   83.81    3.07
   3   6   6  168.51    4.31
   3   6   6  167.83    5.10
   3   6   6  179.96    4.23
   3   6   6  172.23    5.03
   3   6   6  179.01    5.32
   3   6   6  165.28    5.01
   3   6   7    2.69    0.65
   3   6   7    3.11    0.70
   3   6   7    4.10    0.80
   3   6   7    2.98    0.51
  -3  -6  -7    4.20    0.75
   3   6   7    3.46    0.69
   3   6   8    3.46    0.70
  -3  -6  -8    3.65    0.59
   3   6   8    3.53    0.71
   3   6   8    4.53    0.58
   3   6   8    3.72    0.55
  -3  -6  -8    4.03    0.71
   3   6   8    4.17    0.75
   3   6   8    4.16    0.77
   3   6   9   40.11    1.64
  -3  -6  -9   34.95    1.69
   3   6   9   37.33    2.08
   3   6   9   39.34    2.09
  -3  -6  -9   38.46    2.06
   3   6   9   34.22    1.54
   3   6   9   34.72    1.97
   3   6  10   22.23    1.44
   3   6  10   21.40    1.01
  -3  -6 -10   21.01    1.08
   3   6  10   20.31    1.37
  -3  -6 -10   17.87    1.24
   3   6  11    5.47    0.59
   3   6  11    5.74    0.61
  -3  -6 -11    5.28    0.55
   3   7  -8   15.05    0.94
  -3  -7   8   13.75    0.89
   3   7  -8   14.98    0.93
  -3  -7   8   15.53    0.83
   3   7  -8   16.78    1.02
   3   7  -7   16.29    1.18
   3   7  -7   16.27    1.14
  -3  -7   7   16.93    1.17
  -3  -7   7   17.49    1.06
   3   7  -6   27.28    1.61
   3   7  -6   24.24    1.58
  -3  -7   6   22.98    1.32
  -3  -7   6   25.97    1.60
   3   7  -6   25.83    1.65
   3   7  -5   42.65    2.26
  -3  -7   5   37.17    1.73
   3   7  -5   38.97    2.07
  -3  -7   5   41.72    2.13
   3   7  -4   61.61    2.65
  -3  -7   4   63.82    2.24
   3   7  -4   61.14    2.14
  -3  -7   4   62.25    2.65
   3   7  -4   60.03    2.09
   3   7  -4   67.06    2.96
   3   7  -3  109.41    3.25
   3   7  -3  105.74    3.52
   3   7  -3  100.16    3.80
   3   7  -3  104.04    3.52
  -3  -7   3  108.27    2.96
   3   7  -3  106.17    3.37
  -3  -7   3  100.74    3.46
   3   7  -3  108.34    3.37
   3   7  -2  203.51    5.37
   3   7  -2  217.79    5.87
   3   7  -2  198.13    5.31
   3   7  -2  212.25    5.63
  -3  -7   2  195.63    5.26
   3   7  -2  215.78    5.63
   3   7  -2  206.11    5.37
   3   7  -1   10.14    1.01
   3   7  -1    8.09    0.88
  -3  -7   1    8.99    0.78
   3   7  -1    7.97    0.95
   3   7  -1    7.82    0.94
   3   7  -1    8.33    0.82
   3   7   0   52.12    2.10
   3   7   0   50.23    2.56
   3   7   0   49.78    1.89
  -3  -7   0   51.61    1.82
   3   7   0   50.53    2.08
   3   7   0   49.85    2.42
   3   7   0   53.54    2.07
   3   7   0   50.93    2.56
   3   7   1  176.64    5.45
   3   7   1  185.59    4.64
   3   7   1  183.31    5.69
   3   7   1  174.12    5.58
   3   7   1  183.06    4.77
   3   7   2  113.03    3.05
   3   7   2  120.10    3.67
   3   7   2  116.72    4.32
   3   7   2  111.71    3.40
   3   7   2  118.76    4.36
   3   7   2  116.07    4.15
   3   7   2  114.11    3.49
   3   7   3    4.22    0.66
   3   7   3    4.50    0.65
   3   7   3    4.55    0.79
  -3  -7  -3    4.55    0.62
   3   7   3    3.54    0.47
   3   7   3    3.73    0.71
   3   7   3    4.93    0.75
   3   7   3    4.17    0.62
   3   7   4    0.91    0.43
  -3  -7  -4    0.76    0.32
   3   7   4    1.49    0.36
   3   7   4    0.92    0.41
   3   7   4    0.40    0.28
   3   7   4    0.19    0.28
   3   7   4    1.43    0.46
   3   7   5  255.83    6.89
   3   7   5  269.80    6.07
   3   7   5  261.91    6.37
   3   7   5  256.74    6.31
   3   7   5  267.08    6.82
   3   7   5  259.48    6.37
   3   7   6   99.76    3.06
   3   7   6  100.34    3.78
   3   7   6  100.61    3.02
   3   7   6  105.00    2.96
   3   7   6   98.06    3.65
   3   7   6  110.87    3.04
   3   7   6   94.39    3.61
  -3  -7  -6  100.25    3.57
   3   7   7    3.92    0.76
   3   7   7    3.37    0.52
  -3  -7  -7    3.90    0.68
   3   7   7    2.22    0.64
   3   7   7    3.88    0.73
   3   7   8   10.65    0.80
  -3  -7  -8   10.19    0.95
   3   7   8   10.24    1.07
  -3  -7  -8    9.38    0.94
   3   7   8   11.63    1.16
   3   7   9   29.03    1.21
   3   7   9   27.67    1.69
  -3  -7  -9   29.16    1.41
   3   7   9   30.38    1.71
  -3  -7  -9   29.43    1.54
   3   7  10   25.08    1.34
   3   7  10   22.79    1.32
  -3  -7 -10   23.40    1.09
   3   8  -7    6.57    0.63
   3   8  -7    5.27    0.48
  -3  -8   7    4.97    0.51
   3   8  -6   47.78    2.08
  -3  -8   6   46.36    1.89
   3   8  -6   47.15    1.79
   3   8  -5  107.69    3.12
   3   8  -5  109.60    3.35
   3   8  -5  112.80    3.75
  -3  -8   5  109.92    3.42
   3   8  -4   23.81    1.40
   3   8  -4   24.81    1.71
  -3  -8   4   26.10    1.53
   3   8  -3   99.93    3.23
   3   8  -3  105.13    3.76
   3   8  -3   98.40    3.18
  -3  -8   3   97.67    3.19
   3   8  -3  100.72    3.12
   3   8  -3   97.13    3.14
   3   8  -2   33.21    1.65
   3   8  -2   35.60    1.97
   3   8  -2   33.12    1.87
  -3  -8   2   35.51    1.65
   3   8  -2   35.34    1.73
   3   8  -2   35.55    1.92
   3   8  -2   33.02    1.80
   3   8  -1   15.87    1.35
   3   8  -1   16.26    1.12
   3   8  -1   15.35    1.37
   3   8  -1   17.30    1.44
   3   8  -1   17.54    1.26
  -3  -8   1   16.55    0.98
   3   8   0   24.83    1.79
   3   8   0   29.61    1.48
   3   8   0   25.86    1.89
   3   8   0   31.01    2.04
   3   8   0   28.32    1.45
   3   8   1   93.10    3.92
   3   8   1   94.65    3.03
   3   8   1   96.70    4.06
   3   8   1  100.05    4.10
   3   8   2  222.08    6.53
   3   8   2  214.42    6.56
   3   8   2  211.67    5.50
  -3  -8  -2  206.39    5.46
   3   8   2  207.83    5.26
   3   8   2  212.53    6.53
   3   8   3   10.06    0.83
   3   8   3   10.22    0.92
   3   8   3   10.63    1.21
   3   8   3   11.19    1.08
   3   8   3   10.38    1.20
   3   8   3   10.01    1.00
   3   8   3   11.22    1.28
  -3  -8  -3    9.55    0.85
   3   8   4   14.08    1.26
   3   8   4   12.37    1.15
   3   8   4   13.50    1.07
   3   8   4   11.99    1.16
   3   8   4   11.89    1.12
  -3  -8  -4   12.11    0.84
   3   8   4   11.99    1.19
   3   8   4   12.84    0.94
   3   8   5   77.44    2.82
   3   8   5   72.90    3.07
   3   8   5   73.47    2.71
   3   8   5   74.29    2.72
   3   8   5   75.89    3.05
   3   8   5   76.21    2.49
   3   8   5   80.91    2.83
  -3  -8  -5   75.62    2.72
   3   8   6   82.41    2.53
   3   8   6   85.47    3.23
   3   8   6   78.20    2.41
  -3  -8  -6   80.43    2.78
   3   8   6   76.77    2.54
   3   8   6   78.42    3.18
   3   8   7    1.64    0.51
   3   8   7    2.07    0.35
  -3  -8  -7    0.76    0.34
   3   8   7    1.66    0.50
  -3  -8  -8    0.24    0.25
   3   8   8    0.97    0.38
  -3  -8  -8    0.63    0.32
   3   8   8    1.23    0.42
  -3  -8  -9   18.65    0.93
   3   8   9   17.87    1.11
   3   8   9   17.04    1.13
   3   9  -5   86.29    2.71
  -3  -9   5   82.27    2.21
  -3  -9   4   58.86    1.86
   3   9  -4   60.92    2.36
   3   9  -3    8.95    0.88
   3   9  -3    8.54    0.72
   3   9  -3    9.62    0.75
   3   9  -2   91.78    3.02
   3   9  -2   88.50    2.97
   3   9  -2   86.09    3.01
   3   9  -1  120.10    3.46
   3   9  -1  118.69    3.99
   3   9  -1  123.35    4.02
   3   9   0   34.17    2.08
   3   9   0   35.03    2.11
   3   9   0   32.81    2.03
   3   9   1  115.58    4.25
   3   9   1  106.67    3.34
   3   9   1  115.91    4.23
  -3  -9  -1  110.79    3.51
   3   9   1  115.73    4.24
   3   9   2   61.21    2.94
   3   9   2   60.94    2.40
   3   9   2   58.21    2.85
  -3  -9  -2   56.42    2.18
   3   9   2   60.68    2.92
   3   9   3   19.34    1.55
   3   9   3   22.17    1.60
   3   9   3   18.26    1.29
  -3  -9  -3   18.48    1.03
   3   9   3   19.94    1.52
   3   9   4    5.10    0.70
   3   9   4    4.98    0.73
   3   9   4    6.26    0.77
   3   9   4    6.65    0.84
   3   9   5   35.69    1.83
   3   9   5   38.72    1.93
   3   9   5   36.94    1.66
   3   9   5   37.48    1.75
   3   9   6   77.04    2.77
   3   9   6   76.76    2.79
   3   9   7   16.14    1.09
   3   9   7   15.92    1.07
   3   9   8    1.95    0.36
   3   9   8    2.08    0.37
   3  10  -3   23.30    1.00
  -3 -10   3   22.83    1.12
   3  10  -3   23.02    0.80
  -3 -10   2   50.39    1.86
   3  10  -2   48.72    1.65
   3  10  -2   51.97    1.80
  -3 -10   1   34.92    1.54
   3  10  -1   38.77    1.64
   3  10  -1   36.81    1.69
   3  10   0   25.41    1.50
  -3 -10   0   23.76    1.22
   3  10   0   26.37    1.45
  -3 -10  -1   25.44    1.16
   3  10   1   27.83    1.57
   3  10   1   27.93    1.64
   3  10   2   66.79    2.70
   3  10   2   69.85    2.62
   3  10   3   11.01    0.96
   3  10   3   10.04    0.80
   3  10   3   11.17    0.91
   3  10   4    1.27    0.35
   3  10   4    0.43    0.29
   3  10   4    0.69    0.29
   3  10   5   26.45    1.28
   3  10   5   25.97    1.10
   3  10   6   30.77    1.28
  -4   7   2   96.52    2.72
  -4   7   2  102.37    2.87
  -4   7   1    3.67    0.48
  -4   7   1    4.84    0.54
  -4   7   0    1.66    0.37
  -4   7   0    1.42    0.31
  -4   7  -1   48.97    1.91
  -4   7  -2   66.98    2.25
  -4   7  -3   21.18    1.33
  -4   7  -3   18.31    0.99
  -4   6   5    7.58    0.63
  -4   6   5    6.64    0.69
  -4   6   5    8.11    0.65
  -4   6   4    4.11    0.53
  -4   6   4    4.28    0.41
   4  -6  -4    5.52    0.53
  -4   6   4    4.62    0.58
  -4   6   4    3.80    0.61
  -4   6   3   60.79    2.30
  -4   6   3   56.57    2.00
  -4   6   3   52.03    2.36
  -4   6   3   57.96    2.19
  -4   6   2   93.51    3.11
  -4   6   2   91.04    3.26
  -4   6   2   93.90    2.99
  -4   6   2   93.93    3.02
  -4   6   1   51.03    2.11
  -4   6   1   50.46    2.14
  -4   6   1   51.09    2.15
  -4   6   1   54.57    2.16
  -4   6   0    4.28    0.65
  -4   6   0    4.26    0.62
  -4   6   0    4.50    0.59
  -4   6   0    3.65    0.56
  -4   6   0    4.29    0.62
  -4   6  -1   36.60    1.79
  -4   6  -1   35.66    1.72
  -4   6  -1   37.75    1.86
  -4   6  -1   39.74    1.89
  -4   6  -1   38.08    1.68
  -4   6  -1   35.55    1.91
  -4   6  -2  243.41    5.92
  -4   6  -2  254.55    6.11
  -4   6  -2  246.38    6.33
  -4   6  -2  250.61    6.14
  -4   6  -2  241.88    5.50
  -4   6  -2  246.19    6.01
  -4   6  -3   76.53    2.58
  -4   6  -3   76.35    2.94
  -4   6  -3   77.79    2.66
  -4   6  -4   41.54    1.69
  -4   6  -4   42.27    2.04
  -4   6  -4   39.45    1.66
  -4   6  -5   48.40    1.73
  -4   6  -5   53.34    2.18
  -4   6  -6   71.49    2.40
  -4   5   7    2.11    0.40
  -4   5   7    2.98    0.39
   4  -5  -6   48.81    1.87
  -4   5   6   45.60    1.66
  -4   5   6   42.84    1.84
  -4   5   6   43.16    1.67
  -4   5   6   37.94    1.92
  -4   5   5   19.92    1.21
  -4   5   5   17.80    1.42
  -4   5   5   22.16    1.38
  -4   5   5   18.39    1.08
  -4   5   4    4.10    0.66
  -4   5   4    5.25    0.54
  -4   5   4    3.68    0.72
  -4   5   4    3.89    0.62
  -4   5   3    5.82    0.66
  -4   5   3    6.69    0.69
  -4   5   3    4.98    0.72
  -4   5   3    6.57    0.70
  -4   5   3    6.08    0.89
  -4   5   3    6.84    0.83
  -4   5   2  158.25    4.42
  -4   5   2  164.66    4.52
  -4   5   2  156.58    4.44
  -4   5   2  157.64    4.86
  -4   5   2  163.83    4.71
  -4   5   2  168.02    4.79
  -4   5   1   85.78    3.03
  -4   5   1   81.65    2.94
  -4   5   1   80.34    2.94
  -4   5   1   80.10    2.98
  -4   5   1   83.92    3.15
  -4   5   1   77.25    2.91
  -4   5   1   80.61    2.97
  -4   5   1   82.75    3.08
  -4   5   0    1.01    0.41
  -4   5   0    0.64    0.39
  -4   5   0    0.67    0.37
  -4   5   0    0.69    0.36
  -4   5   0    0.65    0.32
  -4   5   0    0.22    0.34
  -4   5   0    0.21    0.59
  -4   5   0    0.33    0.36
  -4   5  -1   90.40    3.30
  -4   5  -1   99.98    3.39
  -4   5  -1   89.36    3.25
  -4   5  -1   93.58    3.28
  -4   5  -1   93.79    3.06
  -4   5  -1   95.71    3.37
  -4   5  -1   92.36    3.28
  -4   5  -1   91.05    3.27
  -4   5  -2  128.12    4.04
  -4   5  -2  123.30    3.88
  -4   5  -2  119.03    3.80
  -4   5  -2  121.51    3.86
  -4   5  -2  124.47    3.48
  -4   5  -2  121.35    4.02
  -4   5  -2  122.59    3.86
  -4   5  -2  118.33    3.82
  -4   5  -3   99.37    3.30
  -4   5  -3  107.76    3.73
  -4   5  -3  105.11    3.38
  -4   5  -3  103.90    3.38
  -4   5  -3  103.88    3.59
  -4   5  -3  100.72    3.32
  -4   5  -4   11.48    1.09
  -4   5  -4   11.46    0.91
  -4   5  -4   11.28    0.92
  -4   5  -4   10.44    1.09
  -4   5  -4   10.72    0.90
  -4   5  -5   18.10    1.35
  -4   5  -5   16.91    1.02
  -4   5  -5   18.99    1.35
  -4   5  -6  119.35    3.66
  -4   5  -6  122.06    3.70
   4  -5   6  110.62    3.16
  -4   5  -7   83.56    2.61
  -4   5  -7   78.05    2.56
  -4   5  -8   36.01    1.32
  -4   5  -8   36.59    1.34
  -4   4   8    9.86    0.74
   4  -4  -8   10.62    0.74
  -4   4   8   10.52    0.78
  -4   4   7   31.36    1.46
  -4   4   7   29.72    1.09
   4  -4  -7   28.63    1.21
  -4   4   7   30.53    1.70
   4  -4  -7   34.20    1.60
  -4   4   7   32.59    1.64
  -4   4   7   31.30    1.59
  -4   4   6   24.93    1.37
  -4   4   6   23.39    1.68
  -4   4   6   25.88    1.30
   4  -4  -6   22.98    1.20
  -4   4   6   25.92    1.59
  -4   4   6   25.16    1.51
  -4   4   5  114.40    4.22
   4  -4  -5  115.52    3.27
  -4   4   5  118.03    3.58
  -4   4   5  118.35    3.73
  -4   4   5  118.06    3.46
  -4   4   5  124.26    4.01
  -4   4   4   28.95    1.30
  -4   4   4   28.31    1.30
  -4   4   4   26.32    1.81
  -4   4   4   23.96    1.30
  -4   4   4   27.01    1.60
   4  -4  -4   26.80    1.28
  -4   4   4   25.20    1.27
  -4   4   4   30.57    1.80
  -4   4   3   82.37    2.80
  -4   4   3   81.04    3.24
  -4   4   3   82.46    2.73
  -4   4   3   86.53    2.76
  -4   4   3   83.90    3.06
  -4   4   3   85.28    2.84
  -4   4   3   87.37    3.23
  -4   4   2  452.24   10.00
  -4   4   2  458.15   10.30
  -4   4   2  506.34   10.08
  -4   4   2  492.37   10.01
  -4   4   2  470.76   10.34
  -4   4   2  448.09   10.28
  -4   4   2  446.00    9.54
  -4   4   2  445.02    9.98
  -4   4   2  436.92    9.80
  -4   4   1   95.14    3.26
  -4   4   1   99.59    3.27
  -4   4   1   97.62    3.42
  -4   4   1  100.48    3.28
  -4   4   1  100.79    3.35
  -4   4   1   94.23    3.29
  -4   4   1  102.14    3.30
  -4   4   1   94.11    3.29
  -4   4   1   95.45    3.19
  -4   4   0    5.08    0.69
  -4   4   0    6.40    0.83
  -4   4   0    6.03    0.77
  -4   4   0    4.79    0.68
  -4   4   0    5.63    0.73
  -4   4   0    6.81    0.77
  -4   4   0    5.29    0.73
  -4   4   0    5.29    0.70
  -4   4   0    6.70    0.79
  -4   4  -1   48.80    2.28
  -4   4  -1   48.44    2.21
  -4   4  -1   45.89    2.11
  -4   4  -1   47.48    2.16
  -4   4  -1   47.60    2.00
  -4   4  -1   46.98    2.13
  -4   4  -1   43.39    2.13
  -4   4  -1   46.06    2.08
  -4   4  -2  341.34    8.05
  -4   4  -2  350.93    8.08
  -4   4  -2  349.04    8.18
  -4   4  -2  367.46    8.50
  -4   4  -2  346.76    7.65
  -4   4  -2  349.00    8.22
  -4   4  -2  346.16    8.17
  -4   4  -2  354.15    8.05
  -4   4  -3  158.16    4.45
  -4   4  -3  148.20    4.32
  -4   4  -3  149.46    4.33
  -4   4  -3  154.34    3.87
  -4   4  -3  160.84    4.70
  -4   4  -3  146.75    4.72
  -4   4  -3  153.30    4.43
  -4   4  -4    4.91    0.75
  -4   4  -4    4.57    0.60
  -4   4  -4    5.84    0.88
  -4   4  -4    5.83    0.69
  -4   4  -4    5.46    0.67
  -4   4  -4    6.54    0.71
  -4   4  -5   43.08    1.74
  -4   4  -5   41.87    1.74
  -4   4  -5   45.95    1.81
  -4   4  -5   43.75    2.40
  -4   4  -5   43.59    2.15
   4  -4   5   44.56    1.85
  -4   4  -5   43.60    1.75
  -4   4  -6  140.95    4.77
  -4   4  -6  135.57    4.18
  -4   4  -6  139.62    4.33
   4  -4   6  140.30    3.71
  -4   4  -7   96.64    3.63
   4  -4   7   89.84    3.00
  -4   4  -7   93.72    3.06
  -4   4  -7   88.50    3.27
  -4   4  -8    3.39    0.46
  -4   4  -8    3.06    0.58
   4  -4   8    2.83    0.46
  -4   4  -9    0.76    0.25
   4  -4   9    0.92    0.28
  -4   3   9   11.19    0.78
  -4   3   9   11.01    0.72
  -4   3   9   11.47    0.83
  -4   3   8   74.14    2.73
   4  -3  -8   78.47    2.56
   4  -3  -8   78.63    2.43
  -4   3   8   79.92    2.73
  -4   3   8   79.22    2.83
  -4   3   7    5.90    0.74
  -4   3   7    3.90    0.67
   4  -3  -7    5.51    0.73
   4  -3  -7    4.28    0.57
  -4   3   7    4.72    0.79
   4  -3  -6   35.03    1.68
  -4   3   6   29.17    2.00
  -4   3   6   36.42    1.57
  -4   3   6   33.99    1.93
  -4   3   6   34.79    1.86
  -4   3   5   43.00    2.06
  -4   3   5   43.32    1.91
   4  -3  -5   40.26    1.80
  -4   3   5   43.80    2.05
  -4   3   5   40.82    2.32
  -4   3   5   39.92    2.11
  -4   3   4    5.93    0.71
  -4   3   4    4.73    0.51
  -4   3   4    4.73    0.52
  -4   3   4    4.86    0.55
  -4   3   4    2.53    0.54
   4  -3  -4    3.50    0.50
  -4   3   4    5.27    0.84
  -4   3   4    5.69    0.76
  -4   3   4    4.20    0.63
  -4   3   4    4.99    0.54
  -4   3   3   35.31    1.58
  -4   3   3   37.99    1.93
  -4   3   3   35.71    1.81
   4  -3  -3   39.81    1.56
  -4   3   3   35.73    1.58
  -4   3   3   37.40    1.68
  -4   3   3   36.50    1.67
  -4   3   3   35.68    1.89
  -4   3   3   37.86    1.70
  -4   3   2   45.27    1.97
  -4   3   2   48.21    2.08
  -4   3   2   46.68    1.91
  -4   3   2   43.56    2.00
  -4   3   2   47.99    1.92
  -4   3   2   45.96    2.08
  -4   3   2   42.84    1.92
  -4   3   2   45.38    1.84
  -4   3   2   49.06    1.81
  -4   3   1   64.25    2.46
  -4   3   1   66.44    2.54
  -4   3   1   70.45    2.51
  -4   3   1   63.91    2.34
  -4   3   1   65.22    2.04
  -4   3   1   62.87    2.34
  -4   3   1   65.48    2.36
  -4   3   1   64.68    2.37
  -4   3   1   64.32    2.46
  -4   3   1   66.57    2.35
  -4   3   0    9.50    0.87
  -4   3   0    9.16    0.89
  -4   3   0    9.00    0.82
  -4   3   0   10.37    0.89
  -4   3   0    8.98    0.80
  -4   3   0    8.90    0.76
  -4   3   0    8.88    0.82
  -4   3   0    9.85    0.88
  -4   3   0   10.09    0.83
  -4   3  -1   73.88    2.67
  -4   3  -1   71.38    2.50
  -4   3  -1   70.08    2.49
  -4   3  -1   68.56    2.28
  -4   3  -1   66.35    2.32
  -4   3  -1   66.44    2.45
  -4   3  -1   66.44    2.55
  -4   3  -1   67.54    2.56
  -4   3  -1   68.58    2.42
  -4   3  -2  295.73    6.97
  -4   3  -2  309.39    6.96
  -4   3  -2  301.83    6.66
  -4   3  -2  304.91    7.24
  -4   3  -2  304.51    6.95
  -4   3  -2  298.11    7.07
  -4   3  -2  300.69    7.09
  -4   3  -2  300.94    6.82
  -4   3  -3  115.32    3.49
  -4   3  -3  114.53    3.34
  -4   3  -3  116.13    3.37
  -4   3  -3  107.40    2.91
  -4   3  -3  111.26    3.71
  -4   3  -3  114.89    3.50
  -4   3  -3  110.47    3.43
  -4   3  -3  108.69    3.25
  -4   3  -4    8.41    0.79
  -4   3  -4    8.82    1.02
  -4   3  -4    9.25    0.80
  -4   3  -4    7.68    0.82
  -4   3  -4    9.25    0.79
   4  -3   4    8.34    0.72
  -4   3  -4    8.43    0.79
  -4   3  -4    8.99    0.86
  -4   3  -4    7.84    0.74
  -4   3  -5   28.17    1.35
  -4   3  -5   26.22    1.54
  -4   3  -5   26.73    1.32
  -4   3  -5   25.32    1.29
  -4   3  -5   25.01    1.50
  -4   3  -5   27.15    1.61
  -4   3  -5   30.69    2.01
  -4   3  -5   28.43    1.36
  -4   3  -6  113.32    3.53
  -4   3  -6  111.72    4.44
  -4   3  -6  106.14    3.64
  -4   3  -6  105.17    3.71
   4  -3   6  111.14    3.47
  -4   3  -7   90.98    3.45
  -4   3  -7   93.96    3.03
   4  -3   7   95.24    3.03
  -4   3  -7   87.33    3.35
  -4   3  -8   28.51    1.70
  -4   3  -8   29.56    2.03
  -4   3  -8   31.76    1.41
  -4   3  -8   33.24    1.92
   4  -3   8   30.01    1.44
   4  -3   9   15.06    1.07
  -4   3  -9   15.25    1.21
   4  -3   9   16.19    0.88
  -4   3  -9   16.29    1.31
  -4   3  -9   16.55    1.19
  -4   3 -10   40.74    1.73
  -4   3 -10   41.95    1.62
   4  -3  10   38.57    1.57
   4  -3  10   39.29    1.57
  -4   2   9   21.44    1.29
   4  -2  -9   21.28    1.05
  -4   2   9   21.81    1.20
   4  -2  -9   21.62    1.12
  -4   2   9   24.18    1.37
  -4   2   8  107.71    3.59
   4  -2  -8  104.80    3.25
  -4   2   8  102.04    3.52
   4  -2  -8  105.76    3.23
  -4   2   7   60.81    2.67
   4  -2  -7   58.76    2.51
  -4   2   7   57.64    2.73
   4  -2  -7   60.52    2.41
  -4   2   7   62.08    2.96
  -4   2   7   60.31    2.62
  -4   2   6    1.90    0.52
  -4   2   6    2.09    0.52
  -4   2   6    1.57    0.50
   4  -2  -6    2.43    0.48
  -4   2   6    2.38    0.72
  -4   2   6    3.22    0.47
  -4   2   6    2.10    0.66
  -4   2   5   42.54    2.10
  -4   2   5   44.70    1.85
  -4   2   5   43.54    2.27
  -4   2   5   46.68    1.99
   4  -2  -5   44.57    1.97
  -4   2   5   41.74    2.51
  -4   2   5   47.53    2.24
  -4   2   4  196.98    4.61
  -4   2   4  192.53    4.98
  -4   2   4  195.91    5.37
  -4   2   4  213.87    5.24
  -4   2   4  199.21    5.22
   4  -2  -4  196.83    4.90
  -4   2   4  201.68    4.63
  -4   2   4  191.78    5.25
  -4   2   3   92.44    2.77
  -4   2   3   87.79    2.60
  -4   2   3   93.68    3.02
  -4   2   3   92.42    2.94
  -4   2   3   92.94    2.98
   4  -2  -3   92.72    2.66
  -4   2   3   88.69    2.61
  -4   2   3   93.24    3.03
  -4   2   3   89.86    2.74
  -4   2   3   90.69    2.89
  -4   2   2  233.52    5.43
  -4   2   2  222.28    5.46
  -4   2   2  226.90    5.26
  -4   2   2  223.32    5.23
  -4   2   2  233.12    5.48
  -4   2   2  224.05    5.49
   4  -2  -2  228.58    4.86
  -4   2   2  220.81    5.22
  -4   2   2  220.26    5.34
  -4   2   2  234.15    5.35
  -4   2   1  211.06    5.13
  -4   2   1  202.50    4.89
  -4   2   1  210.61    4.70
  -4   2   1  220.90    5.04
  -4   2   1  210.45    5.05
  -4   2   1  209.75    4.98
  -4   2   1  215.20    5.16
  -4   2   1  208.06    4.86
  -4   2   1  210.62    5.14
  -4   2   0   33.06    1.51
  -4   2   0   29.51    1.35
  -4   2   0   30.74    1.41
  -4   2   0   31.16    1.40
  -4   2   0   30.96    1.41
  -4   2   0   32.08    1.51
  -4   2   0   29.78    1.32
  -4   2   0   28.96    1.44
  -4   2  -1  190.90    4.79
  -4   2  -1  190.65    4.65
   4  -2   1  194.32    4.20
  -4   2  -1  190.67    4.62
  -4   2  -1  200.25    4.71
  -4   2  -1  192.85    4.84
  -4   2  -1  194.35    4.58
  -4   2  -1  199.42    4.87
  -4   2  -2  246.19    5.74
  -4   2  -2  231.77    5.45
  -4   2  -2  240.67    5.23
  -4   2  -2  238.94    5.39
  -4   2  -2  234.56    5.45
  -4   2  -2  241.22    5.49
  -4   2  -2  234.78    5.60
  -4   2  -2  230.27    5.32
  -4   2  -2  228.91    5.59
  -4   2  -3   90.96    3.06
  -4   2  -3   88.87    2.68
  -4   2  -3   99.11    2.83
  -4   2  -3   95.09    2.46
  -4   2  -3   95.50    2.95
  -4   2  -3   94.44    2.78
  -4   2  -3   97.03    2.94
  -4   2  -3   93.48    2.84
  -4   2  -3   92.61    2.89
  -4   2  -3   96.27    2.84
  -4   2  -3   95.28    2.72
  -4   2  -4   64.95    2.25
  -4   2  -4   66.89    2.31
  -4   2  -4   65.69    2.17
  -4   2  -4   69.16    2.22
  -4   2  -4   67.54    2.55
   4  -2   4   68.84    2.31
  -4   2  -4   65.60    2.36
  -4   2  -4   63.20    2.23
  -4   2  -4   68.55    2.42
  -4   2  -5   40.26    1.60
  -4   2  -5   41.71    1.55
  -4   2  -5   44.31    1.98
  -4   2  -5   41.77    1.56
  -4   2  -5   44.37    2.01
   4  -2   5   44.77    1.75
  -4   2  -5   43.88    1.66
  -4   2  -5   41.17    1.79
  -4   2  -6  164.80    4.73
  -4   2  -6  153.66    4.69
  -4   2  -6  159.57    4.25
   4  -2   6  163.17    4.03
   4  -2   6  164.51    4.61
  -4   2  -7  177.79    4.53
  -4   2  -7  188.73    5.33
   4  -2   7  178.95    4.96
  -4   2  -7  173.77    5.26
  -4   2  -8   21.16    1.10
  -4   2  -8   23.81    1.65
   4  -2   8   22.39    1.52
  -4   2  -8   24.05    1.69
   4  -2   8   21.80    1.38
  -4   2  -9    0.65    0.38
   4  -2   9    0.72    0.32
  -4   2  -9    1.10    0.46
   4  -2   9    0.99    0.37
   4  -2  10   27.39    1.46
   4  -2  10   24.85    1.23
  -4   2 -10   26.60    1.56
  -4   2 -10   27.99    1.58
  -4   2 -11   56.21    2.02
  -4   2 -11   55.37    1.96
   4  -2  11   53.80    1.84
  -4   1  10    2.92    0.44
  -4   1  10    3.31    0.42
  -4   1  10    3.73    0.42
  -4   1   9   30.82    1.65
   4  -1  -9   26.96    1.23
  -4   1   9   27.28    1.46
   4  -1  -9   27.12    1.40
  -4   1   9   27.61    1.54
   4  -1  -8   94.76    3.10
  -4   1   8   92.71    3.39
   4  -1  -8   95.96    3.24
  -4   1   8  103.15    3.58
  -4   1   8  100.26    3.69
   4  -1  -8   98.19    2.94
   4  -1  -7   30.36    1.71
  -4   1   7   26.53    1.57
   4  -1  -7   30.60    1.72
  -4   1   7   27.95    1.82
  -4   1   7   28.08    1.96
   4  -1  -7   29.79    1.53
  -4   1   7   28.24    1.80
  -4   1   7   31.42    1.86
  -4   1   7   29.23    1.74
  -4   1   6    6.00    0.82
  -4   1   6    5.66    0.76
  -4   1   6    3.92    0.70
   4  -1  -6    5.58    0.72
  -4   1   6    3.76    0.78
  -4   1   6    5.21    0.85
   4  -1  -6    5.04    0.62
  -4   1   5   87.59    2.64
  -4   1   5   85.08    3.33
   4  -1  -5   82.60    2.89
  -4   1   5   87.55    3.16
  -4   1   5   87.18    3.12
  -4   1   5   89.79    3.59
   4  -1  -5   85.06    2.65
  -4   1   5   90.88    3.08
  -4   1   4  326.98    6.55
  -4   1   4  306.69    6.93
  -4   1   4  305.02    7.64
   4  -1  -4  308.33    7.01
  -4   1   4  309.48    7.19
  -4   1   4  308.93    7.89
  -4   1   4  320.54    7.35
  -4   1   4  326.97    6.53
  -4   1   4  322.60    7.23
  -4   1   3   84.53    2.28
  -4   1   3   87.37    2.65
  -4   1   3   88.06    3.03
  -4   1   3   83.07    2.49
   4  -1  -3   82.35    2.49
  -4   1   3   92.15    3.23
  -4   1   3   88.64    2.29
  -4   1   3   89.58    2.52
  -4   1   3   88.53    2.51
  -4   1   3   86.88    2.70
  -4   1   2   74.66    2.35
  -4   1   2   72.67    2.12
  -4   1   2   77.95    2.18
  -4   1   2   74.81    2.59
   4  -1  -2   76.54    2.09
   4  -1  -2   73.74    2.03
  -4   1   2   73.76    2.69
  -4   1   2   76.61    2.11
  -4   1   2   72.53    2.10
  -4   1   2   75.73    2.31
  -4   1   2   76.49    2.32
  -4   1   1  248.49    5.19
  -4   1   1  258.80    5.13
  -4   1   1  265.62    5.61
  -4   1   1  252.68    5.96
   4  -1  -1  261.76    5.28
  -4   1   1  260.10    5.57
  -4   1   1  261.08    5.74
  -4   1   1  258.38    5.76
  -4   1   0  215.16    4.38
  -4   1   0  217.13    4.88
  -4   1   0  212.63    5.10
   4  -1   0  221.96    4.36
  -4   1   0  216.87    4.85
  -4   1   0  209.93    4.96
  -4   1   0  210.60    4.98
  -4   1  -1  101.88    2.38
   4  -1   1  106.37    2.84
   4  -1   1  104.95    2.22
   4  -1   1   98.31    2.51
  -4   1  -1   99.82    2.76
  -4   1  -1  105.07    2.84
  -4   1  -1   99.85    2.58
  -4   1  -1   99.92    2.87
  -4   1  -1  100.36    2.88
   4  -1   1  102.29    2.15
  -4   1  -2  221.56    4.96
  -4   1  -2  222.95    4.60
   4  -1   2  220.35    5.00
   4  -1   2  222.06    4.50
  -4   1  -2  222.71    4.98
  -4   1  -2  225.95    5.17
  -4   1  -2  223.30    5.13
  -4   1  -2  216.69    5.12
  -4   1  -3  271.57    5.63
   4  -1   3  271.89    5.60
  -4   1  -3  276.75    6.11
  -4   1  -3  280.52    5.90
  -4   1  -3  283.45    6.23
  -4   1  -3  285.85    6.13
  -4   1  -4   48.29    1.58
  -4   1  -4   48.37    1.55
  -4   1  -4   44.87    1.80
  -4   1  -4   47.94    1.87
  -4   1  -4   48.49    1.99
   4  -1   4   43.15    1.77
  -4   1  -4   47.45    1.57
  -4   1  -4   48.09    1.66
  -4   1  -4   46.76    1.71
  -4   1  -4   46.11    1.70
  -4   1  -5   48.04    1.70
  -4   1  -5   44.82    1.94
  -4   1  -5   46.89    1.49
  -4   1  -5   49.17    2.10
   4  -1   5   46.61    1.85
  -4   1  -5   45.84    1.49
  -4   1  -5   45.59    1.64
  -4   1  -5   47.76    1.66
  -4   1  -6   44.82    1.64
  -4   1  -6   46.41    2.17
   4  -1   6   44.01    1.80
  -4   1  -6   45.80    1.79
   4  -1   6   45.41    2.06
  -4   1  -6   40.48    1.98
  -4   1  -7  106.33    3.71
   4  -1   7  108.76    3.13
  -4   1  -7  108.12    3.39
   4  -1   7  107.86    3.59
  -4   1  -7  105.20    3.68
  -4   1  -8   37.82    2.13
   4  -1   8   40.52    1.62
  -4   1  -8   36.79    1.87
   4  -1   8   38.99    2.00
   4  -1   9   10.18    1.02
  -4   1  -9   10.01    0.95
   4  -1   9   10.55    1.01
  -4   1  -9   11.71    1.17
   4  -1  10    3.77    0.62
  -4   1 -10    4.40    0.62
   4  -1  10    4.06    0.60
  -4   1 -10    3.17    0.60
   4  -1  11   39.96    1.46
   4  -1  11   39.97    1.65
  -4   1 -11   38.27    1.82
   4  -1  11   38.77    1.56
  -4   0  10    6.93    0.64
  -4   0  10    6.73    0.57
   4   0 -10    6.60    0.60
  -4   0  10    6.47    0.64
  -4   0  10    6.19    0.57
   4   0  -9   26.58    1.12
   4   0  -9   25.58    1.45
  -4   0   9   25.37    1.43
  -4   0   9   28.95    1.67
  -4   0   9   25.13    1.52
  -4   0   8  181.71    5.27
   4   0  -8  180.89    4.68
  -4   0   8  179.15    4.87
   4   0  -8  180.46    5.07
  -4   0   8  176.05    5.07
  -4   0   8  187.23    5.51
   4   0  -8  177.90    4.95
   4   0  -7  135.53    4.01
  -4   0   7  123.16    4.21
   4   0  -7  125.89    4.08
  -4   0   7  130.57    4.54
  -4   0   7  132.10    4.22
   4   0  -7  134.43    4.09
  -4   0   7  130.69    4.25
  -4   0   6    0.36    0.33
   4   0  -6    0.75    0.42
  -4   0   6    0.93    0.50
   4   0  -6    0.49    0.27
  -4   0   6    0.74    0.41
  -4   0   6    0.14    0.32
   4   0  -6    0.75    0.32
  -4   0   6    0.74    0.45
  -4   0   5  122.26    4.29
   4   0  -5  126.36    3.77
  -4   0   5  135.29    4.36
  -4   0   5  127.39    3.82
   4   0  -5  130.98    3.77
   4   0  -5  133.18    3.95
  -4   0   5  128.16    3.70
  -4   0   5  129.89    3.95
  -4   0   4  204.34    5.68
  -4   0   4  210.76    5.18
   4   0  -4  201.39    4.94
  -4   0   4  198.67    5.50
  -4   0   4  213.27    4.86
   4   0  -4  205.38    4.95
  -4   0   4  199.31    4.79
  -4   0   4  200.99    4.92
  -4   0   3  126.40    3.09
  -4   0   3  128.71    3.78
  -4   0   3  120.70    2.93
  -4   0   3  130.37    3.86
   4   0  -3  123.84    3.20
  -4   0   3  128.88    3.39
   4   0  -3  128.00    3.22
  -4   0   3  120.18    3.06
  -4   0   3  122.04    3.09
  -4   0   3  123.11    3.19
  -4   0   2   91.75    2.45
  -4   0   2   90.33    2.43
  -4   0   2   89.52    2.39
  -4   0   2   91.54    2.88
   4   0  -2   88.41    2.47
   4   0  -2   84.89    2.25
  -4   0   2   87.42    2.81
  -4   0   2   91.13    2.61
  -4   0   2   91.23    2.45
  -4   0   2   86.27    2.43
  -4   0   1   47.42    1.45
   4   0  -1   48.70    1.69
  -4   0   1   48.02    1.60
   4   0  -1   48.21    1.55
  -4   0   1   50.52    1.86
  -4   0   1   49.13    1.70
  -4   0   1   48.44    1.84
  -4   0   1   48.57    1.64
  -4   0   1   46.87    1.64
  -4   0   0   80.95    1.85
   4   0   0   83.36    2.27
  -4   0   0   81.62    2.29
   4   0   0   82.63    2.40
  -4   0   0   82.60    2.47
   4   0   0   80.18    2.08
  -4   0   0   86.11    2.39
  -4   0   0   83.47    2.36
  -4   0   0   82.47    2.35
   4   0   1   64.44    1.83
   4   0   1   66.68    1.53
  -4   0  -1   62.83    1.94
  -4   0  -1   66.62    2.11
   4   0   1   66.41    1.68
  -4   0  -1   64.48    1.87
  -4   0  -1   64.96    2.02
  -4   0  -1   66.51    1.85
   4   0   1   61.78    1.92
  -4   0  -1   67.12    2.06
  -4   0  -1   66.58    2.03
  -4   0  -2  190.11    4.30
   4   0   2  191.76    4.33
   4   0   2  190.92    4.07
   4   0   2  191.33    4.03
  -4   0  -2  204.34    4.44
   4   0   2  200.17    3.87
  -4   0  -2  195.34    4.41
  -4   0  -2  197.07    4.56
  -4   0  -2  203.68    4.51
  -4   0  -2  196.80    4.50
  -4   0  -3   88.29    2.40
   4   0   3   89.79    2.40
   4   0   3   85.96    2.28
  -4   0  -3   88.43    2.41
  -4   0  -3   88.65    2.59
  -4   0  -3   88.18    2.63
  -4   0  -3   87.73    2.46
  -4   0  -3   91.18    2.50
   4   0   4   51.66    1.71
  -4   0  -4   53.45    1.68
  -4   0  -4   55.15    2.05
   4   0   4   53.09    1.93
  -4   0  -4   54.95    1.78
  -4   0  -5    9.41    0.56
  -4   0  -5    9.19    0.82
   4   0   5    7.82    0.71
  -4   0  -5    8.50    0.60
  -4   0  -5    9.88    0.64
  -4   0  -5    8.74    0.76
  -4   0  -6  117.07    3.70
   4   0   6  121.59    3.47
   4   0   6  118.55    3.66
  -4   0  -6  119.96    3.58
  -4   0  -7  126.44    4.04
   4   0   7  124.50    3.66
   4   0   7  132.42    4.04
  -4   0  -7  134.50    3.53
  -4   0  -7  128.37    3.98
  -4   0  -8    1.61    0.48
   4   0   8    0.57    0.31
  -4   0  -8    1.28    0.44
  -4   0  -8    2.13    0.52
   4   0   8    1.13    0.36
   4   0   8    1.08    0.38
  -4   0  -8    1.58    0.41
   4   0   9    1.69    0.51
  -4   0  -9    1.24    0.43
   4   0   9    1.50    0.38
   4   0   9    1.52    0.49
  -4   0  -9    1.66    0.41
  -4   0  -9    0.95    0.41
   4   0  10   12.44    1.06
  -4   0 -10   12.12    1.10
  -4   0 -10   15.12    1.17
   4   0  10   12.93    1.09
  -4   0 -11  115.79    3.72
   4   0  11  110.77    3.28
  -4   0 -11  113.18    3.31
   4   0  11  118.86    3.40
  -4   0 -12   16.42    1.01
   4   1 -10    8.08    0.71
  -4  -1  10    7.77    0.62
  -4  -1  10    6.70    0.67
  -4  -1  10    7.85    0.64
  -4  -1  10    8.55    0.61
  -4  -1   9   23.92    1.42
  -4  -1   9   23.18    1.33
   4   1  -9   24.23    1.46
  -4  -1   9   24.63    1.54
  -4  -1   9   23.55    1.36
   4   1  -8  149.06    3.88
  -4  -1   8  136.57    4.33
  -4  -1   8  139.19    4.25
   4   1  -8  143.36    4.42
   4   1  -8  143.54    3.85
  -4  -1   8  144.93    4.69
  -4  -1   8  149.27    4.46
   4   1  -8  144.92    4.52
   4   1  -7   84.53    2.89
   4   1  -7   86.19    3.22
  -4  -1   7   82.93    3.37
  -4  -1   7   84.00    3.06
  -4  -1   7   83.51    3.34
   4   1  -7   81.27    3.21
  -4  -1   7   82.95    3.12
   4   1  -6   56.54    2.09
   4   1  -6   59.47    2.35
  -4  -1   6   57.36    2.67
   4   1  -6   55.89    2.43
  -4  -1   6   58.05    2.67
  -4  -1   6   59.85    2.39
   4   1  -6   58.68    2.55
  -4  -1   6   59.69    2.24
  -4  -1   6   57.22    2.43
   4   1  -5   14.53    1.06
   4   1  -5   13.69    1.06
  -4  -1   5   15.11    1.11
  -4  -1   5   14.79    1.22
  -4  -1   5   11.62    0.95
   4   1  -5   13.86    0.87
  -4  -1   5   13.82    0.98
  -4  -1   5   15.08    1.27
   4   1  -5   13.95    1.11
  -4  -1   5   15.73    1.02
  -4  -1   4  274.84    6.55
   4   1  -4  276.24    6.25
   4   1  -4  267.03    6.09
  -4  -1   4  251.08    6.25
  -4  -1   4  274.42    6.69
   4   1  -4  278.43    6.34
  -4  -1   4  254.81    5.68
  -4  -1   3  285.11    6.30
   4   1  -3  284.87    6.43
  -4  -1   3  301.28    5.90
  -4  -1   3  297.74    6.84
   4   1  -3  284.16    6.26
   4   1  -3  282.97    6.20
  -4  -1   3  285.08    6.63
  -4  -1   3  285.88    6.59
   4   1  -3  284.85    6.38
  -4  -1   3  289.83    5.98
  -4  -1   3  297.73    5.95
  -4  -1   2    3.68    0.41
  -4  -1   2    3.21    0.42
  -4  -1   2    3.78    0.52
  -4  -1   2    2.86    0.33
   4   1  -2    2.88    0.34
   4   1  -2    2.93    0.40
  -4  -1   2    3.36    0.47
   4   1  -2    3.04    0.42
  -4  -1   2    3.35    0.47
  -4  -1   2    2.23    0.33
  -4  -1   1  285.39    5.79
   4   1  -1  267.38    5.94
  -4  -1   1  285.25    5.87
   4   1  -1  280.02    6.02
  -4  -1   1  293.77    6.23
   4   1  -1  280.79    5.90
  -4  -1   1  268.75    6.01
  -4  -1   1  278.12    6.09
  -4  -1   1  284.98    5.94
  -4  -1   1  289.74    5.91
  -4  -1   0  236.92    4.65
   4   1   0  231.63    4.34
   4   1   0  237.20    5.03
  -4  -1   0  243.33    5.23
   4   1   0  228.71    4.93
  -4  -1   0  230.23    5.15
  -4  -1   0  239.35    4.81
  -4  -1   0  238.43    5.10
  -4  -1  -1  237.10    4.31
   4   1   1  231.59    4.64
   4   1   1  228.95    4.97
  -4  -1  -1  227.04    5.12
   4   1   1  238.87    4.92
  -4  -1  -1  237.27    5.09
  -4  -1  -1  241.42    5.19
  -4  -1  -1  243.82    5.04
  -4  -1  -1  246.93    5.17
  -4  -1  -2  194.92    4.32
   4   1   2  188.47    4.08
   4   1   2  188.09    4.02
   4   1   2  187.03    4.04
  -4  -1  -2  190.30    4.10
   4   1   2  187.28    4.02
  -4  -1  -2  193.76    4.37
  -4  -1  -2  196.33    4.33
  -4  -1  -2  196.05    4.34
  -4  -1  -3   42.62    1.54
   4   1   3   42.36    1.34
   4   1   3   40.89    1.40
  -4  -1  -3   42.51    1.44
  -4  -1  -3   40.60    1.32
  -4  -1  -3   42.48    1.57
  -4  -1  -3   41.25    1.56
   4   1   3   41.49    1.54
   4   1   3   41.78    1.23
  -4  -1  -3   44.52    1.52
  -4  -1  -3   43.15    1.49
   4   1   4    5.44    0.44
   4   1   4    5.43    0.49
  -4  -1  -4    5.72    0.47
  -4  -1  -4    4.71    0.39
  -4  -1  -4    5.23    0.57
   4   1   4    5.82    0.58
  -4  -1  -4    4.70    0.52
  -4  -1  -4    5.62    0.51
  -4  -1  -4    4.88    0.46
   4   1   5   33.21    1.22
   4   1   5   35.02    1.40
  -4  -1  -5   35.00    1.17
  -4  -1  -5   34.95    1.62
   4   1   5   36.42    1.58
  -4  -1  -5   36.34    1.43
  -4  -1  -5   34.58    1.21
  -4  -1  -5   33.98    1.22
  -4  -1  -5   34.79    1.46
  -4  -1  -6   37.35    1.74
   4   1   6   37.87    1.70
  -4  -1  -6   35.50    1.56
   4   1   6   38.93    1.78
  -4  -1  -6   38.68    1.68
  -4  -1  -7   30.22    1.64
   4   1   7   30.16    1.58
   4   1   7   27.62    1.60
  -4  -1  -7   29.21    1.50
  -4  -1  -7   25.82    1.46
   4   1   8   61.15    2.47
  -4  -1  -8   60.78    2.53
   4   1   8   64.50    2.50
   4   1   8   61.43    2.62
  -4  -1  -8   64.21    2.53
  -4  -1  -8   62.60    2.51
   4   1   9    5.09    0.71
  -4  -1  -9    4.65    0.64
   4   1   9    3.99    0.61
   4   1   9    3.40    0.66
  -4  -1  -9    4.24    0.66
  -4  -1  -9    5.37    0.74
   4   1  10   14.61    1.12
  -4  -1 -10   15.61    1.26
   4   1  10   13.71    1.00
   4   1  10   13.81    1.16
  -4  -1 -10   14.56    1.12
  -4  -1 -10   14.87    1.11
   4   1  11   34.54    1.56
  -4  -1 -11   35.31    1.73
   4   1  11   36.32    1.77
  -4  -1 -11   33.95    1.53
  -4  -1 -12    1.01    0.30
  -4  -1 -12    0.64    0.27
   4   1  12    1.34    0.33
   4   2 -10    1.25    0.28
   4   2 -10    1.43    0.35
  -4  -2  10    1.45    0.36
  -4  -2  10    1.35    0.29
  -4  -2  10    0.75    0.23
   4   2  -9   25.27    1.33
  -4  -2   9   24.64    1.31
  -4  -2   9   24.39    1.42
   4   2  -9   23.69    1.46
  -4  -2   9   25.22    1.51
  -4  -2   9   23.70    1.32
   4   2  -8   57.44    2.35
   4   2  -8   55.24    2.50
  -4  -2   8   57.99    2.57
  -4  -2   8   57.62    2.59
  -4  -2   8   56.54    2.31
   4   2  -8   51.35    2.52
  -4  -2   8   53.78    2.28
   4   2  -7  128.50    3.90
   4   2  -7  119.14    3.47
   4   2  -7  124.47    4.10
  -4  -2   7  123.54    4.17
  -4  -2   7  122.80    3.62
  -4  -2   7  124.84    4.23
   4   2  -7  116.75    4.17
  -4  -2   7  123.90    3.78
   4   2  -6    0.68    0.38
   4   2  -6    1.86    0.44
  -4  -2   6    1.31    0.47
   4   2  -6    0.41    0.31
  -4  -2   6    1.06    0.40
  -4  -2   6    1.47    0.44
  -4  -2   6    0.93    0.37
   4   2  -6    1.22    0.44
   4   2  -5    1.10    0.36
  -4  -2   5    1.09    0.35
   4   2  -5    1.51    0.36
   4   2  -5    1.86    0.45
  -4  -2   5    1.90    0.48
  -4  -2   5    0.99    0.33
  -4  -2   5    1.11    0.35
   4   2  -5    1.13    0.38
   4   2  -4  355.32    7.51
   4   2  -4  356.70    7.65
  -4  -2   4  338.90    7.98
   4   2  -4  358.90    7.73
  -4  -2   4  338.68    7.80
  -4  -2   4  348.99    7.80
   4   2  -4  341.67    7.94
  -4  -2   3  310.08    6.76
   4   2  -3  307.98    6.68
  -4  -2   3  308.86    6.98
   4   2  -3  294.07    6.56
  -4  -2   3  300.30    6.73
  -4  -2   3  302.34    6.82
  -4  -2   3  316.01    6.21
   4   2  -3  293.89    6.83
  -4  -2   2   50.74    1.73
   4   2  -2   50.25    1.62
   4   2  -2   50.76    1.78
   4   2  -2   52.02    1.71
  -4  -2   2   51.59    1.91
   4   2  -2   50.39    1.78
   4   2  -2   48.47    1.64
  -4  -2   2   49.26    1.74
  -4  -2   2   49.55    1.85
  -4  -2   2   49.63    1.50
  -4  -2   2   53.14    1.69
  -4  -2   2   52.05    1.26
  -4  -2   1    2.89    0.35
   4   2  -1    3.78    0.38
  -4  -2   1    2.92    0.26
   4   2  -1    3.09    0.42
   4   2  -1    3.44    0.40
  -4  -2   1    3.28    0.44
   4   2  -1    2.94    0.30
   4   2  -1    3.46    0.42
  -4  -2   1    2.51    0.36
  -4  -2   1    3.19    0.36
  -4  -2   1    3.04    0.44
  -4  -2   1    3.24    0.41
  -4  -2   0  389.57    7.33
   4   2   0  365.03    7.05
   4   2   0  380.03    7.52
  -4  -2   0  368.91    7.55
   4   2   0  372.24    7.50
  -4  -2   0  379.30    7.65
  -4  -2   0  364.94    7.46
  -4  -2   0  363.20    7.12
  -4  -2  -1  347.29    6.50
   4   2   1  323.45    6.57
  -4  -2  -1  338.16    6.65
   4   2   1  346.84    6.84
  -4  -2  -1  331.42    6.83
  -4  -2  -1  318.34    6.83
   4   2   1  344.18    6.85
  -4  -2  -1  343.20    6.94
  -4  -2  -1  339.96    6.91
   4   2   2   36.93    1.32
  -4  -2  -2   37.64    1.43
  -4  -2  -2   39.51    0.95
   4   2   2   37.16    1.13
   4   2   2   35.58    1.25
  -4  -2  -2   39.59    1.34
  -4  -2  -2   36.43    1.34
   4   2   2   39.95    1.37
  -4  -2  -2   38.42    1.41
  -4  -2  -2   40.24    1.46
  -4  -2  -3   87.06    2.44
  -4  -2  -3   80.36    1.66
   4   2   3   84.47    1.97
   4   2   3   79.15    2.25
   4   2   3   82.03    2.18
  -4  -2  -3   82.13    2.27
   4   2   3   83.67    2.23
  -4  -2  -3   85.52    2.45
  -4  -2  -3   82.27    2.33
   4   2   3   82.66    2.34
  -4  -2  -3   80.21    2.31
  -4  -2  -4  128.40    2.70
   4   2   4  145.56    3.05
   4   2   4  136.66    3.41
   4   2   4  137.60    3.18
  -4  -2  -4  147.14    3.38
  -4  -2  -4  139.31    3.60
  -4  -2  -4  148.90    3.50
   4   2   4  143.73    3.60
  -4  -2  -4  137.43    3.30
  -4  -2  -5  303.16    6.27
   4   2   5  311.59    6.11
   4   2   5  305.73    6.04
  -4  -2  -5  311.04    6.85
   4   2   5  310.02    6.81
   4   2   5  296.27    6.65
  -4  -2  -5  295.78    6.12
  -4  -2  -6  135.24    3.90
   4   2   6  139.95    3.95
  -4  -2  -6  142.62    3.95
   4   2   6  144.68    3.93
  -4  -2  -6  141.55    3.63
  -4  -2  -7   62.15    2.21
   4   2   7   58.90    2.13
  -4  -2  -7   54.88    2.26
   4   2   7   58.07    2.37
  -4  -2  -7   56.94    2.38
   4   2   7   55.98    2.33
   4   2   8    1.91    0.41
  -4  -2  -8    1.79    0.42
   4   2   8    2.91    0.58
   4   2   8    3.02    0.59
  -4  -2  -8    2.16    0.54
  -4  -2  -8    2.30    0.49
   4   2   9   11.85    0.99
  -4  -2  -9   12.59    0.98
   4   2   9   12.00    1.10
  -4  -2  -9   13.12    1.21
   4   2   9   14.77    1.24
  -4  -2  -9   13.76    1.01
   4   2  10    4.48    0.61
   4   2  10    5.13    0.70
   4   2  10    4.95    0.74
  -4  -2 -10    5.08    0.76
   4   2  11   11.60    0.83
  -4  -2 -11   11.03    1.01
   4   2  11   10.01    0.82
   4   2  11   11.98    1.01
  -4  -2 -11   12.61    1.00
  -4  -2 -12   29.15    1.35
  -4  -2 -12   30.41    1.38
   4   2  12   29.49    1.43
   4   2  12   28.60    1.33
  -4  -2 -12   27.91    1.19
   4   3 -10   44.02    1.60
  -4  -3  10   47.31    1.64
   4   3 -10   47.59    1.75
  -4  -3  10   50.45    1.67
   4   3 -10   44.96    1.49
   4   3  -9   22.28    1.33
  -4  -3   9   19.10    1.26
   4   3  -9   17.39    1.24
  -4  -3   9   19.55    1.23
  -4  -3   9   22.57    1.19
  -4  -3   8  140.29    3.69
   4   3  -8  127.78    4.16
  -4  -3   8  137.83    4.37
   4   3  -8  138.06    4.33
  -4  -3   8  134.06    4.17
  -4  -3   8  130.81    3.75
   4   3  -7  233.47    6.25
  -4  -3   7  227.66    6.34
   4   3  -7  239.12    6.37
  -4  -3   7  230.52    6.16
  -4  -3   7  228.58    5.93
   4   3  -6   49.17    2.31
   4   3  -6   51.19    1.92
  -4  -3   6   49.45    2.43
   4   3  -6   52.39    2.40
  -4  -3   6   48.13    2.23
  -4  -3   6   50.84    2.27
   4   3  -6   53.10    2.57
  -4  -3   6   45.47    1.90
   4   3  -5   93.37    3.22
  -4  -3   5   98.65    3.43
   4   3  -5   96.27    3.31
  -4  -3   5   95.23    3.19
  -4  -3   5   93.89    3.26
   4   3  -5   98.02    2.96
   4   3  -5  101.03    3.55
  -4  -3   5   98.66    2.90
   4   3  -4  299.88    6.94
  -4  -3   4  306.98    6.84
   4   3  -4  300.39    6.66
  -4  -3   4  291.00    7.07
   4   3  -4  302.44    6.98
  -4  -3   4  304.85    7.07
  -4  -3   4  291.74    6.37
   4   3  -3  376.52    7.91
  -4  -3   3  381.49    8.22
   4   3  -3  368.40    7.46
   4   3  -3  370.27    8.01
  -4  -3   3  383.33    7.90
  -4  -3   3  368.83    8.18
   4   3  -3  374.65    7.99
  -4  -3   2    2.45    0.38
   4   3  -2    2.21    0.30
  -4  -3   2    2.35    0.29
   4   3  -2    2.17    0.37
   4   3  -2    2.38    0.33
  -4  -3   2    1.93    0.35
   4   3  -2    2.38    0.38
   4   3  -2    2.19    0.35
   4   3  -2    1.79    0.36
  -4  -3   2    2.31    0.37
  -4  -3   2    1.63    0.37
  -4  -3   1   11.39    0.72
   4   3  -1   13.06    0.66
  -4  -3   1   12.14    0.64
   4   3  -1   11.68    0.76
  -4  -3   1   12.24    0.78
   4   3  -1   12.32    0.72
   4   3  -1   12.14    0.75
   4   3  -1   13.17    0.84
   4   3  -1   12.29    0.74
  -4  -3   1   12.37    0.64
  -4  -3   1   12.06    0.82
   4   3   0  415.31    7.71
   4   3   0  404.74    7.94
  -4  -3   0  410.55    7.92
   4   3   0  413.98    8.21
  -4  -3   0  401.54    8.09
   4   3   0  386.72    7.82
  -4  -3   0  407.28    8.28
  -4  -3   0  425.18    8.23
   4   3   0  398.50    8.25
   4   3   1  234.22    5.00
  -4  -3  -1  244.11    5.00
   4   3   1  235.49    5.14
  -4  -3  -1  234.07    4.91
  -4  -3  -1  244.85    5.23
   4   3   1  245.76    5.24
  -4  -3  -1  249.31    5.22
  -4  -3  -1  239.65    5.23
   4   3   1  237.68    4.82
  -4  -3  -2   12.00    0.79
  -4  -3  -2   11.12    0.57
   4   3   2   11.53    0.43
   4   3   2   10.88    0.70
  -4  -3  -2   12.08    0.71
   4   3   2   10.21    0.69
   4   3   2   11.34    0.74
  -4  -3  -2   12.02    0.74
  -4  -3  -2   12.75    0.80
   4   3   2   11.36    0.67
  -4  -3  -3    3.06    0.42
  -4  -3  -3    3.37    0.31
   4   3   3    3.52    0.21
   4   3   3    3.60    0.44
  -4  -3  -3    3.49    0.41
   4   3   3    4.01    0.44
   4   3   3    3.33    0.40
  -4  -3  -3    2.90    0.39
   4   3   3    3.90    0.45
  -4  -3  -3    3.82    0.48
  -4  -3  -3    2.86    0.38
   4   3   3    4.02    0.44
  -4  -3  -4   82.82    2.02
   4   3   4   84.19    1.77
   4   3   4   81.96    2.42
   4   3   4   82.90    2.38
   4   3   4   78.42    2.24
  -4  -3  -4   81.37    2.37
  -4  -3  -4   83.71    2.56
  -4  -3  -4   79.07    2.28
   4   3   4   90.92    2.56
   4   3   4   74.46    2.21
  -4  -3  -5    5.07    0.38
   4   3   5    4.00    0.41
   4   3   5    5.11    0.52
  -4  -3  -5    4.71    0.58
  -4  -3  -5    5.05    0.49
   4   3   5    4.31    0.55
   4   3   5    4.79    0.52
   4   3   6    0.72    0.29
   4   3   6    1.10    0.25
  -4  -3  -6    0.67    0.30
   4   3   6    1.35    0.37
   4   3   6    0.80    0.28
   4   3   7    0.80    0.35
   4   3   7    0.76    0.26
  -4  -3  -7    0.63    0.31
   4   3   7    0.74    0.33
   4   3   7    1.36    0.39
  -4  -3  -7    0.43    0.33
   4   3   8    7.60    0.75
   4   3   8    6.75    0.65
  -4  -3  -8    7.82    0.77
   4   3   8    7.34    0.89
   4   3   8    6.76    0.82
  -4  -3  -8    7.17    0.92
   4   3   9    7.29    0.72
   4   3   9    7.29    0.68
  -4  -3  -9    6.46    0.65
   4   3   9    6.69    0.87
   4   3   9    6.29    0.83
  -4  -3  -9    7.90    0.99
   4   3  10    0.07    0.27
   4   3  10    0.26    0.32
  -4  -3 -11   13.13    0.97
   4   3  11   13.26    1.01
  -4  -3 -11   14.17    1.13
   4   3  11   13.31    1.04
   4   3  11   13.21    1.10
  -4  -3 -12    3.74    0.42
  -4  -3 -12    3.72    0.49
   4   3  12    3.06    0.42
  -4  -3 -12    3.96    0.51
   4   3  12    3.02    0.48
   4   4  -9   66.22    2.25
   4   4  -9   59.87    1.46
  -4  -4   9   66.24    2.17
   4   4  -9   65.38    2.14
  -4  -4   9   67.06    1.91
   4   4  -8   58.97    2.61
  -4  -4   8   64.56    2.66
   4   4  -8   59.47    2.56
  -4  -4   8   60.01    2.30
  -4  -4   8   58.30    2.28
  -4  -4   7   37.83    2.09
   4   4  -7   35.72    2.04
   4   4  -7   36.92    2.11
  -4  -4   7   35.89    1.82
  -4  -4   7   37.83    1.95
   4   4  -6   33.34    2.04
  -4  -4   6   36.80    2.06
   4   4  -6   38.69    2.08
  -4  -4   6   39.60    1.86
  -4  -4   6   39.30    2.05
   4   4  -5    2.29    0.55
   4   4  -5    2.17    0.38
  -4  -4   5    1.11    0.42
   4   4  -5    2.46    0.55
  -4  -4   5    2.29    0.44
  -4  -4   5    1.91    0.53
   4   4  -4  144.02    3.76
  -4  -4   4  141.72    4.21
   4   4  -4  145.76    4.26
  -4  -4   4  148.05    4.33
  -4  -4   4  144.48    3.81
   4   4  -4  143.43    4.27
  -4  -4   3  287.67    5.81
   4   4  -3  281.76    6.24
  -4  -4   3  285.18    6.59
   4   4  -3  289.44    6.01
   4   4  -3  280.79    6.59
  -4  -4   3  270.60    6.64
  -4  -4   3  282.89    6.06
   4   4  -3  271.49    5.96
   4   4  -3  273.13    6.57
   4   4  -2    6.43    0.67
   4   4  -2    5.71    0.43
  -4  -4   2    5.88    0.51
   4   4  -2    6.24    0.60
  -4  -4   2    6.06    0.61
   4   4  -2    5.31    0.52
   4   4  -2    6.76    0.67
  -4  -4   2    5.88    0.66
  -4  -4   2    6.46    0.49
   4   4  -1   12.40    0.57
  -4  -4   1   15.31    0.82
   4   4  -1   11.66    0.80
  -4  -4   1   12.27    0.79
   4   4  -1   12.30    0.65
   4   4  -1   13.20    0.82
   4   4  -1   11.93    0.85
   4   4  -1   11.43    0.80
  -4  -4   1   12.26    0.88
   4   4   0  336.35    6.26
  -4  -4   0  327.58    6.86
   4   4   0  325.88    7.06
  -4  -4   0  327.80    6.74
   4   4   0  337.78    7.07
   4   4   0  343.23    7.17
   4   4   0  345.02    6.99
  -4  -4   0  338.28    7.14
   4   4   1  192.47    4.55
  -4  -4  -1  200.32    4.51
   4   4   1  209.24    4.72
  -4  -4  -1  198.88    4.13
   4   4   1  202.90    4.65
   4   4   1  204.90    4.76
  -4  -4  -1  202.64    4.60
  -4  -4  -1  204.85    4.75
   4   4   1  199.97    4.08
  -4  -4  -2    1.34    0.26
  -4  -4  -2    1.14    0.30
   4   4   2    1.41    0.28
  -4  -4  -2    0.71    0.23
   4   4   2    0.63    0.26
   4   4   2    0.62    0.24
   4   4   2    1.35    0.34
  -4  -4  -2    1.40    0.35
  -4  -4  -2    0.78    0.25
   4   4   2    0.67    0.21
  -4  -4  -3    5.93    0.49
  -4  -4  -3    7.05    0.61
   4   4   3    7.22    0.59
   4   4   3    7.05    0.65
   4   4   3    6.77    0.60
   4   4   3    7.48    0.66
  -4  -4  -3    7.42    0.68
  -4  -4  -3    5.60    0.49
   4   4   3    7.23    0.58
  -4  -4  -4   23.45    0.99
   4   4   4   24.91    1.17
   4   4   4   23.35    1.24
   4   4   4   22.81    1.11
  -4  -4  -4   21.17    1.19
  -4  -4  -4   23.25    0.96
   4   4   4   25.68    1.24
   4   4   4   23.81    0.96
  -4  -4  -5   72.88    2.01
   4   4   5   75.75    2.47
   4   4   5   71.83    2.18
   4   4   5   80.00    2.31
  -4  -4  -5   76.02    2.52
   4   4   5   73.71    2.56
   4   4   5   73.31    2.22
  -4  -4  -6   52.40    1.71
   4   4   6   54.64    2.14
  -4  -4  -6   52.77    2.06
   4   4   6   49.54    2.19
   4   4   6   50.08    1.91
   4   4   6   51.65    2.08
   4   4   7    0.74    0.39
  -4  -4  -7    0.19    0.27
  -4  -4  -7   -0.15    0.21
  -4  -4  -7    0.48    0.28
   4   4   7    0.23    0.28
   4   4   7    0.47    0.28
  -4  -4  -7    0.60    0.39
   4   4   7    0.48    0.35
  -4  -4  -8    4.03    0.58
   4   4   8    4.80    0.69
  -4  -4  -8    4.12    0.55
   4   4   8    2.31    0.59
   4   4   8    3.93    0.62
  -4  -4  -8    3.55    0.69
  -4  -4  -9    8.89    0.79
   4   4   9    9.36    0.93
   4   4   9    8.19    1.00
  -4  -4  -9    9.81    1.11
   4   4   9    8.35    0.90
   4   4   9    8.89    0.99
   4   4  10    7.83    0.78
  -4  -4 -10    7.53    0.69
   4   4  10    8.97    0.97
   4   4  10    7.95    0.93
   4   4  10    6.80    0.80
  -4  -4 -10    7.57    0.96
   4   4  11    8.12    0.64
   4   4  11    6.68    0.75
   4   4  11    8.18    0.86
  -4  -4 -11    8.05    0.86
   4   4  11    6.61    0.70
   4   4  12    2.45    0.41
  -4  -4 -12    2.26    0.39
  -4  -4 -12    2.65    0.43
   4   5  -9   40.41    1.79
  -4  -5   9   39.91    1.65
   4   5  -9   39.41    1.63
  -4  -5   9   38.49    1.37
   4   5  -9   35.88    1.30
   4   5  -8   13.04    1.15
  -4  -5   8   15.36    1.17
   4   5  -8   15.05    1.16
  -4  -5   8   13.19    0.81
  -4  -5   8   14.64    1.05
   4   5  -8   14.47    1.02
   4   5  -7   52.89    2.62
  -4  -5   7   54.91    2.50
   4   5  -7   55.88    2.55
  -4  -5   7   57.90    2.08
  -4  -5   7   58.59    2.52
   4   5  -6   74.90    3.22
  -4  -5   6   74.76    3.02
   4   5  -6   78.86    3.17
  -4  -5   6   73.34    3.06
  -4  -5   6   81.37    2.58
   4   5  -5   32.11    1.97
  -4  -5   5   35.78    1.94
   4   5  -5   31.05    1.88
  -4  -5   5   31.35    1.88
  -4  -5   5   36.18    1.51
   4   5  -4   42.20    2.15
   4   5  -4   43.82    2.17
   4   5  -4   40.70    1.62
  -4  -5   4   42.97    2.02
   4   5  -4   44.41    2.16
  -4  -5   4   39.49    2.07
   4   5  -3  133.47    3.18
   4   5  -3  126.13    3.95
   4   5  -3  123.12    3.45
  -4  -5   3  133.29    3.79
   4   5  -3  138.42    3.50
   4   5  -3  136.53    4.08
  -4  -5   3  124.61    3.99
   4   5  -3  133.46    3.47
   4   5  -2   33.01    1.47
  -4  -5   2   31.29    1.46
   4   5  -2   34.09    1.50
   4   5  -2   33.45    1.67
  -4  -5   2   33.01    1.67
   4   5  -2   38.38    1.59
   4   5  -2   32.87    1.66
   4   5  -1   11.97    0.86
   4   5  -1   12.43    0.94
  -4  -5   1   11.24    0.75
   4   5  -1   12.07    0.89
   4   5  -1   10.86    0.88
  -4  -5   1   11.67    0.90
   4   5  -1   11.36    0.89
  -4  -5   0   48.17    1.72
   4   5   0   48.06    1.87
  -4  -5   0   47.31    1.44
   4   5   0   49.51    1.92
   4   5   0   47.82    1.93
  -4  -5   0   46.44    1.80
   4   5   0   48.61    1.91
   4   5   1  158.37    4.17
  -4  -5  -1  166.30    4.01
  -4  -5  -1  161.84    4.01
   4   5   1  167.98    3.65
   4   5   1  167.23    4.29
   4   5   1  167.38    4.31
   4   5   1  160.79    4.31
  -4  -5  -1  166.14    4.03
   4   5   1  167.29    4.25
  -4  -5  -2    9.94    0.71
   4   5   2    9.64    0.63
   4   5   2    9.31    0.83
   4   5   2    9.34    0.79
   4   5   2    8.81    0.78
   4   5   2    9.30    0.81
  -4  -5  -2    8.78    0.65
  -4  -5  -2    9.11    0.79
   4   5   2    9.23    0.59
  -4  -5  -3    6.75    0.58
   4   5   3    7.71    0.60
   4   5   3    6.43    0.71
   4   5   3    6.91    0.69
   4   5   3    6.50    0.67
  -4  -5  -3    6.63    0.69
  -4  -5  -3    6.22    0.48
   4   5   3    6.41    0.58
   4   5   3    8.19    0.75
   4   5   4   29.22    1.50
   4   5   4   28.59    1.56
   4   5   4   30.49    1.44
   4   5   4   30.32    1.46
  -4  -5  -4   29.81    1.50
   4   5   4   29.27    1.41
   4   5   4   26.84    1.22
   4   5   5   67.38    2.54
   4   5   5   66.07    2.09
   4   5   5   67.40    2.24
   4   5   5   66.82    2.27
  -4  -5  -5   70.10    2.45
   4   5   5   72.51    2.59
   4   5   5   67.18    2.33
   4   5   6   68.79    2.66
   4   5   6   64.39    2.00
   4   5   6   67.21    2.08
  -4  -5  -6   59.89    2.26
   4   5   6   67.80    2.70
   4   5   6   64.03    2.43
   4   5   6   64.58    2.14
   4   5   6   65.90    2.62
   4   5   7    9.97    1.04
  -4  -5  -7   10.67    0.84
   4   5   7   10.12    1.06
   4   5   7   10.47    1.00
   4   5   7    9.12    0.79
   4   5   7    9.15    0.97
   4   5   8    1.32    0.47
  -4  -5  -8    1.56    0.37
   4   5   8    0.35    0.38
   4   5   8    1.58    0.40
  -4  -5  -8    0.63    0.45
   4   5   8    0.96    0.43
   4   5   9   17.68    1.38
   4   5   9   19.10    1.49
   4   5   9   21.34    1.52
  -4  -5  -9   19.41    1.55
   4   5   9   19.87    1.27
   4   5  10   42.90    2.14
   4   5  10   43.54    2.14
   4   5  10   41.82    1.98
  -4  -5 -10   43.43    2.21
   4   5  10   40.60    1.77
   4   5  11    0.33    0.21
   4   5  11    0.85    0.26
  -4  -5 -11    0.63    0.27
   4   5  11    0.43    0.31
   4   6  -8    5.00    0.67
  -4  -6   8    4.53    0.58
   4   6  -8    3.61    0.52
  -4  -6   8    4.47    0.54
   4   6  -8    3.37    0.48
   4   6  -7   41.35    2.12
   4   6  -7   40.70    1.96
   4   6  -7   35.79    2.05
  -4  -6   7   41.93    1.94
   4   6  -7   40.97    2.03
  -4  -6   7   39.43    1.96
   4   6  -6   78.81    3.27
  -4  -6   6   76.79    2.91
   4   6  -6   74.83    3.05
  -4  -6   6   75.92    3.05
   4   6  -5   15.23    1.37
  -4  -6   5   18.24    1.31
   4   6  -5   16.63    1.38
  -4  -6   5   17.45    1.41
   4   6  -4   61.39    2.78
   4   6  -4   60.60    2.77
  -4  -6   4   67.89    2.56
   4   6  -4   66.74    2.85
  -4  -6   4   62.21    2.73
   4   6  -3  166.88    4.89
   4   6  -3  159.55    4.10
  -4  -6   3  158.48    4.32
   4   6  -3  162.79    4.25
   4   6  -3  159.82    4.83
  -4  -6   3  152.26    4.71
   4   6  -3  172.01    4.30
   4   6  -3  164.81    4.08
   4   6  -2   32.65    1.56
   4   6  -2   33.53    1.58
   4   6  -2   33.96    1.81
  -4  -6   2   33.64    1.47
   4   6  -2   34.70    1.68
   4   6  -2   33.68    1.84
  -4  -6   2   34.21    1.80
   4   6  -2   35.64    1.72
   4   6  -1    2.24    0.45
   4   6  -1    1.74    0.40
   4   6  -1    1.77    0.42
   4   6  -1    2.44    0.50
  -4  -6   1    2.91    0.50
   4   6  -1    2.56    0.50
   4   6  -1    2.24    0.47
   4   6   0  102.53    3.18
   4   6   0  103.48    3.26
   4   6   0  101.99    3.25
   4   6   0  106.45    3.43
  -4  -6   0   98.09    3.01
   4   6   0  105.27    3.45
   4   6   1  163.12    4.35
   4   6   1  161.64    4.48
   4   6   1  159.79    4.35
   4   6   1  159.79    4.58
  -4  -6  -1  152.46    3.92
   4   6   1  157.09    4.60
   4   6   2   26.77    1.46
   4   6   2   28.08    1.52
   4   6   2   29.94    1.67
   4   6   2   26.22    1.56
   4   6   2   26.52    1.59
  -4  -6  -2   28.12    1.14
  -4  -6  -2   24.79    1.44
   4   6   2   25.98    1.48
   4   6   3   22.46    1.38
   4   6   3   23.78    1.34
   4   6   3   24.23    1.53
   4   6   3   23.00    1.43
   4   6   3   22.61    1.44
  -4  -6  -3   21.47    1.32
   4   6   3   19.77    1.07
   4   6   3   22.90    1.10
   4   6   4   17.39    1.14
   4   6   4   18.54    1.30
   4   6   4   15.68    1.16
   4   6   4   15.01    1.15
  -4  -6  -4   16.47    1.15
   4   6   4   15.86    1.06
   4   6   4   18.42    1.13
   4   6   5   99.32    3.07
   4   6   5   97.97    3.08
  -4  -6  -5   95.61    3.06
   4   6   5   93.97    3.09
   4   6   5  103.24    3.30
   4   6   5   93.66    2.96
   4   6   5   88.69    3.31
   4   6   6    6.04    0.84
   4   6   6    6.87    0.64
   4   6   6    5.27    0.58
  -4  -6  -6    7.77    0.73
   4   6   6    6.78    0.85
   4   6   6    6.32    0.62
   4   6   6    7.05    0.82
   4   6   7    7.32    0.95
   4   6   7    8.06    0.95
  -4  -6  -7    7.82    1.00
   4   6   7    6.95    0.87
   4   6   8   29.94    1.87
  -4  -6  -8   26.32    1.43
   4   6   8   27.81    1.75
   4   6   8   25.64    1.72
  -4  -6  -8   27.36    1.83
   4   6   9   22.13    1.56
  -4  -6  -9   22.58    1.18
   4   6   9   25.22    1.63
   4   6   9   24.09    1.60
  -4  -6  -9   20.93    1.54
   4   6  10   28.42    1.60
   4   6  10   28.15    1.61
   4   6  10   29.54    1.62
  -4  -6 -10   26.39    1.57
   4   6  11    2.01    0.37
  -4  -6 -11    2.93    0.49
   4   6  11    2.83    0.46
   4   7  -8   19.58    1.06
   4   7  -8   19.34    0.98
   4   7  -8   20.72    1.08
   4   7  -7   19.02    1.23
   4   7  -7   19.83    1.23
  -4  -7   7   17.19    1.02
  -4  -7   7   17.49    1.14
   4   7  -6   48.34    2.23
   4   7  -6   46.06    2.29
   4   7  -6   51.17    2.31
  -4  -7   6   46.96    1.94
  -4  -7   6   54.87    2.32
   4   7  -5   54.25    2.57
  -4  -7   5   53.86    2.12
  -4  -7   5   51.52    2.40
   4   7  -5   52.61    2.49
   4   7  -4    8.97    1.04
  -4  -7   4    8.97    0.80
  -4  -7   4    7.87    0.93
   4   7  -3   63.24    2.27
   4   7  -3   63.46    2.75
  -4  -7   3   65.56    2.19
   4   7  -3   61.01    2.73
   4   7  -3   64.15    2.40
  -4  -7   3   60.21    2.60
   4   7  -3   63.42    2.37
   4   7  -2   30.75    1.61
   4   7  -2   29.76    1.77
   4   7  -2   29.26    1.48
   4   7  -2   25.45    1.56
  -4  -7   2   28.91    1.65
   4   7  -2   28.25    1.61
   4   7  -1    1.25    0.44
   4   7  -1    1.78    0.44
   4   7  -1    1.56    0.50
  -4  -7   1    1.11    0.37
   4   7  -1    1.31    0.47
   4   7  -1    0.57    0.38
   4   7   0   52.47    2.36
   4   7   0   51.09    2.24
   4   7   0   49.99    2.23
   4   7   0   52.39    2.48
  -4  -7   0   49.65    1.94
   4   7   0   50.98    2.46
   4   7   0   53.34    2.33
   4   7   1  180.78    5.05
   4   7   1  184.87    5.53
  -4  -7  -1  188.15    4.40
   4   7   1  192.79    5.61
   4   7   1  193.35    5.39
   4   7   2    3.72    0.63
   4   7   2    3.70    0.69
   4   7   2    5.75    0.85
  -4  -7  -2    3.81    0.62
   4   7   2    5.46    0.83
   4   7   2    3.65    0.62
   4   7   2    3.39    0.48
   4   7   3    0.13    0.34
   4   7   3    0.39    0.39
   4   7   3    0.50    0.39
   4   7   3    0.77    0.39
  -4  -7  -3    0.59    0.33
   4   7   3    0.13    0.31
   4   7   3    0.46    0.29
   4   7   4   31.57    1.73
   4   7   4   26.02    1.70
   4   7   4   28.37    1.70
  -4  -7  -4   28.68    1.57
   4   7   4   27.48    1.69
   4   7   4   26.46    1.48
   4   7   5    9.89    1.08
   4   7   5   11.52    1.00
   4   7   5   10.95    0.99
  -4  -7  -5   12.21    0.95
   4   7   5   11.69    1.01
   4   7   5   14.07    1.13
   4   7   5   14.06    1.07
   4   7   6   52.43    2.04
   4   7   6   53.42    2.02
  -4  -7  -6   57.11    1.98
   4   7   6   55.26    2.05
   4   7   6   51.55    2.38
   4   7   6   50.46    2.27
   4   7   6   53.52    2.62
   4   7   7    3.13    0.67
   4   7   7    2.92    0.57
  -4  -7  -7    2.18    0.59
   4   7   7    3.05    0.64
   4   7   8    0.17    0.37
  -4  -7  -8    0.46    0.34
   4   7   8    1.15    0.43
  -4  -7  -8   -0.34    0.36
   4   7   8    0.24    0.34
   4   7   9   46.39    2.20
  -4  -7  -9   46.22    1.69
   4   7   9   46.10    2.13
  -4  -7  -9   44.70    2.06
   4   7  10   18.58    1.17
   4   7  10   18.02    1.17
  -4  -7 -10   21.81    1.20
   4   8  -7    0.70    0.25
   4   8  -7    0.31    0.22
   4   8  -7    0.54    0.22
   4   8  -6   33.10    1.46
  -4  -8   6   33.78    1.54
   4   8  -6   31.20    1.58
   4   8  -5   29.98    1.53
   4   8  -5   34.24    1.80
   4   8  -5   31.96    1.69
  -4  -8   5   30.29    1.59
   4   8  -4   30.91    1.75
   4   8  -4   32.59    1.85
  -4  -8   4   34.66    1.78
   4   8  -3    1.34    0.36
   4   8  -3    2.90    0.64
   4   8  -3    2.02    0.52
   4   8  -3    1.55    0.37
  -4  -8   3    2.66    0.55
   4   8  -3    1.54    0.39
   4   8  -2    4.64    0.69
   4   8  -2    5.26    0.73
   4   8  -2    6.29    0.80
   4   8  -2    5.27    0.74
  -4  -8   2    3.55    0.55
   4   8  -2    5.94    0.74
   4   8  -2    5.05    0.72
   4   8  -1    5.29    0.79
   4   8  -1    5.81    0.72
   4   8  -1    5.72    0.77
   4   8  -1    6.43    0.87
  -4  -8   1    5.75    0.65
   4   8  -1    5.33    0.79
   4   8   0   10.04    0.99
   4   8   0    9.18    1.07
   4   8   0    8.81    1.06
   4   8   0    7.32    0.97
   4   8   0    9.76    0.83
   4   8   1    0.93    0.41
   4   8   1    1.09    0.47
   4   8   1    1.20    0.58
  -4  -8  -1    1.01    0.43
   4   8   1    1.68    0.60
   4   8   1    1.51    0.56
   4   8   1    0.27    0.27
   4   8   2   12.68    1.27
   4   8   2   11.59    0.91
  -4  -8  -2   11.42    1.05
   4   8   2   12.62    1.30
   4   8   2   12.62    1.08
   4   8   2   11.52    1.23
   4   8   3    6.01    0.78
   4   8   3    8.24    1.02
   4   8   3    6.21    0.89
  -4  -8  -3    6.36    0.76
   4   8   3    5.45    0.79
   4   8   3    7.42    0.98
   4   8   3    6.52    0.73
   4   8   4    0.48    0.38
   4   8   4    0.95    0.48
   4   8   4    0.53    0.41
   4   8   4    0.61    0.42
  -4  -8  -4    0.32    0.32
   4   8   4    0.64    0.38
   4   8   4    0.21    0.27
   4   8   5   51.22    2.24
   4   8   5   49.22    2.48
   4   8   5   49.16    2.32
   4   8   5   48.37    2.16
   4   8   5   44.99    2.16
  -4  -8  -5   51.00    1.90
   4   8   5   49.00    2.20
   4   8   6    0.16    0.39
   4   8   6    0.74    0.32
   4   8   6    0.71    0.30
   4   8   6    1.04    0.33
  -4  -8  -6    0.68    0.39
   4   8   6    1.30    0.46
   4   8   7    0.64    0.40
  -4  -8  -7    1.22    0.40
   4   8   7    0.78    0.35
   4   8   8    0.04    0.28
  -4  -8  -8    0.71    0.27
  -4  -8  -8    0.26    0.28
   4   8   8   -0.08    0.28
   4   8   9    2.43    0.49
  -4  -8  -9    1.45    0.35
   4   8   9    1.76    0.38
  -4  -9   5   72.44    2.12
  -4  -9   5   76.93    2.31
   4   9  -5   77.71    2.47
   4   9  -4    3.64    0.55
  -4  -9   4    2.99    0.43
   4   9  -3    1.29    0.39
  -4  -9   3    1.45    0.36
   4   9  -3    1.45    0.32
   4   9  -3    2.59    0.39
   4   9  -2   12.71    0.98
   4   9  -2   10.73    0.93
   4   9  -2   12.43    0.99
   4   9  -2   10.79    0.91
   4   9  -1   23.70    1.53
   4   9  -1   22.10    1.29
   4   9  -1   25.52    1.59
   4   9  -1   23.12    1.51
   4   9  -1   21.99    1.23
   4   9   0   33.72    1.96
   4   9   0   31.91    1.55
   4   9   0   34.78    1.99
  -4  -9   0   30.62    1.77
   4   9   0   32.38    1.93
   4   9   1   16.98    1.44
   4   9   1   14.24    1.01
   4   9   1   17.62    1.46
  -4  -9  -1   14.12    1.16
   4   9   1   18.80    1.50
   4   9   2   51.40    2.53
   4   9   2   48.04    1.87
   4   9   2   50.03    2.50
  -4  -9  -2   47.51    2.10
   4   9   2   50.38    2.51
   4   9   2   42.40    1.93
   4   9   3   20.48    1.52
   4   9   3   21.83    1.55
   4   9   3   19.38    1.21
  -4  -9  -3   20.54    1.25
   4   9   3   20.99    1.28
   4   9   3   22.46    1.58
   4   9   4   25.53    1.58
   4   9   4   20.52    1.40
   4   9   4   23.37    1.37
  -4  -9  -4   22.59    1.15
   4   9   4   19.71    1.42
   4   9   4   21.39    1.28
   4   9   5    6.11    0.83
   4   9   5    7.62    0.74
   4   9   5    7.31    0.78
   4   9   5    7.45    0.75
   4   9   5    6.82    0.71
   4   9   5    6.83    0.76
  -4  -9  -5    7.26    0.71
   4   9   6   20.53    1.39
   4   9   6   21.02    1.16
   4   9   6   19.62    1.05
   4   9   6   20.17    1.27
  -4  -9  -6   20.04    1.06
   4   9   7    5.88    0.66
   4   9   7    5.37    0.68
   4   9   8    3.70    0.50
   4   9   8    4.03    0.50
   4  10  -3    5.43    0.47
  -4 -10   3    6.07    0.58
   4  10  -2    1.98    0.34
  -4 -10   2    2.20    0.41
   4  10  -2    2.93    0.39
  -4 -10   1   38.02    1.69
   4  10  -1   41.32    1.77
   4  10  -1   40.41    1.68
   4  10   0    2.39    0.50
  -4 -10   0    2.49    0.47
   4  10   0    2.88    0.53
   4  10   1    1.43    0.44
  -4 -10  -1    2.06    0.40
   4  10   1    1.94    0.45
  -4 -10  -2    0.58    0.24
   4  10   2    0.87    0.38
   4  10   2    0.87    0.39
   4  10   3    0.65    0.37
   4  10   3    1.35    0.41
   4  10   3    0.85    0.23
   4  10   4    6.31    0.59
   4  10   4    6.87    0.69
   4  10   4    6.56    0.65
   4  10   5    5.27    0.55
   4  10   5    5.12    0.47
   4  10   5    5.46    0.53
   4  10   6   10.22    0.69
  -5   6   3   47.38    1.67
  -5   6   3   46.44    1.57
  -5   6   2   64.63    2.04
  -5   6   2   66.93    2.22
  -5   6   2   69.18    2.16
  -5   6   1    2.68    0.41
  -5   6   1    2.10    0.37
  -5   6   1    2.43    0.41
  -5   6   0    6.74    0.68
  -5   6   0    7.47    0.65
  -5   6   0    6.81    0.64
  -5   6  -1   84.10    2.73
  -5   6  -1   88.12    2.63
  -5   6  -1   81.92    2.41
  -5   6  -2   46.23    1.85
  -5   6  -2   45.02    1.73
  -5   6  -3   16.81    0.99
  -5   6  -3   16.46    0.93
  -5   6  -4    3.09    0.39
  -5   6  -4    3.21    0.39
  -5   5   5   27.91    1.20
  -5   5   5   29.01    1.34
  -5   5   4   23.20    1.15
   5  -5  -4   22.85    1.04
  -5   5   4   24.21    1.27
  -5   5   4   22.43    1.29
  -5   5   3   75.02    2.30
  -5   5   3   74.23    2.65
  -5   5   3   75.54    2.48
  -5   5   3   76.59    2.73
  -5   5   2   66.86    2.34
  -5   5   2   63.90    2.24
  -5   5   2   62.22    2.29
  -5   5   2   64.59    2.49
  -5   5   2   72.06    2.67
  -5   5   1   37.12    1.79
  -5   5   1   36.74    1.76
  -5   5   1   36.81    1.79
  -5   5   1   40.98    1.91
  -5   5   1   40.89    1.98
  -5   5   0    6.98    0.80
  -5   5   0    6.28    0.76
  -5   5   0    7.30    0.86
  -5   5   0    6.53    0.75
  -5   5   0    7.48    0.80
  -5   5   0    6.34    0.75
  -5   5  -1   36.39    1.92
  -5   5  -1   32.91    1.74
  -5   5  -1   34.35    1.76
  -5   5  -1   31.38    1.73
  -5   5  -1   31.36    1.59
  -5   5  -1   34.73    1.76
  -5   5  -2  177.46    5.14
  -5   5  -2  184.83    5.21
  -5   5  -2  185.54    4.93
  -5   5  -2  186.04    4.98
  -5   5  -2  189.16    5.04
  -5   5  -2  179.03    4.50
  -5   5  -3   17.54    1.33
  -5   5  -3   15.14    1.29
  -5   5  -3   15.78    1.12
  -5   5  -3   17.29    1.14
  -5   5  -3   15.82    1.13
  -5   5  -4    3.45    0.70
  -5   5  -4    2.83    0.45
  -5   5  -4    3.49    0.49
  -5   5  -4    2.30    0.52
  -5   5  -4    3.08    0.47
  -5   5  -5    9.64    0.92
  -5   5  -5    7.40    0.84
  -5   5  -5    7.42    0.60
  -5   5  -6   43.67    1.80
  -5   5  -6   41.99    1.75
   5  -5   6   38.89    1.29
  -5   5  -7   36.76    1.39
  -5   5  -7   33.63    1.31
   5  -4  -6   44.43    1.73
  -5   4   6   42.61    1.49
  -5   4   6   41.29    1.79
  -5   4   6   44.02    1.66
  -5   4   5   52.87    2.04
   5  -4  -5   52.93    2.09
  -5   4   5   55.60    2.05
  -5   4   5   54.02    2.26
  -5   4   5   54.04    2.00
  -5   4   4   48.61    2.05
  -5   4   4   48.15    1.65
   5  -4  -4   48.77    2.05
  -5   4   4   50.58    2.14
  -5   4   4   48.73    2.25
  -5   4   4   50.32    1.91
  -5   4   3   72.09    2.43
   5  -4  -3   80.53    2.69
  -5   4   3   70.11    2.75
  -5   4   3   67.86    2.36
  -5   4   3   67.15    2.57
  -5   4   3   70.79    2.41
  -5   4   3   73.97    2.45
  -5   4   3   80.04    2.99
  -5   4   2  109.28    3.42
  -5   4   2  115.28    3.51
  -5   4   2  105.56    3.43
  -5   4   2  113.81    3.49
   5  -4  -2  116.32    3.33
  -5   4   2  108.56    3.66
  -5   4   2  109.84    3.45
  -5   4   2  115.79    3.86
  -5   4   1   47.82    2.17
  -5   4   1   45.95    2.13
  -5   4   1   44.93    2.10
  -5   4   1   50.12    2.28
  -5   4   1   46.37    1.99
  -5   4   1   44.21    2.11
  -5   4   1   48.58    2.35
  -5   4   0   27.07    1.74
  -5   4   0   28.72    1.69
  -5   4   0   28.02    1.67
  -5   4   0   25.62    1.58
  -5   4   0   28.33    1.65
  -5   4   0   27.70    1.67
  -5   4  -1  154.94    4.77
  -5   4  -1  145.38    4.49
  -5   4  -1  147.92    4.47
  -5   4  -1  145.22    4.45
  -5   4  -1  145.26    4.45
  -5   4  -1  147.70    4.29
  -5   4  -1  153.82    4.53
  -5   4  -2   58.15    2.57
  -5   4  -2   59.83    2.53
  -5   4  -2   54.74    2.46
  -5   4  -2   58.55    2.51
  -5   4  -2   59.56    2.27
  -5   4  -2   60.07    2.75
  -5   4  -2   60.36    2.55
  -5   4  -3   27.55    1.85
  -5   4  -3   25.28    1.54
  -5   4  -3   27.39    1.60
  -5   4  -3   26.85    1.57
  -5   4  -3   27.44    1.33
  -5   4  -3   25.36    1.66
   5  -4   3   28.85    1.35
  -5   4  -3   27.76    1.60
  -5   4  -4    2.16    0.61
  -5   4  -4    1.76    0.43
  -5   4  -4    1.66    0.41
  -5   4  -4    1.35    0.50
  -5   4  -4    1.67    0.42
  -5   4  -4    1.17    0.37
  -5   4  -5    5.79    0.93
  -5   4  -5    6.26    0.64
  -5   4  -5    3.94    0.53
   5  -4   5    5.09    0.61
  -5   4  -5    4.22    0.68
  -5   4  -5    4.32    0.55
  -5   4  -6  104.38    3.31
  -5   4  -6  101.59    3.88
   5  -4   6   99.62    2.79
  -5   4  -7    7.59    0.71
  -5   4  -7    6.80    0.88
   5  -4   7    5.80    0.62
  -5   4  -8    4.93    0.55
  -5   4  -8    4.85    0.60
   5  -4   8    4.68    0.49
  -5   3   7   24.70    1.27
   5  -3  -7   23.88    1.25
  -5   3   7   24.98    1.37
  -5   3   6   24.88    1.38
  -5   3   6   22.56    1.29
   5  -3  -6   23.31    1.40
  -5   3   6   23.12    1.13
  -5   3   6   23.07    1.47
  -5   3   5   42.62    1.94
  -5   3   5   41.29    1.93
   5  -3  -5   48.47    2.18
  -5   3   5   43.01    1.88
  -5   3   5   44.96    2.18
  -5   3   5   42.11    1.95
  -5   3   4   92.38    2.69
  -5   3   4   88.64    3.11
  -5   3   4   99.19    2.69
  -5   3   4   95.17    2.66
  -5   3   4   94.93    3.07
   5  -3  -4   97.93    3.37
  -5   3   4   95.56    3.25
  -5   3   4   92.41    2.68
  -5   3   4   98.02    3.48
  -5   3   4  100.76    3.21
  -5   3   3   86.51    2.77
  -5   3   3   86.23    2.83
  -5   3   3   80.44    2.87
  -5   3   3   85.11    2.76
   5  -3  -3   84.56    3.07
  -5   3   3   87.14    2.77
  -5   3   3   92.75    3.25
  -5   3   3   82.85    2.82
  -5   3   3   85.99    2.82
  -5   3   3   86.42    3.27
  -5   3   2   41.49    1.84
  -5   3   2   39.76    1.86
   5  -3  -2   39.46    1.88
  -5   3   2   38.11    1.99
  -5   3   2   40.71    1.88
  -5   3   2   38.68    1.89
  -5   3   2   36.06    1.82
  -5   3   2   38.95    1.70
  -5   3   2   40.86    2.10
  -5   3   1    8.27    0.89
  -5   3   1    9.76    0.84
  -5   3   1    6.98    0.88
  -5   3   1    4.97    0.69
   5  -3  -1    8.88    0.78
  -5   3   1    7.81    0.88
  -5   3   1    5.35    0.71
  -5   3   1    8.24    0.89
  -5   3   0    9.77    1.04
  -5   3   0    9.61    0.96
  -5   3   0    8.29    0.88
   5  -3   0    9.04    0.71
  -5   3   0    9.45    0.94
  -5   3   0    8.05    0.87
  -5   3   0    8.36    0.78
  -5   3   0    7.85    0.88
  -5   3  -1    8.70    0.95
  -5   3  -1    8.89    1.02
  -5   3  -1    8.08    0.89
  -5   3  -1    7.96    0.83
  -5   3  -1    8.21    0.90
  -5   3  -1    8.55    0.98
  -5   3  -1    9.08    0.95
  -5   3  -2   80.06    3.20
  -5   3  -2   80.99    3.01
  -5   3  -2   82.70    3.01
  -5   3  -2   86.71    2.83
  -5   3  -2   77.32    2.95
  -5   3  -2   78.27    3.00
  -5   3  -2   78.45    3.00
  -5   3  -3    8.42    0.90
  -5   3  -3   10.90    1.17
  -5   3  -3    9.32    0.93
  -5   3  -3    9.29    0.78
  -5   3  -3    9.12    0.92
  -5   3  -3    9.16    0.93
  -5   3  -4    1.26    0.56
  -5   3  -4    1.42    0.43
  -5   3  -4    1.67    0.46
  -5   3  -4    2.22    0.49
  -5   3  -4    1.08    0.37
   5  -3   4    1.76    0.42
  -5   3  -4    1.19    0.38
  -5   3  -5   37.04    2.33
  -5   3  -5   39.01    1.96
  -5   3  -5   37.21    1.67
  -5   3  -5   37.08    1.85
  -5   3  -5   39.65    1.73
  -5   3  -5   40.58    1.75
   5  -3   5   38.14    1.55
  -5   3  -5   36.63    1.66
  -5   3  -6   36.53    1.82
  -5   3  -6   36.16    1.89
  -5   3  -6   33.56    1.42
  -5   3  -6   36.14    2.38
  -5   3  -6   37.53    1.48
   5  -3   6   36.68    1.80
  -5   3  -7   25.12    1.97
  -5   3  -7   25.50    1.38
  -5   3  -7   28.65    1.65
   5  -3   7   26.50    1.41
  -5   3  -8    1.78    0.43
  -5   3  -8    2.73    0.68
   5  -3   8    2.03    0.43
   5  -3   8    2.48    0.42
  -5   3  -8    2.46    0.41
  -5   3  -9    3.72    0.58
   5  -3   9    4.21    0.51
  -5   2   8  117.34    3.41
   5  -2  -8  116.85    3.17
  -5   2   8  120.09    3.51
   5  -2  -7   15.99    1.13
  -5   2   7   16.06    1.03
   5  -2  -7   16.59    0.93
  -5   2   7   17.23    1.23
  -5   2   7   14.50    1.11
  -5   2   6   10.87    1.06
   5  -2  -6   10.59    1.02
  -5   2   6    9.96    0.91
  -5   2   6   10.37    0.75
   5  -2  -6   11.16    0.84
  -5   2   6   10.07    1.01
  -5   2   6   12.45    1.12
   5  -2  -5   74.27    2.95
  -5   2   5   73.59    2.58
  -5   2   5   75.40    2.76
   5  -2  -5   73.07    2.38
  -5   2   5   77.46    3.00
  -5   2   5   73.68    2.93
  -5   2   4  106.91    2.99
  -5   2   4  105.70    3.58
  -5   2   4  108.93    3.40
   5  -2  -4  107.30    3.70
  -5   2   4  107.79    3.47
  -5   2   4  104.99    2.98
  -5   2   4  115.55    3.77
  -5   2   3   35.22    1.64
  -5   2   3   32.27    1.52
  -5   2   3   31.16    1.54
   5  -2  -3   32.94    1.81
  -5   2   3   34.92    1.77
  -5   2   3   33.44    1.78
  -5   2   3   33.46    1.54
  -5   2   3   32.17    1.56
  -5   2   3   34.04    1.84
  -5   2   2    0.48    0.35
  -5   2   2    0.97    0.42
  -5   2   2    0.81    0.35
  -5   2   2    0.47    0.31
   5  -2  -2    0.79    0.33
  -5   2   2    1.28    0.40
  -5   2   2    1.29    0.40
  -5   2   2    0.75    0.31
  -5   2   2    1.64    0.40
  -5   2   1   37.92    1.88
  -5   2   1   36.82    1.76
   5  -2  -1   36.87    1.72
  -5   2   1   34.62    1.79
  -5   2   1   37.79    1.77
  -5   2   1   36.79    1.83
  -5   2   1   36.82    1.81
  -5   2   0  116.15    3.73
  -5   2   0  126.98    3.49
  -5   2   0  116.79    3.62
   5  -2   0  122.68    3.35
  -5   2   0  123.87    3.71
  -5   2   0  121.29    3.66
  -5   2   0  120.30    3.76
  -5   2   0  118.13    3.75
  -5   2  -1   52.20    2.29
  -5   2  -1   52.37    2.02
  -5   2  -1   54.98    2.20
  -5   2  -1   54.98    2.24
  -5   2  -1   53.58    2.14
  -5   2  -1   51.43    2.18
  -5   2  -1   52.14    2.26
  -5   2  -1   56.26    2.34
  -5   2  -2   23.57    1.40
  -5   2  -2   24.33    1.33
  -5   2  -2   22.34    1.38
  -5   2  -2   23.78    1.31
  -5   2  -2   25.33    1.45
  -5   2  -2   24.40    1.53
  -5   2  -2   24.60    1.49
  -5   2  -2   24.16    1.49
  -5   2  -3   17.71    1.18
  -5   2  -3   15.91    1.13
  -5   2  -3   15.62    1.12
  -5   2  -3   15.40    1.00
  -5   2  -3   15.77    1.17
  -5   2  -3   16.62    1.16
  -5   2  -3   15.02    1.25
  -5   2  -3   16.41    1.19
  -5   2  -3   15.08    1.10
  -5   2  -4    3.08    0.57
  -5   2  -4    2.71    0.52
  -5   2  -4    2.78    0.54
  -5   2  -4    1.88    0.54
  -5   2  -4    4.18    0.59
  -5   2  -4    4.01    0.57
   5  -2   4    3.42    0.54
  -5   2  -4    3.61    0.55
  -5   2  -4    2.37    0.46
  -5   2  -5    0.16    0.29
  -5   2  -5    0.45    0.46
  -5   2  -5    0.69    0.31
  -5   2  -5    0.88    0.31
  -5   2  -5    0.41    0.27
   5  -2   5    1.11    0.37
  -5   2  -5    0.45    0.25
  -5   2  -5    1.60    0.53
  -5   2  -6   14.96    1.09
  -5   2  -6   17.50    0.96
  -5   2  -6   15.33    1.50
  -5   2  -6   18.59    1.40
  -5   2  -6   14.01    0.88
  -5   2  -6   16.85    0.97
   5  -2   6   17.28    1.06
   5  -2   6   15.92    1.26
  -5   2  -6   18.76    1.00
  -5   2  -7   10.70    1.13
  -5   2  -7   10.60    1.25
  -5   2  -7   10.14    0.84
   5  -2   7   10.36    0.98
  -5   2  -8    2.86    0.75
  -5   2  -8    2.11    0.38
   5  -2   8    1.23    0.42
  -5   2  -8    1.51    0.48
  -5   2  -9    0.55    0.43
  -5   2  -9    1.04    0.36
   5  -2   9    0.42    0.30
   5  -2   9    0.74    0.29
  -5   2 -10   16.93    1.04
   5  -2  10   15.72    0.96
  -5   2 -10   16.58    1.14
   5  -2  10   13.75    0.75
  -5   1   9   66.96    2.26
  -5   1   9   72.14    2.32
  -5   1   8   88.00    3.04
   5  -1  -8   86.24    2.68
   5  -1  -8   87.20    2.60
   5  -1  -7    6.57    0.76
  -5   1   7    7.21    0.88
   5  -1  -7    5.96    0.66
  -5   1   7    6.14    0.67
  -5   1   7    5.44    0.78
  -5   1   6    0.45    0.38
  -5   1   6    0.47    0.35
   5  -1  -6    0.55    0.37
  -5   1   6    0.36    0.36
   5  -1  -6    0.25    0.27
  -5   1   6   -0.01    0.49
  -5   1   6    0.29    0.30
  -5   1   6    1.00    0.29
  -5   1   5   70.49    2.91
   5  -1  -5   69.51    2.85
  -5   1   5   71.90    2.44
  -5   1   5   72.89    2.62
  -5   1   5   63.30    2.95
   5  -1  -5   70.71    2.44
  -5   1   5   74.96    3.31
  -5   1   5   65.40    2.71
  -5   1   4  127.26    3.32
   5  -1  -4  125.13    4.07
  -5   1   4  130.66    3.60
  -5   1   4  128.94    3.76
  -5   1   4  123.06    4.37
   5  -1  -4  133.95    3.52
  -5   1   4  127.29    4.09
  -5   1   4  128.02    3.32
  -5   1   4  127.59    3.92
  -5   1   3   24.44    1.25
   5  -1  -3   25.84    1.56
  -5   1   3   24.69    1.42
  -5   1   3   24.92    1.70
  -5   1   3   24.36    1.24
  -5   1   3   25.13    1.29
  -5   1   3   24.34    1.43
  -5   1   3   24.12    1.27
  -5   1   3   24.96    1.51
  -5   1   2    9.43    0.85
  -5   1   2    9.78    0.82
   5  -1  -2    9.32    0.89
  -5   1   2    9.76    1.01
  -5   1   2   10.22    0.74
  -5   1   2    8.54    0.77
  -5   1   2   10.08    0.84
  -5   1   2   10.06    0.85
  -5   1   1   64.00    2.34
  -5   1   1   61.69    2.27
   5  -1  -1   69.08    2.42
  -5   1   1   68.01    2.66
  -5   1   1   66.88    2.26
  -5   1   1   64.83    2.29
  -5   1   1   66.54    2.43
  -5   1   1   67.16    2.45
  -5   1   0   61.00    2.26
  -5   1   0   65.15    2.29
  -5   1   0   60.70    2.25
   5  -1   0   63.92    2.18
  -5   1   0   67.85    2.31
  -5   1   0   64.03    2.40
  -5   1   0   63.91    2.28
  -5   1   0   64.17    2.42
  -5   1  -1   24.63    1.34
  -5   1  -1   22.26    1.26
  -5   1  -1   24.47    1.32
   5  -1   1   24.39    1.15
  -5   1  -1   25.32    1.36
  -5   1  -1   26.13    1.34
  -5   1  -1   22.06    1.06
  -5   1  -1   24.91    1.41
  -5   1  -1   25.56    1.43
  -5   1  -1   23.86    1.30
  -5   1  -2   20.44    1.24
  -5   1  -2   17.62    1.08
  -5   1  -2   17.52    1.12
  -5   1  -2   18.16    1.15
  -5   1  -2   20.56    1.19
  -5   1  -2   18.39    1.07
  -5   1  -2   18.85    1.23
  -5   1  -2   19.03    1.24
  -5   1  -2   19.23    1.16
  -5   1  -3   23.71    1.27
  -5   1  -3   24.40    1.46
  -5   1  -3   26.59    1.42
  -5   1  -3   27.27    1.38
  -5   1  -3   26.76    1.44
  -5   1  -3   24.49    1.32
  -5   1  -3   23.23    1.36
  -5   1  -3   26.96    1.46
  -5   1  -4   36.65    1.61
  -5   1  -4   32.20    1.79
  -5   1  -4   39.41    1.65
  -5   1  -4   32.37    1.69
  -5   1  -4   37.51    1.87
   5  -1   4   37.87    1.80
  -5   1  -4   36.20    1.60
  -5   1  -4   34.89    1.66
  -5   1  -4   38.14    1.71
  -5   1  -5    4.71    0.59
  -5   1  -5    5.92    0.62
  -5   1  -5    5.86    0.61
  -5   1  -5    5.82    0.76
  -5   1  -5    5.18    0.76
   5  -1   5    5.50    0.69
  -5   1  -5    5.93    0.62
  -5   1  -5    5.37    0.60
  -5   1  -6   76.74    2.47
  -5   1  -6   69.30    2.87
  -5   1  -6   74.16    2.25
  -5   1  -6   72.86    3.01
   5  -1   6   71.51    2.58
  -5   1  -6   76.25    2.26
  -5   1  -6   72.15    2.92
  -5   1  -7   65.62    2.84
  -5   1  -7   65.87    2.13
   5  -1   7   61.58    2.28
   5  -1   7   59.37    2.59
  -5   1  -7   63.33    2.82
  -5   1  -8    1.16    0.45
   5  -1   8   -0.05    0.26
   5  -1   8    0.38    0.34
  -5   1  -8    0.59    0.44
  -5   1  -9    1.47    0.47
   5  -1   9    0.43    0.31
   5  -1   9    1.19    0.40
   5  -1  10   17.90    1.14
   5  -1  10   15.55    1.02
  -5   1 -10   19.42    1.32
  -5   1 -11   48.97    1.89
  -5   1 -11   45.08    1.79
   5  -1  11   45.73    1.62
  -5   0   9   69.99    2.38
   5   0  -9   68.73    2.09
  -5   0   8   83.60    3.06
   5   0  -8   87.80    2.70
  -5   0   8   88.55    2.61
  -5   0   8   80.18    2.48
   5   0  -8   85.71    2.77
  -5   0   8   91.86    3.23
  -5   0   7    6.99    0.89
   5   0  -7    8.10    0.84
  -5   0   7    8.23    0.92
   5   0  -7    7.43    0.80
  -5   0   7    8.83    1.03
  -5   0   7    7.08    0.75
   5   0  -6   11.76    1.08
  -5   0   6   10.52    1.09
  -5   0   6   11.59    1.22
  -5   0   6   12.66    1.00
   5   0  -6   11.04    0.96
  -5   0   6   13.11    1.32
  -5   0   6    9.72    0.94
  -5   0   5  107.31    3.70
   5   0  -5   94.39    3.40
  -5   0   5   96.14    2.86
  -5   0   5   92.46    3.81
  -5   0   5   96.21    2.96
   5   0  -5   98.88    3.11
  -5   0   5   92.68    3.68
  -5   0   5   97.37    3.21
   5   0  -4  179.74    5.12
  -5   0   4  185.72    4.72
  -5   0   4  180.83    5.70
   5   0  -4  189.99    4.65
  -5   0   4  195.19    5.60
  -5   0   4  186.38    4.82
  -5   0   4  188.59    5.25
  -5   0   3   30.84    1.28
   5   0  -3   29.41    1.60
  -5   0   3   27.46    1.79
   5   0  -3   28.63    1.26
  -5   0   3   28.92    1.76
  -5   0   3   27.49    1.46
  -5   0   3   27.95    1.22
  -5   0   3   29.16    1.34
  -5   0   3   27.75    1.32
  -5   0   3   29.68    1.44
  -5   0   2    4.05    0.52
  -5   0   2    4.01    0.53
   5   0  -2    3.92    0.59
  -5   0   2    3.39    0.61
  -5   0   2    4.22    0.51
  -5   0   2    4.08    0.56
  -5   0   2    4.09    0.52
  -5   0   1   59.05    2.01
  -5   0   1   61.19    2.20
  -5   0   1   61.47    2.09
   5   0  -1   63.31    2.23
  -5   0   1   60.56    2.44
  -5   0   1   61.77    2.25
  -5   0   1   60.37    2.19
  -5   0   1   56.49    2.16
  -5   0   0  137.86    3.49
  -5   0   0  134.64    3.67
   5   0   0  139.87    3.62
  -5   0   0  135.53    3.61
  -5   0   0  137.73    3.97
  -5   0   0  134.11    3.76
  -5   0   0  137.84    3.78
  -5   0   0  134.52    3.79
  -5   0  -1   32.93    1.40
  -5   0  -1   35.41    1.56
  -5   0  -1   36.68    1.26
  -5   0  -1   34.77    1.51
  -5   0  -1   34.05    1.60
  -5   0  -1   33.66    1.37
   5   0   1   35.51    1.42
  -5   0  -1   33.48    1.60
  -5   0  -1   35.16    1.64
  -5   0  -2    2.19    0.40
  -5   0  -2    1.71    0.36
  -5   0  -2    2.42    0.44
   5   0   2    3.00    0.39
  -5   0  -2    1.69    0.38
  -5   0  -2    2.29    0.41
  -5   0  -2    2.61    0.48
  -5   0  -2    1.96    0.38
  -5   0  -2    2.27    0.42
  -5   0  -2    2.82    0.47
  -5   0  -3   41.31    1.56
  -5   0  -3   42.49    1.76
  -5   0  -3   44.44    1.71
  -5   0  -3   42.81    1.84
  -5   0  -3   39.85    1.85
  -5   0  -3   44.58    1.84
  -5   0  -3   41.01    1.79
  -5   0  -3   42.07    1.78
  -5   0  -4    1.32    0.40
  -5   0  -4    1.12    0.33
  -5   0  -4    0.70    0.29
  -5   0  -4    1.06    0.33
   5   0   4    0.87    0.29
  -5   0  -4    1.66    0.35
  -5   0  -4    1.13    0.34
  -5   0  -5    4.95    0.51
  -5   0  -5    5.58    0.58
  -5   0  -5    4.57    0.64
  -5   0  -5    5.18    0.52
  -5   0  -5    5.28    0.52
  -5   0  -5    5.73    0.76
   5   0   5    5.15    0.67
  -5   0  -5    5.18    0.56
  -5   0  -6   18.35    1.34
  -5   0  -6   16.40    0.87
  -5   0  -6   19.31    1.40
   5   0   6   18.75    1.24
   5   0   6   18.53    1.32
  -5   0  -6   18.34    0.95
  -5   0  -6   17.07    1.27
  -5   0  -6   18.44    0.94
  -5   0  -7    1.64    0.54
  -5   0  -7    1.06    0.48
   5   0   7    1.20    0.36
   5   0   7    1.41    0.46
  -5   0  -7    1.03    0.46
  -5   0  -8    3.97    0.69
   5   0   8    3.88    0.58
  -5   0  -8    3.12    0.65
   5   0   8    2.38    0.57
  -5   0  -8    3.53    0.69
  -5   0  -9    1.60    0.52
   5   0   9    2.32    0.51
   5   0   9    1.32    0.38
   5   0   9    2.50    0.56
   5   0  10   17.66    1.18
  -5   0 -10   16.13    1.30
   5   0  10   16.87    1.18
  -5   0 -11   24.14    1.40
   5   0  11   23.96    1.18
   5   0  11   25.30    1.25
  -5  -1   9   38.24    1.63
  -5  -1   9   36.46    1.64
  -5  -1   8  106.33    3.51
   5   1  -8  106.99    3.02
  -5  -1   8  103.23    3.28
  -5  -1   8  101.30    2.92
   5   1  -8  105.47    3.30
  -5  -1   8  104.50    3.58
   5   1  -7   27.79    1.53
  -5  -1   7   25.17    1.68
   5   1  -7   24.65    1.53
  -5  -1   7   24.93    1.35
  -5  -1   7   25.08    1.72
  -5  -1   7   25.52    1.63
   5   1  -6    0.66    0.37
  -5  -1   6    0.70    0.35
  -5  -1   6    0.59    0.43
   5   1  -6    0.44    0.31
  -5  -1   6    0.49    0.41
  -5  -1   6    0.25    0.29
   5   1  -5   54.49    2.41
  -5  -1   5   54.22    2.69
   5   1  -5   55.29    2.26
  -5  -1   5   61.30    2.71
  -5  -1   5   57.84    2.31
  -5  -1   5   56.03    2.16
  -5  -1   5   55.93    2.49
   5   1  -4   59.92    2.45
  -5  -1   4   63.55    2.82
   5   1  -4   59.95    2.19
  -5  -1   4   63.00    2.66
  -5  -1   4   55.93    2.44
  -5  -1   4   56.75    2.08
  -5  -1   4   63.43    2.53
  -5  -1   3   34.83    1.28
   5   1  -3   34.79    1.72
  -5  -1   3   37.57    1.99
   5   1  -3   36.93    1.48
  -5  -1   3   37.79    1.90
  -5  -1   3   34.41    1.83
  -5  -1   3   35.94    1.46
  -5  -1   3   36.91    1.49
  -5  -1   3   34.86    1.41
  -5  -1   2    0.25    0.21
  -5  -1   2    0.93    0.30
   5   1  -2    0.57    0.33
  -5  -1   2    0.10    0.32
   5   1  -2    0.19    0.18
  -5  -1   2    0.13    0.30
  -5  -1   2    0.43    0.23
  -5  -1   2    0.37    0.28
  -5  -1   2    0.51    0.24
  -5  -1   1   27.96    1.37
   5   1  -1   28.23    1.39
  -5  -1   1   31.61    1.63
   5   1  -1   30.25    1.24
  -5  -1   1   28.91    1.51
  -5  -1   1   30.55    1.30
  -5  -1   1   29.83    1.43
  -5  -1   1   29.10    1.39
  -5  -1   0   83.71    2.59
  -5  -1   0   87.06    2.59
  -5  -1   0   83.59    2.80
   5   1   0   80.60    2.31
   5   1   0   85.12    2.59
  -5  -1   0   89.22    2.83
  -5  -1   0   89.22    2.36
  -5  -1   0   88.93    2.79
  -5  -1   0   86.88    2.74
  -5  -1  -1   11.50    0.76
   5   1   1   12.91    0.76
   5   1   1   12.12    0.80
  -5  -1  -1   11.45    0.83
  -5  -1  -1   10.26    0.85
   5   1   1   12.41    0.70
  -5  -1  -1   13.67    0.97
  -5  -1  -1   13.04    0.84
  -5  -1  -1   12.64    0.94
  -5  -1  -1   12.48    0.91
  -5  -1  -2    0.68    0.30
   5   1   2    1.05    0.25
   5   1   2    0.83    0.19
   5   1   2    0.55    0.21
  -5  -1  -2    1.37    0.35
   5   1   2    0.98    0.22
  -5  -1  -2    1.32    0.32
  -5  -1  -2    0.68    0.26
  -5  -1  -2    1.00    0.34
  -5  -1  -3    1.17    0.34
  -5  -1  -3    0.63    0.27
   5   1   3    0.70    0.22
   5   1   3    0.79    0.22
   5   1   3    0.67    0.24
  -5  -1  -3    0.51    0.26
  -5  -1  -3    0.66    0.27
  -5  -1  -3    0.79    0.32
  -5  -1  -3    1.03    0.34
  -5  -1  -3    0.86    0.29
  -5  -1  -4   11.75    0.90
   5   1   4   11.98    0.69
  -5  -1  -4   11.73    0.96
  -5  -1  -4   12.86    0.79
  -5  -1  -4   11.68    0.95
   5   1   4   12.02    0.93
  -5  -1  -4   11.51    0.86
  -5  -1  -4   11.77    0.85
  -5  -1  -5   32.61    1.66
  -5  -1  -5   32.90    1.28
  -5  -1  -5   33.61    1.76
   5   1   5   35.89    1.72
  -5  -1  -5   33.86    1.43
  -5  -1  -5   34.15    1.44
  -5  -1  -6    0.72    0.37
  -5  -1  -6    0.72    0.23
  -5  -1  -6    0.79    0.41
   5   1   6    1.27    0.38
   5   1   6    0.80    0.32
  -5  -1  -6    0.70    0.24
  -5  -1  -6    1.19    0.25
  -5  -1  -7    1.43    0.45
  -5  -1  -7    1.17    0.46
   5   1   7    1.40    0.42
   5   1   7    2.13    0.50
  -5  -1  -7    1.80    0.41
  -5  -1  -7    1.25    0.44
  -5  -1  -8    8.42    1.01
  -5  -1  -8    7.49    0.92
   5   1   8    7.79    0.84
   5   1   8    7.66    0.92
  -5  -1  -8    6.44    0.68
  -5  -1  -9    7.24    0.94
   5   1   9    6.17    0.76
  -5  -1  -9    6.04    0.75
  -5  -1  -9    6.81    0.79
   5   1   9    6.07    0.72
   5   1   9    6.30    0.82
  -5  -1 -10   20.41    1.49
   5   1  10   18.34    1.18
  -5  -1 -10   17.95    1.19
   5   1  10   18.68    1.13
   5   1  10   19.31    1.33
  -5  -1 -11   19.03    1.29
   5   1  11   19.10    1.04
  -5  -1 -11   18.59    0.99
   5   1  11   17.97    1.14
  -5  -1 -12    6.24    0.59
  -5  -2   9   15.41    0.93
  -5  -2   9   16.60    0.99
   5   2  -9   17.69    1.05
  -5  -2   9   17.72    1.08
  -5  -2   8   61.87    2.43
   5   2  -8   64.65    2.20
  -5  -2   8   65.28    2.57
   5   2  -8   59.84    2.42
  -5  -2   8   67.27    2.61
   5   2  -7   15.87    1.09
  -5  -2   7   15.72    1.35
   5   2  -7   14.21    1.17
  -5  -2   7   14.37    1.25
  -5  -2   7   15.04    1.00
  -5  -2   7   15.42    1.20
   5   2  -6    0.83    0.36
  -5  -2   6    1.05    0.45
   5   2  -6    0.99    0.40
  -5  -2   6    0.34    0.39
   5   2  -6    1.18    0.46
  -5  -2   6    0.62    0.41
  -5  -2   6    0.63    0.34
   5   2  -5    9.21    0.86
   5   2  -5    9.34    0.93
  -5  -2   5    9.64    1.07
   5   2  -5    8.02    0.85
  -5  -2   5    8.67    0.96
  -5  -2   5    8.67    0.90
  -5  -2   5    8.51    0.89
   5   2  -4  134.30    3.76
   5   2  -4  142.67    4.11
  -5  -2   4  140.74    4.45
   5   2  -4  133.28    3.86
  -5  -2   4  141.52    4.24
  -5  -2   4  145.07    4.26
   5   2  -3   21.80    1.12
   5   2  -3   22.09    1.33
  -5  -2   3   20.84    1.42
   5   2  -3   22.52    1.17
  -5  -2   3   22.37    1.35
  -5  -2   3   20.30    1.34
  -5  -2   3   20.23    1.07
  -5  -2   3   20.52    1.07
   5   2  -2   56.97    2.19
  -5  -2   2   58.04    2.34
   5   2  -2   58.15    1.87
  -5  -2   2   59.55    2.20
  -5  -2   2   59.38    2.34
  -5  -2   2   58.48    2.06
  -5  -2   2   57.32    2.03
  -5  -2   1   88.84    2.63
  -5  -2   1   85.31    2.38
   5   2  -1   90.03    2.76
  -5  -2   1   83.64    2.82
   5   2  -1   87.26    2.53
   5   2  -1   85.32    2.15
  -5  -2   1   89.65    2.68
  -5  -2   1   92.26    2.94
  -5  -2   1   82.34    2.46
  -5  -2   1   92.31    2.79
  -5  -2   0   84.97    2.20
   5   2   0   83.92    2.61
  -5  -2   0   88.26    2.75
   5   2   0   86.68    2.48
  -5  -2   0   88.96    2.81
  -5  -2   0   83.51    2.58
  -5  -2   0   94.62    2.92
  -5  -2  -1  142.97    2.93
   5   2   1  146.89    3.11
   5   2   1  140.76    3.63
  -5  -2  -1  147.39    3.79
   5   2   1  146.73    3.55
  -5  -2  -1  143.81    3.86
  -5  -2  -1  142.29    3.74
  -5  -2  -1  144.96    4.03
   5   2   2    0.87    0.21
   5   2   2    1.26    0.25
  -5  -2  -2    1.09    0.27
   5   2   2    1.44    0.31
  -5  -2  -2    1.08    0.32
  -5  -2  -2    0.64    0.28
   5   2   2    1.52    0.32
  -5  -2  -2    1.21    0.36
   5   2   3   28.65    1.05
   5   2   3   29.16    1.13
   5   2   3   27.50    1.20
  -5  -2  -3   27.25    1.13
   5   2   3   28.13    1.15
  -5  -2  -3   28.39    1.43
  -5  -2  -3   27.84    1.40
   5   2   3   29.42    1.38
  -5  -2  -3   29.26    1.43
  -5  -2  -4  152.55    3.95
   5   2   4  151.46    3.31
   5   2   4  144.97    3.54
  -5  -2  -4  148.62    4.16
  -5  -2  -4  156.32    4.07
   5   2   4  150.95    4.02
  -5  -2  -4  148.55    3.88
  -5  -2  -5   63.03    2.29
  -5  -2  -5   61.15    2.42
  -5  -2  -5   63.83    2.30
   5   2   5   63.30    2.37
   5   2   5   61.73    2.24
  -5  -2  -5   58.92    2.04
  -5  -2  -5   57.72    2.00
  -5  -2  -6   14.31    1.07
   5   2   6   12.29    0.73
  -5  -2  -6   12.92    1.11
   5   2   6   13.34    1.06
  -5  -2  -6   11.37    0.92
   5   2   6   12.33    1.01
  -5  -2  -6   13.51    0.77
  -5  -2  -6   12.63    0.76
  -5  -2  -7   12.45    1.10
  -5  -2  -7   11.69    1.07
   5   2   7   12.01    1.04
  -5  -2  -7   12.73    1.04
   5   2   7   11.00    1.02
  -5  -2  -8   97.93    3.51
   5   2   8   99.01    3.14
  -5  -2  -8   94.28    3.39
   5   2   8   97.32    3.40
  -5  -2  -8   95.10    3.29
   5   2   8   99.77    3.46
  -5  -2  -9   71.84    2.98
   5   2   9   73.76    2.59
  -5  -2  -9   71.49    2.76
   5   2   9   71.94    2.81
   5   2   9   70.25    2.86
  -5  -2  -9   72.83    2.79
  -5  -2 -10   22.48    1.53
   5   2  10   23.25    1.26
   5   2  10   23.07    1.39
   5   2  10   22.23    1.45
  -5  -2 -10   22.54    1.36
  -5  -2 -11   12.09    1.01
   5   2  11   12.16    0.73
  -5  -2 -11   10.81    0.85
   5   2  11   11.05    0.82
   5   2  11   12.32    0.96
  -5  -2 -11   11.22    0.77
   5   2  12   12.69    0.86
   5   2  12   13.08    0.81
  -5  -2 -12   11.91    0.80
   5   3  -9    9.57    0.70
  -5  -3   9   10.11    0.78
   5   3  -9    9.93    0.78
  -5  -3   9    9.90    0.76
   5   3  -8   33.25    1.65
  -5  -3   8   31.46    1.75
   5   3  -8   32.33    1.69
  -5  -3   8   32.59    1.65
  -5  -3   8   32.29    1.50
   5   3  -7    4.39    0.68
  -5  -3   7    3.90    0.56
   5   3  -7    4.53    0.54
  -5  -3   7    4.09    0.74
   5   3  -7    4.83    0.73
  -5  -3   7    4.78    0.71
  -5  -3   7    4.78    0.62
   5   3  -6   10.33    1.01
   5   3  -6   10.02    0.88
  -5  -3   6    9.96    1.10
   5   3  -6    9.24    0.99
  -5  -3   6    9.93    1.01
  -5  -3   6    8.33    0.90
  -5  -3   6    9.21    0.86
   5   3  -5   21.21    1.42
   5   3  -5   24.65    1.45
  -5  -3   5   26.68    1.74
   5   3  -5   24.76    1.54
  -5  -3   5   25.66    1.55
  -5  -3   5   23.49    1.53
  -5  -3   5   24.98    1.41
   5   3  -4  135.57    3.92
  -5  -3   4  132.49    4.22
   5   3  -4  126.86    3.84
  -5  -3   4  137.57    3.96
  -5  -3   4  128.25    4.06
   5   3  -4  126.79    3.88
   5   3  -3    8.20    0.81
  -5  -3   3    8.59    0.90
   5   3  -3    9.44    0.68
   5   3  -3    8.70    0.78
  -5  -3   3   10.10    0.84
  -5  -3   3    8.82    0.89
   5   3  -3    8.31    0.83
  -5  -3   3    8.48    0.67
   5   3  -2    8.61    0.74
   5   3  -2    8.28    0.78
  -5  -3   2    8.21    0.82
   5   3  -2    9.10    0.72
   5   3  -2    8.58    0.69
  -5  -3   2    8.13    0.70
  -5  -3   2    8.32    0.83
  -5  -3   2    8.35    0.66
  -5  -3   2    8.67    0.72
  -5  -3   1    2.71    0.37
   5   3  -1    3.83    0.37
   5   3  -1    3.68    0.51
  -5  -3   1    3.39    0.51
   5   3  -1    3.40    0.42
  -5  -3   1    3.92    0.46
  -5  -3   1    4.10    0.51
  -5  -3   1    3.96    0.54
  -5  -3   1    3.66    0.52
  -5  -3   0  116.09    2.90
   5   3   0  117.07    2.74
  -5  -3   0  124.66    2.86
   5   3   0  120.72    3.36
  -5  -3   0  115.09    3.26
   5   3   0  123.36    3.25
   5   3   0  120.34    2.76
  -5  -3   0  120.23    3.46
  -5  -3   0  125.80    3.35
  -5  -3  -1   55.53    1.61
   5   3   1   58.47    1.67
  -5  -3  -1   58.40    1.79
   5   3   1   60.52    2.07
  -5  -3  -1   56.65    1.95
   5   3   1   58.74    1.98
  -5  -3  -1   58.78    2.13
  -5  -3  -1   62.31    2.16
  -5  -3  -2   56.89    1.41
   5   3   2   56.99    1.44
   5   3   2   50.45    1.66
  -5  -3  -2   57.39    1.83
   5   3   2   54.76    1.94
  -5  -3  -2   51.99    1.82
   5   3   2   51.77    1.86
  -5  -3  -2   52.81    1.99
  -5  -3  -2   54.74    2.05
   5   3   2   56.81    1.86
   5   3   3    5.31    0.33
   5   3   3    5.20    0.54
   5   3   3    4.70    0.50
  -5  -3  -3    5.67    0.59
  -5  -3  -3    4.60    0.59
   5   3   3    5.26    0.55
  -5  -3  -4   28.04    1.31
   5   3   4   28.07    1.28
  -5  -3  -4   31.66    1.59
  -5  -3  -4   29.60    1.41
   5   3   4   30.17    1.44
   5   3   4   31.16    1.30
  -5  -3  -4   29.35    1.40
  -5  -3  -5  103.16    3.05
   5   3   5   99.53    2.85
   5   3   5   97.11    2.77
  -5  -3  -5  106.17    3.34
  -5  -3  -5  104.04    3.03
   5   3   5  102.93    3.21
   5   3   5  102.80    2.97
  -5  -3  -5  106.38    2.91
  -5  -3  -6    1.11    0.35
  -5  -3  -6    0.98    0.23
   5   3   6    1.57    0.27
  -5  -3  -6    0.74    0.33
   5   3   6    0.92    0.41
   5   3   6    0.88    0.28
  -5  -3  -6    1.20    0.26
  -5  -3  -7   23.18    1.41
   5   3   7   21.24    1.10
  -5  -3  -7   18.88    1.34
   5   3   7   21.31    1.43
  -5  -3  -7   20.50    1.44
   5   3   7   22.07    1.37
  -5  -3  -8    5.71    0.76
   5   3   8    5.84    0.60
  -5  -3  -8    3.89    0.63
   5   3   8    5.01    0.74
   5   3   8    5.26    0.75
  -5  -3  -8    3.87    0.66
  -5  -3  -9   16.09    1.25
   5   3   9   17.79    1.03
  -5  -3  -9   15.75    1.15
   5   3   9   15.88    1.29
  -5  -3  -9   16.44    1.33
   5   3   9   15.68    1.24
  -5  -3 -10    0.96    0.36
  -5  -3 -10    0.91    0.29
   5   3  10    1.11    0.43
   5   3  10    0.56    0.30
  -5  -3 -10    0.19    0.34
  -5  -3 -11    5.10    0.61
   5   3  11    5.60    0.64
   5   3  11    5.11    0.62
  -5  -3 -11    4.78    0.59
   5   3  11    5.87    0.71
  -5  -3 -12   29.28    1.17
   5   3  12   28.94    1.34
   5   3  12   29.23    1.22
   5   4  -9    6.90    0.63
  -5  -4   9    7.55    0.67
   5   4  -9    6.75    0.63
   5   4  -8   16.49    1.19
   5   4  -8   17.15    1.20
  -5  -4   8   16.46    1.04
  -5  -4   8   15.92    0.94
  -5  -4   8   19.87    1.30
   5   4  -7   32.92    1.87
  -5  -4   7   33.25    1.89
   5   4  -7   31.40    1.78
  -5  -4   7   26.46    1.49
  -5  -4   7   33.99    1.71
   5   4  -6    9.76    1.06
   5   4  -6   11.64    0.87
  -5  -4   6   10.01    1.08
   5   4  -6   12.10    1.15
  -5  -4   6   12.13    1.00
  -5  -4   6    9.69    1.00
   5   4  -5   80.84    3.13
   5   4  -5   72.88    2.58
  -5  -4   5   78.22    3.10
  -5  -4   5   77.15    2.46
   5   4  -5   75.34    2.96
  -5  -4   5   74.26    2.67
  -5  -4   5   72.63    2.97
   5   4  -4   30.97    1.76
   5   4  -4   28.32    1.51
  -5  -4   4   31.71    1.82
   5   4  -4   30.29    1.69
  -5  -4   4   31.53    1.52
  -5  -4   4   28.61    1.73
  -5  -4   4   30.47    1.41
   5   4  -3    1.21    0.45
   5   4  -3    0.99    0.34
  -5  -4   3    1.05    0.38
   5   4  -3    0.75    0.34
   5   4  -3    0.94    0.24
  -5  -4   3    1.36    0.36
  -5  -4   3    0.44    0.21
  -5  -4   3    0.88    0.38
  -5  -4   3    0.70    0.26
   5   4  -2    2.45    0.49
   5   4  -2    3.14    0.49
  -5  -4   2    3.31    0.52
   5   4  -2    2.65    0.44
   5   4  -2    3.18    0.45
  -5  -4   2    2.19    0.34
  -5  -4   2    2.54    0.42
  -5  -4   2    2.25    0.49
   5   4  -1   40.04    1.78
   5   4  -1   39.63    1.75
  -5  -4   1   41.53    1.73
   5   4  -1   41.24    1.65
   5   4  -1   39.53    1.59
  -5  -4   1   39.05    1.81
  -5  -4   1   37.64    1.62
   5   4   0   48.65    1.90
  -5  -4   0   47.46    1.52
   5   4   0   45.59    1.87
  -5  -4   0   46.13    1.73
   5   4   0   46.28    1.81
   5   4   0   44.01    1.62
  -5  -4   0   46.77    1.93
  -5  -4   0   47.28    1.86
   5   4   1   20.48    1.15
  -5  -4  -1   20.91    0.93
  -5  -4  -1   20.66    0.99
   5   4   1   22.66    1.24
  -5  -4  -1   22.43    1.07
   5   4   1   20.53    1.14
  -5  -4  -1   21.52    1.21
  -5  -4  -1   22.43    1.24
   5   4   1   19.97    0.91
   5   4   2   50.27    1.91
  -5  -4  -2   50.45    1.52
  -5  -4  -2   52.95    1.76
   5   4   2   48.97    1.93
   5   4   2   48.79    1.87
  -5  -4  -2   50.74    1.59
  -5  -4  -2   52.05    1.95
  -5  -4  -2   50.20    2.02
   5   4   2   50.64    1.68
   5   4   3    3.38    0.45
  -5  -4  -3    2.45    0.40
   5   4   3    3.55    0.49
   5   4   3    3.38    0.46
  -5  -4  -3    3.34    0.52
  -5  -4  -3    3.07    0.44
   5   4   3    2.96    0.41
   5   4   4   65.85    2.21
  -5  -4  -4   67.77    2.04
   5   4   4   68.91    2.39
   5   4   4   67.61    2.20
  -5  -4  -4   68.51    2.52
  -5  -4  -4   66.38    2.19
   5   4   4   69.49    2.32
   5   4   4   67.54    1.96
   5   4   5   85.08    2.70
   5   4   5   90.94    2.85
   5   4   5   89.29    2.59
  -5  -4  -5   87.33    3.01
  -5  -4  -5   89.73    2.59
   5   4   5   84.91    2.86
   5   4   5   85.05    2.50
  -5  -4  -5   87.41    2.58
   5   4   6    0.95    0.35
  -5  -4  -6    1.41    0.40
   5   4   6    0.85    0.22
  -5  -4  -6    0.33    0.29
   5   4   6    0.57    0.30
   5   4   6    1.15    0.29
   5   4   6    0.52    0.24
  -5  -4  -6    0.34    0.20
   5   4   7    1.36    0.37
  -5  -4  -7    1.65    0.42
  -5  -4  -7    1.32    0.42
   5   4   7    1.10    0.41
   5   4   7    1.69    0.40
  -5  -4  -8   39.17    1.82
   5   4   8   41.89    1.86
  -5  -4  -8   37.67    1.85
   5   4   8   41.83    2.17
  -5  -4  -8   40.62    2.23
   5   4   8   42.88    1.96
  -5  -4  -9   75.30    2.65
  -5  -4  -9   74.52    2.55
   5   4   9   72.23    3.00
  -5  -4  -9   75.25    3.13
   5   4   9   76.98    2.80
   5   4   9   79.27    3.02
   5   4   9   81.34    2.61
  -5  -4 -10   25.79    1.34
   5   4  10   22.21    1.48
  -5  -4 -10   23.93    1.57
   5   4  10   23.04    1.36
   5   4  10   25.02    1.55
  -5  -4 -11    3.35    0.40
   5   4  11    2.51    0.47
   5   4  11    3.61    0.48
  -5  -4 -11    3.64    0.54
   5   4  11    3.86    0.57
   5   4  12   14.22    0.89
   5   5  -8    2.16    0.46
   5   5  -8    1.09    0.29
  -5  -5   8    1.47    0.37
   5   5  -8    2.06    0.43
  -5  -5   8    2.12    0.41
   5   5  -7    0.87    0.40
  -5  -5   7    1.57    0.42
   5   5  -7    0.65    0.33
  -5  -5   7    0.84    0.36
   5   5  -6    6.85    0.92
  -5  -5   6    6.74    0.87
   5   5  -6    6.51    0.86
  -5  -5   6    6.67    0.65
  -5  -5   6    5.54    0.77
   5   5  -5    1.35    0.50
   5   5  -5    1.71    0.37
  -5  -5   5    1.15    0.45
   5   5  -5    0.75    0.41
  -5  -5   5    1.33    0.36
  -5  -5   5    1.66    0.57
   5   5  -4    6.58    0.68
  -5  -5   4    5.43    0.74
   5   5  -4    5.47    0.78
   5   5  -4    5.99    0.84
  -5  -5   4    6.25    0.84
   5   5  -3    5.76    0.81
   5   5  -3    4.65    0.60
  -5  -5   3    5.48    0.69
   5   5  -3    5.88    0.59
   5   5  -3    5.09    0.70
  -5  -5   3    5.62    0.77
   5   5  -3    4.61    0.54
   5   5  -2    0.54    0.33
  -5  -5   2    0.67    0.32
   5   5  -2    0.44    0.28
   5   5  -2    0.55    0.35
   5   5  -2    0.63    0.29
  -5  -5   2    1.03    0.38
   5   5  -2    1.15    0.34
   5   5  -1    9.03    0.88
   5   5  -1    6.80    0.73
  -5  -5   1    7.64    0.69
   5   5  -1    8.70    0.77
   5   5  -1    9.33    0.81
  -5  -5   1    8.38    0.85
  -5  -5   1    7.13    0.75
   5   5  -1   10.72    0.94
   5   5   0    2.39    0.49
   5   5   0    3.10    0.52
  -5  -5   0    3.67    0.45
   5   5   0    2.39    0.45
  -5  -5   0    2.88    0.51
  -5  -5   0    2.47    0.48
   5   5   1    8.10    0.81
  -5  -5  -1    7.96    0.63
   5   5   1    7.88    0.78
   5   5   1    8.77    0.79
  -5  -5  -1    9.25    0.79
  -5  -5  -1    9.94    0.88
   5   5   2    2.58    0.52
  -5  -5  -2    2.22    0.36
   5   5   2    2.32    0.46
   5   5   2    2.50    0.46
  -5  -5  -2    2.02    0.43
  -5  -5  -2    3.43    0.48
   5   5   2    2.32    0.32
   5   5   3   30.93    1.55
   5   5   3   29.50    1.58
   5   5   3   29.84    1.47
  -5  -5  -3   33.17    1.68
  -5  -5  -3   31.32    1.38
   5   5   3   30.24    1.30
   5   5   4    2.01    0.46
   5   5   4    1.78    0.46
   5   5   4    1.07    0.31
  -5  -5  -4    1.39    0.39
  -5  -5  -4    1.90    0.33
   5   5   4    1.62    0.38
   5   5   5  142.24    3.73
   5   5   5  146.33    3.81
  -5  -5  -5  136.05    4.11
   5   5   5  139.72    3.96
   5   5   5  139.60    4.06
   5   5   5  135.72    3.64
   5   5   6   32.41    1.73
   5   5   6   30.03    1.36
   5   5   6   32.56    1.42
  -5  -5  -6   28.70    1.61
   5   5   6   29.04    1.65
   5   5   6   30.07    1.51
   5   5   6   28.07    1.28
   5   5   7   14.03    1.15
  -5  -5  -7   12.70    1.04
   5   5   7   12.06    1.11
   5   5   7   12.60    1.04
   5   5   7   12.08    0.88
   5   5   8   24.28    1.53
  -5  -5  -8   22.98    1.32
   5   5   8   23.19    1.59
  -5  -5  -8   24.07    1.73
   5   5   8   23.86    1.54
   5   5   8   22.68    1.28
   5   5   9  141.93    4.14
   5   5   9  134.96    4.42
  -5  -5  -9  137.86    4.58
   5   5   9  140.41    3.88
   5   5  10   34.37    1.57
   5   5  10   36.22    1.88
   5   5  10   37.25    1.89
  -5  -5 -10   33.88    1.88
   5   5  10   33.79    1.52
   5   5  11    5.79    0.67
   5   5  11    6.64    0.69
   5   5  11    5.02    0.48
  -5  -5 -11    6.56    0.68
   5   6  -8    7.10    0.71
   5   6  -8    6.02    0.55
  -5  -6   8    6.85    0.62
   5   6  -8    5.92    0.60
  -5  -6   8    7.25    0.60
   5   6  -7    3.42    0.62
  -5  -6   7    3.28    0.53
   5   6  -7    3.77    0.58
  -5  -6   7    4.07    0.59
   5   6  -6   10.35    1.10
  -5  -6   6    8.60    0.91
   5   6  -6    9.88    1.03
  -5  -6   6   10.66    1.03
   5   6  -5    3.55    0.72
  -5  -6   5    4.33    0.66
   5   6  -5    4.52    0.73
  -5  -6   5    3.73    0.52
  -5  -6   5    3.49    0.67
   5   6  -4    4.28    0.76
   5   6  -4    3.61    0.74
   5   6  -4    4.50    0.55
  -5  -6   4    3.78    0.63
   5   6  -4    4.13    0.73
  -5  -6   4    2.94    0.66
   5   6  -3    2.12    0.58
   5   6  -3    2.12    0.39
   5   6  -3    0.69    0.30
  -5  -6   3    1.47    0.41
   5   6  -3    1.47    0.50
   5   6  -3    0.88    0.31
  -5  -6   3    0.81    0.45
   5   6  -3    1.40    0.37
   5   6  -2    6.36    0.67
   5   6  -2    5.40    0.66
  -5  -6   2    6.74    0.68
   5   6  -2    6.57    0.71
   5   6  -2    6.65    0.82
   5   6  -2    7.45    0.92
   5   6  -2    7.37    0.76
  -5  -6   2    5.65    0.78
   5   6  -1   26.78    1.64
   5   6  -1   24.47    1.42
  -5  -6   1   26.32    1.25
   5   6  -1   25.91    1.47
  -5  -6   1   25.54    1.53
   5   6  -1   26.39    1.50
   5   6  -1   26.50    1.65
   5   6   0    1.84    0.50
   5   6   0    1.43    0.41
   5   6   0    2.06    0.45
  -5  -6   0    1.33    0.46
  -5  -6   0    2.35    0.50
   5   6   0    1.98    0.46
   5   6   1   58.79    2.44
   5   6   1   56.21    2.35
   5   6   1   60.34    2.39
   5   6   1   58.08    2.40
  -5  -6  -1   57.51    2.16
  -5  -6  -1   56.15    2.40
   5   6   2   38.23    1.91
   5   6   2   35.60    1.78
   5   6   2   37.00    1.85
  -5  -6  -2   38.00    1.58
  -5  -6  -2   35.71    1.85
   5   6   2   34.79    1.84
   5   6   3    1.40    0.41
   5   6   3    1.04    0.39
   5   6   3    1.76    0.44
  -5  -6  -3    1.60    0.49
  -5  -6  -3    1.56    0.31
   5   6   3    1.84    0.31
   5   6   3    1.26    0.37
   5   6   4   45.76    2.16
   5   6   4   45.37    2.21
   5   6   4   43.69    1.94
   5   6   4   44.31    1.99
  -5  -6  -4   45.58    2.11
   5   6   4   42.77    1.61
   5   6   4   44.66    1.77
   5   6   5  139.13    4.38
   5   6   5  148.85    3.93
   5   6   5  140.10    3.98
   5   6   5  144.54    4.08
  -5  -6  -5  146.84    4.30
   5   6   5  150.47    4.01
   5   6   5  142.17    4.05
   5   6   6   41.30    1.73
   5   6   6   41.91    2.19
   5   6   6   46.75    1.81
   5   6   6   43.95    1.79
  -5  -6  -6   42.61    1.99
   5   6   6   43.35    1.94
   5   6   6   44.46    2.06
   5   6   7    0.76    0.42
  -5  -6  -7    0.89    0.34
   5   6   7    0.88    0.41
   5   6   7    1.07    0.45
   5   6   8   39.37    2.09
  -5  -6  -8   39.74    1.60
   5   6   8   34.72    1.94
   5   6   8   37.45    1.96
  -5  -6  -8   40.90    2.27
   5   6   9  129.83    4.09
   5   6   9  138.86    4.21
   5   6   9  138.18    4.22
  -5  -6  -9  137.15    4.38
   5   6  10   31.88    1.54
   5   6  10   31.56    1.65
   5   6  10   30.72    1.60
  -5  -6 -10   31.18    1.69
   5   6  11    2.30    0.33
  -5  -6 -11    1.94    0.36
   5   6  11    2.50    0.42
   5   7  -7    5.88    0.65
   5   7  -7    6.22    0.63
   5   7  -7    5.21    0.65
  -5  -7   7    7.63    0.61
  -5  -7   7    5.21    0.58
   5   7  -6   12.59    1.04
   5   7  -6   13.05    1.14
  -5  -7   6   13.45    0.94
  -5  -7   6   12.19    1.01
   5   7  -5   27.18    1.78
  -5  -7   5   27.08    1.44
  -5  -7   5   28.46    1.43
   5   7  -4   19.81    1.55
  -5  -7   4   19.02    1.19
  -5  -7   4   21.58    1.51
   5   7  -3    0.50    0.29
   5   7  -3    0.72    0.42
  -5  -7   3    0.75    0.30
   5   7  -3    0.58    0.33
  -5  -7   3    0.32    0.32
   5   7  -3    0.51    0.29
   5   7  -2   17.82    1.20
   5   7  -2   13.22    1.26
   5   7  -2   16.79    1.14
   5   7  -2   15.26    1.16
  -5  -7   2   14.12    1.21
   5   7  -2   15.47    1.16
   5   7  -1   21.82    1.38
   5   7  -1   22.47    1.60
   5   7  -1   21.74    1.38
   5   7  -1   25.26    1.57
  -5  -7   1   21.54    1.41
   5   7  -1   23.17    1.51
   5   7   0   36.28    1.86
   5   7   0   33.12    1.92
   5   7   0   35.74    1.98
   5   7   0   34.28    1.84
   5   7   0   37.54    1.97
  -5  -7   0   36.90    1.75
  -5  -7   0   35.75    1.98
   5   7   0   37.88    2.00
   5   7   1    8.20    0.89
   5   7   1    7.32    0.90
   5   7   1    7.95    0.89
   5   7   1    7.00    0.85
  -5  -7  -1    7.51    0.90
  -5  -7  -1    6.79    0.68
   5   7   1    6.63    0.85
   5   7   2   15.80    1.22
   5   7   2   14.74    1.25
   5   7   2   16.22    1.28
   5   7   2   17.31    1.36
  -5  -7  -2   17.42    1.33
   5   7   2   14.87    1.25
   5   7   3   17.62    1.38
   5   7   3   17.40    1.28
   5   7   3   16.59    1.35
   5   7   3   18.76    1.36
   5   7   3   17.98    1.36
  -5  -7  -3   18.53    1.36
   5   7   4   15.47    1.33
   5   7   4   16.55    1.21
   5   7   4   16.90    1.26
   5   7   4   16.05    1.26
  -5  -7  -4   18.24    1.32
   5   7   4   18.73    1.10
   5   7   5  167.25    5.04
   5   7   5  169.91    4.46
   5   7   5  168.99    4.51
  -5  -7  -5  168.01    4.57
   5   7   5  171.87    4.55
   5   7   5  161.72    4.21
   5   7   6   21.68    1.26
   5   7   6   20.20    1.56
   5   7   6   22.59    1.25
  -5  -7  -6   20.43    1.29
   5   7   6   20.55    1.21
   5   7   6   20.36    1.32
   5   7   6   19.78    1.29
   5   7   7    3.78    0.72
  -5  -7  -7    4.39    0.56
   5   7   7    4.32    0.65
   5   7   7    4.05    0.66
   5   7   8   20.58    1.49
   5   7   8   21.26    1.40
   5   7   8   21.12    1.36
   5   7   9  130.69    4.00
   5   7   9  133.32    3.92
   5   7   9  130.78    3.76
  -5  -7  -9  130.35    4.01
   5   7  10   29.39    1.42
   5   7  10   28.13    1.40
  -5  -7 -10   28.56    1.43
   5   8  -6   16.21    0.98
   5   8  -6   17.07    1.04
   5   8  -6   15.62    1.03
  -5  -8   6   14.97    0.95
   5   8  -5   28.83    1.56
   5   8  -5   25.82    1.54
  -5  -8   5   27.30    1.47
  -5  -8   5   29.73    1.35
   5   8  -4   14.35    1.16
   5   8  -4   14.77    1.23
  -5  -8   4   14.84    1.14
   5   8  -3    3.47    0.47
   5   8  -3    3.45    0.65
   5   8  -3    1.76    0.46
   5   8  -3    3.07    0.64
   5   8  -3    2.43    0.45
  -5  -8   3    3.64    0.59
   5   8  -3    3.10    0.49
   5   8  -2    2.47    0.49
   5   8  -2    2.80    0.65
   5   8  -2    2.62    0.52
  -5  -8   2    2.12    0.48
   5   8  -2    1.87    0.46
   5   8  -1   60.19    2.54
   5   8  -1   56.83    2.63
   5   8  -1   67.39    2.73
  -5  -8   1   59.83    2.33
   5   8  -1   65.28    2.67
   5   8   0   11.07    1.09
   5   8   0   11.36    1.12
   5   8   0   10.26    0.83
   5   8   0    8.74    1.01
  -5  -8   0    9.42    0.80
  -5  -8   0   10.28    1.10
   5   8   0   10.75    1.11
   5   8   1    3.30    0.68
   5   8   1    3.88    0.67
   5   8   1    3.58    0.67
   5   8   1    3.70    0.72
  -5  -8  -1    4.24    0.75
   5   8   1    5.90    0.87
   5   8   2   37.93    2.10
   5   8   2   37.05    2.05
   5   8   2   41.04    2.18
  -5  -8  -2   40.46    2.10
   5   8   2   35.26    2.04
   5   8   3   16.88    1.35
   5   8   3   20.54    1.51
   5   8   3   20.76    1.51
  -5  -8  -3   19.10    1.39
   5   8   3   20.17    1.47
   5   8   4    4.34    0.80
   5   8   4    5.44    0.82
   5   8   4    5.35    0.75
   5   8   4    5.38    0.77
  -5  -8  -4    4.87    0.70
   5   8   4    4.07    0.65
   5   8   4    5.70    0.65
   5   8   5    9.86    0.95
   5   8   5   11.10    1.19
   5   8   5   11.65    1.17
   5   8   5   10.18    0.94
   5   8   5   12.38    0.98
  -5  -8  -5   10.36    0.89
   5   8   5   13.09    1.06
   5   8   6   39.39    1.75
   5   8   6   42.43    2.27
   5   8   6   43.34    1.75
   5   8   6   40.35    1.88
  -5  -8  -6   38.44    1.63
   5   8   6   41.88    1.75
   5   8   6   42.06    2.23
   5   8   7    4.33    0.74
  -5  -8  -7    5.16    0.76
   5   8   7    4.55    0.65
   5   8   8   32.91    1.80
   5   8   8   32.46    1.60
  -5  -8  -8   31.74    1.66
   5   8   9  109.25    3.30
   5   8   9  108.71    3.11
  -5  -8  -9  108.14    3.14
   5   9  -5   12.34    0.81
   5   9  -4    6.12    0.63
   5   9  -4    5.77    0.59
  -5  -9   4    4.31    0.54
  -5  -9   4    5.10    0.55
   5   9  -3    8.86    0.79
   5   9  -3   10.11    0.84
  -5  -9   3    9.07    0.84
  -5  -9   3    7.67    0.68
   5   9  -3    8.71    0.63
   5   9  -2   24.99    1.33
   5   9  -2   22.17    1.39
   5   9  -2   23.87    1.32
   5   9  -2   24.43    1.39
   5   9  -2   24.42    1.32
  -5  -9   2   23.36    1.20
  -5  -9   2   22.53    1.45
   5   9  -2   25.44    1.32
   5   9  -1   98.00    3.29
   5   9  -1   98.58    3.29
   5   9  -1   96.39    2.89
   5   9  -1   96.35    3.12
   5   9  -1   99.08    3.29
  -5  -9   1   97.43    3.41
   5   9  -1   94.66    3.23
   5   9   0    1.00    0.39
   5   9   0    0.50    0.38
  -5  -9   0    0.79    0.43
   5   9   0    0.32    0.32
   5   9   0    0.56    0.38
   5   9   1    0.81    0.43
   5   9   1    0.49    0.34
   5   9   1    0.19    0.33
  -5  -9  -1    0.89    0.42
   5   9   1    0.90    0.41
   5   9   2   21.05    1.51
   5   9   2   17.63    1.29
   5   9   2   20.32    1.33
   5   9   2   18.96    1.43
  -5  -9  -2   17.75    1.29
   5   9   2   19.19    1.45
   5   9   3   68.75    2.81
   5   9   3   64.69    2.52
   5   9   3   65.54    2.65
   5   9   3   65.44    2.72
  -5  -9  -3   65.85    2.55
   5   9   3   69.64    2.80
   5   9   4   27.33    1.62
   5   9   4   25.75    1.56
   5   9   4   28.52    1.62
   5   9   4   26.22    1.28
  -5  -9  -4   25.94    1.39
   5   9   4   29.48    1.65
   5   9   5   68.52    2.50
   5   9   5   64.37    2.58
   5   9   5   70.49    2.44
   5   9   5   64.66    2.25
  -5  -9  -5   66.01    2.12
   5   9   5   67.07    2.41
   5   9   6   69.41    2.26
   5   9   6   71.00    2.81
   5   9   6   70.39    2.63
   5   9   6   75.70    2.13
   5   9   6   72.62    2.42
   5   9   6   72.77    2.14
  -5  -9  -6   76.07    2.60
   5   9   7   22.47    1.40
   5   9   7   21.89    1.25
   5   9   7   22.88    1.19
  -5  -9  -7   20.84    1.16
   5   9   8   20.70    1.20
   5   9   8   21.10    1.07
   5   9   8   19.73    1.02
   5  10  -3    2.63    0.33
  -5 -10   3    2.87    0.40
  -5 -10   2   18.17    1.05
   5  10  -2   18.25    0.82
   5  10  -2   15.90    0.85
   5  10  -1   29.73    1.37
  -5 -10   1   29.43    1.45
   5  10  -1   31.01    1.38
   5  10  -1   29.77    1.42
   5  10   0   18.75    1.21
   5  10   0   18.04    1.14
  -5 -10   0   16.51    1.10
   5  10   0   14.28    1.03
   5  10   1    0.67    0.38
   5  10   1    0.23    0.29
  -5 -10  -1    0.83    0.30
   5  10   1    0.31    0.28
   5  10   2   57.94    2.32
  -5 -10  -2   59.94    2.16
   5  10   2   62.88    2.40
   5  10   2   62.65    2.47
   5  10   3   93.24    3.10
   5  10   3   99.61    3.07
  -5 -10  -3   88.94    2.67
   5  10   3   99.32    3.08
   5  10   4   12.93    0.95
   5  10   4   13.80    0.93
   5  10   4   13.56    0.93
   5  10   5   12.76    0.70
   5  10   5   15.31    0.82
   5  10   5   13.06    0.84
   5  10   6   41.90    1.35
  -6   5   2    5.35    0.49
  -6   5   2    4.77    0.54
  -6   5   2    5.09    0.56
  -6   5   1    1.75    0.34
  -6   5   1    3.10    0.40
  -6   5   1    2.12    0.40
  -6   5   1    1.93    0.41
  -6   5   0    0.56    0.31
  -6   5   0    0.52    0.27
  -6   5   0    0.36    0.23
  -6   5   0    1.02    0.30
  -6   5   0    0.60    0.28
  -6   5  -1   27.71    1.42
  -6   5  -1   27.82    1.35
  -6   5  -1   29.57    1.47
  -6   5  -1   29.02    1.30
  -6   5  -1   27.30    1.47
  -6   5  -2   15.10    1.00
  -6   5  -2   16.08    0.98
  -6   5  -2   14.92    1.02
  -6   5  -2   13.98    1.06
  -6   5  -3    4.13    0.58
  -6   5  -3    3.02    0.44
  -6   5  -3    3.03    0.43
  -6   5  -3    2.65    0.41
  -6   5  -4    2.36    0.35
  -6   5  -4    2.75    0.46
  -6   4   4    8.57    0.71
  -6   4   4    7.52    0.74
  -6   4   3    1.78    0.43
  -6   4   3    2.03    0.31
  -6   4   3    1.30    0.27
   6  -4  -3    1.38    0.31
  -6   4   3    1.31    0.36
  -6   4   3    1.08    0.27
  -6   4   2    6.58    0.78
  -6   4   2    7.89    0.71
  -6   4   2    5.80    0.62
  -6   4   2    6.64    0.64
  -6   4   2    6.71    0.76
  -6   4   1    1.21    0.39
  -6   4   1    1.07    0.38
  -6   4   1    1.90    0.46
  -6   4   1    1.44    0.38
  -6   4   1    0.70    0.37
  -6   4   1    1.53    0.39
  -6   4   0    5.14    0.69
  -6   4   0    5.30    0.77
  -6   4   0    4.62    0.67
  -6   4   0    4.14    0.62
  -6   4   0    5.85    0.72
  -6   4   0    4.12    0.62
  -6   4  -1    2.39    0.55
  -6   4  -1    1.17    0.40
  -6   4  -1    1.62    0.44
  -6   4  -1    1.27    0.39
  -6   4  -1    1.49    0.40
  -6   4  -1    1.57    0.44
  -6   4  -2   26.43    1.71
  -6   4  -2   28.08    1.59
  -6   4  -2   25.47    1.56
  -6   4  -2   29.06    1.65
  -6   4  -2   28.96    1.44
   6  -4   2   27.34    1.35
  -6   4  -2   29.70    1.63
  -6   4  -3    3.54    0.57
  -6   4  -3    2.31    0.61
  -6   4  -3    2.16    0.46
  -6   4  -3    2.10    0.47
  -6   4  -3    2.95    0.40
  -6   4  -3    2.21    0.44
  -6   4  -4    3.46    0.67
  -6   4  -4    3.45    0.51
  -6   4  -4    3.02    0.49
  -6   4  -4    2.25    0.43
  -6   4  -4    2.49    0.44
  -6   4  -5    8.40    0.96
  -6   4  -5    9.68    0.66
  -6   4  -5    9.72    0.70
  -6   4  -5    9.73    0.70
   6  -4   5    9.64    0.69
  -6   4  -6   33.66    1.85
  -6   4  -7    0.58    0.23
  -6   3   6    1.73    0.35
   6  -3  -6    2.61    0.38
  -6   3   6    2.01    0.26
  -6   3   6    2.30    0.38
   6  -3  -5   34.45    1.52
  -6   3   5   30.71    1.36
  -6   3   5   32.97    1.62
  -6   3   5   29.82    1.41
  -6   3   4   10.79    0.90
  -6   3   4   10.67    0.98
  -6   3   4   10.51    0.83
  -6   3   4    8.72    0.75
  -6   3   3   10.79    0.82
  -6   3   3   11.14    0.82
  -6   3   3   11.20    0.81
   6  -3  -3   10.09    0.88
  -6   3   3   10.48    0.98
  -6   3   3    9.72    0.78
  -6   3   3    8.51    0.93
  -6   3   3   10.40    0.81
  -6   3   2    0.60    0.27
  -6   3   2    0.87    0.42
  -6   3   2    1.23    0.39
  -6   3   2    0.82    0.32
  -6   3   2    0.98    0.35
   6  -3  -2    0.85    0.32
  -6   3   2    1.10    0.45
  -6   3   2    0.91    0.37
  -6   3   1   32.03    1.77
   6  -3  -1   32.34    1.45
  -6   3   1   31.67    1.83
  -6   3   1   32.72    1.77
  -6   3   1   30.87    1.86
  -6   3   1   31.68    1.74
  -6   3   1   34.28    1.80
  -6   3   0   65.96    2.83
  -6   3   0   63.38    2.69
  -6   3   0   69.05    2.79
  -6   3   0   66.99    2.77
  -6   3   0   68.77    2.78
  -6   3   0   59.25    2.62
  -6   3  -1   34.41    1.92
  -6   3  -1   31.83    1.86
  -6   3  -1   31.96    1.81
  -6   3  -1   31.73    1.86
  -6   3  -1   34.20    2.01
  -6   3  -1   35.02    1.95
  -6   3  -2    2.48    0.63
  -6   3  -2    1.67    0.47
  -6   3  -2    1.95    0.55
  -6   3  -2    2.75    0.52
  -6   3  -2    2.63    0.63
  -6   3  -2    2.55    0.60
  -6   3  -3    4.61    1.02
  -6   3  -3    3.65    0.74
  -6   3  -3    4.16    0.68
  -6   3  -3    3.83    0.66
  -6   3  -3    4.58    0.58
  -6   3  -3    4.10    0.68
   6  -3   3    4.19    0.61
  -6   3  -3    4.96    0.73
  -6   3  -4    1.38    0.78
  -6   3  -4    1.05    0.49
  -6   3  -4    3.58    0.60
  -6   3  -4    1.96    0.47
  -6   3  -4    1.96    0.45
   6  -3   4    2.79    0.47
  -6   3  -4    2.77    0.52
  -6   3  -5   20.27    1.63
  -6   3  -5   20.11    1.44
  -6   3  -5   24.61    1.28
  -6   3  -5   21.55    1.24
  -6   3  -5   22.26    1.26
  -6   3  -5   21.65    1.22
  -6   3  -6   68.55    3.06
  -6   3  -6   69.97    2.54
  -6   3  -6   69.93    2.10
  -6   3  -6   69.03    2.08
   6  -3   6   70.60    2.44
  -6   3  -7    4.52    0.76
   6  -3   7    3.62    0.46
  -6   3  -8    0.49    0.31
   6  -3   8    0.55    0.24
  -6   2   7    1.86    0.34
   6  -2  -7    1.31    0.31
  -6   2   7    2.30    0.41
  -6   2   6    0.51    0.30
  -6   2   6    0.53    0.30
   6  -2  -6    0.03    0.24
  -6   2   6    0.63    0.20
  -6   2   5   32.54    1.66
   6  -2  -5   31.00    1.66
  -6   2   5   34.37    1.53
  -6   2   5   30.15    1.66
  -6   2   5   30.25    1.65
   6  -2  -4   56.58    2.37
  -6   2   4   48.92    2.16
  -6   2   4   48.18    2.26
  -6   2   4   50.90    2.25
  -6   2   3   19.34    1.15
  -6   2   3   18.19    1.12
   6  -2  -3   17.26    1.27
  -6   2   3   18.47    1.35
  -6   2   3   15.65    1.04
  -6   2   3   17.56    1.11
  -6   2   3   18.52    1.37
  -6   2   3   17.09    1.26
  -6   2   2    6.83    0.78
  -6   2   2    6.99    0.89
  -6   2   2    5.70    0.72
  -6   2   2    6.29    0.73
   6  -2  -2    6.21    0.75
  -6   2   2    7.80    0.91
  -6   2   2    7.20    0.79
  -6   2   2    6.25    0.75
  -6   2   1    8.01    0.81
  -6   2   1    9.01    0.95
  -6   2   1    7.81    0.92
  -6   2   1    7.78    0.88
   6  -2  -1    8.05    0.81
  -6   2   1    9.27    1.00
  -6   2   1    8.64    0.92
  -6   2   1    7.14    0.85
  -6   2   0    1.02    0.41
  -6   2   0    1.45    0.49
  -6   2   0    0.90    0.41
   6  -2   0    0.91    0.32
  -6   2   0    1.19    0.46
  -6   2   0    0.91    0.44
  -6   2   0    1.56    0.48
  -6   2  -1    4.81    0.66
  -6   2  -1    3.38    0.67
  -6   2  -1    4.07    0.69
  -6   2  -1    5.18    0.76
  -6   2  -1    5.26    0.78
  -6   2  -1    5.21    0.78
  -6   2  -1    4.22    0.71
  -6   2  -2    1.68    0.50
  -6   2  -2    1.91    0.46
  -6   2  -2    1.54    0.47
  -6   2  -2    2.10    0.55
  -6   2  -2    1.71    0.43
  -6   2  -2    2.10    0.54
  -6   2  -2    1.79    0.52
  -6   2  -3    9.29    1.00
  -6   2  -3    9.97    1.12
  -6   2  -3    9.46    0.93
  -6   2  -3   10.51    1.04
  -6   2  -3    9.53    0.86
  -6   2  -3    8.07    1.01
  -6   2  -3    9.72    1.01
  -6   2  -3    9.83    1.00
  -6   2  -4   27.09    1.86
  -6   2  -4   27.09    1.67
  -6   2  -4   30.09    1.72
  -6   2  -4   30.68    1.70
  -6   2  -4   29.97    1.68
  -6   2  -4   31.80    1.43
  -6   2  -4   28.76    1.65
   6  -2   4   31.02    1.67
  -6   2  -4   30.90    1.71
  -6   2  -5    5.60    0.79
  -6   2  -5    7.15    0.86
  -6   2  -5    6.08    0.92
  -6   2  -5    6.73    0.87
  -6   2  -5    6.99    0.74
  -6   2  -5    7.43    0.78
  -6   2  -5    7.05    0.76
   6  -2   5    7.19    0.74
  -6   2  -5    6.95    0.74
  -6   2  -6   11.64    1.27
  -6   2  -6   12.41    1.02
  -6   2  -6   14.25    0.88
  -6   2  -6   13.10    1.16
  -6   2  -6    9.79    1.04
  -6   2  -6   14.06    0.91
  -6   2  -6   11.50    0.84
   6  -2   6   12.44    0.91
   6  -2   6   12.97    1.11
  -6   2  -6   13.43    0.85
  -6   2  -7   31.34    1.46
  -6   2  -7   28.92    1.93
  -6   2  -7   27.68    1.65
  -6   2  -7   26.35    1.62
   6  -2   7   30.06    1.60
  -6   2  -8    0.97    0.37
  -6   2  -8    0.90    0.33
  -6   2  -8    0.12    0.34
   6  -2   8   -0.38    0.28
  -6   2  -9    7.09    0.77
  -6   2  -9    6.15    0.61
   6  -2   9    7.22    0.65
   6  -2   9    5.45    0.51
  -6   1   7    8.99    0.82
   6  -1  -7    8.99    0.76
  -6   1   6    0.04    0.30
  -6   1   6    0.60    0.32
  -6   1   6    0.52    0.32
   6  -1  -6    0.21    0.28
   6  -1  -5   68.68    2.74
  -6   1   5   66.15    2.32
  -6   1   5   66.34    2.78
  -6   1   5   66.61    2.62
  -6   1   5   67.76    2.83
   6  -1  -4   20.29    1.45
  -6   1   4   20.77    1.35
  -6   1   4   18.78    1.56
  -6   1   4   18.96    1.34
  -6   1   4   18.48    1.42
  -6   1   3    8.29    0.76
  -6   1   3    8.74    0.79
   6  -1  -3    8.08    0.92
  -6   1   3    9.59    1.02
  -6   1   3    7.24    0.86
  -6   1   3    6.75    0.95
  -6   1   3    8.34    0.77
  -6   1   3    8.31    0.79
  -6   1   3    8.65    0.92
  -6   1   2    1.74    0.44
  -6   1   2    3.20    0.53
  -6   1   2    2.32    0.51
   6  -1  -2    2.22    0.51
  -6   1   2    3.25    0.57
  -6   1   2    2.50    0.48
  -6   1   1   41.69    1.99
  -6   1   1   41.03    1.97
   6  -1  -1   39.75    1.90
  -6   1   1   41.15    1.82
  -6   1   1   43.62    2.02
  -6   1   1   38.23    1.97
  -6   1   1   35.61    1.91
  -6   1   0  124.85    3.96
  -6   1   0  133.32    3.99
  -6   1   0  136.39    4.16
   6  -1   0  134.21    3.80
  -6   1   0  136.41    4.01
  -6   1   0  133.34    4.12
  -6   1   0  133.90    4.22
  -6   1   0  139.09    4.30
  -6   1  -1   10.55    1.00
  -6   1  -1   11.66    1.09
   6  -1   1   13.08    0.89
  -6   1  -1   13.54    1.16
  -6   1  -1   12.02    1.12
  -6   1  -1   10.20    1.05
  -6   1  -1   14.91    1.13
  -6   1  -2    0.78    0.41
  -6   1  -2    1.00    0.44
  -6   1  -2    0.38    0.31
  -6   1  -2    0.96    0.40
  -6   1  -2    0.80    0.42
  -6   1  -2    1.20    0.34
  -6   1  -2    0.66    0.38
  -6   1  -3   54.90    2.49
  -6   1  -3   60.48    2.43
  -6   1  -3   63.41    2.59
  -6   1  -3   60.91    2.53
  -6   1  -3   59.06    2.41
  -6   1  -3   63.91    2.58
  -6   1  -3   61.74    2.60
  -6   1  -3   59.71    2.57
  -6   1  -4   47.81    2.10
  -6   1  -4   46.21    2.33
  -6   1  -4   46.38    2.22
  -6   1  -4   49.25    2.16
  -6   1  -4   48.24    1.90
  -6   1  -4   47.32    2.26
  -6   1  -4   52.07    2.38
   6  -1   4   49.42    2.26
  -6   1  -4   47.43    2.13
  -6   1  -4   48.07    2.18
  -6   1  -4   45.93    2.15
  -6   1  -5   15.30    1.10
  -6   1  -5   16.50    1.15
  -6   1  -5   16.89    1.42
  -6   1  -5   16.02    1.33
  -6   1  -5   16.44    1.14
  -6   1  -5   17.07    1.16
  -6   1  -5   17.61    1.42
   6  -1   5   16.53    1.24
  -6   1  -5   16.09    1.32
  -6   1  -5   16.43    1.14
  -6   1  -6   28.38    1.34
  -6   1  -6   27.41    1.43
  -6   1  -6   28.09    1.89
  -6   1  -6   24.04    1.27
  -6   1  -6   26.67    1.34
  -6   1  -6   28.07    1.83
   6  -1   6   28.64    1.56
   6  -1   6   27.49    1.73
  -6   1  -6   27.40    1.33
  -6   1  -6   28.23    1.80
  -6   1  -7   49.34    2.54
  -6   1  -7   44.19    2.30
   6  -1   7   42.57    1.82
   6  -1   7   45.96    2.19
  -6   1  -8   30.42    1.90
  -6   1  -8   30.60    1.81
   6  -1   8   29.90    1.30
   6  -1   8   31.17    1.68
  -6   1  -9   38.63    1.98
  -6   1  -9   35.48    1.83
   6  -1   9   34.29    1.65
   6  -1   9   38.46    1.69
  -6   1 -10   85.61    2.76
  -6   1 -10   79.72    2.61
   6  -1  10   81.67    2.44
   6  -1  10   84.14    2.39
  -6   0   8    1.15    0.31
  -6   0   7    1.44    0.44
   6   0  -7    1.86    0.41
  -6   0   7    1.50    0.36
   6   0  -7    1.83    0.35
  -6   0   7    2.04    0.48
  -6   0   6    2.54    0.59
  -6   0   6    3.38    0.53
   6   0  -6    4.39    0.68
  -6   0   6    2.14    0.56
   6   0  -6    3.88    0.48
   6   0  -5   29.46    1.75
  -6   0   5   28.53    1.38
  -6   0   5   27.63    1.90
  -6   0   5   25.97    1.49
  -6   0   5   27.85    1.79
   6   0  -4   14.39    1.24
  -6   0   4   15.80    1.13
  -6   0   4   13.41    1.39
  -6   0   4   14.10    1.09
  -6   0   4   14.75    1.28
  -6   0   3    1.34    0.36
  -6   0   3    1.58    0.39
  -6   0   3    1.19    0.35
   6   0  -3    1.08    0.45
  -6   0   3    0.77    0.47
  -6   0   3    1.26    0.42
  -6   0   3    1.73    0.38
  -6   0   2    2.17    0.46
  -6   0   2    2.46    0.50
  -6   0   2    2.09    0.45
   6   0  -2    1.50    0.44
  -6   0   2    1.99    0.62
  -6   0   2    2.27    0.51
  -6   0   2    1.91    0.46
  -6   0   2    2.24    0.47
  -6   0   1   45.98    1.93
  -6   0   1   48.77    2.10
  -6   0   1   49.44    2.13
   6   0  -1   47.19    2.10
  -6   0   1   48.25    2.42
  -6   0   1   51.30    2.26
  -6   0   1   50.85    2.21
  -6   0   1   47.89    2.17
  -6   0   0   55.27    2.16
  -6   0   0   58.97    2.40
  -6   0   0   59.92    2.41
   6   0   0   58.91    2.28
  -6   0   0   57.94    2.44
  -6   0   0   60.44    2.52
  -6   0   0   61.65    2.57
  -6   0  -1   19.60    1.21
  -6   0  -1   19.40    1.34
  -6   0  -1   19.75    1.32
   6   0   1   19.80    1.14
  -6   0  -1   19.99    1.36
  -6   0  -1   20.33    1.07
  -6   0  -1   20.30    1.43
  -6   0  -1   20.53    1.45
  -6   0  -2    8.21    0.87
  -6   0  -2    6.57    0.70
  -6   0  -2    6.78    0.79
   6   0   2    7.17    0.61
  -6   0  -2    7.44    0.75
  -6   0  -2    6.20    0.78
  -6   0  -2    7.69    0.88
  -6   0  -2    7.48    0.89
  -6   0  -3   16.59    1.17
  -6   0  -3   18.62    1.27
  -6   0  -3   17.85    1.28
  -6   0  -3   17.87    1.30
  -6   0  -3   19.38    1.32
  -6   0  -3   18.62    1.32
  -6   0  -3   17.30    1.29
  -6   0  -4  170.92    4.58
  -6   0  -4  162.43    4.64
  -6   0  -4  165.97    4.80
  -6   0  -4  167.32    4.54
  -6   0  -4  171.28    4.95
   6   0   4  162.58    4.74
  -6   0  -4  171.84    4.71
  -6   0  -4  159.89    4.62
  -6   0  -5   24.05    1.28
  -6   0  -5   25.97    1.62
  -6   0  -5   23.94    1.60
  -6   0  -5   25.69    1.39
  -6   0  -5   25.21    1.68
   6   0   5   26.00    1.58
  -6   0  -5   22.62    1.32
  -6   0  -5   22.14    1.34
  -6   0  -5   26.69    1.45
  -6   0  -6   20.99    1.55
  -6   0  -6   18.22    1.09
  -6   0  -6   19.90    1.53
   6   0   6   19.86    1.37
  -6   0  -6   18.27    1.10
   6   0   6   21.50    1.51
  -6   0  -6   19.39    1.11
  -6   0  -6   22.06    1.18
  -6   0  -7   75.52    3.15
  -6   0  -7   73.15    3.15
   6   0   7   77.53    2.83
   6   0   7   79.08    3.06
  -6   0  -8   14.42    1.30
  -6   0  -8   16.91    1.36
   6   0   8   13.79    1.03
   6   0   8   13.73    1.18
  -6   0  -9   17.28    1.37
   6   0   9   19.49    1.27
   6   0   9   21.26    1.12
   6   0   9   19.43    1.30
  -6   0 -10   48.91    2.13
   6   0  10   46.40    1.78
   6   0  10   44.92    1.84
  -6   0 -11   47.27    1.74
  -6   0 -11   46.12    1.76
  -6  -1   8   11.70    0.89
   6   1  -8   10.32    0.65
  -6  -1   8   11.05    0.72
   6   1  -8   12.06    0.69
   6   1  -7    0.72    0.30
  -6  -1   7    0.45    0.33
   6   1  -7    0.41    0.25
  -6  -1   7    0.67    0.39
   6   1  -6    8.10    0.86
  -6  -1   6    8.47    1.01
   6   1  -6    6.01    0.67
  -6  -1   6    8.05    0.95
  -6  -1   6    9.24    0.98
   6   1  -5   14.86    1.25
  -6  -1   5   14.34    0.92
  -6  -1   5   14.25    1.36
   6   1  -5   15.29    1.02
  -6  -1   5   16.29    1.39
  -6  -1   5   15.45    1.03
  -6  -1   5   16.71    1.35
   6   1  -4   37.69    2.03
  -6  -1   4   40.68    2.33
   6   1  -4   40.13    1.64
  -6  -1   4   40.04    2.17
  -6  -1   4   35.93    1.91
  -6  -1   4   39.41    1.73
  -6  -1   4   38.28    2.10
  -6  -1   3    6.85    0.68
  -6  -1   3    7.81    0.72
   6   1  -3    7.27    0.86
  -6  -1   3    7.00    0.96
  -6  -1   3    8.25    0.72
  -6  -1   3    6.64    0.91
  -6  -1   3    8.68    0.75
  -6  -1   3    8.04    0.74
  -6  -1   2   17.72    1.15
   6   1  -2   19.70    1.35
  -6  -1   2   17.06    1.41
  -6  -1   2   18.38    1.39
  -6  -1   2   15.76    1.12
  -6  -1   2   18.24    1.22
  -6  -1   2   20.00    1.10
  -6  -1   1   23.73    1.17
   6   1  -1   22.52    1.41
  -6  -1   1   23.53    1.61
  -6  -1   1   25.77    1.43
  -6  -1   1   20.54    1.45
  -6  -1   1   23.36    1.43
  -6  -1   1   24.98    1.52
  -6  -1   0   83.85    2.51
  -6  -1   0   87.01    2.98
   6   1   0   89.32    2.93
  -6  -1   0   87.55    3.22
  -6  -1   0   90.97    3.04
  -6  -1   0   84.35    3.14
  -6  -1   0   95.53    3.26
  -6  -1   0   92.28    3.26
  -6  -1  -1   23.21    1.12
  -6  -1  -1   19.80    1.28
   6   1   1   20.41    1.19
  -6  -1  -1   20.19    1.38
  -6  -1  -1   21.90    1.39
  -6  -1  -1   18.05    1.31
  -6  -1  -1   21.95    1.23
  -6  -1  -1   24.27    1.55
  -6  -1  -1   22.20    1.52
  -6  -1  -2   32.78    1.45
  -6  -1  -2   35.99    1.77
   6   1   2   34.97    1.49
  -6  -1  -2   35.32    1.78
  -6  -1  -2   33.51    1.80
  -6  -1  -2   35.70    1.74
  -6  -1  -2   37.21    1.94
  -6  -1  -2   35.98    1.95
  -6  -1  -3    5.14    0.66
  -6  -1  -3    7.55    0.82
  -6  -1  -3    6.24    0.67
  -6  -1  -3    6.10    0.79
   6   1   3    6.34    0.57
  -6  -1  -3    5.72    0.67
  -6  -1  -3    7.73    0.83
  -6  -1  -3    7.06    0.83
  -6  -1  -3    6.23    0.78
  -6  -1  -4  107.36    3.19
  -6  -1  -4  101.88    3.41
  -6  -1  -4  104.50    3.21
  -6  -1  -4  104.84    3.58
  -6  -1  -4  102.05    3.52
   6   1   4   99.75    3.38
  -6  -1  -4  101.34    3.33
  -6  -1  -4  101.88    3.35
  -6  -1  -5   99.05    3.41
  -6  -1  -5   94.00    2.92
  -6  -1  -5   92.36    3.44
   6   1   5   92.65    3.26
  -6  -1  -5   92.01    2.98
  -6  -1  -5   89.59    2.97
  -6  -1  -6    1.01    0.44
  -6  -1  -6    1.87    0.38
  -6  -1  -6    1.69    0.39
  -6  -1  -6    1.69    0.37
  -6  -1  -6    0.46    0.37
   6   1   6    1.20    0.44
   6   1   6    0.85    0.39
  -6  -1  -6    1.31    0.30
  -6  -1  -7    7.47    0.94
  -6  -1  -7    8.72    1.05
   6   1   7    9.46    0.95
   6   1   7    8.01    0.92
  -6  -1  -8  168.81    5.22
  -6  -1  -8  176.14    5.23
   6   1   8  167.09    4.76
   6   1   8  174.40    5.02
  -6  -1  -9   27.17    1.74
   6   1   9   24.22    1.40
   6   1   9   24.17    1.39
   6   1   9   26.06    1.56
  -6  -1 -10   38.84    1.97
   6   1  10   37.99    1.59
   6   1  10   36.64    1.53
   6   1  10   39.23    1.80
  -6  -1 -11   43.39    1.84
   6   1  11   44.27    1.67
  -6  -2   8    0.69    0.26
  -6  -2   8    0.71    0.27
   6   2  -8    0.39    0.27
   6   2  -7    5.81    0.63
  -6  -2   7    5.43    0.76
   6   2  -7    7.34    0.72
  -6  -2   7    6.57    0.77
  -6  -2   7    6.87    0.77
  -6  -2   6    0.46    0.36
   6   2  -6    0.24    0.30
  -6  -2   6    0.40    0.44
   6   2  -6   -0.18    0.28
  -6  -2   6    0.32    0.31
  -6  -2   5    5.82    0.80
   6   2  -5    8.08    0.92
  -6  -2   5    5.39    0.86
   6   2  -5    5.84    0.68
  -6  -2   5    7.17    0.89
  -6  -2   5    6.32    0.77
   6   2  -4   47.00    2.27
  -6  -2   4   50.18    2.53
   6   2  -4   48.42    1.93
  -6  -2   4   46.01    2.28
  -6  -2   4   51.06    2.36
  -6  -2   4   49.01    2.33
  -6  -2   3    3.21    0.47
  -6  -2   3    1.92    0.41
   6   2  -3    2.89    0.57
  -6  -2   3    3.08    0.64
   6   2  -3    2.61    0.41
  -6  -2   3    2.55    0.57
  -6  -2   3    3.52    0.65
  -6  -2   3    3.44    0.49
  -6  -2   2    1.31    0.37
   6   2  -2    0.69    0.35
  -6  -2   2    1.26    0.46
  -6  -2   2    1.56    0.49
  -6  -2   2    1.28    0.39
  -6  -2   2    1.41    0.40
  -6  -2   1    5.50    0.68
  -6  -2   1    5.95    0.78
   6   2  -1    4.77    0.66
  -6  -2   1    5.67    0.77
  -6  -2   1    4.96    0.74
  -6  -2   1    4.94    0.65
  -6  -2   1    4.96    0.70
  -6  -2   0  168.60    4.59
   6   2   0  174.32    4.66
  -6  -2   0  173.45    4.85
  -6  -2   0  178.47    4.97
  -6  -2   0  172.07    4.54
  -6  -2   0  184.06    5.21
  -6  -2   0  179.64    5.10
  -6  -2  -1   72.03    2.53
   6   2   1   71.44    2.46
  -6  -2  -1   70.15    2.63
  -6  -2  -1   72.50    2.73
  -6  -2  -1   65.72    2.51
  -6  -2  -1   68.66    2.90
  -6  -2  -1   71.66    2.91
  -6  -2  -2    1.31    0.40
  -6  -2  -2    1.78    0.50
   6   2   2    1.69    0.37
  -6  -2  -2    1.52    0.40
  -6  -2  -2    1.08    0.38
  -6  -2  -2    2.32    0.51
  -6  -2  -3   34.65    1.67
  -6  -2  -3   31.26    1.21
   6   2   3   31.21    1.40
  -6  -2  -3   30.92    1.71
  -6  -2  -3   32.70    1.74
   6   2   3   32.13    1.62
  -6  -2  -3   30.39    1.73
  -6  -2  -3   29.91    1.71
  -6  -2  -4  326.28    7.07
  -6  -2  -4  338.38    7.79
   6   2   4  342.32    7.12
  -6  -2  -4  333.72    8.07
  -6  -2  -4  359.15    8.02
   6   2   4  349.01    7.86
  -6  -2  -4  339.27    7.59
  -6  -2  -4  331.84    7.82
  -6  -2  -4  338.75    7.82
  -6  -2  -5  133.57    4.03
  -6  -2  -5  128.69    4.19
  -6  -2  -5  125.00    3.59
  -6  -2  -5  133.65    4.06
   6   2   5  132.59    4.01
  -6  -2  -5  130.32    3.74
  -6  -2  -5  128.51    3.72
  -6  -2  -6   10.37    1.04
  -6  -2  -6    9.74    0.76
  -6  -2  -6    9.09    1.02
   6   2   6   10.27    0.99
  -6  -2  -6   12.52    0.92
   6   2   6   11.07    1.00
  -6  -2  -6   10.35    0.80
  -6  -2  -6   10.55    0.81
  -6  -2  -7   66.01    2.81
  -6  -2  -7   63.68    2.81
   6   2   7   61.15    2.59
   6   2   7   62.31    2.57
  -6  -2  -8   90.50    3.48
   6   2   8   88.70    2.93
  -6  -2  -8   93.15    3.45
   6   2   8   91.31    3.29
   6   2   8   92.14    3.30
  -6  -2  -8   87.99    2.85
  -6  -2  -9   72.20    3.00
   6   2   9   75.44    2.50
  -6  -2  -9   68.31    2.77
   6   2   9   69.25    2.70
   6   2   9   74.28    2.83
  -6  -2 -10   33.02    1.83
   6   2  10   32.89    1.40
   6   2  10   33.93    1.61
   6   2  10   35.07    1.71
  -6  -2 -11   41.75    1.82
   6   2  11   39.97    1.43
   6   2  11   39.92    1.63
  -6  -3   8    1.21    0.29
   6   3  -8    0.57    0.22
  -6  -3   8    1.12    0.33
   6   3  -8    1.46    0.36
  -6  -3   8    0.89    0.31
   6   3  -7    0.03    0.24
  -6  -3   7    0.80    0.42
   6   3  -7    0.61    0.33
  -6  -3   7    0.50    0.28
  -6  -3   7    0.23    0.24
  -6  -3   6    0.54    0.35
   6   3  -6    0.35    0.32
   6   3  -6    0.43    0.31
  -6  -3   6    0.78    0.42
   6   3  -6    0.92    0.37
  -6  -3   6    0.44    0.34
  -6  -3   6    0.45    0.37
  -6  -3   5    3.32    0.61
   6   3  -5    3.94    0.62
   6   3  -5    2.74    0.54
  -6  -3   5    3.44    0.72
   6   3  -5    3.99    0.62
  -6  -3   5    4.44    0.70
  -6  -3   5    3.72    0.65
  -6  -3   4    1.02    0.39
   6   3  -4    0.45    0.31
   6   3  -4    0.56    0.34
  -6  -3   4    0.45    0.43
   6   3  -4    0.71    0.32
  -6  -3   4    0.23    0.27
  -6  -3   4    0.80    0.37
   6   3  -3    1.17    0.39
  -6  -3   3    0.45    0.25
   6   3  -3    0.63    0.36
  -6  -3   3    0.09    0.36
  -6  -3   3   -0.10    0.25
   6   3  -3    0.60    0.28
   6   3  -3    0.22    0.18
  -6  -3   3    1.48    0.40
  -6  -3   3    1.09    0.42
  -6  -3   3    0.56    0.25
   6   3  -2    7.35    0.74
  -6  -3   2    5.75    0.69
   6   3  -2    6.16    0.75
  -6  -3   2    7.72    0.88
   6   3  -2    5.30    0.62
   6   3  -2    6.10    0.59
  -6  -3   2    5.56    0.77
  -6  -3   2    7.11    0.73
   6   3  -1   55.36    2.04
   6   3  -1   53.47    2.25
  -6  -3   1   52.89    2.29
  -6  -3   1   54.12    2.38
  -6  -3   1   53.10    2.04
  -6  -3   1   49.72    2.20
   6   3   0  123.44    3.41
  -6  -3   0  123.36    3.54
   6   3   0  124.95    3.71
  -6  -3   0  120.09    3.68
  -6  -3   0  125.09    3.89
  -6  -3   0  127.04    3.66
  -6  -3   0  117.10    3.88
   6   3   1   57.34    2.00
  -6  -3  -1   57.66    2.16
   6   3   1   58.12    2.23
  -6  -3  -1   60.19    2.27
  -6  -3  -1   58.99    2.41
  -6  -3  -1   59.01    2.35
  -6  -3  -1   52.98    2.45
   6   3   2    1.86    0.40
  -6  -3  -2    2.40    0.46
   6   3   2    2.10    0.45
  -6  -3  -2    2.62    0.46
  -6  -3  -2    1.97    0.45
  -6  -3  -2    1.81    0.45
   6   3   2    1.97    0.37
  -6  -3  -2    2.10    0.52
   6   3   3   13.68    0.90
  -6  -3  -3   13.02    0.99
   6   3   3   14.52    0.98
  -6  -3  -3   14.46    1.10
  -6  -3  -3   13.57    1.11
   6   3   3   14.71    1.03
  -6  -3  -3   14.25    1.15
  -6  -3  -4  370.58    8.03
   6   3   4  350.04    7.67
  -6  -3  -4  356.71    8.36
  -6  -3  -4  356.27    8.13
   6   3   4  355.24    8.02
  -6  -3  -4  354.74    8.11
  -6  -3  -5  100.02    3.28
   6   3   5   99.88    2.88
   6   3   5  100.67    3.03
  -6  -3  -5   94.19    3.44
  -6  -3  -5   97.02    3.25
   6   3   5  100.54    3.32
   6   3   5  103.18    3.09
  -6  -3  -5   96.74    3.11
  -6  -3  -5  109.41    3.21
  -6  -3  -6    8.69    0.90
  -6  -3  -6    8.47    0.69
   6   3   6    8.87    0.69
  -6  -3  -6    8.02    0.93
   6   3   6    9.39    0.95
   6   3   6    8.89    0.83
  -6  -3  -6    8.63    0.74
  -6  -3  -6    8.31    0.72
  -6  -3  -7   64.80    2.69
  -6  -3  -7   62.41    2.75
   6   3   7   70.27    2.77
  -6  -3  -7   63.99    2.59
   6   3   7   65.56    2.55
  -6  -3  -8  345.99    8.32
   6   3   8  343.49    7.38
  -6  -3  -8  340.96    8.35
   6   3   8  342.57    8.32
  -6  -3  -8  357.62    8.16
   6   3   8  350.75    8.12
  -6  -3  -9  123.38    3.95
  -6  -3  -9  119.70    3.76
   6   3   9  120.30    3.86
  -6  -3  -9  112.76    3.61
   6   3   9  113.12    3.65
  -6  -3 -10    3.36    0.60
  -6  -3 -10    3.79    0.52
   6   3  10    3.76    0.59
   6   3  10    4.58    0.61
  -6  -3 -10    4.31    0.57
  -6  -3 -11   47.85    1.82
   6   3  11   47.16    1.73
   6   3  11   52.43    1.80
   6   3  11   47.55    1.85
   6   4  -8    2.25    0.38
   6   4  -8    1.77    0.35
   6   4  -7    1.33    0.39
  -6  -4   7    1.48    0.44
   6   4  -7    2.00    0.42
  -6  -4   7    2.55    0.47
  -6  -4   7    2.64    0.45
   6   4  -6   75.02    2.92
   6   4  -6   81.52    2.59
  -6  -4   6   78.39    3.12
   6   4  -6   85.78    2.99
  -6  -4   6   80.66    2.73
  -6  -4   6   80.44    2.88
  -6  -4   6   79.16    2.53
   6   4  -5   20.86    1.47
   6   4  -5   18.49    1.24
  -6  -4   5   18.65    1.45
   6   4  -5   19.39    1.33
  -6  -4   5   17.62    1.20
  -6  -4   5   20.17    1.45
  -6  -4   5   20.59    1.24
   6   4  -4   22.19    1.51
   6   4  -4   21.12    1.39
  -6  -4   4   18.96    1.47
   6   4  -4   18.53    1.27
  -6  -4   4   18.43    1.20
  -6  -4   4   21.74    1.55
  -6  -4   4   20.78    1.30
   6   4  -3   92.47    3.32
   6   4  -3   94.37    3.28
  -6  -4   3   95.17    3.47
   6   4  -3   94.72    2.78
   6   4  -3   95.35    3.07
  -6  -4   3   95.43    2.95
  -6  -4   3   93.30    3.44
  -6  -4   3   97.11    2.88
   6   4  -2   96.88    3.31
   6   4  -2  103.32    3.42
  -6  -4   2  102.61    3.46
   6   4  -2  100.50    3.02
   6   4  -2   98.10    2.97
  -6  -4   2   93.79    3.44
  -6  -4   2  103.07    3.01
  -6  -4   2   96.99    3.11
   6   4  -1   25.25    1.52
  -6  -4   1   27.39    1.54
   6   4  -1   28.74    1.47
   6   4  -1   26.82    1.24
  -6  -4   1   26.29    1.60
  -6  -4   1   25.82    1.38
   6   4  -1   25.10    1.46
  -6  -4   1   23.51    1.42
   6   4   0  118.27    3.58
  -6  -4   0  114.98    3.31
   6   4   0  114.68    3.61
  -6  -4   0  117.04    3.48
   6   4   0  119.89    3.53
  -6  -4   0  114.90    3.70
  -6  -4   0  119.84    3.55
   6   4   0  119.12    2.98
  -6  -4   0  118.27    3.68
   6   4   1   87.21    2.90
  -6  -4  -1   84.74    2.64
   6   4   1   85.04    2.94
   6   4   1   81.87    2.85
  -6  -4  -1   89.89    2.76
  -6  -4  -1   87.36    3.02
  -6  -4  -1   92.84    3.04
   6   4   1   85.70    2.49
   6   4   2    8.95    0.82
  -6  -4  -2    7.23    0.72
   6   4   2    7.08    0.76
   6   4   2    7.41    0.75
  -6  -4  -2    6.82    0.64
  -6  -4  -2    7.58    0.80
  -6  -4  -2   10.14    0.93
   6   4   2    7.16    0.64
   6   4   3   89.42    2.98
  -6  -4  -3   86.85    2.76
   6   4   3   90.18    2.94
   6   4   3   87.83    2.91
  -6  -4  -3   91.57    3.01
  -6  -4  -3   93.38    3.20
   6   4   3   90.96    2.79
  -6  -4  -3   84.92    3.03
  -6  -4  -4  174.55    4.51
   6   4   4  175.47    4.60
   6   4   4  172.94    4.51
  -6  -4  -4  172.36    4.94
  -6  -4  -4  167.93    4.60
   6   4   4  179.24    4.62
   6   4   4  173.54    4.11
  -6  -4  -4  175.31    4.72
   6   4   5  179.88    4.45
  -6  -4  -5  168.90    4.64
   6   4   5  189.20    4.73
   6   4   5  175.03    4.49
  -6  -4  -5  180.09    5.14
  -6  -4  -5  182.09    4.67
   6   4   5  181.17    4.85
   6   4   5  176.20    4.34
  -6  -4  -5  180.51    4.69
   6   4   6    9.64    0.79
  -6  -4  -6    7.89    0.81
   6   4   6    8.02    0.66
  -6  -4  -6    8.06    0.92
   6   4   6    6.60    0.81
   6   4   6    8.27    0.74
  -6  -4  -6    7.23    0.69
  -6  -4  -7    6.13    0.73
  -6  -4  -7    7.31    0.90
   6   4   7    7.21    0.86
   6   4   7    6.29    0.69
  -6  -4  -8  130.50    3.91
  -6  -4  -8  123.83    4.01
   6   4   8  129.97    4.17
  -6  -4  -8  119.87    4.10
   6   4   8  130.30    3.79
  -6  -4  -9   48.45    2.09
  -6  -4  -9   48.16    2.09
   6   4   9   46.66    2.25
  -6  -4  -9   49.97    2.30
   6   4   9   50.32    2.06
   6   4   9   50.28    2.17
  -6  -4 -10    9.29    0.80
  -6  -4 -10    8.68    0.69
   6   4  10    8.24    0.85
   6   4  10    9.06    0.78
  -6  -4 -10    8.76    0.84
   6   4  10    6.84    0.77
  -6  -4 -11   25.90    1.12
   6   4  11   25.56    1.28
   6   4  11   26.40    1.33
  -6  -4 -11   25.69    1.19
   6   4  11   23.51    1.11
   6   5  -8   17.03    0.99
   6   5  -8   15.28    0.79
  -6  -5   8   16.58    0.94
   6   5  -7   15.42    1.14
  -6  -5   7   14.67    1.07
   6   5  -7   13.01    0.96
  -6  -5   7   14.37    0.95
   6   5  -6   49.74    2.36
  -6  -5   6   57.26    2.44
   6   5  -6   57.08    2.35
  -6  -5   6   55.28    2.32
   6   5  -5    3.31    0.66
   6   5  -5    3.38    0.51
  -6  -5   5    3.95    0.70
   6   5  -5    3.63    0.62
  -6  -5   5    3.84    0.67
   6   5  -4   14.25    1.29
   6   5  -4   12.10    1.20
   6   5  -4   14.93    1.11
  -6  -5   4   12.96    1.18
   6   5  -4   11.93    1.08
  -6  -5   4   12.85    1.22
   6   5  -3    6.67    0.88
   6   5  -3    7.51    0.84
  -6  -5   3    7.75    0.90
   6   5  -3    6.98    0.78
   6   5  -3    6.56    0.63
  -6  -5   3    7.43    0.71
  -6  -5   3    5.68    0.82
   6   5  -3    6.19    0.64
  -6  -5   3    6.01    0.62
   6   5  -2   52.33    2.39
   6   5  -2   51.55    2.25
  -6  -5   2   46.97    2.14
   6   5  -2   51.13    2.00
   6   5  -2   47.13    2.03
  -6  -5   2   50.75    2.40
  -6  -5   2   48.72    2.02
  -6  -5   2   45.35    1.96
   6   5  -1   12.89    1.14
   6   5  -1   15.75    1.20
  -6  -5   1   16.28    1.12
   6   5  -1   14.92    1.06
   6   5  -1   15.10    1.01
  -6  -5   1   14.25    1.20
  -6  -5   1   14.17    1.09
   6   5   0   39.06    1.97
   6   5   0   35.74    1.85
  -6  -5   0   39.08    1.67
   6   5   0   39.94    1.83
  -6  -5   0   38.26    1.94
  -6  -5   0   40.11    1.90
   6   5   1  136.91    4.09
  -6  -5  -1  131.76    3.32
   6   5   1  125.83    3.96
  -6  -5  -1  140.96    3.56
   6   5   1  132.10    3.88
  -6  -5  -1  139.22    4.06
  -6  -5  -1  134.25    4.02
   6   5   2   45.77    2.09
  -6  -5  -2   45.14    1.60
   6   5   2   48.11    2.12
   6   5   2   44.19    1.96
  -6  -5  -2   49.60    2.07
  -6  -5  -2   47.03    2.15
   6   5   2   45.91    1.64
  -6  -5  -3   20.41    1.04
   6   5   3   22.16    1.40
   6   5   3   18.86    1.22
  -6  -5  -3   21.68    1.43
  -6  -5  -3   20.22    1.24
   6   5   3   20.67    1.10
   6   5   3   21.34    1.39
  -6  -5  -4  186.21    4.56
   6   5   4  194.73    5.17
   6   5   4  192.26    4.88
  -6  -5  -4  196.69    5.36
  -6  -5  -4  192.15    4.80
   6   5   4  183.48    4.74
  -6  -5  -5  139.17    3.70
   6   5   5  138.62    4.05
   6   5   5  135.87    4.14
   6   5   5  134.72    3.78
  -6  -5  -5  136.94    4.33
  -6  -5  -5  145.21    3.73
   6   5   5  141.69    4.06
   6   5   6    3.72    0.58
  -6  -5  -6    3.15    0.51
   6   5   6    2.89    0.42
  -6  -5  -6    2.97    0.59
   6   5   6    2.73    0.53
   6   5   6    3.68    0.51
   6   5   6    2.84    0.41
  -6  -5  -6    2.55    0.44
   6   5   6    3.10    0.47
   6   5   7   23.82    1.43
  -6  -5  -7   23.49    1.29
  -6  -5  -7   24.67    1.58
   6   5   7   26.13    1.62
   6   5   7   24.75    1.38
   6   5   7   22.54    1.20
   6   5   8  173.69    4.57
  -6  -5  -8  176.15    4.37
  -6  -5  -8  175.54    4.79
   6   5   8  165.98    4.96
  -6  -5  -8  169.09    5.21
   6   5   8  170.32    4.67
   6   5   8  168.43    4.32
   6   5   9  132.83    3.57
  -6  -5  -9  135.62    3.51
  -6  -5  -9  130.63    3.71
   6   5   9  141.33    4.25
  -6  -5  -9  136.33    4.31
   6   5   9  141.11    4.05
   6   5   9  133.76    3.61
   6   5  10   16.92    1.18
   6   5  10   18.35    1.19
  -6  -5 -10   17.69    1.22
   6   5  10   16.39    0.91
   6   5  11    5.43    0.57
   6   5  11    6.52    0.63
  -6  -5 -11    6.27    0.61
   6   6  -7    7.79    0.76
  -6  -6   7    7.28    0.67
   6   6  -7    7.14    0.67
  -6  -6   7    6.54    0.62
   6   6  -7    5.57    0.65
   6   6  -6   76.88    2.95
  -6  -6   6   78.07    2.69
   6   6  -6   72.16    2.64
  -6  -6   6   73.77    2.69
   6   6  -5    2.07    0.58
  -6  -6   5    0.73    0.31
   6   6  -5    0.64    0.35
  -6  -6   5    2.17    0.55
   6   6  -4    1.78    0.58
   6   6  -4    1.06    0.49
   6   6  -4    2.33    0.43
  -6  -6   4    1.65    0.45
   6   6  -4    1.92    0.48
  -6  -6   4    2.99    0.47
  -6  -6   4    2.28    0.59
   6   6  -3   74.46    2.34
   6   6  -3   76.51    3.20
   6   6  -3   72.09    2.64
  -6  -6   3   75.50    2.78
   6   6  -3   73.26    2.42
   6   6  -3   73.19    2.85
  -6  -6   3   70.97    3.03
   6   6  -3   78.21    2.49
  -6  -6   3   71.86    2.60
  -6  -6   3   68.10    2.35
   6   6  -2   93.85    3.54
   6   6  -2   81.60    2.97
  -6  -6   2   86.58    2.89
   6   6  -2   86.12    2.86
   6   6  -2   80.62    2.82
  -6  -6   2   84.42    3.29
  -6  -6   2   87.02    3.03
   6   6  -1   13.72    1.23
   6   6  -1   12.87    1.09
  -6  -6   1   14.20    0.97
   6   6  -1   13.19    1.05
   6   6  -1   13.74    1.08
  -6  -6   1   13.64    1.18
  -6  -6   1   11.67    1.06
   6   6   0   40.60    2.14
   6   6   0   40.90    2.01
  -6  -6   0   43.31    1.59
   6   6   0   38.41    1.89
   6   6   0   40.16    1.96
  -6  -6   0   43.84    2.08
  -6  -6   0   37.48    1.98
   6   6   1   79.78    3.11
   6   6   1   83.19    3.03
   6   6   1   79.76    2.90
   6   6   1   84.93    3.01
  -6  -6  -1   79.25    2.88
  -6  -6  -1   77.81    3.01
   6   6   2   41.42    2.12
   6   6   2   42.68    2.09
   6   6   2   41.48    1.96
   6   6   2   41.15    1.98
  -6  -6  -2   41.08    1.86
  -6  -6  -2   42.96    2.14
   6   6   3   17.10    1.36
   6   6   3   17.45    1.32
   6   6   3   17.15    1.19
   6   6   3   17.83    1.25
  -6  -6  -3   17.02    1.33
  -6  -6  -3   18.16    1.11
   6   6   3   15.58    0.91
   6   6   4  146.08    4.41
   6   6   4  142.31    4.44
   6   6   4  141.76    4.10
   6   6   4  148.23    4.20
  -6  -6  -4  154.06    4.56
  -6  -6  -4  144.55    3.72
   6   6   4  136.67    3.75
   6   6   5  205.99    5.62
   6   6   5  209.75    5.19
   6   6   5  200.84    5.20
  -6  -6  -5  218.97    5.78
   6   6   6   32.46    1.83
   6   6   6   32.31    1.51
   6   6   6   30.97    1.48
   6   6   6   30.19    1.48
  -6  -6  -6   31.34    1.80
   6   6   6   32.35    1.52
   6   6   6   32.13    1.69
  -6  -6  -7   23.09    1.47
   6   6   7   25.67    1.57
   6   6   7   24.20    1.38
   6   6   7   23.09    1.53
   6   6   8  146.74    4.35
  -6  -6  -8  151.25    4.12
   6   6   8  152.39    4.46
   6   6   8  152.01    4.25
  -6  -6  -8  145.03    4.74
   6   6   9  181.43    4.78
   6   6   9  178.79    4.88
  -6  -6  -9  180.24    5.12
   6   6   9  178.05    4.65
   6   6  10   16.03    0.88
   6   6  10   16.85    1.07
   6   6  10   16.83    1.08
  -6  -6 -10   17.03    1.15
   6   6  11   11.57    0.73
   6   7  -6   55.65    2.27
  -6  -7   6   53.86    1.84
  -6  -7   6   54.87    2.06
   6   7  -5   39.10    2.04
  -6  -7   5   36.03    1.60
  -6  -7   5   37.22    1.85
   6   7  -4    1.04    0.45
  -6  -7   4    1.39    0.37
  -6  -7   4    1.34    0.40
  -6  -7   4    1.11    0.42
   6   7  -3   18.16    1.05
   6   7  -3   21.46    1.63
   6   7  -3   20.53    1.19
  -6  -7   3   19.35    1.15
   6   7  -3   20.33    1.15
  -6  -7   3   20.98    1.50
  -6  -7   3   21.34    1.34
   6   7  -3   20.10    1.14
   6   7  -2  194.85    4.81
   6   7  -2  179.64    5.52
   6   7  -2  175.76    4.80
  -6  -7   2  182.75    4.42
   6   7  -2  184.38    4.85
  -6  -7   2  171.68    5.18
  -6  -7   2  182.14    5.13
   6   7  -2  184.55    4.86
   6   7  -1   85.41    2.94
   6   7  -1   79.69    3.30
   6   7  -1   81.48    2.96
   6   7  -1   82.52    2.99
  -6  -7   1   82.35    3.11
   6   7  -1   84.79    3.05
  -6  -7   1   79.94    3.11
   6   7   0   19.02    1.50
   6   7   0   19.54    1.52
   6   7   0   19.39    1.37
   6   7   0   20.06    1.41
   6   7   0   21.15    1.44
  -6  -7   0   20.58    1.36
  -6  -7   0   20.07    1.47
   6   7   1  148.42    4.74
   6   7   1  143.28    4.45
   6   7   1  146.14    4.40
   6   7   1  146.80    4.46
  -6  -7  -1  145.07    4.11
  -6  -7  -1  142.98    4.54
   6   7   2   64.85    2.88
   6   7   2   63.83    2.75
   6   7   2   64.58    2.65
   6   7   2   61.12    2.64
  -6  -7  -2   67.04    2.32
  -6  -7  -2   64.16    2.77
   6   7   3   83.35    3.07
   6   7   3   85.71    3.44
   6   7   3   94.91    3.50
   6   7   3   90.69    3.23
   6   7   3   93.92    3.31
  -6  -7  -3   98.07    3.49
   6   7   4  179.86    4.89
   6   7   4  175.94    5.41
   6   7   4  170.85    4.87
   6   7   4  175.63    4.95
  -6  -7  -4  185.22    5.23
   6   7   5   43.83    2.32
   6   7   5   44.64    2.01
   6   7   5   45.55    2.45
   6   7   5   46.07    2.03
   6   7   5   47.54    2.08
  -6  -7  -5   44.83    2.19
   6   7   5   48.49    1.87
   6   7   6   44.48    2.28
   6   7   6   45.74    1.84
   6   7   6   43.86    1.85
   6   7   6   43.89    1.83
  -6  -7  -6   40.58    1.99
   6   7   6   43.00    1.78
   6   7   6   41.17    1.84
   6   7   7   23.15    1.58
  -6  -7  -7   26.07    1.43
   6   7   7   25.29    1.37
   6   7   7   24.87    1.42
   6   7   8   87.85    3.21
  -6  -7  -8  102.72    2.76
   6   7   8   99.28    3.06
   6   7   8   94.05    3.05
  -6  -7  -8   91.83    3.44
   6   7   9   71.16    2.52
   6   7   9   70.34    2.39
   6   7   9   70.81    2.39
  -6  -7  -9   68.01    2.62
   6   7  10    1.15    0.30
  -6  -7 -10    0.42    0.23
   6   7  10    0.44    0.22
   6   8  -6   78.06    2.30
   6   8  -6   76.96    2.30
   6   8  -6   79.75    2.43
   6   8  -5   36.57    1.64
   6   8  -5   36.83    1.76
  -6  -8   5   37.09    1.60
   6   8  -4    0.40    0.32
  -6  -8   4    0.10    0.24
  -6  -8   4    0.58    0.32
   6   8  -3   14.79    0.86
   6   8  -3   14.05    1.23
   6   8  -3   13.94    1.24
   6   8  -3   14.01    0.86
  -6  -8   3   13.26    1.08
  -6  -8   3   13.96    1.06
   6   8  -2  143.45    4.66
   6   8  -2  151.34    4.05
   6   8  -2  140.46    3.85
   6   8  -2  145.36    4.04
  -6  -8   2  143.71    4.25
  -6  -8   2  149.76    4.40
   6   8  -2  154.51    4.09
   6   8  -1   55.09    2.29
   6   8  -1   51.09    2.53
   6   8  -1   50.40    2.13
   6   8  -1   48.64    2.20
  -6  -8   1   48.53    2.13
  -6  -8   1   52.65    2.43
   6   8  -1   52.61    2.28
   6   8   0   20.37    1.41
   6   8   0   18.48    1.49
   6   8   0   19.28    1.33
   6   8   0   19.38    1.41
  -6  -8   0   19.44    1.22
  -6  -8   0   19.05    1.46
   6   8   0   19.84    1.42
   6   8   1   25.17    1.61
   6   8   1   26.39    1.77
   6   8   1   25.90    1.78
   6   8   1   26.79    1.68
   6   8   1   28.39    1.72
  -6  -8  -1   23.51    1.26
  -6  -8  -1   25.16    1.66
   6   8   1   24.72    1.64
   6   8   2  126.89    4.12
   6   8   2  131.19    4.40
   6   8   2  129.18    4.20
  -6  -8  -2  134.01    4.31
   6   8   2  131.37    4.21
   6   8   3  139.85    4.35
   6   8   3  141.92    4.66
   6   8   3  141.55    4.38
  -6  -8  -3  146.87    4.51
   6   8   3  141.33    4.40
   6   8   4   43.39    2.09
   6   8   4   41.73    2.29
   6   8   4   47.17    2.16
  -6  -8  -4   42.37    2.10
   6   8   4   42.12    2.05
   6   8   5  133.80    3.96
   6   8   5  132.53    3.88
  -6  -8  -5  125.29    3.92
   6   8   5  140.03    3.98
   6   8   5  129.81    4.45
   6   8   6   30.93    1.49
   6   8   6   28.20    1.79
   6   8   6   30.38    1.89
   6   8   6   29.71    1.41
   6   8   6   29.66    1.36
  -6  -8  -6   29.16    1.50
   6   8   6   30.20    1.44
   6   8   7   36.03    1.95
   6   8   7   37.79    2.05
   6   8   7   37.17    1.57
  -6  -8  -7   37.07    1.47
   6   8   7   38.24    1.46
  -6  -8  -7   38.20    1.98
   6   8   8   71.92    2.67
   6   8   8   69.10    2.73
   6   8   8   68.75    2.24
   6   8   8   69.96    2.09
  -6  -8  -8   72.22    2.64
   6   8   9   31.58    1.57
   6   8   9   34.37    1.34
  -6  -8  -9   35.27    1.55
   6   9  -4    4.60    0.46
   6   9  -4    4.69    0.51
   6   9  -4    3.70    0.49
  -6  -9   4    3.85    0.44
   6   9  -3   13.65    0.92
   6   9  -3   12.92    0.98
  -6  -9   3   13.86    0.89
  -6  -9   3   12.44    0.87
   6   9  -2  152.36    3.87
   6   9  -2  150.62    4.38
   6   9  -2  148.44    3.92
   6   9  -2  153.23    4.31
   6   9  -2  152.83    3.87
  -6  -9   2  144.83    3.84
  -6  -9   2  157.94    4.24
   6   9  -2  152.19    3.84
   6   9  -1  106.55    3.28
   6   9  -1  103.02    3.49
   6   9  -1   96.61    2.85
   6   9  -1  101.53    3.35
   6   9  -1  102.08    3.18
  -6  -9   1  101.77    2.87
  -6  -9   1  104.14    3.42
   6   9  -1  106.44    3.20
   6   9   0    2.23    0.50
   6   9   0    2.07    0.54
   6   9   0    1.72    0.43
  -6  -9   0    1.49    0.46
   6   9   0    1.59    0.46
   6   9   1   17.08    1.29
   6   9   1   15.40    1.24
   6   9   1   16.52    1.26
  -6  -9  -1   12.50    1.13
   6   9   1   17.92    1.30
   6   9   2  133.75    3.94
   6   9   2  123.65    3.86
   6   9   2  125.23    3.97
   6   9   2  102.93    3.61
   6   9   2  110.32    3.65
   6   9   3   32.77    1.79
   6   9   3   29.35    1.77
   6   9   3   32.74    1.78
  -6  -9  -3   32.65    1.74
   6   9   3   33.42    1.78
   6   9   4   15.77    1.18
   6   9   4   17.53    1.33
   6   9   4   16.49    1.17
  -6  -9  -4   16.43    1.13
   6   9   4   17.86    1.22
   6   9   5    1.06    0.33
   6   9   5    1.74    0.49
   6   9   5    1.15    0.33
  -6  -9  -5    0.75    0.29
   6   9   5    1.16    0.34
   6   9   6   34.97    1.45
   6   9   6   34.49    1.79
   6   9   6   36.01    1.34
  -6  -9  -6   32.49    1.27
   6   9   6   33.73    1.33
   6   9   7   60.29    2.31
   6   9   7   59.83    1.77
  -6  -9  -7   62.29    2.21
   6   9   8   15.24    0.95
   6   9   8   13.41    0.66
  -6 -10   2  108.85    2.91
   6  10  -2  105.53    2.52
   6  10  -1   93.71    2.67
   6  10  -1   93.99    2.59
  -6 -10   1   90.86    2.76
   6  10  -1   92.82    2.57
   6  10   0    2.41    0.40
   6  10   0    3.01    0.46
  -6 -10   0    2.34    0.41
   6  10   0    2.72    0.46
   6  10   0    1.86    0.39
   6  10   1   37.75    1.75
   6  10   1   37.10    1.57
   6  10   1   38.23    1.70
  -6 -10  -1   37.33    1.67
   6  10   1   38.25    1.69
   6  10   2   97.43    3.12
   6  10   2   95.28    2.84
   6  10   2   94.89    3.01
  -6 -10  -2  102.17    3.00
   6  10   2   96.47    3.03
   6  10   3  124.06    3.59
   6  10   3  120.24    3.27
   6  10   3  115.60    3.40
  -6 -10  -3  127.46    3.37
   6  10   3  122.72    3.46
   6  10   4   56.65    2.12
   6  10   4   58.62    2.11
   6  10   4   60.54    2.07
  -6 -10  -4   60.48    1.91
   6  10   4   62.39    2.10
   6  10   5   57.76    1.91
   6  10   5   53.82    1.94
   6  10   5   58.60    1.75
   6  10   5   57.16    1.76
  -6 -10  -5   55.92    1.78
   6  10   6   77.13    2.24
  -7   4   1   29.83    1.28
  -7   4   1   28.62    1.28
  -7   4   1   31.68    1.44
  -7   4   1   30.95    1.42
  -7   4   0    3.20    0.48
  -7   4   0    3.68    0.49
  -7   4   0    5.66    0.57
  -7   4   0    4.20    0.52
  -7   4   0    4.91    0.56
  -7   4  -1   52.11    1.92
  -7   4  -1   50.04    1.99
  -7   4  -1   52.57    2.03
  -7   4  -1   49.05    1.81
  -7   4  -1   46.90    1.97
  -7   4  -2   12.69    0.88
  -7   4  -2   12.11    0.91
  -7   4  -2   12.24    0.93
  -7   4  -2   10.49    0.68
  -7   4  -2   12.05    0.94
  -7   4  -3   16.35    1.11
  -7   4  -3   16.39    0.99
  -7   4  -3   16.43    0.93
  -7   4  -3   15.13    0.96
  -7   4  -4   28.27    1.45
  -7   4  -4   29.04    1.19
  -7   4  -4   27.77    1.18
  -7   3   4   11.63    0.72
  -7   3   4   11.95    0.80
  -7   3   3    0.93    0.31
  -7   3   3    0.27    0.18
  -7   3   3    0.30    0.21
  -7   3   3    0.36    0.19
  -7   3   2   12.54    0.82
  -7   3   2   13.53    0.87
  -7   3   2   13.06    0.87
  -7   3   2   13.78    1.04
  -7   3   2   11.97    0.79
  -7   3   2   13.03    1.01
  -7   3   1   79.35    2.60
  -7   3   1   77.69    2.69
  -7   3   1   75.53    2.64
  -7   3   1   82.77    2.91
  -7   3   1   76.83    2.57
  -7   3   1   73.75    2.75
  -7   3   0   85.00    2.94
  -7   3   0   82.36    3.01
  -7   3   0   85.47    3.02
  -7   3   0   84.13    3.05
  -7   3   0   89.36    3.01
  -7   3   0   85.44    3.06
  -7   3  -1    5.19    0.74
  -7   3  -1    5.12    0.72
  -7   3  -1    5.46    0.75
  -7   3  -1    6.19    0.77
  -7   3  -1    4.26    0.62
  -7   3  -1    4.33    0.66
  -7   3  -2   80.84    3.10
  -7   3  -2   89.74    3.11
  -7   3  -2   90.80    3.20
  -7   3  -2   84.26    2.82
  -7   3  -2   87.74    3.15
   7  -3   2   82.41    2.73
  -7   3  -2   86.17    3.07
  -7   3  -3   96.11    3.44
  -7   3  -3  100.57    3.22
  -7   3  -3  101.15    3.33
  -7   3  -3   98.96    3.29
  -7   3  -3   96.20    2.77
   7  -3   3   93.82    2.86
  -7   3  -3  105.24    3.28
  -7   3  -4   53.88    2.41
  -7   3  -4   52.70    2.00
  -7   3  -4   54.75    2.11
  -7   3  -4   51.35    2.07
   7  -3   4   51.78    1.68
  -7   3  -4   54.59    2.03
  -7   3  -5   87.58    3.14
  -7   3  -5   89.73    2.40
  -7   3  -5   84.36    2.50
  -7   3  -5   88.82    2.54
   7  -3   5   85.97    2.61
  -7   3  -5   83.29    2.36
  -7   3  -6   21.82    1.36
   7  -3   6   19.77    0.94
   7  -2  -5   35.80    1.40
  -7   2   5   34.45    1.23
  -7   2   5   32.82    1.40
  -7   2   5   33.42    1.39
   7  -2  -4   18.50    1.07
  -7   2   4   17.11    1.05
  -7   2   4   16.27    1.07
  -7   2   4   17.13    1.06
  -7   2   3    1.10    0.36
  -7   2   3    1.28    0.40
  -7   2   3    1.37    0.30
  -7   2   3    1.25    0.29
  -7   2   3    1.31    0.29
   7  -2  -3    1.85    0.38
  -7   2   3    1.44    0.45
  -7   2   3    0.88    0.22
  -7   2   2    3.99    0.56
  -7   2   2    2.57    0.53
  -7   2   2    3.43    0.53
  -7   2   2    3.07    0.51
  -7   2   2    2.39    0.48
   7  -2  -2    2.75    0.47
  -7   2   2    2.68    0.57
  -7   2   2    2.67    0.50
  -7   2   1  175.36    4.83
  -7   2   1  173.02    4.86
   7  -2  -1  167.47    4.25
  -7   2   1  174.53    5.12
  -7   2   1  171.54    4.85
  -7   2   1  172.18    4.79
  -7   2   1  166.10    4.84
  -7   2   1  172.86    4.48
  -7   2   0   53.31    2.42
  -7   2   0   57.55    2.53
  -7   2   0   54.73    2.52
  -7   2   0   54.36    2.55
  -7   2   0   54.61    2.51
  -7   2   0   55.25    2.48
  -7   2   0   56.08    2.08
  -7   2  -1    0.59    0.41
  -7   2  -1    0.74    0.41
  -7   2  -1    0.64    0.43
  -7   2  -1    0.64    0.42
  -7   2  -1    0.76    0.46
  -7   2  -1    0.80    0.43
  -7   2  -2    5.91    0.86
  -7   2  -2    5.50    0.84
  -7   2  -2    6.41    0.89
  -7   2  -2    6.78    0.84
  -7   2  -2    6.20    0.87
  -7   2  -2    7.49    0.93
  -7   2  -3   36.17    2.05
  -7   2  -3   40.72    2.09
  -7   2  -3   35.56    1.77
  -7   2  -3   38.74    2.07
  -7   2  -3   38.16    1.81
  -7   2  -3   39.69    2.09
   7  -2   3   35.48    1.83
  -7   2  -3   42.44    2.11
  -7   2  -4   52.44    2.51
  -7   2  -4   55.63    2.31
  -7   2  -4   55.43    2.27
  -7   2  -4   52.19    2.30
  -7   2  -4   54.87    1.92
  -7   2  -4   53.96    2.35
   7  -2   4   52.61    2.16
  -7   2  -4   55.57    2.32
  -7   2  -5   22.63    1.58
  -7   2  -5   19.54    1.15
  -7   2  -5   16.63    1.18
  -7   2  -5   18.44    1.18
  -7   2  -5   18.99    1.19
   7  -2   5   17.82    1.10
  -7   2  -5   19.39    1.16
  -7   2  -6   44.35    2.21
  -7   2  -6   41.43    1.55
  -7   2  -6   47.55    1.64
   7  -2   6   44.33    1.52
   7  -2   6   46.73    1.94
  -7   2  -7   50.82    2.23
   7  -2   7   50.53    1.87
  -7   2  -8   32.72    1.55
   7  -2   8   32.99    1.35
  -7   1   6   12.62    0.86
   7  -1  -6   13.15    0.84
  -7   1   5   65.71    2.41
   7  -1  -5   67.36    2.37
  -7   1   5   61.28    1.97
  -7   1   5   64.08    2.21
  -7   1   5   64.58    2.43
   7  -1  -4   45.12    2.01
  -7   1   4   50.03    2.02
  -7   1   4   44.35    1.94
  -7   1   4   45.91    2.12
  -7   1   3    1.92    0.49
  -7   1   3    1.70    0.43
  -7   1   3    1.97    0.42
  -7   1   3    1.68    0.35
   7  -1  -3    1.61    0.44
  -7   1   3    1.96    0.50
  -7   1   3    1.60    0.34
  -7   1   3    1.66    0.40
  -7   1   2   20.26    1.31
  -7   1   2   22.59    1.40
   7  -1  -2   20.58    1.37
  -7   1   2   20.33    1.48
  -7   1   2   20.27    1.33
  -7   1   2   20.39    1.30
  -7   1   2   20.06    1.36
  -7   1   2   21.90    1.49
  -7   1   1  185.55    5.29
  -7   1   1  186.42    5.31
   7  -1  -1  185.23    4.94
  -7   1   1  184.42    5.51
  -7   1   1  190.37    5.30
  -7   1   1  180.99    5.24
  -7   1   1  194.16    5.21
  -7   1   1  188.98    5.28
  -7   1   0   56.23    2.46
  -7   1   0   58.97    2.71
   7  -1   0   58.09    2.19
  -7   1   0   59.76    2.79
  -7   1   0   59.87    2.72
  -7   1   0   59.73    2.73
  -7   1   0   64.12    2.82
  -7   1  -1    0.93    0.42
  -7   1  -1    1.31    0.52
  -7   1  -1    1.22    0.51
  -7   1  -1    0.55    0.42
  -7   1  -1    0.96    0.52
  -7   1  -1    0.26    0.42
  -7   1  -2   52.92    2.47
  -7   1  -2   54.66    2.48
  -7   1  -2   58.22    2.77
  -7   1  -2   56.22    2.60
  -7   1  -2   58.33    2.77
  -7   1  -2   63.38    2.85
  -7   1  -2   60.76    2.81
  -7   1  -3  239.90    6.57
  -7   1  -3  248.34    6.58
  -7   1  -3  254.15    6.81
  -7   1  -3  261.88    6.48
  -7   1  -3  257.46    6.84
   7  -1   3  255.25    6.59
  -7   1  -3  252.38    6.78
  -7   1  -3  254.67    6.80
  -7   1  -4  134.80    4.23
  -7   1  -4  132.43    4.36
  -7   1  -4  131.81    4.31
  -7   1  -4  137.58    4.31
  -7   1  -4  131.93    3.82
  -7   1  -4  138.39    4.33
   7  -1   4  141.12    4.26
  -7   1  -4  143.21    4.32
  -7   1  -5   27.50    1.50
  -7   1  -5   23.86    1.65
  -7   1  -5   29.80    1.80
  -7   1  -5   23.50    1.43
  -7   1  -5   25.30    1.49
   7  -1   5   23.72    1.47
  -7   1  -5   22.41    1.37
  -7   1  -6   48.33    1.78
  -7   1  -6   51.20    2.42
  -7   1  -6   45.81    2.22
  -7   1  -6   47.87    2.29
  -7   1  -6   46.55    1.82
  -7   1  -6   43.65    1.79
   7  -1   6   48.28    1.98
  -7   1  -6   50.19    1.82
  -7   1  -7   67.75    2.77
  -7   1  -7   64.66    2.61
  -7   1  -7   65.56    2.63
   7  -1   7   65.27    2.18
   7  -1   7   63.36    2.47
  -7   1  -8   37.36    1.86
  -7   1  -8   39.45    1.82
  -7   1  -8   39.40    1.77
   7  -1   8   38.59    1.67
  -7   1  -9   26.19    1.33
  -7   1  -9   25.74    1.24
  -7   1  -9   24.90    1.14
   7  -1   9   23.45    1.11
   7  -1   9   22.04    1.06
  -7   0   6   13.17    1.03
   7   0  -6   13.55    0.93
  -7   0   6   14.62    1.06
   7   0  -5   21.50    1.36
  -7   0   5   23.40    1.12
  -7   0   5   23.44    1.21
  -7   0   5   23.35    1.51
  -7   0   4   25.54    1.41
  -7   0   4   26.33    1.77
  -7   0   4   25.42    1.36
  -7   0   4   26.06    1.67
  -7   0   3    1.96    0.52
  -7   0   3    2.48    0.51
  -7   0   3    2.98    0.50
  -7   0   3    2.24    0.44
   7   0  -3    3.45    0.64
  -7   0   3    3.05    0.61
  -7   0   3    3.98    0.77
  -7   0   3    2.68    0.47
  -7   0   3    3.29    0.53
  -7   0   2    7.97    0.85
  -7   0   2    7.35    0.83
  -7   0   2    7.60    0.85
   7   0  -2    7.43    0.89
  -7   0   2    7.90    0.96
  -7   0   2    7.67    0.85
  -7   0   2    7.69    0.83
  -7   0   2    7.51    0.80
  -7   0   1  145.32    4.48
   7   0  -1  136.35    4.23
  -7   0   1  140.35    4.44
  -7   0   1  145.25    4.46
  -7   0   1  144.55    4.51
  -7   0   1  145.33    4.52
  -7   0   1  142.24    4.08
  -7   0   0  185.55    4.98
  -7   0   0  196.82    5.69
   7   0   0  189.83    5.04
  -7   0   0  186.50    5.49
  -7   0   0  195.29    5.66
  -7   0   0  189.03    5.64
  -7   0   0  194.82    5.73
  -7   0  -1    7.71    0.83
  -7   0  -1    9.40    1.02
  -7   0  -1    9.74    1.11
  -7   0  -1    4.43    0.81
   7   0   1    8.15    0.75
  -7   0  -1    3.28    0.71
  -7   0  -1    7.55    0.93
  -7   0  -1    9.79    1.13
  -7   0  -2   19.88    1.34
  -7   0  -2   18.61    1.43
  -7   0  -2   19.22    1.55
  -7   0  -2   18.98    1.22
  -7   0  -2   18.14    1.51
  -7   0  -2   18.17    1.51
  -7   0  -2   21.80    1.67
  -7   0  -3  249.61    6.36
  -7   0  -3  246.54    6.69
  -7   0  -3  259.30    6.85
  -7   0  -3  253.19    6.52
   7   0   3  250.02    6.57
  -7   0  -3  253.26    6.85
  -7   0  -3  251.51    6.80
  -7   0  -3  253.79    6.83
  -7   0  -4   94.71    3.36
  -7   0  -4   94.47    3.56
  -7   0  -4   90.62    3.38
  -7   0  -4   97.58    3.59
   7   0   4   95.77    3.43
  -7   0  -4   87.31    3.34
  -7   0  -4   93.48    3.42
  -7   0  -4   99.20    3.50
  -7   0  -5   46.43    2.26
  -7   0  -5   47.59    2.37
  -7   0  -5   47.77    2.43
  -7   0  -5   46.23    2.10
  -7   0  -5   45.63    2.37
   7   0   5   46.53    2.23
  -7   0  -5   45.90    2.12
  -7   0  -5   45.16    2.09
  -7   0  -5   44.02    2.06
  -7   0  -6   62.84    2.25
  -7   0  -6   67.78    2.82
  -7   0  -6   63.99    2.84
  -7   0  -6   68.30    2.95
  -7   0  -6   64.68    2.33
  -7   0  -6   63.04    2.32
  -7   0  -6   59.80    2.80
   7   0   6   63.87    2.60
   7   0   6   67.95    2.78
  -7   0  -6   65.68    2.29
  -7   0  -7   67.44    2.75
  -7   0  -7   68.91    2.87
  -7   0  -7   69.31    2.89
  -7   0  -7   67.97    2.86
   7   0   7   66.82    2.66
  -7   0  -8  104.71    3.46
  -7   0  -8  100.32    3.50
   7   0   8   95.79    2.92
   7   0   8  104.70    3.33
  -7   0  -9   64.86    2.40
  -7   0  -9   64.98    2.48
  -7   0  -9   65.60    2.46
   7   0   9   70.36    2.23
   7   0   9   62.23    1.81
   7   0   9   64.84    2.28
  -7   0 -10   42.32    1.61
  -7   0 -10   41.86    1.66
  -7   0 -10   43.00    1.61
  -7  -1   7   31.76    1.51
   7   1  -7   32.84    1.27
   7   1  -6    9.22    0.83
  -7  -1   6   10.38    0.90
  -7  -1   6   10.63    0.95
   7   1  -5   40.61    1.98
  -7  -1   5   40.95    1.51
  -7  -1   5   39.84    2.10
  -7  -1   5   37.68    1.48
  -7  -1   5   39.19    2.06
   7   1  -4   59.87    2.59
  -7  -1   4   58.79    2.26
  -7  -1   4   60.67    2.81
  -7  -1   4   57.77    2.05
  -7  -1   4   56.25    2.62
  -7  -1   3   50.55    1.96
   7   1  -3   48.90    2.35
  -7  -1   3   45.02    2.49
  -7  -1   3   47.34    2.27
  -7  -1   3   49.01    1.92
  -7  -1   3   46.77    1.91
  -7  -1   3   49.00    1.88
  -7  -1   3   47.40    1.92
  -7  -1   3   47.97    2.44
  -7  -1   2   39.08    1.93
   7   1  -2   40.18    2.10
  -7  -1   2   46.07    2.47
  -7  -1   2   34.75    2.12
  -7  -1   2   41.38    1.99
  -7  -1   2   41.28    1.99
  -7  -1   2   39.14    1.90
  -7  -1   2   39.98    1.68
  -7  -1   1  151.09    4.57
   7   1  -1  143.26    4.43
  -7  -1   1  152.86    4.91
  -7  -1   1  138.73    4.72
  -7  -1   1  152.92    4.67
  -7  -1   1  153.35    4.70
  -7  -1   1  146.01    3.90
  -7  -1   0  245.45    5.96
  -7  -1   0  260.02    6.77
  -7  -1   0  266.08    6.98
   7   1   0  256.44    6.45
  -7  -1   0  272.41    7.09
  -7  -1   0  262.63    7.07
  -7  -1   0  281.93    7.24
  -7  -1   0  273.72    7.22
  -7  -1  -1   12.97    0.94
  -7  -1  -1   11.95    1.15
  -7  -1  -1   16.40    1.44
   7   1   1   13.38    1.03
  -7  -1  -1   14.04    1.29
  -7  -1  -1   14.67    1.38
  -7  -1  -1   14.53    1.41
  -7  -1  -2   31.46    1.55
  -7  -1  -2   32.25    1.89
  -7  -1  -2   33.52    2.08
   7   1   2   36.48    1.60
  -7  -1  -2   30.41    1.90
  -7  -1  -2   34.09    1.83
  -7  -1  -2   35.21    2.17
  -7  -1  -2   34.33    2.16
  -7  -1  -3  204.61    5.11
  -7  -1  -3  212.21    5.78
  -7  -1  -3  215.49    5.91
  -7  -1  -3  206.81    5.77
  -7  -1  -3  178.23    5.60
   7   1   3  180.64    5.38
  -7  -1  -3  206.89    5.93
  -7  -1  -3  207.63    5.96
  -7  -1  -4  191.00    5.01
  -7  -1  -4  194.53    5.54
  -7  -1  -4  188.60    5.35
  -7  -1  -4  191.36    5.59
  -7  -1  -4  198.70    5.73
   7   1   4  192.48    5.39
  -7  -1  -4  186.71    5.41
  -7  -1  -4  188.28    5.44
  -7  -1  -5   14.67    1.15
  -7  -1  -5   15.75    1.17
  -7  -1  -5   13.80    1.27
  -7  -1  -5   13.47    1.28
  -7  -1  -5   15.96    1.19
  -7  -1  -5   12.36    1.25
   7   1   5   14.08    1.20
  -7  -1  -5   13.57    1.10
  -7  -1  -5   14.03    1.12
  -7  -1  -6    9.20    0.93
  -7  -1  -6    8.79    1.02
  -7  -1  -6    7.99    0.77
  -7  -1  -6    9.94    1.12
   7   1   6   11.02    1.06
   7   1   6    9.67    1.00
  -7  -1  -6    9.74    0.86
  -7  -1  -6    7.87    0.74
  -7  -1  -6    8.89    0.80
  -7  -1  -7   90.92    3.23
  -7  -1  -7   96.58    3.60
  -7  -1  -7   83.22    3.42
   7   1   7   94.85    3.26
   7   1   7   93.87    3.32
  -7  -1  -8   49.99    2.20
  -7  -1  -8   49.18    2.38
  -7  -1  -8   48.14    2.34
   7   1   8   49.61    2.09
   7   1   8   45.07    2.13
  -7  -1  -9   40.10    1.85
  -7  -1  -9   38.25    1.98
   7   1   9   41.00    1.65
   7   1   9   42.09    1.71
   7   1   9   42.38    1.86
  -7  -1 -10    7.54    0.67
  -7  -1 -10    6.34    0.69
   7   1  10    6.72    0.53
   7   1  10    6.63    0.62
  -7  -2   7   31.90    1.51
   7   2  -7   30.80    1.22
  -7  -2   7   31.57    1.42
   7   2  -6   43.21    1.84
  -7  -2   6   43.65    2.00
   7   2  -5   10.62    0.99
  -7  -2   5    8.80    1.04
  -7  -2   5   10.18    1.02
   7   2  -4   91.95    3.34
  -7  -2   4   88.03    3.52
  -7  -2   4   89.76    3.13
  -7  -2   4   86.44    3.34
  -7  -2   3   71.42    2.39
   7   2  -3   68.64    2.85
   7   2  -3   69.17    2.38
  -7  -2   3   73.66    3.16
  -7  -2   3   68.68    2.90
  -7  -2   3   66.93    2.37
  -7  -2   3   70.23    2.43
  -7  -2   2    1.18    0.40
   7   2  -2    0.86    0.41
  -7  -2   2    0.83    0.48
  -7  -2   2    0.63    0.39
  -7  -2   2    0.46    0.31
  -7  -2   2    0.91    0.38
  -7  -2   1  188.19    5.58
  -7  -2   1  187.31    5.28
  -7  -2   1  201.63    5.76
  -7  -2   1  197.66    5.52
  -7  -2   1  199.03    5.60
  -7  -2   0  187.25    5.31
   7   2   0  190.49    5.21
  -7  -2   0  193.21    5.51
  -7  -2   0  185.89    5.56
  -7  -2   0  192.31    5.64
  -7  -2   0  190.81    5.83
  -7  -2   0  191.34    5.79
  -7  -2  -1   12.46    1.12
   7   2   1   13.27    1.05
  -7  -2  -1   11.12    1.08
  -7  -2  -1   11.78    1.17
  -7  -2  -1   10.97    1.02
  -7  -2  -1   12.85    1.30
  -7  -2  -1   11.08    1.29
  -7  -2  -1   11.19    1.24
  -7  -2  -2    1.13    0.48
  -7  -2  -2    1.00    0.50
   7   2   2    0.80    0.35
  -7  -2  -2    0.69    0.38
  -7  -2  -2    1.53    0.54
  -7  -2  -2    0.36    0.44
  -7  -2  -2    0.52    0.40
  -7  -2  -3  177.95    4.22
  -7  -2  -3  174.05    5.07
   7   2   3  176.88    4.42
  -7  -2  -3  175.50    5.22
  -7  -2  -3  166.66    5.12
  -7  -2  -3  178.86    5.22
   7   2   3  172.82    4.94
  -7  -2  -3  170.31    5.38
  -7  -2  -3  161.55    5.23
  -7  -2  -4  255.75    5.88
  -7  -2  -4  241.99    6.58
  -7  -2  -4  261.76    6.77
   7   2   4  266.00    5.70
  -7  -2  -4  259.84    6.60
  -7  -2  -4  246.40    6.85
  -7  -2  -4  258.95    6.79
   7   2   4  252.58    6.54
  -7  -2  -4  256.60    6.73
  -7  -2  -4  257.25    6.75
  -7  -2  -5   14.08    1.01
  -7  -2  -5   16.69    1.37
  -7  -2  -5   14.87    1.15
  -7  -2  -5   15.57    1.37
   7   2   5   16.92    1.29
  -7  -2  -5   17.49    1.27
  -7  -2  -5   16.70    1.23
  -7  -2  -6   10.71    0.94
  -7  -2  -6   11.06    1.13
  -7  -2  -6   12.20    0.96
  -7  -2  -6   12.93    1.26
   7   2   6   12.04    1.12
   7   2   6   12.74    1.10
  -7  -2  -6   11.63    0.94
  -7  -2  -6   12.12    0.94
  -7  -2  -7   61.01    2.37
  -7  -2  -7   59.36    2.74
  -7  -2  -7   60.63    2.79
   7   2   7   63.19    2.63
   7   2   7   63.67    2.59
  -7  -2  -8  126.24    4.24
  -7  -2  -8  124.29    4.16
   7   2   8  134.02    4.05
   7   2   8  126.83    3.93
  -7  -2  -9   16.61    1.10
  -7  -2  -9   15.47    1.26
   7   2   9   15.99    0.95
  -7  -2  -9   15.58    1.18
   7   2   9   16.17    1.12
   7   2   9   16.99    1.16
  -7  -2 -10    0.36    0.31
  -7  -2 -10    0.81    0.27
   7   2  10    0.92    0.32
   7   2  10    0.33    0.23
  -7  -3   7   70.55    2.33
  -7  -3   7   71.99    2.39
   7   3  -6   22.25    1.21
  -7  -3   6   22.19    1.43
   7   3  -6   21.32    1.04
  -7  -3   6   21.74    1.28
   7   3  -5   17.30    1.25
  -7  -3   5   17.28    1.37
   7   3  -5   18.77    1.05
  -7  -3   5   20.13    1.26
  -7  -3   5   18.34    1.29
   7   3  -4   52.31    2.04
   7   3  -4   48.25    2.29
  -7  -3   4   52.31    2.53
  -7  -3   4   49.92    2.30
  -7  -3   4   48.97    2.31
   7   3  -3   26.97    1.69
  -7  -3   3   28.20    1.36
  -7  -3   3   25.20    1.76
   7   3  -3   26.74    1.31
  -7  -3   3   26.86    1.73
  -7  -3   3   25.87    1.35
  -7  -3   3   27.52    1.42
   7   3  -2   99.90    3.02
   7   3  -2   89.23    3.36
  -7  -3   2   97.33    3.58
   7   3  -2   94.96    3.09
  -7  -3   2   97.38    3.59
  -7  -3   2   89.66    3.04
  -7  -3   2   93.32    3.23
  -7  -3   2   94.00    3.18
   7   3  -1   41.75    1.72
   7   3  -1   38.10    2.00
  -7  -3   1   37.43    2.05
  -7  -3   1   36.54    2.08
  -7  -3   1   35.39    1.86
  -7  -3   1   36.45    2.00
  -7  -3   1   37.57    1.99
   7   3   0  166.78    4.17
  -7  -3   0  167.68    4.69
   7   3   0  161.42    4.68
  -7  -3   0  160.62    4.76
  -7  -3   0  159.11    4.90
  -7  -3   0  155.20    4.41
  -7  -3   0  157.33    5.02
  -7  -3   0  150.28    4.90
  -7  -3  -1   53.17    2.33
   7   3   1   54.16    2.32
  -7  -3  -1   55.98    2.39
  -7  -3  -1   59.78    2.63
  -7  -3  -1   56.45    2.42
   7   3   1   56.06    2.20
  -7  -3  -1   51.56    2.66
  -7  -3  -1   54.31    2.67
  -7  -3  -2    9.28    0.92
  -7  -3  -2    6.71    0.98
   7   3   2    7.64    0.81
  -7  -3  -2    8.65    0.97
  -7  -3  -2    7.85    0.92
   7   3   2    8.38    0.82
  -7  -3  -2    6.72    0.97
  -7  -3  -3  346.42    8.20
   7   3   3  352.31    7.84
  -7  -3  -3  349.22    8.54
  -7  -3  -3  355.00    8.47
   7   3   3  351.56    8.08
  -7  -3  -3  349.53    8.74
  -7  -3  -3  348.49    8.71
  -7  -3  -4  200.26    5.56
  -7  -3  -4  210.66    5.68
   7   3   4  207.45    5.07
  -7  -3  -4  209.75    5.95
  -7  -3  -4  212.73    5.75
   7   3   4  210.64    5.59
  -7  -3  -4  208.28    5.64
  -7  -3  -4  213.73    5.85
  -7  -3  -4  201.36    5.68
  -7  -3  -5    7.62    0.89
  -7  -3  -5    7.51    0.84
  -7  -3  -5    7.55    0.83
   7   3   5    8.00    0.68
   7   3   5    7.42    0.78
  -7  -3  -5    6.77    0.92
  -7  -3  -5    5.76    0.80
   7   3   5    6.74    0.83
   7   3   5    8.06    0.79
  -7  -3  -5    7.74    0.84
  -7  -3  -6   14.61    0.92
  -7  -3  -6   14.26    1.25
   7   3   6   14.88    1.00
  -7  -3  -6   12.29    0.97
  -7  -3  -6   14.95    1.33
   7   3   6   15.54    1.24
  -7  -3  -6   14.51    1.06
   7   3   6   14.86    1.11
  -7  -3  -6   14.32    1.03
  -7  -3  -6   15.76    1.07
  -7  -3  -7  120.91    4.08
  -7  -3  -7  118.08    4.13
   7   3   7  125.71    4.01
  -7  -3  -7  118.04    3.47
   7   3   7  124.15    3.75
  -7  -3  -8   85.72    3.27
  -7  -3  -8   91.12    3.36
   7   3   8   86.34    3.17
   7   3   8   86.80    2.98
  -7  -3  -9   63.61    2.61
  -7  -3  -9   64.87    2.55
   7   3   9   63.54    2.49
   7   3   9   64.18    2.35
  -7  -3 -10   18.34    0.97
  -7  -3 -10   19.39    1.22
  -7  -3 -10   18.39    1.08
   7   3  10   19.29    1.14
   7   3  10   18.30    1.04
   7   3  10   18.41    1.04
  -7  -3 -11   22.65    0.80
  -7  -3 -11   22.94    1.09
   7   3  11   22.30    1.00
  -7  -4   7   78.38    2.26
   7   4  -7   80.95    2.36
  -7  -4   7   83.12    2.57
   7   4  -6   57.73    2.06
   7   4  -6   58.08    1.96
  -7  -4   6   56.19    2.34
   7   4  -6   60.11    1.99
  -7  -4   6   54.42    1.98
  -7  -4   6   55.10    1.93
   7   4  -5   12.78    1.01
   7   4  -5   10.92    0.94
  -7  -4   5   11.62    1.11
   7   4  -5   13.41    0.94
  -7  -4   5   12.36    1.02
  -7  -4   5   11.05    0.90
   7   4  -4    8.87    0.93
   7   4  -4    7.96    0.88
  -7  -4   4    8.94    1.02
   7   4  -4    7.04    0.71
  -7  -4   4    7.75    0.90
  -7  -4   4    8.53    0.88
   7   4  -3  152.63    4.41
   7   4  -3  143.65    4.46
  -7  -4   3  152.55    4.74
   7   4  -3  143.97    3.77
   7   4  -3  150.76    3.84
  -7  -4   3  139.34    4.54
  -7  -4   3  149.19    3.84
  -7  -4   3  142.45    3.93
  -7  -4   3  145.07    3.90
   7   4  -2   75.74    2.83
   7   4  -2   76.50    2.99
  -7  -4   2   78.10    3.08
   7   4  -2   75.88    2.61
  -7  -4   2   73.90    3.05
  -7  -4   2   73.04    2.75
  -7  -4   2   71.15    2.68
   7   4  -1  134.74    4.04
   7   4  -1  130.10    4.21
  -7  -4   1  138.24    4.27
   7   4  -1  141.20    4.04
  -7  -4   1  133.47    4.38
  -7  -4   1  133.97    3.76
  -7  -4   1  129.13    4.13
   7   4   0  184.26    5.02
   7   4   0  190.19    5.29
   7   4   0  192.36    5.15
  -7  -4   0  185.09    5.14
  -7  -4   0  189.12    5.43
  -7  -4   0  184.74    4.97
   7   4   0  194.28    4.54
  -7  -4   0  180.18    5.28
   7   4   1   55.76    2.29
  -7  -4  -1   52.21    2.20
   7   4   1   51.91    2.33
   7   4   1   54.69    2.35
  -7  -4  -1   54.76    2.25
  -7  -4  -1   59.07    2.58
  -7  -4  -1   53.74    2.34
   7   4   1   55.25    2.02
  -7  -4  -1   52.35    2.49
   7   4   2   76.67    2.78
  -7  -4  -2   78.14    2.78
   7   4   2   79.09    2.88
   7   4   2   73.68    2.84
  -7  -4  -2   71.27    2.92
  -7  -4  -2   81.89    3.06
   7   4   2   83.05    2.69
  -7  -4  -2   74.31    3.03
   7   4   3   92.58    3.12
  -7  -4  -3   99.08    3.21
   7   4   3   94.71    3.19
   7   4   3   96.65    3.28
  -7  -4  -3   94.83    3.39
  -7  -4  -3   95.65    3.49
   7   4   3   94.16    3.09
  -7  -4  -3   96.85    3.47
   7   4   4  142.96    4.11
  -7  -4  -4  137.50    4.13
   7   4   4  140.65    4.01
   7   4   4  134.37    4.03
  -7  -4  -4  143.90    4.51
  -7  -4  -4  142.64    4.29
   7   4   4  142.37    4.12
   7   4   4  132.67    3.56
  -7  -4  -4  140.42    4.32
   7   4   5   20.35    1.33
  -7  -4  -5   19.76    1.37
   7   4   5   22.15    1.27
   7   4   5   20.76    1.27
  -7  -4  -5   21.33    1.57
  -7  -4  -5   20.48    1.38
   7   4   5   19.76    1.37
   7   4   5   22.06    1.18
  -7  -4  -5   21.56    1.41
  -7  -4  -5   21.45    1.39
  -7  -4  -6    5.28    0.75
  -7  -4  -6    6.60    0.71
   7   4   6    5.45    0.59
  -7  -4  -6    6.65    0.91
   7   4   6    5.58    0.77
   7   4   6    5.08    0.60
  -7  -4  -6    6.21    0.69
  -7  -4  -6    5.73    0.68
  -7  -4  -7   61.43    2.57
  -7  -4  -7   60.25    2.74
   7   4   7   67.71    2.72
  -7  -4  -7   60.86    2.52
   7   4   7   60.17    2.27
   7   4   7   65.28    2.13
  -7  -4  -8   74.16    2.78
  -7  -4  -8   73.54    2.90
   7   4   8   71.50    2.83
  -7  -4  -8   70.24    2.64
   7   4   8   69.95    2.46
   7   4   8   70.00    2.37
  -7  -4  -9    7.61    0.79
  -7  -4  -9    9.02    0.88
   7   4   9    8.51    0.87
   7   4   9    8.15    0.74
   7   4   9    9.78    0.80
  -7  -4  -9    8.67    0.79
  -7  -4 -10    1.44    0.34
  -7  -4 -10    2.22    0.39
   7   4  10    2.67    0.46
   7   4  10    2.98    0.40
  -7  -4 -10    1.00    0.31
   7   4  10    2.22    0.39
   7   4  11    1.74    0.30
   7   5  -7   84.59    2.50
  -7  -5   7   84.92    2.49
   7   5  -6  107.36    3.24
  -7  -5   6  109.92    3.31
   7   5  -6  104.42    2.93
  -7  -5   6  105.62    3.06
   7   5  -5    3.79    0.63
   7   5  -5    3.51    0.51
  -7  -5   5    4.26    0.67
   7   5  -5    4.49    0.56
  -7  -5   5    3.62    0.60
   7   5  -4   38.61    2.08
   7   5  -4   39.39    1.87
  -7  -5   4   38.77    2.03
   7   5  -4   42.27    1.81
  -7  -5   4   38.78    2.06
  -7  -5   4   42.25    1.70
   7   5  -3  209.86    5.79
   7   5  -3  204.82    5.53
  -7  -5   3  210.09    5.71
   7   5  -3  204.24    4.83
   7   5  -3  200.03    5.05
   7   5  -3  203.16    4.84
  -7  -5   3  198.68    5.77
  -7  -5   3  204.61    4.98
  -7  -5   3  206.15    4.95
   7   5  -2  138.20    4.43
   7   5  -2  131.45    4.28
  -7  -5   2  136.82    4.26
   7   5  -2  135.06    3.86
   7   5  -2  149.00    3.80
  -7  -5   2  141.83    4.55
  -7  -5   2  139.95    3.78
  -7  -5   2  140.26    4.02
   7   5  -1   24.40    1.60
   7   5  -1   24.85    1.60
  -7  -5   1   25.10    1.51
   7   5  -1   24.36    1.43
  -7  -5   1   22.41    1.59
  -7  -5   1   25.62    1.43
  -7  -5   1   21.35    1.42
   7   5   0   26.67    1.66
   7   5   0   24.37    1.59
  -7  -5   0   25.29    1.43
   7   5   0   21.69    1.42
  -7  -5   0   24.04    1.64
  -7  -5   0   26.07    1.52
  -7  -5   0   27.10    1.63
   7   5   1  112.37    3.71
  -7  -5  -1  107.24    3.25
   7   5   1  108.57    3.67
  -7  -5  -1  107.06    3.20
   7   5   1  113.80    3.58
  -7  -5  -1  104.20    3.65
  -7  -5  -1  104.71    3.56
  -7  -5  -1  106.57    3.66
   7   5   2   56.64    2.48
  -7  -5  -2   54.98    2.16
   7   5   2   59.53    2.50
   7   5   2   59.01    2.42
  -7  -5  -2   58.16    2.51
  -7  -5  -2   56.29    2.50
   7   5   2   59.30    2.02
  -7  -5  -2   59.48    2.54
   7   5   3   93.22    3.32
  -7  -5  -3   93.12    2.97
   7   5   3   92.57    3.27
   7   5   3   88.97    3.14
  -7  -5  -3   98.66    3.49
  -7  -5  -3   94.49    3.27
   7   5   3   88.74    2.83
  -7  -5  -3   92.82    3.30
   7   5   4  110.21    3.76
  -7  -5  -4  111.91    3.41
   7   5   4  113.96    3.66
   7   5   4  112.29    3.52
  -7  -5  -4  108.01    3.85
  -7  -5  -4  113.10    3.59
   7   5   4  116.13    3.44
  -7  -5  -4  115.84    3.70
  -7  -5  -5   55.01    2.17
   7   5   5   46.91    2.10
   7   5   5   45.89    1.96
  -7  -5  -5   46.36    2.33
  -7  -5  -5   47.80    1.99
   7   5   5   45.97    2.06
  -7  -5  -5   49.75    2.11
   7   5   6   29.70    1.42
   7   5   6   29.50    1.45
  -7  -5  -6   28.15    1.82
   7   5   6   31.70    1.72
  -7  -5  -6   28.60    1.47
  -7  -5  -7   31.36    1.57
  -7  -5  -7   27.74    1.75
   7   5   7   30.73    1.73
   7   5   7   31.35    1.37
   7   5   7   27.42    1.26
  -7  -5  -8   37.64    1.68
  -7  -5  -8   38.87    1.97
   7   5   8   36.60    1.89
   7   5   8   37.33    1.59
  -7  -5  -8   37.46    1.94
   7   5   8   37.67    1.49
  -7  -5  -9   29.90    1.34
  -7  -5  -9   26.49    1.40
   7   5   9   25.59    1.48
   7   5   9   28.25    1.35
  -7  -5  -9   27.20    1.49
   7   5   9   27.11    1.14
  -7  -5 -10    2.57    0.37
   7   5  10    3.11    0.47
  -7  -5 -10    3.53    0.49
   7   5  10    3.11    0.42
   7   6  -6   79.61    2.68
  -7  -6   6   81.31    2.51
  -7  -6   6   83.49    2.53
   7   6  -5    7.20    0.83
  -7  -6   5    7.78    0.77
  -7  -6   5    6.45    0.73
   7   6  -4   14.42    1.25
   7   6  -4   12.59    0.93
  -7  -6   4   15.26    1.12
  -7  -6   4   14.73    1.21
   7   6  -3   78.33    2.31
   7   6  -3   73.35    3.11
   7   6  -3   72.99    2.70
  -7  -6   3   80.68    2.85
   7   6  -3   76.86    2.38
  -7  -6   3   75.70    3.06
   7   6  -3   77.46    2.37
  -7  -6   3   74.04    2.35
   7   6  -2  108.54    3.87
   7   6  -2  100.11    3.43
  -7  -6   2  105.49    3.33
   7   6  -2  101.46    3.13
   7   6  -2  110.62    3.26
  -7  -6   2   98.07    3.65
  -7  -6   2  102.66    3.18
  -7  -6   2   92.77    3.08
   7   6  -1   34.42    2.05
   7   6  -1   39.99    2.03
  -7  -6   1   37.67    1.72
   7   6  -1   36.05    1.80
   7   6  -1   41.22    1.93
  -7  -6   1   38.40    2.11
  -7  -6   1   36.77    1.84
  -7  -6   1   39.09    1.89
   7   6   0   27.33    1.79
   7   6   0   28.59    1.73
  -7  -6   0   27.98    1.36
   7   6   0   29.99    1.66
   7   6   0   27.65    1.62
  -7  -6   0   28.36    1.77
  -7  -6   0   26.74    1.63
   7   6   1   90.71    3.48
   7   6   1   90.56    3.30
   7   6   1   85.56    3.07
  -7  -6  -1   83.30    3.14
  -7  -6  -1   83.77    3.17
   7   6   2   52.29    2.51
   7   6   2   55.26    2.47
   7   6   2   50.63    2.25
  -7  -6  -2   53.73    2.31
  -7  -6  -2   50.61    2.40
   7   6   3   30.69    1.89
   7   6   3   25.74    1.66
   7   6   3   25.45    1.52
  -7  -6  -3   24.42    1.65
  -7  -6  -3   25.48    1.47
   7   6   3   23.79    1.17
   7   6   4   43.01    2.26
   7   6   4   42.21    2.12
   7   6   4   43.23    1.99
   7   6   4   39.75    1.95
  -7  -6  -4   38.41    2.12
  -7  -6  -4   44.49    1.86
   7   6   4   41.12    1.73
   7   6   5    9.89    1.12
   7   6   5   10.86    1.04
   7   6   5    9.98    0.89
   7   6   5   10.01    0.92
  -7  -6  -5    9.61    1.04
  -7  -6  -5   10.08    0.77
   7   6   5    9.99    0.87
  -7  -6  -5    9.47    0.88
  -7  -6  -6    0.47    0.31
   7   6   6    0.53    0.25
  -7  -6  -6    0.24    0.33
   7   6   6    0.47    0.31
   7   6   6    0.33    0.27
  -7  -6  -6    0.21    0.22
   7   6   7   17.38    0.99
  -7  -6  -7   20.54    1.11
  -7  -6  -7   19.27    1.38
   7   6   7   19.83    1.31
  -7  -6  -8   44.04    1.65
  -7  -6  -8   42.73    1.93
   7   6   8   48.06    1.76
   7   6   8   47.02    2.04
  -7  -6  -8   46.72    2.22
  -7  -6  -9   12.89    0.86
   7   6   9   13.21    0.85
   7   6   9   13.51    0.99
  -7  -6  -9   13.56    1.05
   7   6  10    0.79    0.27
  -7  -6 -10    1.73    0.36
   7   6  10    1.37    0.27
   7   7  -6   48.36    1.81
   7   7  -5    3.98    0.60
  -7  -7   5    4.88    0.49
  -7  -7   5    3.54    0.51
   7   7  -4   10.16    1.01
  -7  -7   4    7.73    0.69
  -7  -7   4    9.34    0.90
   7   7  -3   82.50    2.28
   7   7  -3   76.95    3.13
   7   7  -3   77.13    3.15
   7   7  -3   73.62    2.49
  -7  -7   3   78.52    2.48
  -7  -7   3   78.02    2.96
  -7  -7   3   73.61    2.42
   7   7  -2  133.76    3.63
   7   7  -2  134.46    4.45
   7   7  -2  128.73    3.82
  -7  -7   2  122.87    3.38
   7   7  -2  135.77    3.70
  -7  -7   2  130.04    4.17
   7   7  -2  132.09    3.68
  -7  -7   2  129.38    3.79
  -7  -7   2  125.71    3.60
   7   7  -1   24.80    1.42
   7   7  -1   24.88    1.75
   7   7  -1   23.30    1.49
   7   7  -1   23.48    1.42
   7   7  -1   22.68    1.42
  -7  -7   1   24.57    1.60
  -7  -7   1   26.49    1.58
   7   7   0   13.88    1.19
   7   7   0   11.40    1.04
   7   7   0   11.84    1.06
  -7  -7   0   10.04    1.01
  -7  -7   0   12.03    1.12
   7   7   0   13.06    1.27
   7   7   1   46.11    2.44
   7   7   1   47.81    2.32
   7   7   1   48.05    2.21
   7   7   1   50.75    2.31
  -7  -7  -1   44.99    2.11
  -7  -7  -1   46.72    2.31
   7   7   2  109.25    3.93
   7   7   2  103.06    3.69
   7   7   2  101.22    3.48
   7   7   2  101.09    3.53
  -7  -7  -2  101.27    3.25
  -7  -7  -2  106.21    3.74
   7   7   3   60.08    2.80
   7   7   3   60.36    2.70
   7   7   3   57.80    2.45
   7   7   3   60.23    2.54
  -7  -7  -3   59.90    2.67
  -7  -7  -3   58.99    2.16
   7   7   4   20.21    1.59
   7   7   4   21.24    1.53
   7   7   4   21.64    1.39
   7   7   4   19.95    1.36
  -7  -7  -4   22.53    1.56
   7   7   5   33.36    1.69
   7   7   5   34.28    2.08
   7   7   5   37.31    1.76
   7   7   5   33.45    1.71
  -7  -7  -5   33.94    1.90
   7   7   5   33.20    1.47
   7   7   6   30.97    1.50
   7   7   6   28.97    1.87
   7   7   6   28.66    1.40
   7   7   6   25.91    1.36
  -7  -7  -6   29.30    1.69
   7   7   6   30.04    1.44
  -7  -7  -6   29.91    1.42
   7   7   7   32.26    1.36
   7   7   7   34.25    2.00
  -7  -7  -7   34.29    1.70
   7   7   7   34.36    1.58
   7   7   8   16.34    1.30
  -7  -7  -8   16.00    1.01
   7   7   8   16.77    0.88
   7   7   8   15.80    1.01
  -7  -7  -8   16.36    1.23
   7   7   9   12.25    1.02
   7   7   9   12.73    0.72
   7   7   9   13.74    0.87
  -7  -7  -9   12.90    0.96
   7   7  10    0.62    0.25
   7   7  10    0.64    0.19
   7   8  -5   43.16    1.58
   7   8  -5   40.46    1.67
   7   8  -4    2.49    0.48
  -7  -8   4    2.66    0.43
   7   8  -3   85.94    3.12
  -7  -8   3   80.88    2.78
  -7  -8   3   85.23    2.51
   7   8  -2  165.90    4.16
   7   8  -2  170.37    5.01
   7   8  -2  166.44    4.21
   7   8  -2  170.35    4.19
  -7  -8   2  163.03    4.53
  -7  -8   2  165.95    4.40
   7   8  -2  163.52    4.15
  -7  -8   2  160.17    4.05
   7   8  -1   64.99    2.41
   7   8  -1   65.31    2.87
   7   8  -1   64.12    2.42
   7   8  -1   67.90    2.48
  -7  -8   1   64.10    2.49
  -7  -8   1   66.12    2.59
   7   8  -1   68.77    2.48
   7   8   0    2.63    0.50
   7   8   0    2.80    0.64
   7   8   0    3.00    0.57
   7   8   0    2.06    0.47
  -7  -8   0    2.49    0.55
  -7  -8   0    2.43    0.48
   7   8   0    2.68    0.52
   7   8   1   26.96    1.62
   7   8   1   26.40    1.79
   7   8   1   26.59    1.82
   7   8   1   29.27    1.71
   7   8   1   27.95    1.65
   7   8   1   30.20    1.72
  -7  -8  -1   27.49    1.43
  -7  -8  -1   28.51    1.74
   7   8   2  119.30    3.88
   7   8   2  123.47    4.28
   7   8   2  122.82    4.04
   7   8   2  123.92    3.92
   7   8   2  125.82    3.97
  -7  -8  -2  123.89    4.08
  -7  -8  -2  123.10    3.30
   7   8   3   46.32    2.16
   7   8   3   43.93    2.37
   7   8   3   47.54    2.17
   7   8   3   45.79    2.16
  -7  -8  -3   48.28    2.29
   7   8   4    3.56    0.61
   7   8   4    3.45    0.70
   7   8   4    3.62    0.58
  -7  -8  -4    3.51    0.62
   7   8   4    3.78    0.62
   7   8   5    2.24    0.48
   7   8   5    2.74    0.66
   7   8   5    3.15    0.50
  -7  -8  -5    2.45    0.50
   7   8   5    2.09    0.45
   7   8   6   46.95    1.86
   7   8   6   50.87    2.43
   7   8   6   49.45    1.83
  -7  -8  -6   50.19    2.06
   7   8   6   47.83    1.82
  -7  -8  -6   46.51    1.76
   7   8   7   22.65    1.50
  -7  -8  -7   21.23    1.15
  -7  -8  -7   24.09    1.49
   7   8   8    8.56    0.85
  -7  -8  -8   10.27    0.87
   7   8   9    1.04    0.30
  -7  -8  -9    1.05    0.30
   7   9  -3   30.41    1.27
   7   9  -3   31.66    1.49
  -7  -9   3   31.88    1.25
   7   9  -2   68.99    2.02
   7   9  -2   69.51    2.57
   7   9  -2   68.40    2.11
   7   9  -2   69.99    2.51
   7   9  -2   67.44    1.91
  -7  -9   2   68.63    2.14
  -7  -9   2   72.19    2.28
   7   9  -2   61.78    1.83
  -7  -9   2   63.68    1.81
   7   9  -1   17.65    1.08
   7   9  -1   17.19    1.27
   7   9  -1   16.69    0.90
   7   9  -1   17.26    1.23
   7   9  -1   16.62    1.01
  -7  -9   1   15.95    0.94
  -7  -9   1   17.88    1.14
   7   9  -1   17.66    1.03
   7   9   0    7.25    0.76
   7   9   0    5.73    0.78
   7   9   0    5.88    0.67
  -7  -9   0    7.71    0.80
   7   9   0    6.73    0.72
  -7  -9   0    6.27    0.55
   7   9   1   16.89    1.20
   7   9   1   14.53    1.22
   7   9   1   16.25    1.16
  -7  -9  -1   16.52    1.21
   7   9   1   18.00    1.21
   7   9   2  100.73    3.36
   7   9   2  102.32    3.56
   7   9   2  103.99    3.62
   7   9   2  101.49    3.30
  -7  -9  -2  105.23    3.41
   7   9   2  104.47    3.35
   7   9   3   20.21    1.31
   7   9   3   19.29    1.38
   7   9   3   19.26    1.41
   7   9   3   16.84    1.18
  -7  -9  -3   20.36    1.32
   7   9   3   18.95    1.25
   7   9   4   10.98    0.93
   7   9   4   10.44    1.03
   7   9   4   10.06    0.86
  -7  -9  -4    9.14    0.87
   7   9   4    8.77    0.81
   7   9   5    6.80    0.68
   7   9   5    6.05    0.79
   7   9   5    6.95    0.65
   7   9   5    7.17    0.67
  -7  -9  -5    5.87    0.64
   7   9   6    8.91    0.67
   7   9   6   10.51    0.95
   7   9   6    9.64    0.62
  -7  -9  -6    8.05    0.66
   7   9   6    8.51    0.60
  -7  -9  -6    8.47    0.57
   7   9   7    1.77    0.40
  -7  -9  -7    3.15    0.49
   7  10  -1   15.98    0.81
   7  10  -1   16.28    0.86
  -7 -10   1   17.05    0.91
   7  10   0    2.87    0.42
   7  10   0    3.76    0.50
   7  10   0    3.21    0.40
   7  10   0    3.98    0.45
  -7 -10   0    3.65    0.47
   7  10   0    3.24    0.44
   7  10   1   11.23    0.86
   7  10   1   10.08    0.81
   7  10   1   11.98    0.76
   7  10   1   11.47    0.82
  -7 -10  -1   11.06    0.82
   7  10   1   11.91    0.82
   7  10   2   71.11    2.40
   7  10   2   66.79    2.32
   7  10   2   67.58    2.26
  -7 -10  -2   67.03    2.27
   7  10   2   71.66    2.30
   7  10   3   17.59    1.07
   7  10   3   17.83    1.06
   7  10   3   17.23    1.01
  -7 -10  -3   17.48    1.01
   7  10   3   18.28    1.04
   7  10   4    1.58    0.33
   7  10   4    1.38    0.30
   7  10   4    1.10    0.32
   7  10   4    1.36    0.31
  -7 -10  -4    0.89    0.27
   7  10   4    1.37    0.31
   7  10   5    0.34    0.19
   7  10   5    0.31    0.16
   7  10   5    0.41    0.24
  -8   3  -1   17.80    1.09
  -8   3  -1   17.16    1.06
  -8   3  -1   17.53    0.98
  -8   3  -1   18.67    1.03
  -8   3  -2   27.95    1.39
  -8   3  -2   29.13    1.41
  -8   3  -2   27.68    1.12
  -8   3  -2   29.74    1.36
  -8   3  -3   83.78    2.49
  -8   3  -3   78.16    2.44
  -8   3  -3   82.85    2.51
  -8   2   2   58.60    1.79
  -8   2   2   61.74    1.84
  -8   2   2   65.86    2.28
  -8   2   2   63.63    2.08
  -8   2   1  159.59    3.94
  -8   2   1  154.81    4.06
  -8   2   1  147.37    3.98
  -8   2   1  165.89    4.47
  -8   2   1  154.76    3.91
  -8   2   1  152.42    4.02
  -8   2   0   35.18    1.69
  -8   2   0   34.63    1.78
  -8   2   0   39.01    1.94
  -8   2   0   37.84    1.83
  -8   2   0   38.09    1.75
  -8   2   0   34.42    1.62
  -8   2  -1    3.29    0.53
  -8   2  -1    3.21    0.58
  -8   2  -1    3.22    0.60
  -8   2  -1    3.92    0.66
  -8   2  -1    3.16    0.62
   8  -2   1    3.87    0.54
  -8   2  -1    3.83    0.61
  -8   2  -2  105.53    3.33
  -8   2  -2  105.50    3.48
  -8   2  -2  111.83    3.68
  -8   2  -2  104.64    3.28
  -8   2  -2  108.94    3.63
   8  -2   2  108.86    3.16
  -8   2  -2  106.98    3.49
  -8   2  -3  154.34    4.22
  -8   2  -3  149.87    4.14
  -8   2  -3  150.90    4.32
  -8   2  -3  142.31    3.71
  -8   2  -3  149.84    4.29
   8  -2   3  151.79    3.87
  -8   2  -3  142.96    4.10
  -8   2  -4   40.78    1.82
  -8   2  -4   37.93    1.62
  -8   2  -4   38.19    1.69
  -8   2  -4   35.87    1.67
   8  -2   4   38.73    1.48
  -8   2  -4   39.14    1.64
  -8   2  -5    3.39    0.42
  -8   2  -5    4.26    0.57
  -8   2  -5    4.17    0.45
  -8   2  -5    4.58    0.43
   8  -2   5    5.14    0.54
  -8   2  -5    4.17    0.44
  -8   2  -6    2.69    0.43
  -8   1   4   10.52    0.66
  -8   1   4   11.67    0.68
  -8   1   4   11.14    0.76
   8  -1  -3   11.08    0.78
  -8   1   3   10.60    0.84
  -8   1   3   11.23    0.78
  -8   1   3   10.77    0.83
  -8   1   2  113.91    3.07
  -8   1   2  112.23    3.17
   8  -1  -2  116.63    3.14
  -8   1   2  114.04    3.61
  -8   1   2  115.33    3.16
  -8   1   2  110.14    3.02
  -8   1   2  113.39    3.24
  -8   1   2  113.23    3.38
  -8   1   1  111.89    3.42
  -8   1   1  109.36    3.53
   8  -1  -1  103.82    2.88
  -8   1   1  109.81    3.78
  -8   1   1  112.17    3.52
  -8   1   1  111.45    3.39
  -8   1   1  105.21    3.25
  -8   1   1  111.09    3.41
  -8   1   0   15.51    1.26
  -8   1   0   13.24    1.22
  -8   1   0   14.97    1.33
  -8   1   0   14.94    1.26
  -8   1   0   14.88    1.22
  -8   1   0   12.79    1.00
  -8   1   0   13.76    1.06
  -8   1  -1    1.87    0.49
  -8   1  -1    1.65    0.41
  -8   1  -1    2.31    0.63
  -8   1  -1    1.72    0.56
  -8   1  -1    1.43    0.52
  -8   1  -1    2.10    0.63
  -8   1  -1    2.43    0.61
  -8   1  -2   13.25    1.26
  -8   1  -2   14.53    1.12
  -8   1  -2   14.98    1.37
  -8   1  -2   13.10    1.20
  -8   1  -2   12.89    1.27
   8  -1   2   14.16    1.13
  -8   1  -2   14.85    1.32
  -8   1  -3   65.18    2.74
  -8   1  -3   64.79    2.53
  -8   1  -3   67.45    2.84
  -8   1  -3   58.28    2.41
  -8   1  -3   63.83    2.79
   8  -1   3   56.73    2.36
  -8   1  -3   63.72    2.70
  -8   1  -4   12.70    1.04
  -8   1  -4   12.08    1.03
  -8   1  -4   10.69    0.96
  -8   1  -4   12.78    1.08
  -8   1  -4   11.99    0.84
  -8   1  -4   11.65    1.05
   8  -1   4   12.63    0.98
  -8   1  -4   14.24    1.09
  -8   1  -5    1.29    0.41
  -8   1  -5    0.88    0.33
  -8   1  -5    0.54    0.29
  -8   1  -5    1.32    0.36
  -8   1  -5    0.78    0.29
   8  -1   5    0.95    0.30
   8  -1   5    1.50    0.42
  -8   1  -5    0.71    0.31
  -8   1  -6   28.01    1.48
  -8   1  -6   25.99    1.37
  -8   1  -6   25.87    1.12
  -8   1  -6   25.63    1.13
   8  -1   6   27.29    1.22
   8  -1   6   25.70    1.34
  -8   1  -7   37.43    1.59
   8  -1   7   35.81    1.46
  -8   0   5   54.05    1.93
   8   0  -5   60.44    1.90
  -8   0   5   59.14    2.04
   8   0  -4   28.89    1.37
  -8   0   4   25.78    1.20
  -8   0   4   26.10    1.09
  -8   0   4   25.97    1.43
  -8   0   3   14.14    0.79
   8   0  -3   13.81    1.01
  -8   0   3   15.22    1.10
  -8   0   3   13.19    0.75
  -8   0   3   15.55    0.92
  -8   0   3   14.36    1.13
  -8   0   2   83.88    2.67
  -8   0   2   79.70    2.70
   8   0  -2   79.75    2.76
  -8   0   2   80.10    3.04
  -8   0   2   78.49    2.66
  -8   0   2   77.87    2.59
  -8   0   2   76.96    2.51
  -8   0   2   82.74    3.08
  -8   0   1  111.75    3.74
   8   0  -1  112.86    3.37
  -8   0   1  108.64    3.92
  -8   0   1  110.35    3.68
  -8   0   1  112.47    3.63
  -8   0   1   99.54    3.13
  -8   0   1  109.67    3.62
  -8   0   0   12.94    1.27
   8   0   0    9.99    0.86
  -8   0   0   11.38    1.27
  -8   0   0   15.28    1.37
  -8   0   0   12.39    1.22
  -8   0   0   10.85    1.16
  -8   0   0   11.53    0.94
  -8   0  -1    5.99    0.95
  -8   0  -1    4.85    0.65
  -8   0  -1    6.01    0.94
  -8   0  -1    5.18    0.89
  -8   0  -1    6.94    1.01
  -8   0  -1    7.53    1.01
  -8   0  -2   88.34    3.00
  -8   0  -2   88.57    3.35
  -8   0  -2   91.91    3.78
   8   0   2   89.00    3.26
  -8   0  -2   88.56    3.73
  -8   0  -2   80.90    3.54
  -8   0  -2   86.89    3.65
  -8   0  -3  117.95    3.61
  -8   0  -3  103.35    3.78
  -8   0  -3  118.33    4.21
  -8   0  -3  112.93    3.91
   8   0   3  116.46    3.81
  -8   0  -3  107.43    4.05
  -8   0  -3  108.49    4.00
  -8   0  -3  113.91    4.08
  -8   0  -4   64.74    2.52
  -8   0  -4   62.64    2.75
  -8   0  -4   59.46    2.68
  -8   0  -4   61.56    2.44
  -8   0  -4   63.59    2.77
   8   0   4   64.44    2.62
  -8   0  -4   65.70    2.77
  -8   0  -4   65.15    2.73
  -8   0  -5    2.20    0.48
  -8   0  -5    2.64    0.61
  -8   0  -5    2.31    0.49
  -8   0  -5    1.33    0.42
   8   0   5    2.08    0.46
  -8   0  -5    1.86    0.45
  -8   0  -5    1.84    0.45
  -8   0  -6    2.22    0.45
  -8   0  -6    2.44    0.56
  -8   0  -6    2.47    0.40
  -8   0  -6    2.10    0.37
  -8   0  -6    2.85    0.44
   8   0   6    3.05    0.52
   8   0   6    3.55    0.58
  -8   0  -6    2.98    0.44
  -8   0  -7   50.08    2.02
  -8   0  -7   50.05    2.15
   8   0   7   48.49    1.83
   8   0   7   49.21    1.98
  -8   0  -8   29.97    1.38
  -8   0  -8   31.34    1.46
   8   0   8   29.11    1.26
   8   0   8   29.72    1.11
   8   0   8   29.05    1.32
   8   1  -5   28.66    1.34
  -8  -1   5   29.59    1.49
   8   1  -4   38.73    1.78
  -8  -1   4   37.80    1.56
  -8  -1   4   39.95    1.95
  -8  -1   3   25.06    1.18
   8   1  -3   25.67    1.52
  -8  -1   3   26.20    1.49
   8   1  -3   24.78    1.12
  -8  -1   3   25.47    1.17
  -8  -1   3   25.17    1.63
  -8  -1   2   44.82    1.97
   8   1  -2   46.36    2.13
  -8  -1   2   43.46    2.18
  -8  -1   2   37.43    1.92
  -8  -1   2   44.88    1.95
  -8  -1   2   40.41    1.85
  -8  -1   2   41.96    1.60
  -8  -1   2   43.13    1.89
  -8  -1   1   79.64    3.10
   8   1  -1   76.46    2.87
  -8  -1   1   69.05    3.01
  -8  -1   1   77.61    3.04
  -8  -1   1   76.47    2.99
  -8  -1   1   74.30    2.98
  -8  -1   1   79.75    2.43
  -8  -1   0   45.83    2.51
   8   1   0   44.90    2.04
  -8  -1   0   44.08    2.39
  -8  -1   0   42.18    2.39
  -8  -1   0   47.52    2.52
  -8  -1   0   45.54    2.50
  -8  -1   0   44.96    1.76
  -8  -1  -1   27.35    1.36
  -8  -1  -1   28.58    2.07
  -8  -1  -1   28.04    1.81
  -8  -1  -1   26.45    2.01
   8   1   1   23.90    1.36
  -8  -1  -1   26.70    1.83
  -8  -1  -1   25.03    1.95
  -8  -1  -1   25.03    1.95
  -8  -1  -2   23.10    1.28
  -8  -1  -2   18.13    1.66
  -8  -1  -2   18.09    1.48
  -8  -1  -2   20.41    1.76
   8   1   2   23.28    1.20
  -8  -1  -2   22.51    1.67
   8   1   2   22.16    1.52
  -8  -1  -2   20.76    1.77
  -8  -1  -2   21.74    1.83
  -8  -1  -3   91.33    2.92
  -8  -1  -3   93.49    3.56
  -8  -1  -3   91.24    3.71
  -8  -1  -3   81.57    3.20
   8   1   3   94.29    3.36
  -8  -1  -3   85.15    3.58
  -8  -1  -3   82.93    3.54
  -8  -1  -3   84.27    3.60
  -8  -1  -4   34.46    1.67
  -8  -1  -4   38.32    2.16
  -8  -1  -4   36.74    2.10
  -8  -1  -4   33.92    2.01
   8   1   4   40.03    2.05
  -8  -1  -4   38.39    2.12
  -8  -1  -4   38.01    2.13
  -8  -1  -4   35.41    2.03
  -8  -1  -5    6.66    0.74
  -8  -1  -5    6.83    0.91
  -8  -1  -5    5.85    0.77
  -8  -1  -5    6.50    0.81
  -8  -1  -5    5.49    0.79
  -8  -1  -5    6.26    0.88
   8   1   5    5.26    0.74
  -8  -1  -5    5.39    0.74
  -8  -1  -6    2.49    0.48
  -8  -1  -6    3.68    0.56
  -8  -1  -6    2.45    0.60
  -8  -1  -6    3.05    0.48
  -8  -1  -6    2.36    0.43
  -8  -1  -6    3.50    0.68
   8   1   6    3.11    0.59
   8   1   6    2.31    0.51
  -8  -1  -6    2.92    0.48
  -8  -1  -7   19.87    1.21
  -8  -1  -7   17.58    1.36
  -8  -1  -7   18.38    1.35
   8   1   7   16.99    1.16
   8   1   7   19.57    1.26
  -8  -1  -8   64.70    2.22
  -8  -1  -8   66.54    2.56
   8   1   8   65.77    2.21
   8   1   8   62.69    2.26
  -8  -1  -9    0.17    0.19
  -8  -1  -9    0.17    0.23
   8   1   9    0.34    0.23
  -8  -2   6   16.94    1.02
  -8  -2   6   17.15    0.97
   8   2  -5   40.88    1.71
  -8  -2   5   38.72    1.75
  -8  -2   5   41.86    1.86
   8   2  -4   75.60    2.73
  -8  -2   4   74.39    2.35
  -8  -2   4   75.04    2.85
  -8  -2   4   71.60    2.80
  -8  -2   3   34.08    1.44
   8   2  -3   34.85    1.87
   8   2  -3   34.91    1.38
  -8  -2   3   31.76    1.91
  -8  -2   3   33.19    1.70
  -8  -2   3   32.40    1.38
  -8  -2   3   33.19    1.92
  -8  -2   2   66.22    2.54
   8   2  -2   71.22    2.83
  -8  -2   2   68.23    2.95
  -8  -2   2   68.60    2.82
  -8  -2   2   69.36    2.55
  -8  -2   2   71.11    2.59
  -8  -2   2   68.20    2.54
  -8  -2   1   62.64    2.69
   8   2  -1   69.59    2.78
  -8  -2   1   69.12    2.98
  -8  -2   1   65.43    2.91
  -8  -2   1   68.65    2.81
  -8  -2   1   65.48    2.78
  -8  -2   0   17.83    1.52
  -8  -2   0   22.14    1.67
  -8  -2   0   19.88    1.60
  -8  -2   0   19.62    1.62
  -8  -2  -1    1.19    0.47
  -8  -2  -1    1.84    0.68
   8   2   1    1.21    0.39
  -8  -2  -1    1.22    0.52
  -8  -2  -1    2.08    0.68
  -8  -2  -1    1.37    0.61
  -8  -2  -2   36.55    2.09
   8   2   2   35.19    1.67
  -8  -2  -2   32.00    2.23
  -8  -2  -2   35.29    2.12
  -8  -2  -2   30.21    1.80
   8   2   2   36.14    1.90
  -8  -2  -2   30.71    2.21
  -8  -2  -2   30.72    2.21
  -8  -2  -3   22.14    1.11
  -8  -2  -3   20.48    1.57
  -8  -2  -3   19.97    1.64
   8   2   3   19.60    1.12
  -8  -2  -3   17.69    1.47
  -8  -2  -3   18.31    1.51
   8   2   3   19.64    1.43
  -8  -2  -3   20.29    1.67
  -8  -2  -3   18.97    1.66
  -8  -2  -4   20.63    1.13
  -8  -2  -4   19.37    1.52
  -8  -2  -4   15.65    1.39
  -8  -2  -4   19.54    1.55
   8   2   4   21.46    1.49
  -8  -2  -4   19.08    1.49
  -8  -2  -4   18.68    1.50
  -8  -2  -5    0.76    0.34
  -8  -2  -5    0.44    0.41
  -8  -2  -5    1.08    0.41
  -8  -2  -5    1.70    0.51
  -8  -2  -5    0.91    0.45
   8   2   5    1.06    0.36
  -8  -2  -5    1.31    0.44
  -8  -2  -6   24.56    1.30
  -8  -2  -6   25.14    1.73
  -8  -2  -6   24.30    1.38
   8   2   6   21.57    1.23
  -8  -2  -6   26.40    1.75
   8   2   6   27.59    1.64
   8   2   6   25.00    1.49
  -8  -2  -6   23.13    1.32
  -8  -2  -6   23.04    1.36
  -8  -2  -6   23.58    1.32
  -8  -2  -7   56.03    2.05
  -8  -2  -7   55.05    2.54
  -8  -2  -7   55.68    2.56
  -8  -2  -7   58.11    2.59
   8   2   7   53.81    2.28
  -8  -2  -7   57.07    1.89
   8   2   7   58.56    2.29
  -8  -2  -8   25.59    1.24
  -8  -2  -8   24.47    1.55
  -8  -2  -8   26.13    1.61
   8   2   8   27.01    1.18
  -8  -2  -8   24.93    1.52
   8   2   8   25.59    1.40
   8   2   8   25.54    1.36
  -8  -2  -9    2.56    0.49
  -8  -2  -9    2.17    0.33
  -8  -2  -9    1.39    0.37
   8   2   9    1.08    0.30
   8   2   9    1.65    0.32
  -8  -3   6    9.42    0.72
  -8  -3   6   10.21    0.70
   8   3  -5    7.06    0.67
  -8  -3   5    6.92    0.75
  -8  -3   5    6.90    0.72
   8   3  -4   38.63    1.86
  -8  -3   4   42.90    1.58
  -8  -3   4   38.44    1.97
  -8  -3   4   38.67    1.73
  -8  -3   4   40.60    1.97
  -8  -3   3   44.70    1.72
   8   3  -3   46.81    2.19
  -8  -3   3   49.12    2.36
   8   3  -3   45.58    1.62
  -8  -3   3   44.51    2.11
  -8  -3   3   45.46    1.69
  -8  -3   3   47.66    2.29
  -8  -3   2   26.38    1.47
   8   3  -2   28.86    1.74
   8   3  -2   24.16    1.34
  -8  -3   2   26.94    1.77
  -8  -3   2   28.41    1.76
  -8  -3   2   26.54    1.48
  -8  -3   2   25.80    1.48
   8   3  -1   67.01    2.77
   8   3  -1   67.07    2.60
  -8  -3   1   65.95    2.86
  -8  -3   1   60.79    2.60
  -8  -3   1   62.99    2.82
   8   3  -1   65.00    2.30
  -8  -3   1   60.96    2.65
  -8  -3   1   62.91    2.72
  -8  -3   0    4.03    0.76
   8   3   0    4.60    0.72
  -8  -3   0    4.03    0.71
  -8  -3   0    4.64    0.79
  -8  -3   0    3.43    0.69
   8   3   0    4.54    0.62
  -8  -3   0    5.00    0.81
  -8  -3  -1   17.86    1.41
   8   3   1   19.29    1.37
  -8  -3  -1   19.25    1.57
  -8  -3  -1   22.08    1.62
  -8  -3  -1   20.00    1.32
   8   3   1   18.80    1.27
  -8  -3  -1   20.31    1.66
  -8  -3  -1   17.41    1.54
  -8  -3  -2   33.12    1.94
   8   3   2   34.49    1.77
  -8  -3  -2   38.07    2.15
  -8  -3  -2   33.62    1.90
  -8  -3  -2   32.29    2.08
   8   3   2   33.76    1.79
  -8  -3  -2   36.38    2.27
  -8  -3  -2   32.88    2.17
  -8  -3  -3   22.93    1.59
   8   3   3   23.25    1.33
  -8  -3  -3   21.50    1.64
  -8  -3  -3   19.15    1.49
  -8  -3  -3   22.69    1.64
   8   3   3   24.34    1.53
  -8  -3  -3   20.96    1.70
  -8  -3  -3   22.16    1.69
  -8  -3  -4   39.48    2.16
   8   3   4   43.59    1.74
  -8  -3  -4   42.88    2.27
  -8  -3  -4   39.57    2.25
  -8  -3  -4   40.24    2.20
   8   3   4   40.85    2.06
  -8  -3  -4   42.26    2.27
  -8  -3  -4   42.79    2.32
  -8  -3  -5    5.08    0.81
  -8  -3  -5    4.66    0.70
  -8  -3  -5    4.37    0.67
   8   3   5    4.90    0.66
  -8  -3  -5    4.72    0.81
   8   3   5    3.87    0.66
   8   3   5    4.59    0.63
  -8  -3  -5    4.92    0.73
  -8  -3  -6    9.78    1.07
  -8  -3  -6    9.84    0.89
   8   3   6    9.66    0.81
  -8  -3  -6    8.45    1.03
   8   3   6    9.11    0.95
   8   3   6    9.03    0.83
  -8  -3  -6    9.50    0.85
  -8  -3  -6    9.33    0.84
  -8  -3  -7   12.81    1.16
  -8  -3  -7   11.35    1.11
  -8  -3  -7   12.54    0.82
  -8  -3  -7   11.97    1.14
   8   3   7   12.78    1.08
   8   3   7   11.50    0.93
  -8  -3  -7   11.30    0.78
  -8  -3  -8   53.09    2.34
  -8  -3  -8   52.35    2.36
  -8  -3  -8   50.40    2.27
   8   3   8   52.09    2.16
   8   3   8   52.11    1.97
  -8  -3  -9    0.32    0.28
  -8  -3  -9    0.12    0.27
  -8  -3  -9    0.23    0.25
   8   3   9    0.45    0.27
   8   3   9    0.22    0.20
  -8  -3 -10   17.39    1.04
   8   4  -6   26.35    0.96
  -8  -4   6   27.14    1.25
  -8  -4   5    0.51    0.21
   8   4  -5    1.10    0.30
  -8  -4   5    1.24    0.36
  -8  -4   5    0.62    0.24
   8   4  -4   11.86    0.83
   8   4  -4   11.49    0.96
  -8  -4   4   10.79    1.00
  -8  -4   4   12.22    0.97
  -8  -4   4   10.05    0.88
  -8  -4   3   35.52    1.42
   8   4  -3   35.64    1.69
   8   4  -3   35.34    1.87
  -8  -4   3   33.42    1.89
  -8  -4   3   36.92    1.91
  -8  -4   3   36.27    1.86
   8   4  -2   45.55    1.91
   8   4  -2   39.73    2.09
  -8  -4   2   43.99    2.21
   8   4  -2   42.48    1.79
  -8  -4   2   43.86    1.91
  -8  -4   2   42.31    2.20
  -8  -4   2   41.41    1.88
  -8  -4   2   43.26    1.93
   8   4  -1    4.50    0.64
  -8  -4   1    4.90    0.75
  -8  -4   1    4.59    0.66
   8   4  -1    4.41    0.71
  -8  -4   1    4.32    0.73
   8   4  -1    5.69    0.71
  -8  -4   1    5.17    0.81
  -8  -4   1    4.64    0.71
  -8  -4   0    1.29    0.46
   8   4   0    1.12    0.41
  -8  -4   0    0.43    0.39
   8   4   0    0.50    0.38
  -8  -4   0    0.95    0.44
   8   4   0    0.25    0.29
  -8  -4   0    0.38    0.29
  -8  -4   0    0.55    0.38
   8   4   0    0.89    0.26
  -8  -4   0    1.04    0.44
   8   4   1   19.81    1.28
  -8  -4  -1   17.89    1.35
   8   4   1   20.77    1.44
   8   4   1   19.37    1.40
  -8  -4  -1   21.30    1.58
  -8  -4  -1   17.36    1.27
   8   4   1   19.60    1.18
  -8  -4  -1   21.66    1.66
  -8  -4  -1   19.19    1.51
  -8  -4  -2   34.72    1.90
   8   4   2   36.97    1.90
   8   4   2   37.51    1.97
  -8  -4  -2   38.69    2.11
  -8  -4  -2   35.43    1.93
   8   4   2   33.65    1.68
  -8  -4  -2   43.19    2.32
  -8  -4  -2   36.65    2.12
   8   4   3   26.03    1.42
  -8  -4  -3   25.99    1.62
   8   4   3   20.27    1.35
   8   4   3   26.98    1.63
  -8  -4  -3   23.44    1.62
  -8  -4  -3   22.67    1.61
   8   4   3   23.47    1.43
  -8  -4  -3   24.85    1.74
  -8  -4  -3   25.58    1.72
   8   4   4    4.05    0.59
  -8  -4  -4    3.49    0.62
  -8  -4  -4    3.97    0.71
   8   4   4    3.48    0.57
   8   4   4    3.61    0.61
  -8  -4  -4    3.58    0.69
  -8  -4  -4    2.58    0.60
  -8  -4  -4    4.40    0.73
   8   4   4    3.34    0.58
   8   4   4    3.94    0.50
  -8  -4  -4    3.06    0.60
   8   4   5    9.66    0.85
  -8  -4  -5   10.66    1.06
   8   4   5   10.63    0.84
   8   4   5    9.62    0.88
  -8  -4  -5   10.04    1.07
  -8  -4  -5   10.02    1.03
   8   4   5    9.96    0.97
  -8  -4  -5   11.89    1.07
   8   4   5   11.19    0.83
  -8  -4  -5    9.42    0.97
  -8  -4  -5   10.34    0.99
   8   4   6    1.24    0.35
  -8  -4  -6    1.04    0.49
  -8  -4  -6    0.93    0.36
  -8  -4  -6    0.75    0.34
   8   4   6    0.90    0.32
  -8  -4  -6    0.71    0.43
   8   4   6    0.52    0.35
   8   4   6    0.25    0.25
  -8  -4  -6    0.89    0.37
  -8  -4  -6    0.06    0.26
  -8  -4  -7    3.11    0.63
  -8  -4  -7    3.23    0.60
   8   4   7    2.92    0.55
  -8  -4  -7    2.57    0.41
   8   4   7    2.02    0.39
  -8  -4  -8   34.24    1.80
  -8  -4  -8   32.92    1.77
   8   4   8   34.06    1.70
   8   4   8   33.43    1.44
  -8  -4  -9    2.54    0.48
  -8  -4  -9    1.89    0.44
   8   4   9    1.61    0.37
   8   4   9    1.79    0.32
  -8  -4 -10    0.60    0.24
   8   4  10   -0.07    0.19
  -8  -5   6   14.72    0.64
   8   5  -5    0.24    0.19
  -8  -5   5    0.49    0.26
  -8  -5   5    0.21    0.24
   8   5  -4   28.04    1.49
   8   5  -4   26.08    1.36
  -8  -5   4   27.15    1.51
  -8  -5   4   27.97    1.49
  -8  -5   4   27.73    1.28
   8   5  -3  133.49    4.03
   8   5  -3  127.90    3.89
  -8  -5   3  133.77    4.03
  -8  -5   3  124.97    4.00
  -8  -5   3  130.15    3.71
   8   5  -2   51.03    2.26
   8   5  -2   49.66    2.28
  -8  -5   2   48.64    2.23
   8   5  -2   50.07    1.93
   8   5  -2   51.41    1.97
  -8  -5   2   52.20    2.42
  -8  -5   2   48.56    1.99
  -8  -5   2   48.27    2.04
  -8  -5   2   52.09    2.06
   8   5  -1   25.21    1.57
   8   5  -1   27.24    1.69
  -8  -5   1   26.60    1.60
   8   5  -1   28.79    1.53
  -8  -5   1   25.97    1.73
  -8  -5   1   27.42    1.62
  -8  -5   1   27.61    1.60
   8   5   0   23.23    1.52
   8   5   0   22.75    1.55
  -8  -5   0   22.10    1.37
   8   5   0   21.30    1.40
  -8  -5   0   21.91    1.60
  -8  -5   0   21.86    1.32
  -8  -5   0   20.51    1.49
  -8  -5   0   21.01    1.49
   8   5   1   56.83    2.47
   8   5   1   53.70    2.49
  -8  -5  -1   58.35    2.24
   8   5   1   59.17    2.46
  -8  -5  -1   52.86    2.54
  -8  -5  -1   57.83    2.41
  -8  -5  -1   57.26    2.60
   8   5   2   77.68    2.95
  -8  -5  -2   79.11    2.82
   8   5   2   79.67    3.04
   8   5   2   79.90    2.96
  -8  -5  -2   79.74    3.14
  -8  -5  -2   76.67    3.00
   8   5   2   75.30    2.45
  -8  -5  -2   79.39    3.14
   8   5   3    2.01    0.53
  -8  -5  -3    3.96    0.62
   8   5   3    3.81    0.62
   8   5   3    3.53    0.61
  -8  -5  -3    3.62    0.66
  -8  -5  -3    3.53    0.66
   8   5   3    3.75    0.54
  -8  -5  -3    3.39    0.66
   8   5   4    2.01    0.50
  -8  -5  -4    2.09    0.48
  -8  -5  -4    1.79    0.52
   8   5   4    2.49    0.51
   8   5   4    2.81    0.55
  -8  -5  -4    2.72    0.63
  -8  -5  -4    2.71    0.58
   8   5   4    2.80    0.48
  -8  -5  -4    2.82    0.57
   8   5   5   34.88    1.82
  -8  -5  -5   34.53    1.80
   8   5   5   37.01    1.76
   8   5   5   34.48    1.69
  -8  -5  -5   34.24    2.00
  -8  -5  -5   35.39    1.79
   8   5   5   34.67    1.74
  -8  -5  -5   34.47    1.80
  -8  -5  -5   37.52    1.85
  -8  -5  -6    2.01    0.45
   8   5   6    2.09    0.50
  -8  -5  -6    2.45    0.52
  -8  -5  -6    2.27    0.46
   8   5   6    2.53    0.45
  -8  -5  -6    1.34    0.47
   8   5   6    1.96    0.43
  -8  -5  -6    2.68    0.49
   8   5   7    5.02    0.64
  -8  -5  -7    5.68    0.71
  -8  -5  -7    4.31    0.50
  -8  -5  -7    4.25    0.69
   8   5   7    4.84    0.66
  -8  -5  -7    4.91    0.64
   8   5   8   23.36    1.30
  -8  -5  -8   23.74    1.35
  -8  -5  -8   24.03    1.45
   8   5   8   23.76    1.37
  -8  -5  -8   24.64    1.29
   8   5   9    4.74    0.51
  -8  -5  -9    5.62    0.58
  -8  -5  -9    4.01    0.53
   8   5   9    4.43    0.53
  -8  -5 -10    7.80    0.56
   8   5  10    6.07    0.55
   8   6  -5    1.83    0.37
  -8  -6   5    2.59    0.39
  -8  -6   5    1.66    0.33
   8   6  -4    6.92    0.75
   8   6  -4    7.55    0.64
  -8  -6   4    7.58    0.72
  -8  -6   4    8.50    0.80
   8   6  -3   72.93    2.85
   8   6  -3   74.06    2.55
  -8  -6   3   75.58    2.56
  -8  -6   3   70.58    2.73
   8   6  -2   12.76    1.13
   8   6  -2   12.57    1.04
  -8  -6   2   10.85    0.90
   8   6  -2   11.49    0.83
   8   6  -2   11.38    0.85
  -8  -6   2   12.09    0.90
  -8  -6   2   10.19    0.83
   8   6  -1   17.63    1.37
   8   6  -1   17.61    1.31
  -8  -6   1   16.08    1.10
   8   6  -1   17.07    1.14
   8   6  -1   18.99    1.22
  -8  -6   1   14.70    1.25
  -8  -6   1   18.30    1.13
  -8  -6   1   17.89    1.21
   8   6   0    5.67    0.83
   8   6   0    5.13    0.76
  -8  -6   0    4.16    0.56
   8   6   0    5.85    0.74
  -8  -6   0    4.83    0.66
  -8  -6   0    4.92    0.77
   8   6   0    4.76    0.69
  -8  -6   0    5.25    0.74
   8   6   1   16.39    1.37
   8   6   1   16.56    1.33
   8   6   1   18.79    1.31
  -8  -6  -1   18.35    1.39
  -8  -6  -1   16.64    1.26
  -8  -6  -1   16.37    1.27
   8   6   2   19.91    1.49
   8   6   2   21.80    1.51
   8   6   2   19.80    1.36
  -8  -6  -2   20.11    1.42
  -8  -6  -2   20.23    1.44
  -8  -6  -2   22.55    1.50
   8   6   3    0.78    0.44
  -8  -6  -3    1.09    0.37
   8   6   3    0.96    0.41
   8   6   3    0.95    0.41
  -8  -6  -3    0.97    0.42
  -8  -6  -3    0.93    0.41
  -8  -6  -3    0.92    0.40
   8   6   4    2.16    0.59
  -8  -6  -4    1.91    0.40
   8   6   4    2.13    0.54
   8   6   4    0.90    0.34
  -8  -6  -4    2.29    0.55
  -8  -6  -4    0.98    0.38
   8   6   4    1.78    0.38
   8   6   4    1.73    0.46
  -8  -6  -4    1.41    0.43
   8   6   5   12.13    1.14
  -8  -6  -5   11.97    0.88
   8   6   5   11.57    1.01
   8   6   5    9.87    0.87
   8   6   5   10.53    0.93
  -8  -6  -5   12.21    1.14
  -8  -6  -5   10.28    0.86
   8   6   5   10.61    0.86
  -8  -6  -5   10.87    0.96
   8   6   6   14.92    1.24
  -8  -6  -6   13.53    0.94
   8   6   6   13.88    0.94
   8   6   6   15.79    1.03
  -8  -6  -6   12.61    1.14
   8   6   6   15.91    1.07
  -8  -6  -6   15.74    1.05
  -8  -6  -6   15.85    1.03
   8   6   7    0.68    0.21
   8   6   7    1.37    0.41
  -8  -6  -7    0.28    0.23
  -8  -6  -7    1.02    0.27
  -8  -6  -7    1.51    0.41
   8   6   7    0.99    0.37
  -8  -6  -7    1.09    0.41
   8   6   8    1.85    0.44
  -8  -6  -8    3.18    0.40
  -8  -6  -8    3.01    0.51
   8   6   8    3.31    0.48
  -8  -6  -8    3.10    0.51
   8   6   9    8.31    0.71
  -8  -6  -9    7.87    0.63
   8   6   9    7.95    0.65
  -8  -6  -9    6.67    0.59
   8   7  -4    3.02    0.49
  -8  -7   4    2.99    0.44
   8   7  -3   20.47    1.36
   8   7  -3   19.48    1.05
  -8  -7   3   21.01    0.98
  -8  -7   3   18.25    1.21
   8   7  -2   24.92    1.18
   8   7  -2   20.66    1.45
   8   7  -2   22.46    1.29
   8   7  -2   22.11    1.14
  -8  -7   2   24.17    1.48
   8   7  -2   24.58    1.19
  -8  -7   2   23.48    1.20
  -8  -7   2   21.98    1.13
   8   7  -1    0.18    0.26
   8   7  -1   -0.01    0.37
   8   7  -1    0.35    0.33
   8   7  -1   -0.05    0.23
  -8  -7   1    0.60    0.31
  -8  -7   1   -0.05    0.30
   8   7  -1    0.68    0.34
  -8  -7   1    0.61    0.32
   8   7   0    2.08    0.53
   8   7   0    2.40    0.55
   8   7   0    2.08    0.47
  -8  -7   0    2.42    0.47
  -8  -7   0    1.51    0.46
   8   7   0    2.17    0.48
  -8  -7   0    2.18    0.47
   8   7   1   29.10    1.86
   8   7   1   31.40    1.80
   8   7   1   31.32    1.68
   8   7   1   31.49    1.71
  -8  -7  -1   28.44    1.64
  -8  -7  -1   29.73    1.69
  -8  -7  -1   30.54    1.70
   8   7   2   22.48    1.61
   8   7   2   22.30    1.53
   8   7   2   21.55    1.40
   8   7   2   22.27    1.45
  -8  -7  -2   22.57    1.38
  -8  -7  -2   21.03    1.45
  -8  -7  -2   23.63    1.50
   8   7   3    0.59    0.41
   8   7   3    0.19    0.32
   8   7   3    0.02    0.26
  -8  -7  -3    0.31    0.32
  -8  -7  -3    0.82    0.34
   8   7   3   -0.02    0.26
  -8  -7  -3    0.45    0.30
   8   7   4    0.99    0.44
   8   7   4    1.56    0.44
   8   7   4    1.64    0.40
  -8  -7  -4    2.21    0.54
  -8  -7  -4    1.17    0.32
   8   7   4    1.20    0.38
  -8  -7  -4    1.18    0.40
   8   7   5    1.80    0.51
   8   7   5    2.13    0.42
   8   7   5    2.01    0.44
  -8  -7  -5    1.85    0.41
   8   7   6   26.15    1.33
   8   7   6   25.78    1.64
   8   7   6   27.37    1.30
   8   7   6   26.93    1.31
  -8  -7  -6   28.78    1.62
   8   7   6   25.51    1.21
  -8  -7  -6   25.39    1.26
   8   7   7    4.57    0.67
  -8  -7  -7    4.66    0.61
   8   7   7    6.30    0.59
   8   7   8    7.60    0.77
  -8  -7  -8    7.89    0.68
   8   7   8    6.84    0.58
  -8  -7  -8    6.18    0.64
   8   7   9   13.87    0.90
   8   8  -3   38.80    1.77
  -8  -8   3   38.31    1.56
   8   8  -2   42.82    1.38
   8   8  -2   40.87    1.90
   8   8  -2   40.88    1.90
   8   8  -2   43.35    1.50
   8   8  -2   40.43    1.27
  -8  -8   2   41.75    1.68
  -8  -8   2   40.53    1.31
  -8  -8   2   37.73    1.22
   8   8  -1    5.95    0.61
   8   8  -1    5.60    0.75
   8   8  -1    7.35    0.70
   8   8  -1    6.70    0.63
   8   8  -1    6.75    0.64
  -8  -8   1    6.34    0.64
  -8  -8   1    6.25    0.69
  -8  -8   1    6.12    0.61
   8   8   0    0.32    0.26
   8   8   0    0.48    0.33
   8   8   0    0.46    0.34
   8   8   0    0.74    0.34
  -8  -8   0    0.39    0.31
  -8  -8   0    0.38    0.31
   8   8   0    0.33    0.25
  -8  -8   0    0.46    0.29
   8   8   1   22.02    1.38
   8   8   1   24.13    1.63
   8   8   1   22.11    1.42
   8   8   1   22.69    1.37
   8   8   1   25.30    1.46
  -8  -8  -1   21.46    1.23
  -8  -8  -1   21.73    1.39
  -8  -8  -1   23.12    1.37
   8   8   2   64.15    2.49
   8   8   2   61.50    2.73
   8   8   2   62.96    2.76
   8   8   2   64.31    2.61
   8   8   2   63.46    2.44
   8   8   2   63.63    2.48
  -8  -8  -2   61.75    2.54
  -8  -8  -2   60.32    2.10
  -8  -8  -2   62.02    2.42
   8   8   3   10.65    0.95
   8   8   3   11.45    1.12
   8   8   3   10.90    0.95
   8   8   3   11.53    0.98
  -8  -8  -3   14.29    1.15
  -8  -8  -3   11.21    0.96
   8   8   4   22.51    1.37
   8   8   4   22.09    1.54
   8   8   4   23.31    1.33
   8   8   4   22.07    1.33
  -8  -8  -4   22.05    1.40
  -8  -8  -4   22.38    1.31
   8   8   5   26.70    1.40
   8   8   5   25.16    1.61
   8   8   5   26.36    1.33
   8   8   5   23.01    1.27
  -8  -8  -5   24.37    1.44
  -8  -8  -5   23.88    1.27
   8   8   6   58.79    2.01
   8   8   6   57.99    2.46
   8   8   6   58.87    1.88
   8   8   6   58.44    1.92
  -8  -8  -6   60.84    2.22
  -8  -8  -6   55.57    1.84
   8   8   7    3.87    0.59
  -8  -8  -7    3.01    0.45
  -8  -8  -7    4.50    0.58
   8   8   8    0.48    0.25
  -8  -8  -8    0.26    0.20
   8   9  -2    9.81    0.59
   8   9  -2   11.43    0.83
   8   9  -1    0.62    0.22
   8   9  -1    0.58    0.31
   8   9  -1    0.24    0.21
   8   9  -1    0.49    0.19
  -8  -9   1    0.70    0.28
  -8  -9   1    0.26    0.21
   8   9  -1    0.30    0.24
  -8  -9   1    0.64    0.21
   8   9   0    6.32    0.63
   8   9   0    6.85    0.76
   8   9   0    6.61    0.61
  -8  -9   0    6.71    0.64
   8   9   0    7.51    0.63
  -8  -9   0    5.22    0.47
  -8  -9   0    6.87    0.60
   8   9   1    7.82    0.76
   8   9   1    7.39    0.81
   8   9   1    7.75    0.72
  -8  -9  -1    7.15    0.71
   8   9   1    8.30    0.74
  -8  -9  -1    7.81    0.69
   8   9   2   33.18    1.62
   8   9   2   32.81    1.76
   8   9   2   34.49    1.59
  -8  -9  -2   30.04    1.53
   8   9   2   31.11    1.52
  -8  -9  -2   32.51    1.51
   8   9   3    3.24    0.52
   8   9   3    3.85    0.61
   8   9   3    3.31    0.58
   8   9   3    4.39    0.57
  -8  -9  -3    2.98    0.50
   8   9   3    3.91    0.52
  -8  -9  -3    3.31    0.49
   8   9   4    0.56    0.30
   8   9   4    0.55    0.32
   8   9   4    0.53    0.31
   8   9   4    0.42    0.24
  -8  -9  -4    0.20    0.25
   8   9   4    0.47    0.23
  -8  -9  -4    0.18    0.21
   8   9   5    4.81    0.53
   8   9   5    3.60    0.57
   8   9   5    3.95    0.48
  -8  -9  -5    4.05    0.51
   8   9   5    4.48    0.51
  -8  -9  -5    3.36    0.43
   8   9   6   53.22    1.67
   8   9   6   53.36    2.09
  -8  -9  -6   54.63    1.76
   8   9   7   19.92    1.10
   8  10   1   29.67    1.26
   8  10   1   29.09    1.33
   8  10   1   30.06    1.23
   8  10   2   12.81    0.83
   8  10   2   12.02    0.84
   8  10   2   13.23    0.79
  -8 -10  -2   12.66    0.79
   8  10   2   11.91    0.76
  -8 -10  -2   13.08    0.76
   8  10   3    3.11    0.41
   8  10   3    3.39    0.45
   8  10   3    2.92    0.39
  -8 -10  -3    3.14    0.41
   8  10   3    2.55    0.35
  -8 -10  -3    2.70    0.36
   8  10   4    2.81    0.38
   8  10   4    3.50    0.44
  -9   1   0    0.75    0.24
  -9   1   0    0.66    0.28
  -9   1   0    0.37    0.23
  -9   1   0    0.57    0.25
   9  -1   0    0.96    0.27
  -9   1  -1    0.25    0.16
  -9   1  -1    0.16    0.22
  -9   1  -1    0.07    0.26
  -9   1  -1    0.30    0.27
  -9   1  -1    0.69    0.31
   9  -1   1    0.27    0.21
  -9   1  -1    0.05    0.26
  -9   1  -2   11.66    0.95
  -9   1  -2   14.77    1.09
  -9   1  -2   13.53    0.94
  -9   1  -2   11.64    0.99
   9  -1   2   13.96    0.87
  -9   1  -2   13.32    1.00
  -9   1  -2   15.25    0.85
  -9   1  -3   19.05    1.12
  -9   1  -3   20.30    1.22
  -9   1  -3   20.77    1.00
  -9   1  -3   18.99    1.20
   9  -1   3   19.59    1.01
  -9   1  -3   19.92    1.15
  -9   1  -3   21.36    1.03
  -9   1  -4    2.99    0.38
  -9   1  -4    3.43    0.46
  -9   1  -4    2.75    0.42
   9  -1   4    3.06    0.40
  -9   0   2   11.21    0.62
  -9   0   2   10.22    0.57
  -9   0   2   11.95    0.85
   9   0  -2   12.36    0.74
  -9   0   2   11.49    0.80
  -9   0   1    2.50    0.43
  -9   0   1    2.00    0.29
  -9   0   1    2.57    0.39
  -9   0   1    2.19    0.42
  -9   0   1    2.27    0.46
  -9   0   1    2.75    0.42
   9   0  -1    2.14    0.36
  -9   0   1    2.07    0.36
  -9   0   0    5.38    0.61
  -9   0   0    5.86    0.67
  -9   0   0    6.54    0.76
  -9   0   0    5.02    0.71
  -9   0   0    5.48    0.70
   9   0   0    6.14    0.63
  -9   0   0    5.78    0.66
  -9   0   0    5.71    0.50
  -9   0  -1    2.10    0.44
  -9   0  -1    1.16    0.26
  -9   0  -1    0.97    0.39
  -9   0  -1    1.43    0.46
  -9   0  -1    1.83    0.51
  -9   0  -1    0.87    0.41
   9   0   1    1.76    0.40
  -9   0  -1    1.78    0.47
  -9   0  -2    4.62    0.50
  -9   0  -2    4.43    0.71
  -9   0  -2    3.50    0.68
  -9   0  -2    4.21    0.68
   9   0   2    4.08    0.57
  -9   0  -2    3.44    0.69
  -9   0  -2    3.71    0.64
  -9   0  -3   25.50    1.20
  -9   0  -3   23.86    1.47
  -9   0  -3   22.71    1.52
  -9   0  -3   22.15    1.34
  -9   0  -3   24.01    1.56
   9   0   3   22.74    1.29
  -9   0  -3   24.83    1.51
  -9   0  -4    1.47    0.31
  -9   0  -4    1.20    0.41
  -9   0  -4    2.02    0.46
  -9   0  -4    2.30    0.37
  -9   0  -4    2.15    0.46
   9   0   4    1.73    0.38
  -9   0  -4    1.67    0.40
  -9   0  -5    0.90    0.26
  -9   0  -5    0.66    0.27
  -9   0  -5   -0.16    0.24
  -9   0  -5    0.05    0.20
  -9   0  -5    0.88    0.28
   9   0   5    0.68    0.28
   9   0   5    0.33    0.22
  -9   0  -5    0.90    0.32
  -9   0  -6   23.07    1.04
  -9   0  -6   22.22    1.13
   9   0   6   22.46    1.00
   9   0   6   25.14    1.14
   9   1  -3   12.10    0.78
  -9  -1   3   11.69    0.76
  -9  -1   3   12.86    0.92
  -9  -1   2    0.41    0.25
  -9  -1   2    0.16    0.23
  -9  -1   2    0.10    0.18
   9   1  -2    0.68    0.29
  -9  -1   2    0.80    0.29
   9   1  -2    0.69    0.24
  -9  -1   2    0.59    0.22
   9   1  -2    0.61    0.23
  -9  -1   1    0.51    0.29
  -9  -1   1    0.04    0.24
  -9  -1   1    0.20    0.27
   9   1  -1    0.34    0.24
  -9  -1   1    0.52    0.36
   9   1  -1    0.63    0.29
  -9  -1   1    0.33    0.28
  -9  -1   1    0.73    0.29
  -9  -1   0    3.10    0.60
  -9  -1   0    2.02    0.47
  -9  -1   0    3.20    0.61
   9   1   0    2.82    0.45
  -9  -1   0    3.35    0.66
   9   1   0    2.81    0.49
  -9  -1   0    2.72    0.55
  -9  -1  -1    1.14    0.26
  -9  -1  -1    0.34    0.41
  -9  -1  -1    0.64    0.38
  -9  -1  -1    0.11    0.35
   9   1   1    0.04    0.26
  -9  -1  -1    0.33    0.38
  -9  -1  -2    5.24    0.89
  -9  -1  -2    5.99    0.87
  -9  -1  -2    5.21    0.84
   9   1   2    6.64    0.76
  -9  -1  -2    3.77    0.71
  -9  -1  -2    6.30    0.57
  -9  -1  -3   18.39    0.98
  -9  -1  -3   15.20    1.22
  -9  -1  -3   17.28    1.42
   9   1   3   16.82    1.19
  -9  -1  -3   17.98    1.47
  -9  -1  -3   16.86    1.36
  -9  -1  -3   16.84    1.38
  -9  -1  -4   17.43    0.95
  -9  -1  -4   16.15    1.26
  -9  -1  -4   15.20    1.25
  -9  -1  -4   15.52    1.11
   9   1   4   16.50    1.16
  -9  -1  -4   16.80    1.29
  -9  -1  -4   14.44    1.15
  -9  -1  -4   16.04    1.21
  -9  -1  -5    2.88    0.39
  -9  -1  -5    3.43    0.60
  -9  -1  -5    3.11    0.49
  -9  -1  -5    2.67    0.46
   9   1   5    2.98    0.49
   9   1   5    3.93    0.53
  -9  -1  -5    2.75    0.51
  -9  -1  -5    2.38    0.43
  -9  -1  -6    0.50    0.23
  -9  -1  -6    0.54    0.30
  -9  -1  -6    0.78    0.25
  -9  -1  -6    0.49    0.20
   9   1   6    1.00    0.26
  -9  -1  -6    0.49    0.22
   9   1   6   -0.01    0.21
   9   1   6    0.26    0.20
  -9  -1  -6    0.46    0.24
  -9  -1  -7   69.11    1.96
  -9  -1  -7   69.25    2.39
   9   1   7   71.77    2.16
   9   1   7   73.46    2.20
   9   2  -4   13.92    0.82
  -9  -2   4   15.75    0.96
   9   2  -3   44.12    1.74
  -9  -2   3   41.74    1.62
  -9  -2   3   42.15    1.87
  -9  -2   2    1.53    0.44
  -9  -2   2    0.74    0.22
  -9  -2   2    1.19    0.30
   9   2  -2    0.86    0.34
  -9  -2   2    0.80    0.36
   9   2  -2    1.46    0.30
  -9  -2   2    1.27    0.32
   9   2  -2    1.16    0.26
  -9  -2   2    0.92    0.27
  -9  -2   2    1.11    0.27
  -9  -2   1    2.01    0.45
  -9  -2   1    2.86    0.50
  -9  -2   1    2.03    0.44
   9   2  -1    1.96    0.43
   9   2  -1    2.44    0.43
  -9  -2   1    1.68    0.47
   9   2  -1    1.77    0.38
  -9  -2   1    1.75    0.41
  -9  -2   0   22.61    1.56
   9   2   0   25.64    1.39
  -9  -2   0   25.60    1.58
   9   2   0   28.40    1.44
  -9  -2   0   23.49    1.56
  -9  -2   0   26.08    1.59
  -9  -2   0   25.00    1.57
  -9  -2  -1   16.51    1.41
   9   2   1   17.22    1.09
  -9  -2  -1   17.19    1.34
   9   2   1   16.39    1.16
  -9  -2  -1   15.20    1.32
  -9  -2  -1   15.70    1.35
  -9  -2  -1   16.18    1.37
  -9  -2  -2    1.33    0.47
  -9  -2  -2    1.53    0.58
   9   2   2    2.37    0.42
  -9  -2  -2    1.61    0.61
  -9  -2  -2    2.23    0.57
   9   2   2    1.66    0.46
  -9  -2  -2    1.83    0.57
  -9  -2  -3   19.62    1.47
  -9  -2  -3   22.57    1.66
   9   2   3   24.68    1.47
  -9  -2  -3   23.75    1.66
  -9  -2  -3   23.52    1.67
  -9  -2  -3   21.90    1.62
  -9  -2  -4   10.43    1.06
  -9  -2  -4   11.32    1.10
  -9  -2  -4    9.59    0.94
   9   2   4    8.60    0.87
  -9  -2  -4   10.13    1.02
  -9  -2  -4   11.53    1.13
  -9  -2  -4   13.39    1.15
  -9  -2  -5    0.63    0.37
  -9  -2  -5    0.02    0.29
  -9  -2  -5    0.82    0.35
  -9  -2  -5    0.61    0.35
   9   2   5    0.13    0.22
  -9  -2  -5    0.47    0.32
   9   2   5    0.46    0.31
   9   2   5    1.03    0.37
  -9  -2  -5    0.75    0.36
  -9  -2  -6    6.93    0.84
  -9  -2  -6    7.08    0.63
  -9  -2  -6    6.79    0.64
   9   2   6    7.31    0.59
  -9  -2  -6    8.35    0.83
   9   2   6    6.52    0.70
  -9  -2  -6    7.21    0.67
   9   2   6    6.68    0.65
  -9  -2  -6    7.32    0.64
  -9  -2  -7   27.47    1.52
  -9  -2  -7   27.54    1.42
   9   2   7   25.70    1.29
   9   2   7   28.81    1.28
  -9  -2  -8   25.73    1.31
   9   2   8   23.53    1.10
   9   2   8   25.16    1.06
   9   3  -4   15.54    0.91
  -9  -3   4   15.47    0.96
   9   3  -3   13.27    0.95
  -9  -3   3   14.76    0.89
  -9  -3   3   14.22    0.83
  -9  -3   3   13.77    1.04
  -9  -3   2    8.33    0.71
   9   3  -2    8.87    0.84
   9   3  -2    9.68    0.67
  -9  -3   2    7.92    0.77
  -9  -3   2    7.42    0.66
  -9  -3   2    6.16    0.58
  -9  -3   2    8.38    0.66
  -9  -3   2    8.82    0.92
  -9  -3   1   10.57    0.94
  -9  -3   1   10.33    0.93
   9   3  -1   10.26    0.94
   9   3  -1   10.09    0.83
  -9  -3   1   10.42    1.00
   9   3  -1   11.15    0.75
  -9  -3   1   11.94    0.96
  -9  -3   1   10.75    0.92
  -9  -3   0    4.73    0.71
   9   3   0    3.74    0.59
   9   3   0    4.59    0.63
  -9  -3   0    3.79    0.66
  -9  -3   0    4.65    0.73
   9   3   0    4.83    0.58
  -9  -3   0    4.73    0.72
  -9  -3  -1   23.37    1.64
   9   3   1   17.39    1.23
   9   3   1   22.69    1.43
  -9  -3  -1   23.65    1.60
   9   3   1   20.34    1.24
  -9  -3  -1   21.40    1.56
  -9  -3  -1   21.50    1.57
  -9  -3  -2    0.79    0.42
  -9  -3  -2    1.04    0.51
   9   3   2    0.55    0.32
   9   3   2    1.14    0.39
  -9  -3  -2    0.42    0.38
   9   3   2    0.57    0.31
  -9  -3  -2    0.76    0.46
  -9  -3  -2    1.23    0.47
  -9  -3  -3    6.11    0.83
  -9  -3  -3    5.34    0.83
   9   3   3    5.19    0.58
   9   3   3    4.99    0.70
  -9  -3  -3    5.37    0.71
  -9  -3  -3    5.24    0.78
   9   3   3    5.17    0.69
  -9  -3  -3    5.42    0.86
  -9  -3  -3    4.54    0.78
  -9  -3  -4    8.32    0.94
  -9  -3  -4    8.52    0.96
   9   3   4    9.39    0.89
  -9  -3  -4    9.42    0.95
   9   3   4    8.05    0.85
   9   3   4    8.01    0.73
  -9  -3  -4    7.89    0.92
  -9  -3  -4   10.28    1.04
  -9  -3  -5    1.37    0.52
  -9  -3  -5    0.77    0.31
   9   3   5    0.39    0.28
  -9  -3  -5    1.05    0.44
  -9  -3  -5    0.75    0.35
   9   3   5    1.00    0.37
   9   3   5    0.43    0.25
  -9  -3  -5    0.37    0.31
  -9  -3  -6    5.83    0.78
  -9  -3  -6    4.98    0.57
  -9  -3  -6    5.56    0.61
  -9  -3  -6    3.73    0.54
   9   3   6    4.77    0.52
  -9  -3  -6    5.37    0.72
   9   3   6    4.99    0.64
   9   3   6    4.85    0.55
  -9  -3  -6    5.75    0.62
  -9  -3  -7   86.92    3.01
  -9  -3  -7   89.28    2.94
   9   3   7   85.27    2.74
   9   3   7   81.02    2.43
  -9  -3  -8   14.12    1.01
  -9  -3  -8   14.05    0.95
   9   3   8   14.55    0.90
   9   3   8   13.88    0.74
  -9  -4   4    0.73    0.24
   9   4  -4    0.46    0.24
  -9  -4   4    0.18    0.23
   9   4  -3   70.12    2.42
  -9  -4   3   70.70    2.46
  -9  -4   3   69.51    2.32
  -9  -4   3   72.07    2.48
  -9  -4   2    1.93    0.34
   9   4  -2    2.54    0.49
  -9  -4   2    1.96    0.45
   9   4  -2    2.65    0.40
  -9  -4   2    2.11    0.38
  -9  -4   2    2.56    0.50
  -9  -4   2    2.19    0.39
  -9  -4   1   27.74    1.51
   9   4  -1   28.16    1.58
   9   4  -1   27.62    1.37
  -9  -4   1   26.03    1.59
  -9  -4   1   25.80    1.43
  -9  -4   1   27.53    1.49
  -9  -4   0    7.81    0.88
   9   4   0   10.64    0.99
   9   4   0    6.97    0.78
  -9  -4   0    7.47    0.89
  -9  -4   0    7.99    0.91
  -9  -4   0    7.94    0.89
   9   4   1   28.57    1.59
   9   4   1   28.56    1.60
  -9  -4  -1   27.54    1.73
  -9  -4  -1   22.24    1.56
   9   4   1   26.70    1.31
  -9  -4  -1   25.58    1.66
  -9  -4  -1   23.02    1.59
  -9  -4  -2    1.20    0.43
  -9  -4  -2    1.20    0.48
   9   4   2    1.54    0.41
   9   4   2    0.99    0.37
  -9  -4  -2    1.77    0.45
  -9  -4  -2    1.05    0.44
  -9  -4  -2    1.26    0.50
   9   4   2    1.01    0.33
  -9  -4  -2    1.29    0.48
  -9  -4  -3    1.61    0.48
  -9  -4  -3    1.84    0.51
   9   4   3    1.67    0.40
   9   4   3    1.96    0.49
  -9  -4  -3    2.10    0.56
  -9  -4  -3    2.78    0.58
  -9  -4  -3    2.00    0.50
   9   4   3    1.86    0.43
  -9  -4  -3    1.89    0.52
  -9  -4  -4   13.94    1.18
   9   4   4   12.20    0.89
   9   4   4   12.28    1.01
  -9  -4  -4   13.82    1.18
  -9  -4  -4   15.28    1.22
  -9  -4  -4   15.39    1.24
   9   4   4   13.72    1.04
  -9  -4  -4   14.96    1.22
  -9  -4  -4   16.34    1.27
  -9  -4  -5   32.10    1.78
  -9  -4  -5   31.55    1.69
   9   4   5   29.84    1.48
  -9  -4  -5   29.67    1.72
   9   4   5   30.41    1.58
  -9  -4  -5   31.79    1.64
  -9  -4  -5   28.53    1.57
  -9  -4  -6   27.55    1.42
  -9  -4  -6   31.55    1.73
   9   4   6   32.42    1.37
  -9  -4  -6   29.83    1.70
   9   4   6   31.28    1.57
  -9  -4  -6   29.37    1.41
  -9  -4  -6   31.55    1.45
  -9  -4  -7   12.15    1.01
  -9  -4  -7   12.73    1.02
   9   4   7   11.74    0.90
  -9  -4  -8   33.83    1.58
  -9  -4  -8   32.81    1.53
   9   4   8   34.08    1.46
  -9  -4  -9    8.78    0.67
   9   5  -4    7.88    0.59
  -9  -5   4    8.74    0.65
  -9  -5   4    8.06    0.53
   9   5  -3   40.28    1.50
   9   5  -3   41.62    1.68
  -9  -5   3   41.58    1.71
  -9  -5   3   43.27    1.72
  -9  -5   3   39.90    1.57
  -9  -5   2    2.12    0.45
   9   5  -2    2.18    0.43
  -9  -5   2    2.28    0.37
   9   5  -2    1.68    0.41
  -9  -5   2    1.82    0.42
   9   5  -2    1.46    0.30
  -9  -5   2    1.71    0.42
   9   5  -2    2.06    0.31
  -9  -5   2    1.84    0.35
  -9  -5   2    2.02    0.34
   9   5  -1   21.05    1.16
   9   5  -1   20.31    1.33
  -9  -5   1   21.47    1.28
   9   5  -1   21.34    1.16
  -9  -5   1   19.26    1.22
  -9  -5   1   19.84    1.37
  -9  -5   1   20.50    1.21
  -9  -5   1   20.28    1.23
   9   5   0   11.45    0.90
   9   5   0   10.58    0.98
   9   5   0   11.43    0.94
  -9  -5   0   10.99    1.04
  -9  -5   0   10.23    0.97
  -9  -5   0   10.05    0.96
  -9  -5   0   11.62    1.01
   9   5   1  139.43    3.97
   9   5   1  155.23    4.41
   9   5   1  140.43    4.15
  -9  -5  -1  158.26    4.61
  -9  -5  -1  144.33    3.88
  -9  -5  -1  140.77    4.39
  -9  -5  -1  143.16    4.42
  -9  -5  -1  146.44    4.42
   9   5   2   22.19    1.32
   9   5   2   22.04    1.39
   9   5   2   20.64    1.34
  -9  -5  -2   21.13    1.47
  -9  -5  -2   21.47    1.32
   9   5   2   20.04    1.04
  -9  -5  -2   21.44    1.50
  -9  -5  -2   23.62    1.56
  -9  -5  -2   19.46    1.42
   9   5   3    2.97    0.52
  -9  -5  -3    2.65    0.51
  -9  -5  -3    2.30    0.51
   9   5   3    3.53    0.57
   9   5   3    3.48    0.56
  -9  -5  -3    3.22    0.63
  -9  -5  -3    2.18    0.51
  -9  -5  -3    3.53    0.62
   9   5   3    2.17    0.42
  -9  -5  -3    2.23    0.53
   9   5   4   29.47    1.41
  -9  -5  -4   28.19    1.55
   9   5   4   27.23    1.43
   9   5   4   26.13    1.46
  -9  -5  -4   23.71    1.52
  -9  -5  -4   32.74    1.76
   9   5   4   28.54    1.39
  -9  -5  -4   27.10    1.62
  -9  -5  -4   21.93    1.49
  -9  -5  -4   26.93    1.59
   9   5   5   45.95    1.74
  -9  -5  -5   47.66    2.05
   9   5   5   48.10    1.77
   9   5   5   45.45    1.85
  -9  -5  -5   41.43    1.95
  -9  -5  -5   40.39    2.04
   9   5   5   44.51    1.83
  -9  -5  -5   43.28    1.93
  -9  -5  -5   44.08    1.94
  -9  -5  -6   17.50    1.16
  -9  -5  -6   18.53    1.10
   9   5   6   17.97    0.99
   9   5   6   14.31    0.92
  -9  -5  -6   17.85    1.27
   9   5   6   17.70    1.11
  -9  -5  -6   16.97    1.02
  -9  -5  -6   16.69    1.03
  -9  -5  -7   20.31    1.20
  -9  -5  -7   17.68    1.19
   9   5   7   19.72    1.12
  -9  -5  -8   22.91    1.15
  -9  -5  -8   19.85    1.14
   9   5   8   22.63    1.12
  -9  -5  -9   18.13    0.87
   9   6  -4    5.27    0.45
   9   6  -3   26.19    1.26
   9   6  -3   26.44    1.20
  -9  -6   3   26.14    1.12
  -9  -6   3   25.80    1.26
  -9  -6   2    3.26    0.41
   9   6  -2    3.45    0.38
   9   6  -2    3.10    0.52
  -9  -6   2    2.34    0.34
  -9  -6   2    4.82    0.48
   9   6  -2    3.36    0.51
  -9  -6   2    3.98    0.49
   9   6  -2    3.90    0.39
  -9  -6   2    3.44    0.53
   9   6  -1    3.31    0.51
  -9  -6   1    2.41    0.44
   9   6  -1    2.95    0.51
   9   6  -1    2.64    0.42
  -9  -6   1    3.66    0.60
   9   6  -1    2.70    0.42
  -9  -6   1    3.31    0.49
  -9  -6   1    3.65    0.51
   9   6   0   10.97    0.96
   9   6   0   11.68    1.00
   9   6   0   11.62    0.90
   9   6   0   10.01    0.87
  -9  -6   0   11.71    1.04
  -9  -6   0   12.91    1.02
  -9  -6   0   10.26    0.91
  -9  -6   0    9.66    0.89
   9   6   1   63.44    2.55
   9   6   1   67.55    2.62
   9   6   1   60.73    2.37
   9   6   1   67.72    2.51
  -9  -6  -1   67.88    2.66
  -9  -6  -1   65.12    2.32
  -9  -6  -1   67.52    2.63
  -9  -6  -1   67.64    2.59
   9   6   2    5.13    0.70
  -9  -6  -2    5.38    0.73
   9   6   2    5.23    0.72
   9   6   2    4.79    0.65
  -9  -6  -2    6.05    0.71
  -9  -6  -2    4.88    0.70
  -9  -6  -2    5.92    0.76
   9   6   3   11.17    0.97
   9   6   3   12.18    0.99
  -9  -6  -3   10.19    0.96
  -9  -6  -3    9.36    0.90
  -9  -6  -3   11.23    1.03
  -9  -6  -3   13.50    1.11
   9   6   4   16.54    1.15
  -9  -6  -4   15.92    0.99
   9   6   4   15.02    1.09
   9   6   4   15.89    1.09
   9   6   4   14.24    1.06
  -9  -6  -4   15.24    1.19
  -9  -6  -4   15.81    1.09
   9   6   4   14.86    0.85
  -9  -6  -4   14.63    1.12
  -9  -6  -4   13.23    1.05
   9   6   5   71.88    2.56
  -9  -6  -5   72.60    2.33
   9   6   5   71.91    2.40
   9   6   5   68.47    2.42
  -9  -6  -5   71.34    2.72
   9   6   5   71.56    2.26
  -9  -6  -5   74.01    2.60
  -9  -6  -5   71.39    2.51
  -9  -6  -5   72.62    2.51
   9   6   6   33.76    1.55
  -9  -6  -6   33.69    1.39
   9   6   6   29.59    1.29
   9   6   6   30.24    1.34
  -9  -6  -6   32.39    1.45
  -9  -6  -6   32.34    1.66
   9   6   6   31.47    1.38
  -9  -6  -6   30.64    1.37
  -9  -6  -6   31.04    1.38
   9   6   7   23.74    1.18
  -9  -6  -7   22.08    1.03
  -9  -6  -7   22.82    1.29
   9   6   7   23.53    1.13
  -9  -6  -7   21.50    1.02
   9   6   8   30.94    1.18
  -9  -6  -8   34.76    1.12
  -9  -6  -8   33.85    1.43
   9   6   8   33.90    1.29
   9   7  -3   18.41    1.02
  -9  -7   3   18.84    0.98
   9   7  -2   10.10    0.56
   9   7  -2   10.82    0.89
   9   7  -2   10.92    0.76
  -9  -7   2    9.64    0.58
  -9  -7   2   10.01    0.80
   9   7  -1    4.30    0.48
   9   7  -1    5.11    0.63
  -9  -7   1    5.12    0.53
   9   7  -1    5.64    0.61
   9   7  -1    5.26    0.52
  -9  -7   1    4.78    0.60
   9   7  -1    5.10    0.52
  -9  -7   1    5.09    0.54
  -9  -7   1    5.09    0.53
   9   7   0    0.89    0.39
  -9  -7   0    0.59    0.29
   9   7   0    0.37    0.27
   9   7   0    1.37    0.35
  -9  -7   0    0.63    0.27
  -9  -7   0    0.65    0.33
   9   7   0    0.19    0.25
  -9  -7   0    0.12    0.26
   9   7   1   58.29    2.46
   9   7   1   57.13    2.32
   9   7   1   60.50    2.23
   9   7   1   61.62    2.29
  -9  -7  -1   56.34    2.25
  -9  -7  -1   61.73    2.18
  -9  -7  -1   56.73    2.25
  -9  -7  -1   59.85    2.28
   9   7   2   43.87    2.10
   9   7   2   43.72    2.01
   9   7   2   41.14    1.85
   9   7   2   46.13    1.97
  -9  -7  -2   42.52    1.88
  -9  -7  -2   45.56    1.90
  -9  -7  -2   43.57    1.95
   9   7   3    1.25    0.43
   9   7   3    0.88    0.36
   9   7   3    1.14    0.35
  -9  -7  -3    0.66    0.34
  -9  -7  -3    0.40    0.23
   9   7   3    0.67    0.33
  -9  -7  -3    0.87    0.35
   9   7   4    6.31    0.75
  -9  -7  -4    3.41    0.54
   9   7   4    5.08    0.64
   9   7   4    4.81    0.59
   9   7   4    6.73    0.70
  -9  -7  -4    3.95    0.61
  -9  -7  -4    3.83    0.48
  -9  -7  -4    4.63    0.62
   9   7   5   59.22    2.35
   9   7   5   58.62    2.04
   9   7   5   58.38    2.08
  -9  -7  -5   59.17    2.32
  -9  -7  -5   57.49    2.09
  -9  -7  -5   57.46    2.07
   9   7   6   48.44    1.73
   9   7   6   49.69    2.02
   9   7   6   49.22    1.61
   9   7   6   50.50    1.67
  -9  -7  -6   52.24    2.04
  -9  -7  -6   48.75    1.75
  -9  -7  -6   46.66    1.62
  -9  -7  -6   50.24    1.67
   9   7   7    8.81    0.73
  -9  -7  -7    8.60    0.73
  -9  -7  -7    7.36    0.63
   9   7   8    1.65    0.32
   9   8  -2    6.24    0.61
   9   8  -1    0.84    0.22
   9   8  -1    0.96    0.33
   9   8  -1    0.59    0.25
  -9  -8   1    0.72    0.19
  -9  -8   1    0.68    0.25
   9   8   0    1.35    0.30
   9   8   0    0.58    0.32
  -9  -8   0    0.88    0.28
   9   8   0    0.68    0.23
   9   8   0    1.38    0.32
  -9  -8   0    0.61    0.24
  -9  -8   0    0.23    0.23
   9   8   0    1.13    0.30
  -9  -8   0    0.82    0.24
   9   8   1   61.12    2.19
   9   8   1   61.37    2.43
   9   8   1   63.55    2.27
   9   8   1   61.08    2.13
   9   8   1   66.01    2.19
  -9  -8  -1   61.82    2.10
  -9  -8  -1   56.83    2.01
  -9  -8  -1   60.01    2.10
   9   8   2   50.54    1.98
   9   8   2   48.56    2.16
   9   8   2   49.71    2.02
   9   8   2   48.25    1.90
   9   8   2   49.13    1.92
  -9  -8  -2   51.26    1.95
  -9  -8  -2   44.93    1.62
  -9  -8  -2   48.07    1.90
   9   8   3    0.52    0.30
   9   8   3    0.51    0.34
   9   8   3    0.43    0.25
  -9  -8  -3    1.07    0.33
   9   8   3    0.54    0.30
  -9  -8  -3    0.66    0.28
   9   8   4    8.84    0.77
   9   8   4    7.78    0.85
   9   8   4    9.59    0.89
   9   8   4    7.99    0.70
   9   8   4    9.33    0.76
  -9  -8  -4    7.53    0.73
  -9  -8  -4    8.17    0.71
   9   8   5   90.41    2.66
   9   8   5   88.34    2.94
   9   8   5   91.47    2.55
   9   8   5   88.44    2.55
  -9  -8  -5   88.18    2.76
  -9  -8  -5   86.57    2.53
  -9  -8  -5   88.68    2.54
   9   8   6  105.31    2.73
   9   8   6  108.49    3.20
  -9  -8  -6  109.82    3.02
  -9  -8  -6  111.91    2.77
   9   8   7   10.37    0.75
   9   9   0   10.95    0.66
   9   9   0   10.01    0.78
   9   9   1   53.36    1.79
   9   9   1   49.20    1.94
   9   9   1   50.22    1.68
  -9  -9  -1   48.46    1.62
   9   9   1   52.44    1.70
  -9  -9  -1   49.40    1.64
   9   9   2   83.89    2.50
   9   9   2   78.61    2.65
   9   9   2   83.99    2.41
   9   9   2   81.02    2.37
  -9  -9  -2   79.03    2.38
  -9  -9  -2   80.78    2.35
   9   9   3    6.18    0.59
   9   9   3    5.81    0.66
   9   9   3    6.61    0.58
   9   9   3    6.69    0.58
  -9  -9  -3    5.84    0.56
  -9  -9  -3    5.93    0.55
   9   9   4    0.37    0.19
   9   9   4    0.61    0.27
   9   9   4    0.19    0.18
  -9  -9  -4    0.43    0.22
   9   9   4    0.74    0.24
  -9  -9  -4    0.96    0.24
   9   9   5  121.32    2.97
   9   9   5  115.51    3.27
   9   9   5  120.91    3.30
 -10  -1  -1   14.58    0.93
 -10  -1  -1   16.51    1.00
 -10  -1  -1   14.97    0.93
 -10  -1  -1   15.22    0.85
 -10  -1  -2    5.08    0.50
 -10  -1  -2    4.36    0.51
 -10  -1  -2    4.76    0.56
 -10  -1  -2    4.53    0.52
  10   1   2    4.97    0.49
 -10  -1  -2    5.15    0.59
  10   1   2    4.79    0.49
 -10  -1  -2    4.09    0.49
 -10  -1  -3   39.28    1.54
 -10  -1  -3   39.78    1.65
 -10  -1  -3   39.84    1.49
  10   1   3   39.65    1.44
 -10  -1  -3   40.39    1.66
  10   1   3   41.08    1.48
 -10  -1  -3   37.64    1.51
 -10  -1  -4   21.10    1.06
 -10  -1  -4   20.95    1.07
 -10  -2   1    6.75    0.52
 -10  -2   1    7.57    0.63
 -10  -2   1    6.79    0.51
 -10  -2   1    6.34    0.60
 -10  -2   0   50.74    1.70
 -10  -2   0   48.42    1.81
 -10  -2   0   50.55    1.96
  10   2   0   50.42    1.62
 -10  -2   0   47.31    1.78
 -10  -2   0   47.11    1.64
 -10  -2   0   47.81    1.89
 -10  -2  -1   19.04    1.17
 -10  -2  -1   18.71    1.19
  10   2   1   17.84    0.98
 -10  -2  -1   18.53    1.14
  10   2   1   18.53    0.95
 -10  -2  -1   18.19    1.06
 -10  -2  -1   17.60    1.06
 -10  -2  -2   27.65    1.50
 -10  -2  -2   28.63    1.50
  10   2   2   26.63    1.28
  10   2   2   31.32    1.32
 -10  -2  -2   26.09    1.46
 -10  -2  -2   28.84    1.43
 -10  -2  -2   29.30    1.43
 -10  -2  -3   43.15    1.87
 -10  -2  -3   41.21    1.75
  10   2   3   39.94    1.59
  10   2   3   38.82    1.56
 -10  -2  -3   41.70    1.84
  10   2   3   40.85    1.36
 -10  -2  -3   42.32    1.75
 -10  -2  -3   40.38    1.71
 -10  -2  -4   54.89    2.07
 -10  -2  -4   55.46    1.87
  10   2   4   57.55    1.87
 -10  -2  -4   54.13    2.06
  10   2   4   57.88    1.93
  10   2   4   57.39    1.67
 -10  -2  -4   56.23    1.98
 -10  -2  -4   54.98    1.95
 -10  -2  -5   27.12    1.33
 -10  -2  -5   24.38    1.13
 -10  -2  -5   26.68    1.19
  10   2   5   25.44    1.15
 -10  -3   1   13.98    0.80
  10   3  -1   15.00    0.84
 -10  -3   1   15.07    0.94
 -10  -3   1   14.19    0.79
 -10  -3   1   14.43    0.98
 -10  -3   0   50.62    1.98
  10   3   0   58.83    1.86
  10   3   0   53.92    1.81
 -10  -3   0   53.61    1.94
 -10  -3   0   55.75    2.03
 -10  -3   0   56.94    1.94
 -10  -3   0   55.91    1.93
 -10  -3  -1   88.99    2.91
  10   3   1   78.31    2.28
  10   3   1   84.97    2.56
 -10  -3  -1   89.25    2.76
  10   3   1   80.01    2.29
 -10  -3  -1   87.11    2.87
 -10  -3  -1   93.85    2.81
 -10  -3  -1   85.76    2.73
 -10  -3  -2   12.41    1.03
  10   3   2   12.77    0.89
  10   3   2   11.36    0.77
 -10  -3  -2   13.11    0.99
 -10  -3  -2   10.99    0.96
 -10  -3  -2   13.36    1.00
 -10  -3  -3   10.28    0.93
  10   3   3    8.50    0.73
  10   3   3    9.91    0.73
 -10  -3  -3   10.95    0.90
 -10  -3  -3    8.89    0.87
 -10  -3  -3    9.71    0.85
 -10  -3  -4   47.94    2.00
 -10  -3  -4   45.78    1.94
  10   3   4   47.34    1.74
  10   3   4   49.17    1.78
 -10  -3  -4   45.74    1.94
 -10  -3  -4   44.29    1.81
 -10  -3  -4   49.53    1.89
 -10  -3  -5   28.31    1.45
 -10  -3  -5   27.11    1.29
  10   3   5   28.63    1.16
 -10  -3  -5   24.75    1.07
  10   3   5   26.98    1.24
 -10  -3  -5   26.53    1.29
 -10  -3  -5   28.44    1.25
 -10  -3  -5   28.58    1.24
 -10  -3  -6   51.14    1.92
 -10  -3  -6   50.45    1.58
 -10  -3  -6   50.46    1.60
  10   3   6   53.11    1.76
 -10  -4   2    3.37    0.43
 -10  -4   2    4.95    0.46
 -10  -4   1    0.58    0.26
 -10  -4   1    0.51    0.21
 -10  -4   1    0.35    0.19
  10   4  -1    0.50    0.26
 -10  -4   1    0.48    0.22
 -10  -4   0   74.60    2.48
  10   4   0   71.81    2.31
  10   4   0   73.78    2.22
 -10  -4   0   73.23    2.44
 -10  -4   0   71.35    2.28
 -10  -4   0   74.82    2.35
 -10  -4   0   72.10    2.42
 -10  -4  -1  100.59    3.22
  10   4   1  102.85    2.92
  10   4   1  103.47    2.95
 -10  -4  -1  100.58    3.13
 -10  -4  -1  106.44    3.12
 -10  -4  -1  104.30    3.13
 -10  -4  -2    9.81    0.90
  10   4   2    8.15    0.67
  10   4   2   10.24    0.80
 -10  -4  -2    8.89    0.83
  10   4   2    9.46    0.64
 -10  -4  -2    8.81    0.81
 -10  -4  -2   10.08    0.88
 -10  -4  -3   14.87    1.11
  10   4   3   15.55    0.80
  10   4   3   16.24    1.02
  10   4   3   14.96    0.88
 -10  -4  -3   16.02    1.10
 -10  -4  -3   16.24    1.11
 -10  -4  -4   50.74    2.05
 -10  -4  -4   49.94    2.03
  10   4   4   48.33    1.79
 -10  -4  -4   44.60    1.64
  10   4   4   48.70    1.73
 -10  -4  -4   49.16    1.92
 -10  -4  -4   50.05    1.94
 -10  -4  -5  101.36    2.97
 -10  -4  -5  100.47    3.10
 -10  -4  -5  102.15    2.97
  10   4   5  100.68    2.71
 -10  -4  -5   98.99    2.83
  10   4   5  100.46    2.78
 -10  -4  -5  103.92    2.87
 -10  -4  -5  105.95    2.88
 -10  -4  -6   37.71    1.60
 -10  -4  -6   35.67    1.32
 -10  -4  -6   36.68    1.45
  10   4   6   36.21    1.40
 -10  -4  -6   35.15    1.33
 -10  -4  -7   42.90    1.60
 -10  -5   2    0.89    0.25
 -10  -5   2    1.11    0.26
 -10  -5   1    3.36    0.41
  10   5  -1    4.12    0.50
 -10  -5   1    4.75    0.46
 -10  -5   1    3.91    0.48
 -10  -5   1    4.71    0.54
 -10  -5   0   68.36    2.29
  10   5   0   70.18    2.28
  10   5   0   67.37    2.09
  10   5   0   68.90    2.11
 -10  -5   0   64.99    2.31
 -10  -5   0   70.29    2.19
 -10  -5   0   70.75    2.22
 -10  -5  -1   58.77    2.23
  10   5   1   58.74    2.09
  10   5   1   58.47    2.02
 -10  -5  -1   56.89    2.20
 -10  -5  -1   61.87    2.17
 -10  -5  -1   60.71    2.19
  10   5   2   14.65    0.95
 -10  -5  -2   16.92    1.15
  10   5   2   15.35    0.99
 -10  -5  -2   16.33    1.11
 -10  -5  -2   16.56    1.08
 -10  -5  -2   15.03    1.05
 -10  -5  -3    2.12    0.47
 -10  -5  -3    1.77    0.40
  10   5   3    1.82    0.38
  10   5   3    1.56    0.33
 -10  -5  -3    1.44    0.29
 -10  -5  -3    1.31    0.37
 -10  -5  -3    1.24    0.34
 -10  -5  -4   82.20    2.74
  10   5   4   83.86    2.52
 -10  -5  -4   82.58    2.53
  10   5   4   81.56    2.24
 -10  -5  -4   83.91    2.66
 -10  -5  -4   85.25    2.68
 -10  -5  -5  154.81    3.95
 -10  -5  -5  153.67    3.96
  10   5   5  152.40    3.68
  10   5   5  150.32    3.73
 -10  -5  -5  151.13    3.89
  10   5   5  153.78    3.62
 -10  -5  -5  158.19    3.85
 -10  -5  -5  153.88    3.82
 -10  -5  -6   18.23    0.91
 -10  -5  -6   18.05    1.00
 -10  -5  -6   17.55    0.89
 -10  -5  -6   19.16    1.04
  10   5   6   20.45    0.93
 -10  -5  -7    6.85    0.55
  10   6  -1   15.32    0.74
 -10  -6   1   16.04    0.79
  10   6  -1   15.27    0.81
  10   6  -1   15.03    0.88
 -10  -6   1   16.56    0.94
 -10  -6   1   15.13    0.79
  10   6   0   81.83    2.53
 -10  -6   0   87.74    2.54
  10   6   0   87.17    2.37
  10   6   0   85.65    2.37
 -10  -6   0   82.78    2.59
 -10  -6   0   83.11    2.38
 -10  -6   0   83.93    2.43
  10   6   1  175.92    4.06
  10   6   1  183.14    4.49
  10   6   1  187.32    4.36
 -10  -6  -1  184.37    4.60
  10   6   1  181.71    4.38
 -10  -6  -1  181.35    4.58
 -10  -6  -1  188.13    4.48
 -10  -6  -1  185.25    4.48
  10   6   2   46.52    1.47
  10   6   2   45.31    1.63
  10   6   2   46.53    1.61
 -10  -6  -2   45.10    1.77
  10   6   2   44.38    1.61
 -10  -6  -2   47.51    1.74
 -10  -6  -2   44.91    1.67
 -10  -6  -2   47.69    1.73
  10   6   3   24.99    1.18
  10   6   3   29.32    1.33
  10   6   3   26.20    1.26
 -10  -6  -3   27.29    1.42
  10   6   3   26.31    1.30
 -10  -6  -3   25.76    1.20
 -10  -6  -3   22.74    1.23
 -10  -6  -3   26.23    1.33
 -10  -6  -3   25.62    1.34
  10   6   4   84.64    2.45
  10   6   4   83.07    2.37
  10   6   4   85.27    2.48
 -10  -6  -4   83.30    2.68
  10   6   4   83.97    2.52
 -10  -6  -4   83.19    2.53
 -10  -6  -4   81.02    2.54
 -10  -6  -4   83.69    2.58
  10   6   5   96.15    2.63
 -10  -6  -5  100.91    2.83
  10   6   5   97.45    2.58
  10   6   5   96.91    2.63
 -10  -6  -5   98.84    2.82
 -10  -6  -5   95.71    2.67
 -10  -6  -5   93.61    2.65
  10   6   6   31.28    1.19
 -10  -6  -6   31.34    1.19
 -10  -6  -6   31.04    1.34
  10   7   0   33.30    1.25
  10   7   0   32.18    1.27
  10   7   0   35.67    1.40
 -10  -7   0   33.26    1.29
 -10  -7   0   32.11    1.33
  10   7   1   59.14    1.96
  10   7   1   60.33    1.97
  10   7   1   61.89    2.05
  10   7   1   59.04    1.90
 -10  -7  -1   60.12    2.05
  10   7   1   62.67    1.95
 -10  -7  -1   61.13    2.01
 -10  -7  -1   58.80    1.95
 -10  -7  -1   59.80    1.94
  10   7   2   16.57    0.97
  10   7   2   13.77    0.90
  10   7   2   16.59    0.92
  10   7   2   15.73    0.92
 -10  -7  -2   15.47    0.78
 -10  -7  -2   16.00    0.92
 -10  -7  -2   14.98    0.98
 -10  -7  -2   12.84    0.86
 -10  -7  -2   15.10    0.91
 -10  -7  -3    0.83    0.30
  10   7   3    0.80    0.27
 -10  -7  -3    1.42    0.34
  10   7   3    0.76    0.31
  10   7   3    0.65    0.24
 -10  -7  -3    0.27    0.19
 -10  -7  -3    1.04    0.28
  10   7   3    0.68    0.23
 -10  -7  -3    0.37    0.24
  10   7   4   31.30    1.39
  10   7   4   31.45    1.29
  10   7   4   32.89    1.34
 -10  -7  -4   31.20    1.34
 -10  -7  -4   32.57    1.43
 -10  -7  -4   30.36    1.32
 -10  -7  -4   29.09    1.29
  10   7   5  118.43    3.01
  10   7   5  119.37    3.15
 -10  -7  -5  119.80    3.08
  10   7   5  117.47    2.87
 -10  -7  -5  115.16    3.09
 -10  -7  -5  120.26    2.92
  10   7   6   28.75    1.04
  10   7   6   28.88    1.20
 -10  -7  -6   29.49    1.06
  10   8   2   38.86    1.46
  10   8   2   41.05    1.56
 -10  -8  -2   38.58    1.48
  10   8   3   11.69    0.75
  10   8   3   11.75    0.80
  10   8   3   11.07    0.69
 -10  -8  -3   11.98    0.78
 -10  -8  -3   12.21    0.73
  10   8   4   19.01    0.93
  10   8   4   17.09    0.96
 -10  -8  -4   18.48    0.94
   0   0   0    0.00    0.00
;
_shelx_hkl_checksum              26815
loop_
_space_group_symop_operation_xyz
'x, y, z'
'-x, -y, -z'
loop_
_atom_site_label
_atom_site_type_symbol
_atom_site_fract_x
_atom_site_fract_y
_atom_site_fract_z
_atom_site_U_iso_or_equiv
_atom_site_adp_type
_atom_site_occupancy
_atom_site_site_symmetry_order
_atom_site_calc_flag
_atom_site_refinement_flags_posn
_atom_site_refinement_flags_adp
_atom_site_refinement_flags_occupancy
_atom_site_disorder_assembly
_atom_site_disorder_group
Cd Cd 0.500000 0.000000 0.500000 0.01187(5) Uani 1 2 d S . P . .
S1 S 0.76886(4) 0.03641(5) 0.52552(4) 0.01196(8) Uani 1 1 d . . . . .
S2 S 0.51926(5) -0.07329(5) 0.76202(4) 0.01383(9) Uani 1 1 d . . . . .
P1 P 0.67058(5) 0.03536(5) 0.71304(4) 0.01079(9) Uani 1 1 d . . . . .
O1 O 0.58224(13) 0.22018(13) 0.74930(10) 0.0145(2) Uani 1 1 d . . . . .
O2 O 0.81442(13) -0.04757(13) 0.79906(11) 0.0148(2) Uani 1 1 d . . . . .
O3 O 0.05132(15) 0.32139(14) 0.92388(11) 0.0189(3) Uani 1 1 d . . . . .
N1 N 0.33514(16) 0.27348(16) 0.53821(12) 0.0120(3) Uani 1 1 d . . . . .
N2 N -0.07155(17) 0.58298(17) 0.85107(13) 0.0152(3) Uani 1 1 d D . . . .
H1N H -0.107(2) 0.6835(13) 0.8685(19) 0.023 Uiso 1 1 d D U . . .
C1 C 0.4812(2) 0.2700(2) 0.87665(16) 0.0206(4) Uani 1 1 d . . . . .
H1A H 0.551057 0.224322 0.944883 0.025 Uiso 1 1 calc R U . . .
H1B H 0.391783 0.231953 0.895389 0.025 Uiso 1 1 calc R U . . .
C2 C 0.4078(2) 0.4513(2) 0.87269(19) 0.0261(4) Uani 1 1 d . . . . .
H2A H 0.340599 0.490153 0.957320 0.039 Uiso 1 1 calc R U . . .
H2B H 0.337095 0.494792 0.806079 0.039 Uiso 1 1 calc R U . . .
H2C H 0.497613 0.487217 0.852068 0.039 Uiso 1 1 calc R U . . .
C3 C 0.9271(2) 0.0300(2) 0.79494(17) 0.0185(4) Uani 1 1 d . . . . .
H3A H 0.874623 0.120098 0.854785 0.022 Uiso 1 1 calc R U . . .
H3B H 0.950479 0.074152 0.706207 0.022 Uiso 1 1 calc R U . . .
C4 C 1.0864(2) -0.0945(2) 0.83455(18) 0.0232(4) Uani 1 1 d . . . . .
H4A H 1.157855 -0.042236 0.841833 0.035 Uiso 1 1 calc R U . . .
H4B H 1.144172 -0.176640 0.769181 0.035 Uiso 1 1 calc R U . . .
H4C H 1.060983 -0.145877 0.918443 0.035 Uiso 1 1 calc R U . . .
C5 C 0.18808(19) 0.32588(19) 0.61944(15) 0.0126(3) Uani 1 1 d . . . . .
H5 H 0.154115 0.248225 0.668676 0.015 Uiso 1 1 calc R U . . .
C6 C 0.08363(19) 0.48868(19) 0.63450(15) 0.0128(3) Uani 1 1 d . . . . .
C7 C 0.1354(2) 0.6014(2) 0.56293(16) 0.0152(3) Uani 1 1 d . . . . .
H7 H 0.067128 0.713821 0.570877 0.018 Uiso 1 1 calc R U . . .
C8 C 0.2879(2) 0.5479(2) 0.47993(16) 0.0156(3) Uani 1 1 d . . . . .
H8 H 0.325929 0.622773 0.430604 0.019 Uiso 1 1 calc R U . . .
C9 C 0.3832(2) 0.3836(2) 0.47035(15) 0.0143(3) Uani 1 1 d . . . . .
H9 H 0.487445 0.347064 0.413157 0.017 Uiso 1 1 calc R U . . .
C10 C -0.08210(19) 0.5414(2) 0.72594(16) 0.0154(3) Uani 1 1 d . . . . .
H10A H -0.166533 0.636282 0.686406 0.018 Uiso 1 1 calc R U . . .
H10B H -0.118859 0.452949 0.739048 0.018 Uiso 1 1 calc R U . . .
C11 C -0.00292(19) 0.4672(2) 0.93796(15) 0.0144(3) Uani 1 1 d . . . . .
loop_
_atom_site_aniso_label
_atom_site_aniso_U_11
_atom_site_aniso_U_22
_atom_site_aniso_U_33
_atom_site_aniso_U_23
_atom_site_aniso_U_13
_atom_site_aniso_U_12
Cd 0.01072(8) 0.00774(9) 0.01599(9) -0.00140(6) -0.00444(6) -0.00164(6)
S1 0.01067(17) 0.01169(19) 0.01251(18) -0.00087(14) -0.00073(14) -0.00428(14)
S2 0.01291(18) 0.0147(2) 0.01447(19) 0.00188(15) -0.00215(15) -0.00720(15)
P1 0.00992(18) 0.0094(2) 0.01173(19) 0.00035(15) -0.00246(15) -0.00285(15)
O1 0.0157(5) 0.0113(6) 0.0135(5) -0.0024(4) 0.0001(4) -0.0035(5)
O2 0.0141(5) 0.0151(6) 0.0173(6) 0.0038(5) -0.0071(5) -0.0074(5)
O3 0.0234(6) 0.0116(6) 0.0170(6) -0.0010(5) -0.0029(5) -0.0033(5)
N1 0.0120(6) 0.0100(7) 0.0136(6) -0.0009(5) -0.0043(5) -0.0032(5)
N2 0.0156(7) 0.0110(7) 0.0144(7) -0.0021(5) -0.0028(5) -0.0010(6)
C1 0.0208(9) 0.0217(9) 0.0140(8) -0.0062(7) 0.0038(7) -0.0059(7)
C2 0.0234(9) 0.0221(10) 0.0298(10) -0.0125(8) 0.0023(8) -0.0068(8)
C3 0.0187(8) 0.0201(9) 0.0226(9) 0.0023(7) -0.0079(7) -0.0125(7)
C4 0.0176(9) 0.0279(10) 0.0262(9) 0.0033(8) -0.0082(7) -0.0108(8)
C5 0.0139(8) 0.0122(8) 0.0118(7) 0.0004(6) -0.0049(6) -0.0048(6)
C6 0.0135(8) 0.0130(8) 0.0113(7) -0.0017(6) -0.0054(6) -0.0032(6)
C7 0.0179(8) 0.0094(8) 0.0174(8) -0.0009(6) -0.0078(7) -0.0027(6)
C8 0.0191(8) 0.0129(8) 0.0169(8) 0.0022(6) -0.0064(7) -0.0080(7)
C9 0.0138(8) 0.0149(8) 0.0150(8) -0.0010(6) -0.0038(6) -0.0060(6)
C10 0.0128(8) 0.0144(8) 0.0155(8) -0.0022(6) -0.0046(6) -0.0012(6)
C11 0.0110(7) 0.0156(9) 0.0136(8) -0.0014(7) 0.0010(6) -0.0040(6)
loop_
_atom_type_symbol
_atom_type_description
_atom_type_scat_dispersion_real
_atom_type_scat_dispersion_imag
_atom_type_scat_source
C C 0.0181 0.0091 'International Tables Vol C Tables 4.2.6.8 and 6.1.1.4'
H H 0.0000 0.0000 'International Tables Vol C Tables 4.2.6.8 and 6.1.1.4'
N N 0.0311 0.0180 'International Tables Vol C Tables 4.2.6.8 and 6.1.1.4'
O O 0.0492 0.0322 'International Tables Vol C Tables 4.2.6.8 and 6.1.1.4'
P P 0.2955 0.4335 'International Tables Vol C Tables 4.2.6.8 and 6.1.1.4'
S S 0.3331 0.5567 'International Tables Vol C Tables 4.2.6.8 and 6.1.1.4'
Cd Cd 0.1185 4.6533 'International Tables Vol C Tables 4.2.6.8 and 6.1.1.4'
loop_
_geom_angle_atom_site_label_1
_geom_angle_atom_site_label_2
_geom_angle_atom_site_label_3
_geom_angle
_geom_angle_site_symmetry_1
_geom_angle_site_symmetry_3
_geom_angle_publ_flag
N1 Cd N1 180.0 . 2_656 ?
N1 Cd S1 89.96(3) . . ?
N1 Cd S1 90.04(3) 2_656 . ?
N1 Cd S1 90.04(3) . 2_656 ?
N1 Cd S1 89.96(3) 2_656 2_656 ?
S1 Cd S1 180.0 . 2_656 ?
N1 Cd S2 91.72(3) . . ?
N1 Cd S2 88.28(3) 2_656 . ?
S1 Cd S2 75.988(11) . . ?
S1 Cd S2 104.013(11) 2_656 . ?
N1 Cd S2 88.28(3) . 2_656 ?
N1 Cd S2 91.72(3) 2_656 2_656 ?
S1 Cd S2 104.012(11) . 2_656 ?
S1 Cd S2 75.987(11) 2_656 2_656 ?
S2 Cd S2 180.0 . 2_656 ?
P1 S1 Cd 82.318(17) . . ?
P1 S2 Cd 79.592(16) . . ?
O1 P1 O2 104.60(6) . . ?
O1 P1 S2 112.62(5) . . ?
O2 P1 S2 107.63(5) . . ?
O1 P1 S1 105.17(5) . . ?
O2 P1 S1 110.53(5) . . ?
S2 P1 S1 115.75(2) . . ?
C1 O1 P1 121.35(10) . . ?
C3 O2 P1 117.52(10) . . ?
C9 N1 C5 118.30(13) . . ?
C9 N1 Cd 118.89(10) . . ?
C5 N1 Cd 122.66(10) . . ?
C11 N2 C10 120.35(14) . . ?
C11 N2 H1N 119.4(14) . . ?
C10 N2 H1N 120.2(14) . . ?
O1 C1 C2 106.67(14) . . ?
O1 C1 H1A 110.4 . . ?
C2 C1 H1A 110.4 . . ?
O1 C1 H1B 110.4 . . ?
C2 C1 H1B 110.4 . . ?
H1A C1 H1B 108.6 . . ?
C1 C2 H2A 109.5 . . ?
C1 C2 H2B 109.5 . . ?
H2A C2 H2B 109.5 . . ?
C1 C2 H2C 109.5 . . ?
H2A C2 H2C 109.5 . . ?
H2B C2 H2C 109.5 . . ?
O2 C3 C4 108.46(13) . . ?
O2 C3 H3A 110.0 . . ?
C4 C3 H3A 110.0 . . ?
O2 C3 H3B 110.0 . . ?
C4 C3 H3B 110.0 . . ?
H3A C3 H3B 108.4 . . ?
C3 C4 H4A 109.5 . . ?
C3 C4 H4B 109.5 . . ?
H4A C4 H4B 109.5 . . ?
C3 C4 H4C 109.5 . . ?
H4A C4 H4C 109.5 . . ?
H4B C4 H4C 109.5 . . ?
N1 C5 C6 122.80(15) . . ?
N1 C5 H5 118.6 . . ?
C6 C5 H5 118.6 . . ?
C5 C6 C7 118.11(15) . . ?
C5 C6 C10 120.71(14) . . ?
C7 C6 C10 121.17(14) . . ?
C8 C7 C6 119.27(15) . . ?
C8 C7 H7 120.4 . . ?
C6 C7 H7 120.4 . . ?
C9 C8 C7 118.70(15) . . ?
C9 C8 H8 120.6 . . ?
C7 C8 H8 120.6 . . ?
N1 C9 C8 122.80(15) . . ?
N1 C9 H9 118.6 . . ?
C8 C9 H9 118.6 . . ?
N2 C10 C6 111.77(13) . . ?
N2 C10 H10A 109.3 . . ?
C6 C10 H10A 109.3 . . ?
N2 C10 H10B 109.3 . . ?
C6 C10 H10B 109.3 . . ?
H10A C10 H10B 107.9 . . ?
O3 C11 N2 125.11(15) . . ?
O3 C11 C11 121.61(18) . 2_567 ?
N2 C11 C11 113.28(17) . 2_567 ?
loop_
_geom_bond_atom_site_label_1
_geom_bond_atom_site_label_2
_geom_bond_distance
_geom_bond_site_symmetry_2
_geom_bond_publ_flag
Cd N1 2.3366(13) . ?
Cd N1 2.3366(13) 2_656 ?
Cd S1 2.6716(4) . ?
Cd S1 2.6716(4) 2_656 ?
Cd S2 2.7872(4) . ?
Cd S2 2.7872(4) 2_656 ?
S1 P1 1.9926(5) . ?
S2 P1 1.9766(5) . ?
P1 O1 1.5919(11) . ?
P1 O2 1.6008(11) . ?
O1 C1 1.4595(19) . ?
O2 C3 1.4708(19) . ?
O3 C11 1.230(2) . ?
N1 C9 1.339(2) . ?
N1 C5 1.343(2) . ?
N2 C11 1.332(2) . ?
N2 C10 1.458(2) . ?
N2 H1N 0.868(9) . ?
C1 C2 1.501(3) . ?
C1 H1A 0.9900 . ?
C1 H1B 0.9900 . ?
C2 H2A 0.9800 . ?
C2 H2B 0.9800 . ?
C2 H2C 0.9800 . ?
C3 C4 1.503(2) . ?
C3 H3A 0.9900 . ?
C3 H3B 0.9900 . ?
C4 H4A 0.9800 . ?
C4 H4B 0.9800 . ?
C4 H4C 0.9800 . ?
C5 C6 1.388(2) . ?
C5 H5 0.9500 . ?
C6 C7 1.392(2) . ?
C6 C10 1.514(2) . ?
C7 C8 1.386(2) . ?
C7 H7 0.9500 . ?
C8 C9 1.381(2) . ?
C8 H8 0.9500 . ?
C9 H9 0.9500 . ?
C10 H10A 0.9900 . ?
C10 H10B 0.9900 . ?
C11 C11 1.534(3) 2_567 ?
loop_
_geom_torsion_atom_site_label_1
_geom_torsion_atom_site_label_2
_geom_torsion_atom_site_label_3
_geom_torsion_atom_site_label_4
_geom_torsion
_geom_torsion_site_symmetry_1
_geom_torsion_site_symmetry_2
_geom_torsion_site_symmetry_3
_geom_torsion_site_symmetry_4
_geom_torsion_publ_flag
O2 P1 O1 C1 -69.70(12) . . . . ?
S2 P1 O1 C1 46.90(13) . . . . ?
S1 P1 O1 C1 173.81(11) . . . . ?
O1 P1 O2 C3 -50.45(12) . . . . ?
S2 P1 O2 C3 -170.44(10) . . . . ?
S1 P1 O2 C3 62.27(11) . . . . ?
P1 O1 C1 C2 -175.68(11) . . . . ?
P1 O2 C3 C4 -157.42(11) . . . . ?
C9 N1 C5 C6 0.8(2) . . . . ?
Cd N1 C5 C6 -174.66(11) . . . . ?
N1 C5 C6 C7 -0.7(2) . . . . ?
N1 C5 C6 C10 179.09(14) . . . . ?
C5 C6 C7 C8 0.0(2) . . . . ?
C10 C6 C7 C8 -179.74(14) . . . . ?
C6 C7 C8 C9 0.4(2) . . . . ?
C5 N1 C9 C8 -0.4(2) . . . . ?
Cd N1 C9 C8 175.32(12) . . . . ?
C7 C8 C9 N1 -0.3(2) . . . . ?
C11 N2 C10 C6 -77.36(19) . . . . ?
C5 C6 C10 N2 97.83(17) . . . . ?
C7 C6 C10 N2 -82.41(18) . . . . ?
C10 N2 C11 O3 -2.1(2) . . . . ?
C10 N2 C11 C11 178.08(16) . . . 2_567 ?
