#------------------------------------------------------------------------------
#$Date: 2022-02-01 10:52:57 +0200 (Tue, 01 Feb 2022) $
#$Revision: 272372 $
#$URL: file:///home/coder/svn-repositories/cod/cif/1/56/62/1566219.cif $
#------------------------------------------------------------------------------
#
# This file is available in the Crystallography Open Database (COD),
# http://www.crystallography.net/
#
# All data on this site have been placed in the public domain by the
# contributors.
#
data_1566219
loop_
_publ_author_name
'Vladislav V. Gurzhiy'
'Alina R. Izatulina'
'Maria G. Krzhizhanovskaya'
'Mikhail N. Murashko'
'Dar-ya V. Spiridonova'
'Vladimir V. Shilovskikh'
'Sergey V. Krivovichev'
_publ_section_title
;
 Thermal behavior of uranyl selenite minerals derriksite and
 demesmaekerite
;
_journal_name_full               'Journal of GeoSciences'
_journal_page_first              249
_journal_page_last               259
_journal_paper_doi               10.3190/jgeosci.315
_journal_volume                  65
_journal_year                    2020
_chemical_formula_moiety         'Cu5 H10 O30 Pb2 Se6 U2'
_chemical_formula_sum            'Cu5 H10 O30 Pb2 Se6 U2'
_chemical_formula_weight         2171.98
_space_group_crystal_system      triclinic
_space_group_IT_number           2
_space_group_name_Hall           '-P 1'
_space_group_name_H-M_alt        'P -1'
_atom_sites_solution_hydrogens   difmap
_cell_angle_alpha                88.649(4)
_cell_angle_beta                 79.611(5)
_cell_angle_gamma                89.824(4)
_cell_formula_units_Z            1
_cell_length_a                   5.6548(3)
_cell_length_b                   10.0640(5)
_cell_length_c                   11.9794(7)
_cell_measurement_reflns_used    2872
_cell_measurement_temperature    213(2)
_cell_measurement_theta_max      30.9760
_cell_measurement_theta_min      3.6620
_cell_volume                     670.38(6)
_computing_cell_refinement       'CrysAlisPro 1.171.39.44a (Rigaku OD, 2018)'
_computing_data_collection       'CrysAlisPro 1.171.39.44a (Rigaku OD, 2018)'
_computing_data_reduction        'CrysAlisPro 1.171.39.44a (Rigaku OD, 2018)'
_computing_molecular_graphics    'Olex2 1.3 (Dolomanov et al., 2009)'
_computing_publication_material  'Olex2 1.3 (Dolomanov et al., 2009)'
_computing_structure_refinement  'SHELXL 2018/3 (Sheldrick, 2015)'
_computing_structure_solution    'SHELXT 2018/3 (Sheldrick, 2015)'
_diffrn_ambient_environment      N~2~
_diffrn_ambient_temperature      213(2)
_diffrn_detector                 'CCD plate'
_diffrn_detector_area_resol_mean 10.3829
_diffrn_detector_type            Atlas
_diffrn_measured_fraction_theta_full 0.997
_diffrn_measured_fraction_theta_max 0.997
_diffrn_measurement_details
;
List of Runs (angles in degrees, time in seconds):

  # Type    Start    End  Width  t~exp~   \w     \q     \k     \f   Frames
--------------------------------------------------------------------------
  1  \w    -26.00   1.00   1.00   22.50    --  -15.14 -77.00-150.00   27
  2  \w    -40.00  17.00   1.00   22.50    --  -15.14 -77.00 -30.00   57
  3  \w     39.00 102.00   1.00   22.50    --   16.86 178.00  60.00   63
  4  \w     -2.00  93.00   1.00   22.50    --   16.86  38.00-120.00   95
  5  \w    -57.00  41.00   1.00   22.50    --   16.86 -57.00  90.00   98
;
_diffrn_measurement_device       'four-circle diffractometer'
_diffrn_measurement_device_type  'SuperNova, Dual, Cu at home/near, Atlas'
_diffrn_measurement_method       '\w scans'
_diffrn_orient_matrix_type
'CrysAlisPro convention (1999,Acta A55,543-557)'
_diffrn_orient_matrix_UB_11      -0.0819299000
_diffrn_orient_matrix_UB_12      -0.0267671000
_diffrn_orient_matrix_UB_13      -0.0319291000
_diffrn_orient_matrix_UB_21      0.0855728000
_diffrn_orient_matrix_UB_22      0.0099808000
_diffrn_orient_matrix_UB_23      -0.0505345000
_diffrn_orient_matrix_UB_31      0.0471835000
_diffrn_orient_matrix_UB_32      -0.0644499000
_diffrn_orient_matrix_UB_33      0.0069124000
_diffrn_radiation_monochromator  mirror
_diffrn_radiation_probe          x-ray
_diffrn_radiation_type           'Mo K\a'
_diffrn_radiation_wavelength     0.71073
_diffrn_reflns_av_R_equivalents  0.0345
_diffrn_reflns_av_unetI/netI     0.0588
_diffrn_reflns_Laue_measured_fraction_full 0.997
_diffrn_reflns_Laue_measured_fraction_max 0.997
_diffrn_reflns_limit_h_max       7
_diffrn_reflns_limit_h_min       -7
_diffrn_reflns_limit_k_max       13
_diffrn_reflns_limit_k_min       -13
_diffrn_reflns_limit_l_max       14
_diffrn_reflns_limit_l_min       -15
_diffrn_reflns_number            5521
_diffrn_reflns_point_group_measured_fraction_full 0.997
_diffrn_reflns_point_group_measured_fraction_max 0.997
_diffrn_reflns_theta_full        25.242
_diffrn_reflns_theta_max         27.498
_diffrn_reflns_theta_min         3.459
_diffrn_source                   'micro-focus sealed X-ray tube'
_diffrn_source_type              'SuperNova (Mo) X-ray Source'
_exptl_absorpt_coefficient_mu    36.687
_exptl_absorpt_correction_T_max  0.282
_exptl_absorpt_correction_T_min  0.073
_exptl_absorpt_correction_type   analytical
_exptl_absorpt_process_details
;
CrysAlisPro 1.171.39.44a (Rigaku Oxford Diffraction, 2018)
Analytical numeric absorption correction using a multifaceted crystal
			model based on expressions derived by R.C. Clark & J.S. Reid.
(Clark, R. C. & Reid, J. S. (1995). Acta Cryst. A51, 887-897)
Empirical absorption correction using spherical harmonics,
 implemented in SCALE3 ABSPACK scaling algorithm.
;
_exptl_crystal_colour            brown
_exptl_crystal_density_diffrn    5.380
_exptl_crystal_description       prism
_exptl_crystal_F_000             947
_exptl_crystal_size_max          0.12
_exptl_crystal_size_mid          0.063
_exptl_crystal_size_min          0.055
_refine_diff_density_max         2.366
_refine_diff_density_min         -2.244
_refine_diff_density_rms         0.360
_refine_ls_extinction_coef       .
_refine_ls_extinction_method     none
_refine_ls_goodness_of_fit_ref   1.017
_refine_ls_hydrogen_treatment    mixed
_refine_ls_matrix_type           full
_refine_ls_number_parameters     185
_refine_ls_number_reflns         3069
_refine_ls_number_restraints     4
_refine_ls_restrained_S_all      1.016
_refine_ls_R_factor_all          0.0423
_refine_ls_R_factor_gt           0.0321
_refine_ls_shift/su_max          0.000
_refine_ls_shift/su_mean         0.000
_refine_ls_structure_factor_coef Fsqd
_refine_ls_weighting_details
'w=1/[\s^2^(Fo^2^)+(0.0187P)^2^] where P=(Fo^2^+2Fc^2^)/3'
_refine_ls_weighting_scheme      calc
_refine_ls_wR_factor_gt          0.0609
_refine_ls_wR_factor_ref         0.0655
_reflns_Friedel_coverage         0.000
_reflns_Friedel_fraction_full    .
_reflns_Friedel_fraction_max     .
_reflns_number_gt                2614
_reflns_number_total             3069
_reflns_threshold_expression     'I > 2\s(I)'
_cod_data_source_file            Demesmaekerite_SN_-60C_last.cif
_cod_data_source_block           demesmaekerite_sn_-60C
_cod_original_cell_volume        670.38(7)
_cod_database_code               1566219
_chemical_oxdiff_formula         'Pb2 Cu5 U2 Se3 O30'
_shelx_space_group_comment
;
The symmetry employed for this shelxl refinement is uniquely defined
by the following loop, which should always be used as a source of
symmetry information in preference to the above space-group names.
They are only intended as comments.
;
_reflns_odcompleteness_completeness 99.83
_reflns_odcompleteness_iscentric 1
_reflns_odcompleteness_theta     28.51
_olex2_refinement_description
;
1. Fixed Uiso
 At 1.5 times of:
  All O(H) groups, All O(H,H) groups
2. Restrained distances
 O14-H14
 0.95 with sigma of 0.02
 O13-H13
 0.95 with sigma of 0.02
 O12-H12
 0.95 with sigma of 0.02
 H15A-O5_$3
 2 with sigma of 0.02
3. Uiso/Uaniso restraints and constraints
Uanis(O3) = Uanis(O6) = Uanis(O5)
Uanis(O11) = Uanis(O10) = Uanis(O9)
Uanis(O7) = Uanis(O8)
4.a Rotating group:
 O15(H15A,H15B)
;
_shelx_res_file
;
TITL Demesmaekerite_SN_213K in P-1
    demesmaekerite_sn_213k.res
    created by SHELXL-2018/3 at 02:16:27 on 09-Sep-2020
REM P-1 (#2 in standard setting)
CELL 0.71073 5.654777 10.063964 11.97938 88.6494 79.6105 89.8242
ZERR 1 0.000346 0.000483 0.000733 0.0044 0.0051 0.0044
LATT 1
SFAC Cu H O Pb Se U
UNIT 5 10 30 2 6 2
EQIV $1 +X,-1+Y,+Z
EQIV $2 -1+X,+Y,+Z
EQIV $3 2-X,1-Y,-Z
DFIX 0.95 O14 H14
DFIX 0.95 O13 H13
DFIX 0.95 O12 H12
DFIX 2 H15a O5_$3
EADP O3 O6 O5
EADP O11 O10 O9
EADP O7 O8

L.S. 20
PLAN  4
CONF
HTAB O12 O8_$1
HTAB O13 O9_$2
HTAB O14 O3_$3
HTAB O15 O5_$3
HTAB O15 O6_$1
Htab
BOND $H
MORE -1
fmap 2
acta
OMIT -4 55
OMIT 1 2 11
OMIT -1 1 0
REM <olex2.extras>
REM <HklSrc "%.\\Demesmaekerite_SN_213K.hkl">
REM </olex2.extras>

WGHT    0.018700
FVAR       1.58911
U1    6    1.261034    0.916547    0.252450    11.00000    0.01161    0.00689 =
         0.00354    0.00026   -0.00048   -0.00336
PB1   4    0.171429    0.311214    0.194313    11.00000    0.01353    0.01144 =
         0.01118    0.00186   -0.00231   -0.00355
SE1   5    1.287847    0.889053   -0.046324    11.00000    0.01212    0.00714 =
         0.00474    0.00033   -0.00114   -0.00292
SE2   5    1.225547    1.169136    0.487472    11.00000    0.01972    0.01232 =
         0.00683    0.00019   -0.00156   -0.00412
SE3   5    0.906231    0.625350    0.221081    11.00000    0.01349    0.00787 =
         0.00885   -0.00216    0.00055   -0.00305
CU1   1    1.000000    0.500000    0.500000    10.50000    0.01030    0.01091 =
         0.00611   -0.00126   -0.00105   -0.00458
CU2   1    0.707551    0.443163    0.046403    11.00000    0.01068    0.00771 =
         0.00944    0.00088   -0.00337   -0.00275
CU3   1    0.563929    0.423847    0.384839    11.00000    0.01197    0.01501 =
         0.00549   -0.00044   -0.00097   -0.00697
O1    3    1.521021    0.865588    0.305242    11.00000    0.01829    0.02231 =
         0.01860    0.00126   -0.00753   -0.00156
O2    3    1.003409    0.965935    0.195746    11.00000    0.01346    0.01782 =
         0.02110    0.00083   -0.00870    0.00102
O3    3    1.445669    0.865082    0.062581    11.00000    0.02284    0.01021 =
         0.00408   -0.00138    0.00034   -0.00622
O4    3    1.159426    0.738188   -0.057870    11.00000    0.01487    0.00625 =
         0.01109    0.00106   -0.00273   -0.00489
O5    3    1.517836    0.886311   -0.162902    11.00000    0.02284    0.01021 =
         0.00408   -0.00138    0.00034   -0.00622
O6    3    1.158186    1.100332    0.369204    11.00000    0.02284    0.01021 =
         0.00408   -0.00138    0.00034   -0.00622
O7    3    1.239347    1.330887    0.441901    11.00000    0.02586    0.01261 =
         0.01312    0.00241    0.00781   -0.00597
O8    3    0.956618    1.170172    0.575137    11.00000    0.02586    0.01261 =
         0.01312    0.00241    0.00781   -0.00597
O9    3    1.179445    0.690601    0.221706    11.00000    0.01195    0.01387 =
         0.00473   -0.00004    0.00164   -0.00461
O10   3    0.889025    0.512855    0.331794    11.00000    0.01195    0.01387 =
         0.00473   -0.00004    0.00164   -0.00461
O11   3    0.980149    0.514007    0.114132    11.00000    0.01195    0.01387 =
         0.00473   -0.00004    0.00164   -0.00461
O12   3    0.694918    0.408809    0.525062    11.00000    0.02178    0.01274 =
         0.00589    0.00313   -0.00182   -0.00305
H12   2    0.743529    0.324243    0.546570    11.00000   -1.50000
O13   3    0.471508    0.457528    0.238156    11.00000    0.01163    0.01537 =
         0.00879   -0.00087    0.00234   -0.00194
H13   2    0.381701    0.536394    0.242148    11.00000   -1.50000
O14   3    0.404488    0.381830    0.006342    11.00000    0.01549    0.00822 =
         0.00756   -0.00283   -0.00348    0.00058
H14   2    0.381851    0.296109   -0.021029    11.00000   -1.50000
O15   3    0.699152    0.202319    0.341596    11.00000    0.02004    0.03522 =
         0.02723   -0.01410    0.00259   -0.00468
AFIX   7
H15A  2    0.677735    0.179836    0.272539    11.00000   -1.50000
H15B  2    0.857957    0.195864    0.336232    11.00000   -1.50000
AFIX   0
HKLF 4




REM  Demesmaekerite_SN_213K in P-1
REM wR2 = 0.0655, GooF = S = 1.017, Restrained GooF = 1.016 for all data
REM R1 = 0.0321 for 2614 Fo > 4sig(Fo) and 0.0423 for all 3069 data
REM 185 parameters refined using 4 restraints

END

WGHT      0.0187      0.0000

REM Instructions for potential hydrogen bonds
HTAB O12 Se2_$1
HTAB O12 O8_$1
HTAB O13 Se3_$2
HTAB O13 O9_$2
HTAB O14 Se1_$3
HTAB O14 O3_$3
HTAB O15 Se1_$3
HTAB O15 O5_$3
HTAB O15 Se2_$1
HTAB O15 O6_$1

REM Highest difference peak  2.366,  deepest hole -2.244,  1-sigma level  0.360
Q1    1   1.0690  1.1790  0.4607  11.00000  0.05    2.37
Q2    1   1.3354  0.8872  0.2954  11.00000  0.05    2.03
Q3    1   0.0829  0.3439  0.1534  11.00000  0.05    1.71
Q4    1   1.3364  0.9889  0.2753  11.00000  0.05    1.68
;
_shelx_res_checksum              58254
_shelx_hkl_file
;
   0   0   2 45377.0 1325.85   1
   0   0   3 35460.2 1212.88   1
   0   0  -3 35472.1 1458.00   4
   0   0  -4 193000. 4948.38   3
   0   0   4 202480. 5185.52   1
   0   0  -4 204722. 5633.71   4
   0   0  -5 49397.5 1616.48   3
   0   0   5 53081.8 1882.58   1
   0   0  -5 56291.5 2303.89   4
   0   0   6 5576.12 550.616   1
   0   0  -6 6509.39 784.849   4
   0   0  -6 5017.92 388.049   3
   0   0  -7 130419. 4452.49   4
   0   0   7 119924. 3696.57   1
   0   0   8 2515.42 451.774   1
   0   0  -8 2800.61 604.261   4
   0   0  -9 25486.9 1952.30   4
   0   0 -10 1215.27 561.175   4
   0   0 -11 9495.24 1321.31   4
   0   0 -12 1114.87 635.428   4
   0   0 -13 23329.3 2304.18   4
   0   0 -14 16051.3 2025.58   4
   0   0 -15 1220.25 831.793   4
   0   1 -15 792.606 681.836   4
   0   1 -14 49657.6 3589.16   4
   0   1 -13 7175.60 1318.42   4
   0   1 -12 50501.7 3317.76   4
   0   1 -11 43738.8 2945.84   4
   0   1 -10 116439. 4962.82   4
   0   1  -9 34603.2 2225.04   4
   0   1  -9 27877.2 1376.34   3
   0   1  -8 19273.3 1535.10   4
   0   1  -8 15339.8 1006.73   3
   0   1  -7 164695. 4949.38   3
   0   1  -7 180997. 5733.82   4
   0   1  -6 1738.80 439.509   4
   0   1  -6 1452.17 301.771   1
   0   1  -6 1491.00 288.269   3
   0   1  -5 75572.9 2502.98   1
   0   1  -5 74288.8 2799.47   4
   0   1  -5 67781.5 2455.11   3
   0   1  -4 2376.39 337.055   3
   0   1  -4 2246.60 386.416   4
   0  -1   4 2522.34 260.250   3
   0   1  -3 86611.4 2736.40   4
   0   1  -3 83140.4 2621.94   3
   0  -1   3 88612.5 2444.29   3
   0   1  -2 258.513 120.012   4
   0  -1   2 468.217 123.260   3
   0  -1  -2 53293.8 1674.65   4
   0  -1  -3 21607.6 1050.24   4
   0  -1  -4 64943.9 2385.32   4
   0  -1  -5 2421.76 463.454   4
   0   1   5 2371.58 329.686   1
   0  -1  -6 126177. 4306.42   4
   0   1   6 123858. 3801.18   1
   0   1   7 33699.1 1630.36   1
   0  -1  -7 34948.5 2013.84   4
   0  -1  -8 10005.8 1106.30   4
   0   1   8 9564.60 864.742   1
   0   1   9 4333.92 623.175   1
   0  -1  -9 4766.74 846.326   4
   0  -1 -10 10501.6 1323.20   4
   0  -1 -11 24586.2 2159.16   4
   0  -1 -12 11813.7 1579.96   4
   0  -1 -13 369.313 566.273   4
   0  -1 -14 1650.57 818.037   4
   0  -1 -15 663.224 720.795   4
   0  -1 -15 1260.73 815.766   5
   0   2 -15 17445.0 2154.48   4
   0   2 -14 2187.81 802.723   4
   0   2 -13 2653.17 838.109   4
   0   2 -12 9001.26 1394.86   4
   0   2 -11 444.315 442.664   4
   0   2 -10 4182.08 588.103   3
   0   2 -10 7587.63 1087.84   4
   0   2  -9 1295.22 418.737   1
   0   2  -9 1130.21 440.678   4
   0   2  -9 786.746 310.483   3
   0   2  -8 13893.9 1271.81   4
   0   2  -8 12023.1 1028.43   1
   0   2  -8 12049.3 1082.11   3
   0   2  -7 36396.8 2039.71   4
   0  -2   7 39679.0 2040.79   4
   0   2  -7 33763.3 1870.07   3
   0   2  -6 55280.7 2421.86   4
   0   2  -6 48792.0 2256.40   3
   0  -2   6 53793.0 1938.73   3
   0   2  -5 39441.2 1836.27   4
   0   2  -5 37434.6 1835.02   3
   0  -2   5 40663.5 1589.10   3
   0   2  -4 18055.9 1138.11   3
   0   2  -4 18411.8 1068.63   4
   0  -2   4 17686.3 815.794   2
   0  -2   4 19238.6 1003.74   3
   0   2  -3 140734. 3952.44   4
   0  -2   3 139696. 3751.77   2
   0  -2   3 143056. 4059.22   3
   0   2  -3 134904. 4208.64   3
   0   2  -2 1896.83 245.163   2
   0  -2   2 1928.04 331.241   3
   0  -2   2 2019.54 250.292   2
   0   2  -2 1818.16 236.583   4
   0   2  -1 82052.1 2163.35   4
   0  -2   1 82827.2 2526.79   2
   0  -2   1 82159.4 2683.95   3
   0  -2   0 8177.91 629.952   3
   0  -2   0 9583.21 673.229   2
   0  -2  -1 77011.5 2521.34   3
   0  -2  -1 80350.5 2028.82   4
   0  -2  -1 82466.3 2121.66   5
   0   2   1 79412.7 2049.19   4
   0   2   1 79904.7 2120.84   5
   0  -2  -2 274.727 116.660   4
   0  -2  -2 370.224 128.912   5
   0   2   2 222.452 113.591   3
   0  -2  -2 372.952 150.044   3
   0   2   2 174.493 89.8231   4
   0  -2  -3 620.528 191.535   4
   0   2   3 559.975 179.508   4
   0  -2  -3 596.334 161.850   3
   0  -2  -4 717.574 228.264   4
   0   2   4 544.866 193.193   4
   0  -2  -4 378.248 124.589   3
   0  -2  -5 1045.05 300.523   4
   0   2   5 783.081 217.940   4
   0   2   6 10322.0 875.391   4
   0  -2  -6 11225.0 990.239   4
   0  -2  -7 10910.2 1082.71   4
   0   2   7 12213.2 941.871   1
   0   2   7 10036.6 921.742   4
   0   2   8 102354. 3679.76   1
   0  -2  -8 106905. 4171.82   4
   0   2   9 11344.7 1041.58   1
   0  -2  -9 10896.1 1241.03   4
   0  -2 -10 74700.6 3715.74   4
   0  -2 -11 27617.0 2248.33   4
   0  -2 -12 46317.3 3109.46   4
   0  -2 -13 24083.8 2291.08   4
   0  -2 -14 16802.6 2161.47   5
   0  -2 -14 16599.0 1998.65   4
   0  -2 -15 56991.9 4213.61   5
   0  -2 -15 59926.3 4034.58   4
   0   3 -15 18238.9 2070.06   4
   0   3 -14 3912.64 987.578   4
   0   3 -13 19464.6 1986.49   4
   0   3 -12 29870.2 2373.92   4
   0   3 -11 77347.0 3882.72   4
   0  -3  10 12648.2 877.392   2
   0   3 -10 16195.6 1539.81   4
   0   3 -10 13362.1 1277.92   1
   0   3 -10 12281.4 1235.25   3
   0  -3   9 17198.1 999.410   2
   0   3  -9 17053.5 1352.55   1
   0   3  -8 254.989 290.335   1
   0  -3   8 418.250 197.386   2
   0   3  -8 985.800 371.734   3
   0   3  -8 417.951 323.924   4
   0  -3   7 12969.5 844.966   2
   0  -3   7 15659.0 1223.77   4
   0   3  -7 15387.7 1223.21   4
   0   3  -7 12933.1 1212.58   3
   0   3  -7 13675.7 1106.15   1
   0  -3   7 14252.3 984.565   3
   0  -3   6 6948.54 685.268   3
   0  -3   6 5627.07 542.141   2
   0   3  -6 8255.92 814.010   4
   0   3  -6 6900.28 834.063   3
   0  -3   5 41379.5 1874.33   3
   0  -3   5 41114.5 1895.12   4
   0  -3   5 41076.0 1662.33   2
   0   3  -5 42606.9 1879.80   4
   0   3  -5 45252.6 2193.50   3
   0   3  -4 29667.1 1375.09   4
   0   3  -4 29853.0 1680.45   3
   0  -3   4 27928.5 1495.24   3
   0  -3   4 26400.2 1244.81   2
   0  -3   4 28588.0 1411.83   4
   0  -3   3 70642.0 2677.33   3
   0   3  -3 71178.9 2328.91   2
   0   3  -3 70606.2 2762.93   3
   0  -3   3 70961.5 2321.27   4
   0  -3   3 64325.6 2285.19   2
   0   3  -3 68918.9 2236.12   4
   0  -3   2 193222. 4983.65   4
   0  -3   2 191861. 5676.84   3
   0  -3   2 190392. 5306.00   2
   0   3  -2 189569. 4887.75   4
   0   3  -2 199316. 5426.65   2
   0  -3   1 18209.3 1187.79   3
   0  -3   1 18775.9 1106.44   2
   0   3  -1 17466.6 613.920   4
   0  -3   1 17212.9 657.538   4
   0   3  -1 17308.4 1078.98   2
   0  -3   0 1309.47 320.460   3
   0  -3   0 1233.49 314.804   2
   0   3   0 1204.65 161.284   5
   0  -3  -1 187550. 5436.23   3
   0   3   1 184597. 4589.91   5
   0  -3  -1 185683. 4621.00   5
   0   3   2 93182.3 2555.45   4
   0  -3  -2 94165.6 2640.84   5
   0  -3  -2 94547.1 2534.89   4
   0  -3  -2 90411.0 3161.31   3
   0   3   2 93633.0 2962.84   3
   0   3   3 385902. 9485.71   4
   0  -3  -3 382358. 9600.05   5
   0   3   3 393367. 9642.63   3
   0  -3  -3 374465. 9921.77   3
   0  -3  -3 388507. 9510.57   4
   0  -3  -4 24649.4 1255.73   3
   0  -3  -4 26461.7 1247.38   4
   0   3   4 26054.1 1195.85   4
   0  -3  -4 24332.5 1277.48   5
   0  -3  -5 257792. 6820.78   4
   0   3   5 250582. 6652.41   4
   0  -3  -6 16249.8 759.116   3
   0  -3  -6 16707.8 1195.97   4
   0   3   6 17152.9 1105.23   4
   0  -3  -7 29015.4 1756.83   4
   0   3   7 28859.1 1590.27   4
   0  -3  -8 114155. 4343.69   4
   0  -3  -9 36196.9 2288.55   4
   0   3   9 36454.5 2020.32   1
   0  -3 -10 16748.8 1563.44   4
   0  -3 -11 1430.00 567.982   4
   0  -3 -12 411.721 462.826   5
   0  -3 -12-163.604 412.626   4
   0  -3 -13 17720.3 1906.56   4
   0  -3 -13 16292.6 1953.06   5
   0  -3 -14-3.36179 659.895   5
   0  -3 -14 2342.19 800.195   4
   0  -3 -15 4861.42 1196.58   5
   0  -3 -15 5599.45 1213.02   4
   0   4 -15 2928.58 906.385   4
   0   4 -14 42.6398 457.117   4
   0   4 -13 32969.6 2550.01   4
   0   4 -12 21466.9 1872.45   1
   0   4 -12 22983.3 2016.25   4
   0   4 -11 37715.5 2489.93   4
   0   4 -11 33912.8 2289.11   1
   0  -4  10 13932.4 1021.19   2
   0   4 -10 17429.2 1566.95   4
   0   4 -10 17276.8 1504.93   1
   0   4  -9 82783.1 3576.70   1
   0  -4   9 82327.0 2986.66   2
   0   4  -9 75634.9 3802.96   3
   0  -4   8 16839.3 1231.48   3
   0  -4   8 15205.4 1045.21   2
   0   4  -8 15794.1 1331.60   1
   0   4  -8 18205.5 1604.17   3
   0   4  -8 16721.4 1343.57   4
   0   4  -7 100159. 3781.82   1
   0  -4   7 99582.0 3640.10   3
   0  -4   7 94930.0 3315.22   2
   0  -4   7 104342. 3823.47   4
   0   4  -7 104083. 3716.40   4
   0   4  -7 104477. 4250.97   3
   0   4  -6 39271.1 2287.34   3
   0  -4   6 36374.5 1699.93   2
   0   4  -6 39891.9 1892.77   4
   0  -4   6 37672.2 1973.69   3
   0   4  -6 41125.7 2029.53   1
   0   4  -5 94138.8 3136.57   4
   0  -4   5 91756.9 3481.33   3
   0  -4   5 92083.3 3222.69   4
   0  -4   5 87742.1 3089.91   2
   0   4  -4 132985. 3900.85   4
   0  -4   4 132616. 4027.63   4
   0  -4   4 131293. 4521.11   3
   0  -4   4 128692. 4091.99   2
   0   4  -4 146063. 4815.97   3
   0  -4   3 950.951 331.232   3
   0   4  -3 766.699 303.485   2
   0  -4   3 338.613 225.803   2
   0  -4   3 538.629 185.104   4
   0   4  -3 614.919 165.397   4
   0  -4   2 51128.9 1679.87   4
   0  -4   2 53760.4 2469.36   3
   0   4  -2 51381.7 1586.27   4
   0  -4   2 53345.4 2240.88   2
   0   4  -2 53229.1 2315.61   2
   0   4  -1 10394.2 900.771   2
   0  -4   1 10183.0 928.986   2
   0   4  -1 10396.3 407.238   4
   0  -4   1 11046.3 1020.01   3
   0  -4   1 10759.5 497.270   4
   0   4  -1 10835.0 693.562   5
   0  -4   0 102232. 3667.97   2
   0  -4   0 99120.0 3739.66   3
   0   4   0 100722. 2726.89   5
   0   4   1 1407.87 178.541   5
   0  -4  -1 1587.70 402.320   3
   0  -4  -1 1496.00 206.089   5
   0   4   2 7271.05 695.672   3
   0  -4  -2 6775.77 787.196   3
   0  -4  -2 6984.03 471.892   5
   0   4   2 7220.72 404.519   4
   0   4   3 8220.70 712.746   3
   0  -4  -3 8243.31 602.118   5
   0  -4  -3 9173.78 884.016   3
   0  -4  -3 8172.78 527.311   4
   0   4   3 8661.78 543.998   4
   0  -4  -4 608.764 221.837   5
   0  -4  -4 863.183 225.221   4
   0  -4  -4 344.323 200.539   3
   0   4   4 524.943 192.252   4
   0   4   4 817.892 254.786   3
   0  -4  -5 17045.8 1077.06   4
   0  -4  -5 17893.1 1158.90   3
   0   4   5 17610.0 1013.62   4
   0  -4  -5 18340.7 1163.65   5
   0  -4  -6 3878.39 598.241   5
   0  -4  -6 4400.20 589.395   4
   0  -4  -6 3573.24 464.083   3
   0   4   6 3672.44 496.493   4
   0  -4  -7 45859.3 1676.69   3
   0   4   7 46775.5 2104.17   4
   0  -4  -7 49964.7 2337.87   4
   0  -4  -7 48633.8 2423.51   5
   0  -4  -8 322.447 294.481   4
   0  -4  -8 66.2087 279.986   5
   0  -4  -9 119096. 4905.77   5
   0  -4  -9 124836. 4685.48   4
   0  -4 -10 6244.56 957.852   4
   0  -4 -10 5714.15 984.077   5
   0  -4 -11 5917.42 1006.36   4
   0  -4 -11 5518.14 1039.87   5
   0  -4 -12 15515.4 1636.61   4
   0  -4 -12 13238.9 1689.71   5
   0  -4 -13 13378.3 1602.95   4
   0  -4 -13 11883.6 1703.88   5
   0   4  13 14812.4 1395.21   2
   0  -4 -14 6583.71 1302.71   5
   0   4  14 9420.98 1187.62   2
   0  -4 -14 8635.37 1367.14   4
   0  -4 -15 3166.45 1024.31   5
   0   5 -15 2223.46 826.075   4
   0   5 -14 44805.1 3053.58   4
   0   5 -13 4650.88 975.877   1
   0   5 -13 4013.25 901.011   4
   0   5 -12 16547.5 1718.85   1
   0   5 -12 19974.2 1796.98   4
   0   5 -11 1487.25 539.243   4
   0   5 -11 1483.06 571.749   1
   0   5 -10 25241.3 1954.88   1
   0   5 -10 24883.5 1832.37   4
   0  -5   9 388.992 206.142   2
   0   5  -9 153.087 320.347   4
   0   5  -9 396.866 439.337   1
   0  -5   8 9905.88 1042.82   3
   0  -5   8 8789.70 841.734   2
   0   5  -8 9557.68 1096.58   1
   0   5  -8 10215.9 993.469   4
   0   5  -7 1470.22 379.841   4
   0   5  -7 1952.40 504.732   1
   0  -5   7 1567.33 365.096   2
   0  -5   7 1485.30 465.897   3
   0  -5   6 27321.6 1560.87   2
   0  -5   6 27314.3 1802.98   3
   0   5  -6 28033.1 1494.71   4
   0   5  -5 9484.72 1093.61   3
   0  -5   5 8136.76 960.724   3
   0  -5   5 8843.36 859.540   2
   0  -5   5 9357.28 809.446   4
   0   5  -5 9110.17 734.652   4
   0   5  -4 5235.34 488.513   4
   0   5  -4 6233.70 741.998   2
   0  -5   4 5866.36 577.692   4
   0   5  -4 6886.70 889.502   3
   0  -5   4 5427.12 680.537   2
   0  -5   4 5719.45 814.919   3
   0  -5   3 48292.4 2305.82   2
   0   5  -3 51626.4 2463.05   2
   0   5  -3 50950.7 1688.57   4
   0  -5   3 49378.8 1796.94   4
   0  -5   3 50983.2 2602.98   3
   0   5  -2 49453.2 1494.27   4
   0   5  -2 48408.2 1935.75   5
   0  -5   2 51373.4 2423.28   2
   0  -5   2 48123.7 1619.61   4
   0   5  -2 51947.3 2449.00   2
   0  -5   2 52489.6 2647.24   3
   0  -5   1 50917.1 2460.86   2
   0   5  -1 50400.0 1842.19   5
   0  -5   1 54978.4 2680.59   3
   0   5  -1 52197.4 2421.41   2
   0  -5   0 121760. 4512.11   3
   0   5   0 121165. 3233.95   5
   0   5   1 11819.6 580.987   5
   0   5   1 14312.3 1106.68   3
   0  -5  -1 12542.8 667.943   5
   0  -5  -1 12667.9 1182.23   3
   0  -5  -2 84465.4 3465.55   3
   0  -5  -2 82898.6 2428.01   5
   0   5   2 79283.1 2168.91   4
   0   5   2 90107.8 3197.61   3
   0  -5  -3 955.692 394.131   3
   0   5   3 1026.47 292.793   3
   0   5   3 1085.27 181.497   4
   0  -5  -3 1526.17 265.122   5
   0   5   4 75933.0 2783.16   3
   0  -5  -4 72099.5 2488.40   5
   0   5   4 69606.2 2290.92   4
   0  -5  -4 73708.2 3124.93   3
   0   5   5 2456.01 362.926   4
   0  -5  -5 1705.70 444.115   3
   0  -5  -5 2669.53 438.943   5
   0   5   5 2581.18 514.678   2
   0  -5  -5 1940.06 349.347   4
   0  -5  -6 1680.33 367.567   4
   0  -5  -6 2070.92 435.048   5
   0  -5  -6 1773.26 419.555   3
   0   5   6 2170.88 504.334   2
   0   5   6 1799.40 365.040   4
   0   5   7 4125.66 540.751   4
   0  -5  -7 3940.92 520.314   3
   0  -5  -7 4502.39 699.446   5
   0  -5  -7 4508.81 651.252   4
   0  -5  -8 815.916 413.795   5
   0  -5  -8 688.685 346.819   4
   0  -5  -9 14917.7 1475.14   5
   0  -5  -9 15163.7 1347.27   4
   0  -5 -10-199.089 381.901   4
   0  -5 -10 124.247 393.201   5
   0  -5 -11 8176.02 1247.77   5
   0  -5 -11 10246.9 1246.64   4
   0   5  11 9322.24 1116.96   2
   0   5  12 1131.27 481.435   2
   0  -5 -12 520.738 366.225   4
   0  -5 -12 951.426 569.747   5
   0   5  13 81583.7 3834.02   2
   0  -5 -13 76970.1 4526.68   5
   0  -5 -13 81975.6 4149.01   4
   0   5  14 1886.97 642.362   2
   0  -5 -14 3633.15 1030.81   5
   0  -5 -15 9031.49 1636.31   5
   0   6 -14 55454.4 3326.54   4
   0   6 -13-84.1131 394.670   4
   0   6 -13-298.527 527.194   1
   0   6 -12 4179.78 935.032   1
   0   6 -12 4246.69 853.732   4
   0   6 -11 3600.65 837.649   1
   0   6 -11 3192.63 694.081   4
   0   6 -10 71266.0 3679.68   1
   0   6 -10 74275.4 3325.15   4
   0   6  -9 14390.1 1491.94   1
   0  -6   9 14597.3 1403.27   3
   0   6  -9 14699.4 1265.08   4
   0   6  -8 33080.8 2196.01   1
   0   6  -8 33173.4 1833.64   4
   0  -6   8 30700.8 1828.29   2
   0  -6   8 29548.0 2052.42   3
   0   6  -7 50916.2 2206.84   4
   0  -6   7 44937.9 2606.61   3
   0  -6   7 46103.1 2333.83   2
   0  -6   6 819.345 300.760   2
   0  -6   6 1329.22 464.698   3
   0   6  -6 933.479 291.718   4
   0  -6   5 13319.0 1167.64   2
   0  -6   5 13369.2 979.463   4
   0   6  -5 14710.3 911.672   4
   0  -6   5 13061.3 1326.00   3
   0   6  -4 3382.78 637.195   2
   0  -6   4 3202.32 612.158   2
   0  -6   4 4228.61 765.249   3
   0   6  -4 3846.95 404.676   4
   0  -6   4 3499.99 443.036   4
   0  -6   3 55788.3 2923.90   3
   0   6  -3 55774.5 1752.27   4
   0   6  -3 53724.0 2738.30   2
   0   6  -3 53823.1 2255.31   5
   0  -6   3 53371.9 1905.41   4
   0  -6   3 57855.1 2747.80   2
   0  -6   2 3916.15 653.643   2
   0  -6   2 3563.90 723.500   3
   0   6  -2 3117.55 608.642   2
   0   6  -2 3949.92 488.717   5
   0  -6   2 3647.51 329.330   4
   0  -6   1 105059. 4313.95   3
   0   6  -1 101045. 3030.86   5
   0   6  -1 111828. 4061.79   2
   0  -6   0 4811.36 816.200   3
   0   6   0 3915.17 325.581   5
   0   6   0 4579.14 692.100   2
   0  -6  -1 21052.4 1699.66   3
   0   6   1 17550.8 750.102   5
   0  -6  -2 69340.1 2175.80   5
   0  -6  -2 77880.6 3516.60   3
   0  -6  -3 96449.5 3974.06   3
   0  -6  -3 93941.2 2796.65   5
   0   6   3 88721.8 2515.57   4
   0   6   4 26333.5 1764.25   2
   0  -6  -4 27905.9 1306.59   5
   0  -6  -4 27410.0 1896.34   3
   0   6   4 25671.7 1107.72   4
   0   6   5 7560.81 934.555   2
   0  -6  -5 6934.52 921.972   3
   0   6   5 7320.94 595.611   4
   0  -6  -5 7230.17 688.648   5
   0   6   6 292730. 8737.62   2
   0  -6  -6 274053. 8564.15   3
   0   6   6 288491. 7777.83   4
   0   6   7 1375.71 469.498   2
   0  -6  -7 802.374 297.741   4
   0   6   7 1075.57 336.492   4
   0  -6  -7 983.973 368.169   5
   0  -6  -7 546.834 272.991   3
   0   6   8 33936.8 2165.40   2
   0  -6  -8 38022.9 2145.47   5
   0  -6  -8 36514.1 1953.38   4
   0   6   9 1059.70 472.030   2
   0  -6  -9 965.159 406.984   4
   0  -6  -9 1057.94 433.229   5
   0  -6 -10 81533.8 3611.79   4
   0  -6 -10 83539.2 3967.41   5
   0   6  10 78579.9 3729.52   2
   0  -6 -11 7356.56 1176.07   5
   0   6  11 7614.33 1085.96   2
   0  -6 -12 2352.87 796.834   5
   0   6  12 1789.15 665.429   2
   0  -6 -13 24866.3 2397.21   5
   0   6  13 22774.1 2004.87   2
   0   6  14 7968.94 1227.32   2
   0  -6 -14 9929.08 1616.96   5
   0  -6 -15 1984.79 993.693   5
   0   7 -14 2306.44 895.242   1
   0   7 -13 2695.70 731.979   4
   0   7 -13 3051.41 928.900   1
   0   7 -12 11681.5 1287.89   4
   0   7 -12 15062.2 1796.97   1
   0   7 -11 2516.74 838.360   1
   0   7 -11 1534.74 503.939   4
   0   7 -10 4519.44 963.780   1
   0   7 -10 5409.82 798.530   4
   0   7  -9 13941.9 1564.60   1
   0  -7   9 15946.0 1568.69   3
   0   7  -9 14172.2 1223.06   4
   0   7  -8 95040.1 3463.92   4
   0   7  -8 95780.1 4278.49   1
   0  -7   8 84592.5 4086.07   3
   0   7  -7 1442.44 362.999   4
   0  -7   7 798.440 417.442   3
   0  -7   6 32794.5 2320.75   3
   0  -7   6 33699.7 2109.28   2
   0   7  -6 34865.6 1605.19   4
   0   7  -5 32259.2 2077.97   2
   0  -7   5 30426.8 2196.76   3
   0  -7   5 30958.4 1564.31   4
   0   7  -5 30462.7 1369.99   4
   0  -7   4 120041. 3684.14   4
   0   7  -4 118571. 4713.42   2
   0   7  -4 118962. 4110.36   5
   0  -7   4 123847. 5013.62   3
   0   7  -4 123198. 3442.01   4
   0   7  -3 41685.3 2500.21   2
   0  -7   3 42042.4 1567.01   4
   0  -7   3 43529.8 2696.49   3
   0   7  -3 45982.0 2064.39   5
   0  -7   2 64563.9 3367.72   3
   0   7  -2 63301.2 2359.02   5
   0   7  -2 62415.2 3055.98   2
   0  -7   1 73009.8 3591.95   3
   0   7  -1 73477.8 3255.55   2
   0   7  -1 67025.1 2166.86   5
   0   7   0 392.591 342.192   2
   0  -7   0 236.269 293.087   3
   0   7   0 137.702 82.3404   5
   0   7   1 32071.9 1098.74   5
   0  -7  -1 32368.3 2286.89   3
   0   7   1 32258.7 1989.16   2
   0   7   2 13252.6 1250.52   2
   0  -7  -2 11318.1 1332.55   3
   0  -7  -2 14077.2 753.042   5
   0  -7  -3 49989.6 1737.67   5
   0  -7  -3 48980.6 2873.70   3
   0   7   3 52650.3 2677.35   2
   0   7   3 49020.7 1456.47   4
   0   7   4 785.094 173.080   4
   0  -7  -4 226.666 316.555   3
   0   7   4 690.763 364.425   2
   0  -7  -4 721.678 216.790   5
   0   7   4 478.908 309.753   3
   0   7   5 221.346 146.025   4
   0   7   5 271.191 319.642   2
   0  -7  -5 367.469 208.512   5
   0  -7  -5-179.728 371.881   3
   0  -7  -6 7388.10 738.180   5
   0  -7  -6 6479.31 912.615   3
   0   7   6 6714.69 972.894   2
   0   7   6 5940.67 576.820   4
   0   7   7 3273.71 473.061   4
   0   7   7 3443.11 720.957   2
   0  -7  -7 2043.27 523.224   3
   0  -7  -7 3666.30 588.769   5
   0  -7  -8 3069.15 586.511   3
   0  -7  -8 4305.50 697.447   5
   0   7   8 4278.65 827.311   2
   0   7   9 6904.56 1094.23   2
   0  -7  -9 7522.80 977.168   5
   0  -7 -10 28463.0 2078.22   5
   0   7  10 24450.4 2042.06   2
   0  -7 -11 2115.78 686.578   5
   0   7  11 1944.01 690.294   2
   0   7  12 33076.7 2465.17   2
   0  -7 -12 38498.2 2815.71   5
   0  -7 -13 5457.43 1120.77   5
   0   7  13 7033.33 1100.09   2
   0  -7 -14 13844.0 1907.01   5
   0   7  14 11317.5 1493.15   2
   0  -7 -15 2352.64 977.193   5
   0   8 -13 46291.4 3473.92   1
   0   8 -12 277.137 629.624   1
   0   8 -11 24599.8 2328.34   1
   0   8 -11 23377.6 1725.94   4
   0   8 -10 9992.19 1448.80   1
   0   8 -10 10722.2 1078.63   4
   0   8  -9 25198.3 2194.51   1
   0  -8   9 25472.4 2157.59   3
   0   8  -9 23976.8 1570.04   4
   0   8  -8 222.065 270.887   4
   0  -8   8 54.7026 326.944   3
   0   8  -8 631.976 460.881   1
   0   8  -7 12526.3 956.134   4
   0  -8   7 12339.6 1496.83   3
   0   8  -6 2305.43 369.532   4
   0  -8   6 1661.11 561.961   3
   0  -8   5 2339.10 698.156   3
   0   8  -5 2146.31 476.535   5
   0   8  -5 1696.53 580.061   2
   0  -8   5 2668.86 447.212   4
   0  -8   4 7480.35 1158.58   3
   0  -8   4 6865.33 583.618   4
   0   8  -4 5637.33 953.668   2
   0   8  -4 7597.85 857.643   5
   0   8  -3 2123.71 607.911   2
   0   8  -3 1115.34 320.675   5
   0  -8   3 759.257 466.801   3
   0  -8   2 6394.34 1097.84   3
   0   8  -2 8231.78 1067.89   2
   0   8  -2 6770.24 591.759   5
   0  -8   1 21458.2 1959.98   3
   0   8  -1 21935.1 954.168   5
   0   8  -1 23775.4 1772.30   2
   0  -8   0 37212.8 2568.11   3
   0   8   0 32465.9 1112.54   5
   0   8   0 34801.3 2159.01   2
   0   8   1 8581.97 1038.69   2
   0  -8  -1 7468.87 1160.83   3
   0   8   2 30510.9 2023.26   2
   0  -8  -2 28883.3 2244.90   3
   0   8   3 54250.9 2897.66   2
   0  -8  -3 59009.7 1985.53   5
   0  -8  -3 56103.9 3253.79   3
   0  -8  -4-36.9774 381.763   3
   0   8   4 313.331 414.393   2
   0  -8  -4 71.2794 123.381   5
   0   8   4 238.027 114.355   4
   0   8   5 31730.4 2138.66   2
   0  -8  -5 29279.1 2207.19   3
   0  -8  -5 33429.2 1418.03   5
   0   8   6 2542.46 370.470   4
   0  -8  -6 2518.74 445.582   5
   0  -8  -6 3218.66 712.168   3
   0   8   6 2887.27 709.012   2
   0  -8  -7 32096.9 2277.58   3
   0   8   7 35973.2 2446.31   2
   0  -8  -8 1894.81 493.813   5
   0   8   8 242.638 362.578   2
   0  -8  -8 1127.48 507.648   3
   0  -8  -9 2000.19 527.194   5
   0   8   9 1366.08 634.466   2
   0  -8 -10 570.036 363.527   5
   0   8  10 791.472 521.256   2
   0  -8 -11 3519.72 789.194   5
   0   8  11 3292.53 762.713   2
   0   8  12 59.2169 499.903   2
   0  -8 -12 160.488 377.811   5
   0   8  13 1253.76 698.475   2
   0  -8 -13 3533.04 961.291   5
   0   8  14 12031.3 1566.65   2
   0   9 -11 40730.3 3185.45   1
   0   9 -10 4531.57 1086.45   1
   0  -9   9 21019.4 2087.02   3
   0   9  -9 22490.5 2153.91   1
   0  -9   8 2729.15 835.445   3
   0  -9   7 27981.8 2385.16   3
   0  -9   6 41584.0 2935.13   3
   0   9  -5 61843.7 3450.06   2
   0  -9   5 62603.5 3653.25   3
   0   9  -4 3599.82 806.560   2
   0  -9   4 6601.75 1135.15   3
   0   9  -4 6364.54 804.933   5
   0   9  -3 830.457 286.474   5
   0  -9   3 130.932 420.278   3
   0   9  -3 475.291 398.136   2
   0   9  -2 2935.18 693.306   2
   0  -9   2 2641.04 784.413   3
   0   9  -2 2988.95 365.792   5
   0   9  -1 9614.22 1163.20   2
   0  -9   1 8884.55 1318.44   3
   0   9  -1 8888.03 504.915   5
   0  -9   0 2348.13 750.606   3
   0   9   0 2564.11 644.635   2
   0  -9  -1 38393.6 2773.90   3
   0   9   1 38954.6 2413.72   2
   0  -9  -2 2484.76 755.463   3
   0   9   2 2414.86 614.945   2
   0  -9  -3 43687.0 2943.59   3
   0   9   3 40992.2 2538.52   2
   0   9   4 40044.8 2513.19   2
   0  -9  -4 38819.0 2738.00   3
   0  -9  -4 39298.4 1570.54   5
   0  -9  -5 3413.83 408.570   5
   0  -9  -5 4219.38 906.749   3
   0   9   5 3689.83 797.208   2
   0  -9  -6 11081.9 1424.88   3
   0   9   6 14780.4 1546.49   2
   0  -9  -6 12935.7 896.191   5
   0  -9  -7 36346.6 1749.29   5
   0   9   7 38527.1 2598.70   2
   0  -9  -8 36756.2 1906.45   5
   0   9   8 34271.4 2514.39   2
   0  -9  -8 29359.8 2234.75   3
   0   9   9 71712.1 3869.81   2
   0   9  10 12509.1 1555.36   2
   0   9  11 47577.9 3185.14   2
   0   9  12 5575.85 1074.19   2
   0   9  13 28559.1 2478.93   2
   0  10 -10 588.403 600.698   1
   0  10  -9 596.659 601.191   1
   0 -10   8 364.083 437.909   3
   0 -10   7 12378.3 1668.16   3
   0 -10   6 22609.1 2245.31   3
   0 -10   5 36225.3 2860.34   3
   0  10  -5 39510.1 2731.52   2
   0 -10   4-138.945 453.412   3
   0  10  -4 133.704 349.213   2
   0 -10   3 34630.9 2772.37   3
   0  10  -3 36932.5 2520.62   2
   0  10  -2 6569.96 1033.49   2
   0 -10   2 4725.90 1094.32   3
   0  10  -1 85878.0 3958.39   2
   0 -10   1 75458.0 4270.05   3
   0  10   0 30987.2 2189.05   2
   0 -10   0 28433.9 2489.99   3
   0  10   1 61945.4 3249.75   2
   0 -10  -1 54130.7 3557.83   3
   0  10   2 32485.0 2280.70   2
   0 -10  -2 32244.3 2667.32   3
   0 -10  -3 2084.04 735.520   3
   0  10   3 2658.05 723.661   2
   0 -10  -4 14145.9 1701.78   3
   0  10   4 14606.6 1514.46   2
   0 -10  -5 1640.03 647.424   3
   0  10   5 2011.35 644.558   2
   0  10   6 26247.6 2132.29   2
   0 -10  -6 17106.5 1862.71   3
   0 -10  -7 481.045 453.347   3
   0  10   7 279.904 398.613   2
   0  10   8 189.577 422.473   2
   0 -10  -8 600.924 442.649   3
   0  10   9 2690.91 831.138   2
   0  10  10 570.509 544.583   2
   0  10  11 8209.48 1319.62   2
   0  10  12 124.148 516.960   2
   0  11  -9 707.285 672.398   1
   0 -11   8 40457.8 3205.82   3
   0 -11   7 1139.42 678.066   3
   0 -11   6 12945.8 1808.82   3
   0  11  -5 1353.15 611.008   2
   0 -11   5 1331.89 668.574   3
   0 -11   4 16863.1 1996.31   3
   0  11  -4 18252.3 1809.54   2
   0  11  -3 17.3151 346.115   2
   0 -11   3 150.007 451.334   3
   0  11  -2 801.758 466.249   2
   0 -11   2 1123.91 602.757   3
   0 -11   1 4487.63 1100.57   3
   0  11  -1 5729.95 1022.16   2
   0  11   0 3263.29 779.510   2
   0 -11   0 1630.83 725.241   3
   0  11   1 3914.72 845.216   2
   0 -11  -1 2312.53 830.774   3
   0  11   2 5785.38 1016.54   2
   0 -11  -2 6904.63 1287.59   3
   0 -11  -3 19142.4 2143.17   3
   0  11   3 23187.9 1993.81   2
   0  11   4 16017.7 1646.14   2
   0 -11  -4 17534.1 1988.92   3
   0  11   5 14090.2 1603.41   2
   0 -11  -5 10662.6 1540.69   3
   0 -11  -6 25609.9 2390.78   3
   0  11   6 29686.3 2370.66   2
   0  11   7 259.385 539.093   2
   0 -11  -7 721.754 666.247   3
   0  11   8 10197.7 1455.03   2
   0  11   9 395.333 537.555   2
   0  11  10 26694.5 2430.54   2
   0 -12   7-649.361 600.590   3
   0 -12   6 2716.66 985.898   3
   0 -12   5 66.6791 474.055   3
   0  12  -5 976.442 574.062   2
   0  12  -4 55032.8 3328.62   2
   0 -12   4 51686.9 3755.65   3
   0  12  -3 7730.65 1220.27   2
   0 -12   3 7372.26 1394.36   3
   0 -12   2 4338.79 1148.47   3
   0  12  -2 4743.13 966.358   2
   0 -12   1 25233.3 2598.64   3
   0  12  -1 31810.6 2436.17   2
   0  12   0 8754.73 1286.53   2
   0 -12   0 8647.19 1563.16   3
   0  12   1 7150.17 1189.02   2
   0 -12  -1 5701.45 1227.79   3
   0 -12  -2 843.642 603.260   3
   0  12   2 754.825 544.605   2
   0 -12  -3 18749.5 2157.75   3
   0  12   3 22229.5 2022.38   2
   0 -12  -4 2901.04 961.123   3
   0  12   4 5103.13 1000.42   2
   0 -12  -5 18543.3 2130.79   3
   0  12   5 23652.8 2132.20   2
   0 -12  -6 2020.02 823.953   3
   0  12   6 2316.29 802.758   2
   0 -12  -7 1845.22 786.171   3
   0  12   7 3414.62 957.714   2
   0  13  -5 2017.44 715.537   2
   0 -13   4 4651.04 1164.30   3
   0  13  -4 3127.54 824.655   2
   0  13  -3 8000.08 1270.79   2
   0 -13   3 5940.74 1368.63   3
   0  13  -2 38158.0 2782.83   2
   0 -13   2 35078.6 3156.26   3
   0 -13   1 880.198 763.485   3
   0  13  -1 494.574 392.430   2
   0 -13   0 15729.0 2146.09   3
   0  13   0 17161.9 1827.94   2
   0 -13  -1 433.511 764.363   3
   0  13   1-207.115 470.619   2
   0  13   2 48130.9 3164.76   2
   0 -13  -2 48378.6 3714.25   3
   0 -13  -3 13900.8 1955.07   3
   0  13   3 14046.6 1639.47   2
   0  13   4 36984.1 2735.87   2
   0 -13  -4 32580.1 2975.60   3
   0 -13  -5 9271.47 1624.45   3
   0 -13  -6 2833.27 952.837   3
   0  14  -4-246.751 568.529   2
   0  14  -3 16832.4 1908.45   2
   0  14  -2 728.991 680.902   2
   0  14  -1 10262.7 1544.48   2
   0 -14  -3 440.791 597.624   3
   0 -14  -4 158.369 413.867   3
  -1  14  -1 621.887 566.566   2
  -1  14  -2 3774.61 953.073   2
  -1  14  -3 1673.78 729.469   2
  -1  14  -4 13587.5 1668.08   2
  -1  13   4 2440.25 863.536   2
  -1  13   3 12515.3 1563.88   2
  -1  13   2 4458.36 991.681   2
  -1  13   1 17078.3 1811.66   2
  -1  13   0 4847.24 983.394   2
  -1  13  -1 17168.2 1826.60   2
  -1  13  -2 236.067 487.692   2
  -1  13  -3-491.059 383.746   2
  -1  13  -4 3016.79 793.784   2
  -1  13  -5 525.534 463.226   2
  -1  12   7 3401.90 895.385   2
  -1  12   6 5017.32 1073.26   2
  -1  12   5 240.494 451.452   2
  -1  12   4 1958.63 677.960   2
  -1  12   3 4647.57 947.802   2
  -1  12   2 12908.8 1536.30   2
  -1  12   1 6960.47 1110.32   2
  -1  12   0 23138.0 2038.73   2
  -1  12  -1 77960.3 3980.12   2
  -1  12  -2 2257.77 676.940   2
  -1  12  -3 12153.6 1475.05   2
  -1  12  -4 159.292 386.208   2
  -1  12  -5 86412.4 4194.14   2
  -1  12  -6-445.014 473.247   2
  -1  12  -7 8600.55 1377.96   1
  -1  11   9 41913.4 3159.62   2
  -1  11   8 2664.64 861.671   2
  -1  11   7 23011.5 2201.71   2
  -1  11   6 50244.1 3236.30   2
  -1  11   5 26016.9 2211.53   2
  -1  11   4 6677.63 1098.00   2
  -1  11   3 3594.66 806.521   2
  -1  11   2 37239.0 2560.86   2
   1 -11  -1 337.657 454.075   3
  -1  11   1 387.695 385.100   2
   1 -11   0 1163.30 673.215   3
  -1  11   0 2601.71 715.610   2
  -1  11  -1 387.617 382.258   2
   1 -11   1-197.753 591.267   3
   1 -11   2 2741.39 937.397   3
  -1  11  -2 4729.81 886.033   2
  -1  11  -3 14862.8 1538.10   2
  -1  11  -4 6049.91 1005.64   2
  -1  11  -5 58.4059 416.994   2
  -1  11  -6 146.268 348.484   2
  -1  11  -7 27486.8 2352.67   1
  -1  11  -8 586.087 528.292   1
  -1  11  -9 19088.4 2116.28   1
  -1  10  11 6116.23 1299.38   2
  -1  10  10 6581.75 1322.39   2
  -1  10   9 2355.23 830.340   2
  -1  10   8 1831.30 741.458   2
  -1  10   7 1171.10 605.943   2
  -1  10   6-2.30411 412.443   2
  -1  10   5 6856.71 1131.66   2
  -1  10   4 1124.32 567.102   2
  -1  10   3 14048.4 1518.51   2
   1 -10  -3 16579.4 1216.03   5
   1 -10  -2 48481.2 3408.47   3
  -1  10   2 52223.8 2985.69   2
   1 -10  -1 10612.0 1604.04   3
  -1  10   1 10276.2 1258.09   2
   1 -10   0 10937.7 1566.71   3
  -1  10   0 10937.1 1280.44   2
  -1  10  -1 4774.90 891.250   2
   1 -10   1 7001.10 1258.52   3
   1 -10   2 52890.2 3571.99   3
  -1  10  -2 56173.6 3013.66   2
  -1  10  -3 1880.69 572.637   2
   1 -10   3 787.874 552.782   3
   1 -10   4 8331.51 1332.56   3
  -1  10  -4 8947.56 1170.10   2
  -1  10  -5 753.849 495.116   2
  -1  10  -6 11349.1 1352.33   2
  -1  10  -7 2649.72 791.418   1
  -1  10  -8 2584.43 819.330   1
  -1  10  -9 708.848 503.330   1
  -1  10 -10 6169.58 1274.27   1
  -1   9  12 46568.7 3332.22   2
  -1   9  11 1280.38 621.303   2
  -1   9  10 12541.0 1663.47   2
   1  -9 -10 14676.9 1540.79   5
   1  -9  -9 8680.08 1097.01   5
  -1   9   9 6890.75 1196.74   2
   1  -9  -8 3473.77 690.282   5
  -1   9   8 4970.33 999.652   2
  -1   9   7 3821.39 879.978   2
   1  -9  -7 3871.68 667.658   5
   1  -9  -6 20949.9 1433.30   5
  -1   9   6 20479.3 1883.32   2
  -1   9   5 14517.9 1542.75   2
   1  -9  -5 14785.2 1098.81   5
  -1   9   4 9042.44 1199.47   2
   1  -9  -4 9327.25 842.598   5
   1  -9  -3 8135.21 800.767   5
  -1   9   3 7508.01 400.377   4
  -1   9   3 7331.23 1071.27   2
   1  -9  -3 7681.76 1280.46   3
   1  -9  -2 1246.52 646.995   3
   1  -9  -2 1948.37 420.662   5
  -1   9   2 1514.88 317.192   5
  -1   9   2 1217.03 496.008   2
  -1   9   1 5382.22 891.433   2
  -1   9   1 6543.65 617.171   5
   1  -9  -1 6504.15 1205.03   3
   1  -9   0 709.545 504.785   3
  -1   9   0 719.864 401.167   2
  -1   9   0 351.751 229.531   5
   1  -9   1 18734.9 1956.28   3
  -1   9  -1 19633.7 1625.07   2
  -1   9  -1 19376.9 1149.39   5
  -1   9  -2 31504.3 1623.39   5
  -1   9  -2 32237.8 2102.61   2
   1  -9   2 27144.8 2405.45   3
  -1   9  -3 88517.5 2501.23   4
  -1   9  -3 99611.4 3546.80   5
   1  -9   3 95240.6 4706.18   3
  -1   9  -3 103732. 4069.58   2
  -1   9  -4 74843.8 2323.86   4
   1  -9   4 72410.0 4060.75   3
  -1   9  -4 80980.1 3604.62   2
  -1   9  -5 83.7414 296.064   2
  -1   9  -5 324.380 196.571   4
  -1   9  -6 35314.9 2419.12   2
  -1   9  -6 35850.3 1609.38   4
  -1   9  -7 16821.9 1710.10   1
  -1   9  -7 16617.7 1122.86   4
  -1   9  -8 89704.7 4507.08   1
  -1   9  -8 97749.8 3483.15   4
  -1   9  -9 24216.8 2256.97   1
  -1   9  -9 22633.1 1523.15   4
  -1   9 -10 42960.9 2284.85   4
  -1   9 -10 41156.2 3099.46   1
  -1   9 -11 523.890 747.350   1
  -1   9 -11 149.916 342.830   4
  -1   9 -12 110.479 375.056   4
   1  -8 -13 2012.17 813.300   5
  -1   8  13 1391.54 689.573   2
   1  -8 -12 3393.28 929.347   5
  -1   8  12 2467.68 843.300   2
  -1   8  11 14458.3 1713.02   2
   1  -8 -11 14604.4 1659.27   5
  -1   8  10 12774.8 1584.60   2
   1  -8 -10 15352.9 1590.63   5
   1  -8  -9 1100.41 512.633   5
  -1   8   9 714.887 435.973   2
  -1   8   8 78815.7 3975.76   2
   1  -8  -8 83689.8 3692.19   5
   1  -8  -7 21308.3 1590.30   5
  -1   8   7 17790.7 1714.55   2
  -1   8   6 43409.1 1827.57   4
  -1   8   6 40183.8 2557.78   2
   1  -8  -6 43641.2 2258.52   5
  -1   8   5 30795.6 2139.78   2
  -1   8   5 32351.3 1414.08   4
   1  -8  -5 31298.8 1772.50   5
   1  -8  -4 92712.8 3048.12   5
  -1   8   4 90651.4 3754.65   2
   1  -8  -3 33203.2 1673.46   5
  -1   8   3 32698.4 2131.50   2
   1  -8  -3 31801.5 2352.31   3
  -1   8   3 31863.2 1189.94   4
   1  -8  -2 33859.6 1716.55   5
   1  -8  -2 32068.2 2400.50   3
  -1   8   2 32688.5 2124.99   2
  -1   8   2 32432.0 1039.83   4
   1  -8  -1 60757.0 2325.46   5
   1  -8  -1 53706.3 3129.38   3
  -1   8   1 57418.4 2814.39   2
  -1   8   1 46517.8 1263.42   4
  -1   8   1 40533.8 1813.43   5
  -1   8   0 43312.3 2366.58   2
   1  -8   0 41715.9 2789.34   3
  -1   8  -1 32599.1 1998.29   2
   1  -8   1 29607.7 2323.20   3
  -1   8  -1 26339.6 805.610   4
   1  -8   2 7505.25 1174.29   3
  -1   8  -2 8920.25 1020.45   2
  -1   8  -2 8116.42 439.978   4
   1  -8   3 17205.7 1743.11   3
  -1   8  -3 18312.8 1329.20   5
  -1   8  -3 19352.8 1502.11   2
  -1   8  -3 16598.8 802.624   4
  -1   8  -4 5509.64 819.018   2
   1  -8   4 5550.56 984.338   3
  -1   8  -4 7292.93 921.210   5
  -1   8  -4 5190.54 477.392   4
  -1   8  -5 2243.59 358.346   4
  -1   8  -5 940.256 442.304   2
   1  -8   5 1439.61 547.518   3
  -1   8  -6 4245.34 790.390   2
  -1   8  -6 3370.76 472.935   4
  -1   8  -7 134.523 228.685   4
  -1   8  -7 851.166 464.762   1
  -1   8  -8 14558.9 1604.17   1
  -1   8  -8 12503.9 1041.02   4
  -1   8  -9 7371.46 1218.57   1
  -1   8  -9 6225.11 797.064   4
  -1   8 -10 18540.1 1976.04   1
  -1   8 -10 17456.2 1425.01   4
  -1   8 -11 5662.25 894.039   4
  -1   8 -11 9251.93 1489.15   1
  -1   8 -12 14810.9 1453.79   4
  -1   8 -12 14749.1 1873.53   1
  -1   8 -13 409.789 612.545   1
  -1   8 -13 548.507 462.326   4
  -1   8 -14 29278.4 2291.57   4
  -1   7  14 6866.89 1202.69   2
   1  -7 -14 6400.59 1372.23   5
   1  -7 -13 43441.2 3327.43   5
  -1   7  13 42108.0 2927.04   2
  -1   7  12 3392.55 878.121   2
   1  -7 -12 2554.03 826.883   5
   1  -7 -11 28129.9 2331.63   5
   1  -7 -10 257.469 346.422   5
   1  -7  -9 33996.3 2318.03   5
   1  -7  -8 23516.2 1818.24   5
   1  -7  -7 4157.79 715.143   5
   1  -7  -6 1531.43 427.916   5
  -1   7   6 1327.82 329.868   4
  -1   7   5 16168.3 1227.21   3
   1  -7  -5 13907.0 1140.74   5
   1  -7  -4 12770.2 1016.82   5
  -1   7   4 14256.4 1172.96   3
  -1   7   4 12929.0 1235.71   2
   1  -7  -3 3968.47 553.151   5
   1  -7  -3 3577.96 721.026   3
  -1   7   3 4207.01 387.616   4
  -1   7   3 4115.81 710.545   2
  -1   7   3 4046.73 531.527   5
   1  -7  -2 9780.25 1208.73   3
   1  -7  -2 9926.92 866.348   5
  -1   7   2 9640.97 1042.13   2
  -1   7   2 10066.2 810.212   5
  -1   7   2 9979.35 535.967   4
   1  -7  -1 8352.24 1121.95   3
  -1   7   1 9474.03 744.052   5
   1  -7  -1 8244.66 806.878   5
  -1   7   1 8523.69 1010.92   2
  -1   7   1 8228.67 427.448   4
  -1   7   0 28051.3 1394.73   5
  -1   7   0 26920.0 948.301   4
  -1   7   0 28954.9 1844.75   2
   1  -7   0 26318.1 2010.94   3
   1  -7   0 26371.4 1468.47   5
  -1   7  -1 31845.0 1092.40   4
  -1   7  -1 33655.4 1996.37   2
  -1   7  -1 35929.7 1645.95   5
   1  -7   1 32108.3 2235.92   3
  -1   7  -2 3888.67 337.086   4
  -1   7  -2 4708.18 730.626   2
   1  -7   2 4227.29 819.141   3
  -1   7  -2 3594.98 529.144   5
   1  -7   3 50210.9 2945.79   3
  -1   7  -3 55752.7 2612.34   2
  -1   7  -3 54377.9 2544.55   5
  -1   7  -3 53088.3 1821.18   4
  -1   7  -4 34643.7 2050.80   2
   1  -7   4 34780.2 2333.81   3
  -1   7  -4 34691.6 2080.65   5
  -1   7  -4 34209.0 1452.06   4
   1  -7   5 33412.5 1792.73   4
  -1   7  -5 36736.6 1615.13   4
  -1   7  -5 35197.1 2175.18   2
  -1   7  -5 37114.0 2216.83   5
  -1   7  -6 10803.0 1095.76   2
  -1   7  -6 10373.5 852.190   4
  -1   7  -6 10262.9 1189.64   1
  -1   7  -7 18681.8 1669.17   1
  -1   7  -7 18673.0 1243.60   4
  -1   7  -8-355.531 355.284   1
  -1   7  -8-95.9342 258.082   4
  -1   7  -9 4928.01 942.625   1
  -1   7  -9 3360.66 611.660   4
  -1   7 -10-462.295 537.222   1
  -1   7 -10-125.813 366.128   4
  -1   7 -11 434.884 590.437   1
  -1   7 -11 614.129 419.777   4
  -1   7 -12 2822.49 883.397   1
  -1   7 -12 1333.07 554.415   4
  -1   7 -13 10116.6 1310.06   4
  -1   7 -13 12974.0 1769.96   1
  -1   7 -14 9995.20 1361.34   4
   1  -6 -14 9006.48 1584.62   5
   1  -6 -13 19200.3 2219.95   5
   1  -6 -12 3361.58 923.658   5
   1  -6 -11 11164.3 1516.94   5
   1  -6 -10 3979.49 894.612   5
   1  -6  -9 97100.9 4307.98   5
   1  -6  -8 1470.62 516.613   5
   1  -6  -7 45630.6 2479.77   5
   1  -6  -6 19073.0 1442.46   5
  -1   6   6 19763.6 1196.69   4
  -1   6   6 21714.8 1311.61   3
  -1   6   5 4161.36 591.286   3
  -1   6   5 4105.91 497.097   4
   1  -6  -5 3936.28 615.065   5
  -1   6   4 6082.93 530.466   4
   1  -6  -4 6752.06 745.415   5
   1  -6  -3 27691.5 1509.35   5
  -1   6   3 26959.1 1135.27   4
  -1   6   3 30188.4 1527.92   5
   1  -6  -3 30054.5 1852.31   3
  -1   6   2 84246.4 2817.58   5
   1  -6  -2 79503.4 3386.08   3
   1  -6  -2 79793.6 2874.24   5
  -1   6   2 74084.5 2257.97   4
   1  -6  -1 6142.73 864.693   3
  -1   6   1 7052.68 809.209   2
  -1   6   1 8345.35 922.915   3
  -1   6   1 7547.14 660.942   5
   1  -6  -1 6695.59 702.070   5
  -1   6   0 57104.1 2185.29   5
  -1   6   0 56015.3 1795.99   4
   1  -6   0 53224.0 2786.40   3
  -1   6   0 63257.8 2827.22   3
  -1   6   0 54827.8 2551.13   2
   1  -6   0 54964.3 2335.84   5
  -1   6  -1 80.2053 202.743   2
   1  -6   1 159.298 275.806   3
  -1   6  -1 169.829 106.566   4
  -1   6  -1 197.562 199.289   5
  -1   6  -2 533.232 294.391   2
   1  -6   2 474.545 331.681   3
  -1   6  -2 918.504 317.043   5
  -1   6  -2 717.597 170.416   4
   1  -6   3 2899.97 641.322   3
  -1   6  -3 2231.46 307.017   4
  -1   6  -3 1564.63 413.618   5
  -1   6  -3 2438.78 466.817   2
  -1   6  -4 62767.5 2196.50   4
   1  -6   4 60008.9 2483.41   4
  -1   6  -4 60080.7 2831.35   5
   1  -6   4 58138.3 2909.00   3
  -1   6  -4 60161.5 2705.00   2
   1  -6   5 5193.41 671.640   4
  -1   6  -5 6502.70 820.136   2
  -1   6  -5 5325.78 774.244   5
  -1   6  -5 6275.73 635.431   4
  -1   6  -6 69593.5 3188.84   1
  -1   6  -6 64861.5 2693.93   2
  -1   6  -6 67217.9 2619.04   4
  -1   6  -7 144763. 5295.71   1
  -1   6  -7 141249. 4630.55   4
  -1   6  -8 21462.8 1477.39   4
  -1   6  -8 24377.7 1904.28   1
  -1   6  -9 19433.0 1746.01   1
  -1   6  -9 19259.9 1458.70   4
  -1   6 -10 3818.92 718.113   4
  -1   6 -10 2232.80 654.280   1
  -1   6 -11 146293. 5384.26   4
  -1   6 -11 140843. 5861.07   1
  -1   6 -12 1670.89 783.361   1
  -1   6 -12 1880.50 640.543   4
  -1   6 -13 19329.8 1829.79   4
  -1   6 -14 5345.78 1042.72   4
  -1   6 -15 16788.6 1878.93   4
   1  -5 -15 76.5682 562.005   5
   1  -5 -14 1962.82 886.433   5
   1  -5 -13 1565.00 725.397   5
   1  -5 -12 13158.1 1771.43   5
   1  -5 -11 3237.91 920.697   5
   1  -5 -10 9327.06 1332.91   5
  -1   5   9 7858.49 805.581   1
   1  -5  -9 8746.93 1173.42   5
   1  -5  -8 234.079 318.301   5
   1  -5  -7 78895.2 3467.54   5
   1  -5  -6 18323.3 1401.93   5
  -1   5   6 16389.4 1103.92   4
  -1   5   6 19616.4 1105.93   3
  -1   5   5 29792.6 1461.03   3
   1  -5  -5 27826.5 1646.05   5
  -1   5   5 26319.7 1342.81   4
   1  -5  -4 6120.76 693.377   5
  -1   5   4 6683.79 681.582   3
  -1   5   4 5735.75 521.288   4
  -1   5   3 211265. 5846.27   5
  -1   5   3 214686. 5979.64   3
   1  -5  -3 194871. 5818.31   5
  -1   5   3 193759. 5292.19   4
   1  -5  -2 2263.15 464.840   3
  -1   5   2 1849.04 352.033   5
  -1   5   2 1696.42 235.581   4
   1  -5  -2 1508.88 337.550   5
  -1   5   2 2131.89 416.139   3
   1  -5  -1 62443.4 2425.06   5
   1  -5  -1 59202.0 2634.61   3
  -1   5   1 62555.7 2288.77   5
  -1   5   0 165422. 4700.83   5
   1  -5   0 158789. 4934.11   5
  -1   5   0 154546. 4908.37   2
   1  -5   0 155469. 5173.95   3
   1  -5   1 128935. 4471.70   3
  -1   5  -1 129037. 4198.30   2
   1  -5   1 126022. 4112.52   5
  -1   5  -1 125714. 3509.27   4
  -1   5  -1 128782. 4009.20   5
  -1   5  -2 9448.19 606.508   4
  -1   5  -2 9864.69 885.606   2
  -1   5  -2 10473.5 950.861   5
   1  -5   2 8314.22 900.798   3
  -1   5  -3 55042.0 2310.15   2
  -1   5  -3 52881.6 2522.57   5
   1  -5   3 53951.8 2508.90   3
  -1   5  -3 50699.1 1866.39   4
  -1   5  -4 103210. 3737.86   2
   1  -5   4 106913. 3677.94   4
  -1   5  -4 109165. 3389.29   4
  -1   5  -4 107605. 4074.52   5
  -1   5  -5 525.401 265.412   1
  -1   5  -5 1125.80 319.969   4
   1  -5   5 641.678 243.727   4
  -1   5  -5 629.631 251.973   2
  -1   5  -6 2189.33 444.162   4
  -1   5  -6 1129.65 405.804   1
  -1   5  -7 677.897 307.525   4
  -1   5  -7 239.034 277.535   1
  -1   5  -8 18636.2 1573.92   1
  -1   5  -8 22222.2 1539.11   4
  -1   5  -9 8035.76 961.621   4
  -1   5  -9 8126.14 1070.26   1
  -1   5 -10 3174.86 756.170   1
  -1   5 -10 3922.42 726.032   4
  -1   5 -11 14238.9 1536.15   1
  -1   5 -11 15747.4 1507.12   4
  -1   5 -12 9276.24 1241.89   4
  -1   5 -13 24401.1 2103.96   4
  -1   5 -14 3026.19 884.314   4
  -1   5 -15 15895.8 1865.17   4
   1  -4 -15 16440.4 2281.27   5
   1  -4 -14 4626.34 1219.31   5
   1  -4 -13 29836.7 2816.48   5
   1  -4 -12 45941.4 3418.74   5
   1  -4 -11 10408.0 1509.64   5
  -1   4  10 64363.8 2629.06   1
   1  -4 -10 73421.6 3901.19   5
  -1   4   9 12711.9 967.667   1
   1  -4  -9 12714.0 1427.28   5
  -1   4   8 79071.3 2818.10   1
   1  -4  -8 74063.1 3589.80   5
   1  -4  -7 2659.79 600.649   5
  -1   4   6 44226.7 2007.82   4
   1  -4  -6 46034.4 2374.68   5
  -1   4   6 48328.7 1713.29   3
   1  -4  -5 18304.6 1321.68   5
  -1   4   5 19284.1 1020.80   3
  -1   4   5 18256.1 1086.32   4
  -1   4   4 28211.5 1332.34   3
   1  -4  -4 27899.2 1537.40   5
  -1   4   4 26003.5 1251.76   4
  -1   4   3 976.668 217.660   4
   1  -4  -3 1020.41 326.826   5
  -1   4   3 1082.41 282.590   5
  -1   4   3 1754.40 339.046   3
  -1   4   2 51255.4 2043.97   5
  -1   4   2 55367.2 2116.22   3
   1  -4  -2 51239.0 2093.01   5
  -1   4   1 8946.48 708.126   5
   1  -4  -1 8132.46 716.243   5
  -1   4   1 9179.66 762.356   3
  -1   4   0 14918.6 957.439   5
   1  -4   0 16197.5 1134.68   5
  -1   4  -1 109590. 3611.20   5
   1  -4   1 114649. 3790.73   5
   1  -4   1 111621. 3698.61   3
  -1   4  -1 106954. 3181.14   4
  -1   4  -2 3596.48 474.358   2
  -1   4  -2 3220.57 366.124   4
  -1   4  -2 3996.12 597.493   5
   1  -4   3 5208.69 612.429   4
  -1   4  -3 5355.58 587.564   2
  -1   4  -3 5357.78 704.642   5
  -1   4  -3 5891.19 524.322   4
  -1   4  -4 112573. 3480.27   4
  -1   4  -4 104390. 3509.32   2
   1  -4   4 104651. 3654.70   4
   1  -4   5 33354.8 1815.04   4
  -1   4  -5 36107.2 1706.88   4
  -1   4  -5 32392.5 1427.62   2
  -1   4  -6 64118.9 2878.79   3
  -1   4  -6 63385.9 2641.45   4
  -1   4  -7 22120.8 1543.01   1
  -1   4  -7 23614.5 1543.09   4
  -1   4  -7 21800.7 1610.06   3
  -1   4  -8 99367.6 4100.89   3
  -1   4  -8 96868.0 3897.30   1
  -1   4  -8 103105. 3981.85   4
  -1   4  -9 1225.35 423.391   4
  -1   4  -9 1077.16 462.925   1
  -1   4 -10 8382.44 1078.12   1
  -1   4 -10 8077.42 1074.38   4
  -1   4 -11 3329.68 742.479   4
  -1   4 -12 12533.0 1460.74   4
  -1   4 -13-125.360 448.029   4
  -1   4 -14 323.522 537.253   4
  -1   4 -15 1258.72 819.421   4
   1  -3 -15 15967.9 2254.02   5
   1  -3 -14 9976.50 1750.39   5
   1  -3 -13 479.977 678.310   5
   1  -3 -12 1458.03 660.974   5
   1  -3 -11 11846.7 1601.69   5
  -1   3  10 30907.4 1603.04   1
   1  -3 -10 36325.0 2667.30   5
   1  -3  -9 1372.77 515.540   5
  -1   3   9 1284.23 309.412   1
  -1   3   8 16740.8 1027.50   1
   1  -3  -8 18098.7 1619.60   5
  -1   3   7 8828.28 691.387   1
   1  -3  -7 8356.22 1031.83   5
   1  -3  -6 203175. 6362.87   5
  -1   3   6 196597. 4954.33   3
  -1   3   6 202192. 5824.59   4
   1  -3  -5 15468.4 1211.19   5
  -1   3   5 16366.0 1028.12   4
  -1   3   5 16477.1 800.610   3
   1  -3  -4 102727. 3594.88   5
  -1   3   4 110530. 3082.94   3
  -1   3   4 102014. 3256.49   4
   1  -3  -3 3523.22 476.382   5
  -1   3   3 4186.47 506.331   5
  -1   3   3 4162.50 399.851   3
  -1   3   3 3431.92 384.252   4
  -1   3   2 5049.65 461.861   3
  -1   3   2 4343.12 499.531   5
   1  -3  -2 4575.20 520.199   5
   1  -3  -1 121636. 3783.32   5
  -1   3   1 121231. 3742.23   5
   1  -3   0 62425.5 2419.13   5
  -1   3   0 63914.6 2308.28   5
   1  -3   1 95221.1 3428.90   5
  -1   3  -1 90878.0 2887.69   4
  -1   3  -1 94285.5 3222.52   5
  -1   3  -2 68087.7 2237.31   2
  -1   3  -2 63691.1 2224.19   4
  -1   3  -3 4740.37 628.136   5
   1  -3   3 5246.37 595.364   4
  -1   3  -3 5666.11 506.877   2
  -1   3  -3 4654.21 498.883   4
  -1   3  -4 4943.26 540.525   4
   1  -3   4 4789.51 607.179   4
  -1   3  -4 5034.97 594.173   3
  -1   3  -4 4688.72 439.860   2
  -1   3  -5 17270.1 1148.30   4
  -1   3  -5 18272.7 1193.89   3
   1  -3   5 16471.1 1218.87   4
  -1   3  -6 40056.7 2015.66   4
  -1   3  -6 41588.4 2011.17   3
  -1   3  -7 36616.1 1944.91   3
  -1   3  -7 34327.8 1978.64   4
   1  -3   7 37912.5 2152.51   4
  -1   3  -7 35356.9 1911.32   1
  -1   3  -8 47722.0 2510.20   4
   1  -3   8 44866.6 1440.93   2
  -1   3  -8 48074.1 2389.72   3
  -1   3  -8 45602.4 2323.01   1
  -1   3  -9 91908.1 3662.51   1
   1  -3   9 82798.4 2319.13   2
  -1   3  -9 90294.2 3709.92   3
  -1   3  -9 94255.9 3900.63   4
  -1   3 -10 30733.3 2085.94   3
  -1   3 -10 33647.0 2264.54   4
  -1   3 -11 5944.40 1006.18   4
  -1   3 -12 45066.2 2937.86   4
  -1   3 -13 40450.6 2911.00   4
  -1   3 -14 52804.9 3535.83   4
  -1   3 -15 14480.1 1916.67   4
   1  -2 -15 14679.5 2240.19   5
   1  -2 -14 20716.9 2506.86   5
   1  -2 -13 20756.7 2400.44   5
   1  -2 -12 6035.87 1261.46   5
   1  -2 -11 55326.1 3593.32   5
   1  -2 -10 9374.18 1368.28   5
   1  -2  -9 1463.07 557.755   5
   1  -2  -8 18816.9 1687.64   5
  -1   2   8 16471.2 985.074   1
   1  -2  -7 2526.37 618.940   5
  -1   2   7 2633.92 366.471   1
   1  -2  -6 1430.76 440.821   5
  -1   2   6 1236.66 339.845   4
  -1   2   6 1797.15 264.332   1
  -1   2   5 108508. 2740.67   3
   1  -2  -5 109489. 3876.70   5
  -1   2   5 103427. 2946.62   1
  -1   2   5 102904. 3427.93   4
  -1   2   4 25821.1 902.676   3
  -1   2   4 23309.3 1209.42   4
   1  -2  -4 25118.0 1440.96   5
  -1   2   3 6207.20 401.036   3
   1  -2  -3 4599.95 540.276   5
  -1   2   3 5004.99 466.531   4
   1  -2  -2 170386. 4849.20   5
   1  -2  -1 139317. 4035.62   5
   1  -2   0 189823. 5311.25   5
  -1   2  -1 11953.9 617.608   1
   1  -2   1 13632.6 1072.37   5
  -1   2  -2 190695. 5239.75   4
  -1   2  -3 15041.6 930.190   4
  -1   2  -3 15490.0 690.787   2
  -1   2  -4 70548.4 2375.09   3
  -1   2  -4 64678.7 2488.59   4
  -1   2  -5 113940. 3780.61   4
  -1   2  -5 109635. 3471.61   3
  -1   2  -6 190588. 5451.32   3
  -1   2  -6 188585. 5879.22   4
  -1   2  -7 20611.2 1263.96   3
  -1   2  -7 21846.8 1557.14   4
   1  -2   7 21198.0 1561.76   4
  -1   2  -8 793.137 284.118   3
  -1   2  -8 782.261 391.401   4
   1  -2   8 421.546 85.3904   2
  -1   2  -9 9000.06 931.754   3
   1  -2   9 7619.36 387.645   2
   1  -2  10 10325.7 477.132   2
  -1   2 -10 11397.0 1102.39   3
  -1   2 -10 12754.4 1430.57   4
  -1   2 -11 9069.57 1240.83   4
  -1   2 -11 9275.12 1036.05   3
  -1   2 -12 4554.73 966.542   4
  -1   2 -13-15.9431 451.686   4
  -1   2 -14 17030.7 2005.23   4
  -1   2 -15 5835.89 1288.84   4
   1  -1 -15 1328.47 916.108   5
   1  -1 -14 16586.8 2338.13   5
   1  -1 -13 9279.10 1626.06   5
   1  -1 -12 27356.5 2638.97   5
   1  -1 -11 72.4354 494.863   5
   1  -1 -10 81955.7 4390.34   5
   1  -1 -10 89118.3 4161.17   4
   1  -1  -9 66023.7 3700.19   5
   1  -1  -9 71894.8 3501.89   4
   1  -1  -8 3531.20 699.321   4
   1  -1  -8 1867.36 563.028   5
   1  -1  -7 116002. 4661.88   5
   1  -1  -7 120596. 4389.12   4
   1  -1  -6 32465.8 1792.69   4
   1  -1  -6 32242.5 1991.72   5
   1  -1  -5 143672. 4803.02   5
   1  -1  -4 1219.08 341.442   5
   1  -1  -3 91020.1 3065.94   5
   1  -1  -2 9957.64 717.526   5
   1  -1  -1 1528.03 271.787   5
   1  -1   0 1765.60 157.718   1
   1  -1   0 1454.81 279.609   5
   1  -1   1 124609. 4088.35   5
   1  -1   1 125083. 3250.44   1
   1  -1   2 30895.3 1148.65   1
  -1   1  -2 31218.9 1402.22   4
  -1   1  -3 7264.44 644.120   4
   1  -1   3 6923.00 518.421   1
  -1   1  -4 32847.3 1622.86   4
   1  -1   4 34788.1 1446.81   1
  -1   1  -5 204.220 190.770   4
   1  -1   5 145.005 165.268   1
  -1   1  -6 34938.5 1933.23   4
   1  -1   6 37658.3 1720.68   1
  -1   1  -6 38245.4 1541.86   3
  -1   1  -7 63739.9 2305.89   3
   1  -1   7 64252.4 2569.51   1
  -1   1  -7 65948.4 3001.46   4
  -1   1  -8 9199.14 1096.13   4
  -1   1  -8 10492.4 831.866   3
  -1   1  -9 64709.8 2575.99   3
  -1   1  -9 65328.0 3320.63   4
  -1   1 -10 41145.8 2587.38   4
  -1   1 -10 29137.9 1723.10   3
  -1   1 -11 58629.9 3345.12   4
  -1   1 -11 48920.1 2403.02   3
  -1   1 -12 1522.16 692.473   4
  -1   1 -13 9985.01 1485.42   4
  -1   1 -14-150.367 624.344   4
  -1   1 -15 5930.22 1369.98   4
  -1   1 -16 363.968 708.988   4
   1   0 -15 3603.66 1256.33   5
   1   0 -14-41.9370 623.786   5
   1   0 -13 10648.9 1811.92   5
   1   0 -12 13956.5 1957.24   5
   1   0 -11 2359.13 764.472   4
   1   0 -11 1193.75 683.695   5
   1   0 -10 1268.19 634.777   5
   1   0 -10 634.230 403.253   4
   1   0  -9 18436.6 1865.26   5
   1   0  -9 20175.9 1719.24   4
   1   0  -8 37131.2 2254.57   4
   1   0  -7 56462.6 2732.88   4
  -1   0   7 60563.2 1674.06   3
  -1   0   6 1510.61 206.818   3
   1   0  -6 1348.39 370.262   4
   1   0  -6 1106.39 397.199   5
   1   0  -6 1682.84 289.592   1
   1   0  -5 18549.9 892.740   1
  -1   0   5 19254.2 824.529   3
   1   0  -5 17123.8 1314.17   5
   1   0  -4 71962.6 2124.17   1
   1   0  -4 73646.3 2826.43   5
   1   0  -3 446721. 10584.1   1
   1   0  -3 446130. 11370.7   5
   1   0  -2 12449.4 790.123   5
   1   0  -1 97065.7 2862.84   5
   1   0   0 11023.7 663.536   5
   1   0   1 129990. 3989.85   5
  -1   0  -2 19193.1 1065.86   4
  -1   0  -2 19857.6 679.471   2
   1   0   3 14816.6 531.091   2
  -1   0  -3 13983.1 609.077   2
  -1   0  -3 13104.8 894.812   4
  -1   0  -4 217493. 6240.04   4
   1   0   4 220846. 5363.76   2
   1   0   5 2043.35 337.850   1
  -1   0  -5 1920.56 419.591   4
   1   0   5 1599.06 211.988   2
  -1   0  -6 35615.6 1978.34   4
   1   0   6 37937.7 1360.55   2
   1   0   6 37528.6 1742.42   1
   1   0   7 283.109 262.259   1
  -1   0  -7 453.963 297.367   4
   1   0   7 381.091 138.798   2
  -1   0  -8 3894.55 727.241   4
   1   0   8 3786.22 601.211   1
  -1   0  -8 4138.92 437.863   3
  -1   0  -9 5860.71 573.631   3
  -1   0  -9 7065.91 1003.73   4
   1   0  10 78220.7 2497.11   2
  -1   0 -10 75000.8 3762.34   4
  -1   0 -11-223.710 180.060   3
   1   0  11 535.089 213.463   2
  -1   0 -11 860.436 514.915   4
   1   0  12 18696.7 1112.58   2
  -1   0 -12 19437.5 1999.37   4
  -1   0 -13 85523.6 4649.48   4
  -1   0 -14 25985.5 2589.01   4
  -1   0 -15 5971.69 1376.87   4
  -1   0 -16 5211.07 1308.90   4
   1   1 -15 10992.3 2071.08   5
   1   1 -14 27823.2 3103.04   5
   1   1 -13 51399.3 4094.63   5
   1   1 -12 2131.89 838.589   5
   1   1 -11 15125.4 1970.19   5
   1   1 -11 16852.5 1740.57   4
   1   1 -10 126562. 5228.44   4
   1   1  -9 1161.64 498.192   4
  -1  -1   8 23585.5 1016.84   3
   1   1  -8 23110.9 1711.80   4
   1   1  -7 1158.17 410.966   4
  -1  -1   7 1661.38 287.955   3
   1   1  -6 94945.5 3062.40   1
  -1  -1   6 96268.0 2999.18   3
   1   1  -6 92222.0 3487.25   4
  -1  -1   5 10526.5 715.150   3
   1   1  -5 11475.0 736.209   1
   1   1  -5 10426.5 858.475   4
  -1  -1   4 470.965 171.616   3
   1   1  -4 357.156 230.764   5
  -1  -1   3 59048.6 1965.47   3
   1   1  -3 59974.6 2305.55   5
   1   1  -2 10426.9 715.398   5
   1   1  -1 54499.0 1792.01   5
   1   1   0 15817.2 750.333   5
   1   1   1 30282.1 1307.11   5
  -1  -1  -1 28770.6 1086.06   2
  -1  -1  -2 17603.9 977.714   4
  -1  -1  -2 17916.8 857.933   2
  -1  -1  -3 359731. 9300.86   4
   1   1   3 377457. 8983.32   2
  -1  -1  -3 347119. 9096.79   2
  -1  -1  -4 21461.0 1259.27   4
   1   1   4 22430.7 1071.31   2
  -1  -1  -5 41267.0 1971.17   4
   1   1   5 40444.4 1638.26   2
   1   1   6 65452.6 2310.71   2
  -1  -1  -6 64136.7 2813.77   4
   1   1   7 90841.1 2955.75   2
  -1  -1  -7 91409.8 3708.90   4
   1   1   7 87750.4 3279.45   1
   1   1   8 29322.2 1420.57   2
   1   1   8 29502.3 1729.93   1
  -1  -1  -8 30214.7 2035.67   4
   1   1   9 56803.6 2210.65   2
  -1  -1  -9 53975.6 1865.21   3
   1   1  10 44089.9 1894.03   2
  -1  -1 -10 44569.3 2761.82   4
  -1  -1 -10 37936.3 1532.45   3
  -1  -1 -11 6027.72 1058.40   4
   1   1  11 5605.36 657.676   2
  -1  -1 -11 3886.98 344.193   3
  -1  -1 -12 328.191 469.221   4
  -1  -1 -13 435.184 516.018   4
  -1  -1 -14 7727.85 1371.96   4
  -1  -1 -15 1920.42 898.398   4
  -1  -1 -16-1189.45 818.708   4
   1   2 -15 796.498 918.006   5
   1   2 -14 3035.80 1180.54   5
   1   2 -13 1770.05 1014.43   5
   1   2 -12-64.2603 658.094   5
   1   2 -11 12047.5 1454.24   4
   1   2 -10 5555.83 979.733   4
   1   2 -10 5600.03 768.718   1
  -1  -2   9 80774.5 2650.18   3
   1   2  -9 75717.0 3582.01   4
   1   2  -9 75367.1 3096.47   1
   1   2  -8 81.2444 242.128   1
  -1  -2   8 479.888 237.909   3
   1   2  -8 238.059 288.905   4
  -1  -2   7 113173. 3655.72   3
   1   2  -7 111033. 4104.71   4
  -1  -2   6 53642.3 2216.03   3
  -1  -2   6 54586.4 2350.61   4
   1   2  -6 53497.3 2359.08   4
  -1  -2   5 18912.1 1166.41   3
   1   2  -5 19671.4 1195.15   4
  -1  -2   4 133146. 4028.93   4
  -1  -2   4 138502. 4163.14   3
   1   2  -3 16388.1 1055.82   5
  -1  -2   3 18077.1 1045.14   3
  -1  -2   3 17512.7 944.572   4
  -1  -2   2 247144. 6267.88   4
   1   2  -2 246864. 6497.15   5
  -1  -2   2 248091. 6602.90   3
   1   2  -1 34218.2 1274.54   5
  -1  -2   1 37265.2 1407.62   2
  -1  -2   0 52628.7 1537.52   5
  -1  -2   0 52510.1 1843.19   2
   1   2   0 51089.5 1577.49   5
   1   2   1 21207.4 904.694   5
  -1  -2  -1 22164.4 868.871   5
  -1  -2  -1 20265.4 1044.01   2
   1   2   2 13202.6 806.735   4
  -1  -2  -2 11676.5 834.931   2
  -1  -2  -2 12864.0 776.503   4
   1   2   3 9190.26 683.107   4
  -1  -2  -3 8652.29 669.168   4
   1   2   3 9690.86 773.874   2
  -1  -2  -3 9298.24 796.724   2
   1   2   4 648.114 238.814   2
  -1  -2  -4 647.511 235.178   4
   1   2   4 1040.69 281.792   4
   1   2   5 5047.87 594.889   2
  -1  -2  -5 5372.25 642.931   4
   1   2   5 4723.92 588.933   4
   1   2   6 1435.88 332.760   2
  -1  -2  -6 1654.83 402.152   4
   1   2   6 1832.33 387.929   4
   1   2   7 120465. 4031.74   2
   1   2   7 124589. 4401.79   4
  -1  -2  -7 131595. 4591.40   4
   1   2   8 467.381 258.001   2
  -1  -2  -8 1409.38 463.248   4
   1   2   9 14609.2 1106.03   2
  -1  -2  -9 15267.4 1465.31   4
  -1  -2 -10 29564.7 2150.84   4
  -1  -2 -10 23038.0 911.272   3
  -1  -2 -11 24240.5 2053.48   4
  -1  -2 -12 40174.6 2827.77   4
  -1  -2 -13 20537.6 2096.78   4
  -1  -2 -14 46461.9 3380.85   4
  -1  -2 -15 694.016 771.374   4
  -1  -2 -16 5271.25 1353.80   4
   1   3 -15 1353.94 926.320   5
   1   3 -14 59408.7 4757.59   5
   1   3 -13 14372.7 2207.58   5
   1   3 -11 427.081 368.709   1
  -1  -3  10 20678.5 1250.98   3
   1   3 -10 18304.7 1486.00   1
   1   3 -10 18347.4 1644.64   4
   1   3  -9 46001.7 2397.16   1
  -1  -3   9 52136.5 2225.15   3
   1   3  -9 50723.9 2701.66   4
  -1  -3   8 257.406 220.817   3
   1   3  -8 701.336 373.489   4
   1   3  -8 430.952 315.596   1
  -1  -3   7 366.642 245.040   3
   1   3  -7 320.581 275.901   4
   1   3  -7 444.982 302.514   1
  -1  -3   6 25049.5 1556.49   3
   1   3  -6 25692.8 1467.75   4
  -1  -3   6 25523.9 1506.67   4
  -1  -3   5 37274.8 1929.40   3
  -1  -3   4 80244.5 3043.16   3
  -1  -3   4 79360.4 2697.50   2
  -1  -3   4 77100.9 2658.69   4
  -1  -3   3 5777.44 563.862   2
  -1  -3   3 5601.49 644.769   3
  -1  -3   3 5145.42 482.506   4
  -1  -3   2 49846.0 2109.54   3
  -1  -3   2 50184.6 1677.32   4
   1   3  -2 48395.8 1816.74   5
  -1  -3   2 50891.1 1967.02   2
   1   3  -1 65773.5 2003.28   5
  -1  -3   1 66594.1 2390.05   2
  -1  -3   1 66222.9 2511.82   3
   1   3   0 278145. 6722.02   5
  -1  -3   0 288664. 7547.07   3
  -1  -3   0 275451. 7441.55   2
  -1  -3  -1 39646.7 1834.29   2
  -1  -3  -1 43634.1 1500.78   4
  -1  -3  -1 40569.5 1764.46   3
  -1  -3  -2 152638. 4179.99   4
  -1  -3  -2 155550. 4045.61   5
  -1  -3  -2 146867. 4797.73   2
   1   3   3-40.6101 124.617   4
  -1  -3  -3 97.2804 145.380   4
  -1  -3  -3 224.031 197.868   2
  -1  -3  -4 62508.1 2300.62   4
   1   3   4 67642.5 2706.93   2
   1   3   4 63211.4 2328.61   4
  -1  -3  -5 59639.6 2377.84   4
   1   3   5 56705.3 2319.44   4
   1   3   5 62720.9 2594.83   2
   1   3   6 53402.8 2302.37   4
  -1  -3  -6 50119.3 2313.71   4
   1   3   6 50987.9 2341.15   2
   1   3   7 68898.2 2872.22   4
  -1  -3  -7 68640.5 2969.00   4
  -1  -3  -8 8443.61 654.422   3
  -1  -3  -8 9983.71 1075.53   4
  -1  -3  -9 412.222 381.138   4
  -1  -3  -9 269.137 134.821   3
  -1  -3 -10 19718.4 884.495   3
  -1  -3 -10 26120.2 1934.34   4
  -1  -3 -11 2429.25 668.470   4
   1   3  11 2506.02 562.682   2
  -1  -3 -12 35568.6 2582.01   4
   1   3  12 34011.5 2022.44   2
  -1  -3 -13 5162.68 1038.76   4
   1   3  13 6240.45 853.088   2
  -1  -3 -14 16775.0 1974.11   4
  -1  -3 -15 25605.5 2513.54   4
  -1  -3 -16 10871.0 1752.73   4
   1   4 -14 4281.74 1371.37   5
   1   4 -13 6785.21 1540.05   5
   1   4 -12 47888.9 2892.56   1
   1   4 -11 3589.09 775.115   1
   1   4 -10 17836.4 1541.92   1
  -1  -4  10 18113.6 1346.79   3
  -1  -4   9 46789.2 2196.89   2
   1   4  -9 50417.4 2634.12   1
  -1  -4   9 54379.6 2510.10   3
   1   4  -8 107762. 4027.77   1
  -1  -4   8 112000. 4044.24   3
  -1  -4   7 23858.6 1429.05   2
  -1  -4   7 27162.8 1739.25   3
  -1  -4   6 17365.4 1377.59   3
  -1  -4   6 15651.9 1106.17   2
  -1  -4   6 16476.6 1191.79   4
  -1  -4   5 125593. 4526.78   3
  -1  -4   5 122733. 4023.75   2
  -1  -4   4 15046.5 1261.49   3
  -1  -4   4 15209.9 955.311   4
  -1  -4   4 16294.6 1112.46   2
  -1  -4   3 24544.4 1142.91   4
  -1  -4   3 23299.6 1550.13   3
  -1  -4   3 25908.7 1420.25   2
   1   4  -2 11234.1 951.005   2
  -1  -4   2 11727.9 918.825   2
   1   4  -2 11438.1 742.841   5
  -1  -4   2 12347.9 1047.12   3
  -1  -4   2 12255.9 666.771   4
  -1  -4   1 309.756 115.711   4
  -1  -4   1 192.147 212.046   3
  -1  -4   1 404.161 220.144   2
   1   4  -1 266.647 112.419   5
  -1  -4   0 6746.82 737.118   2
  -1  -4   0 5860.69 700.083   3
  -1  -4  -1 30847.3 1755.08   2
  -1  -4  -1 33774.8 1191.72   4
  -1  -4  -1 31750.7 1701.01   3
  -1  -4  -2 606.307 293.170   2
  -1  -4  -2 394.111 255.428   3
  -1  -4  -2 346.746 98.0917   5
  -1  -4  -2 231.746 111.044   4
  -1  -4  -3 160.440 140.251   4
   1   4   3 291.023 152.196   4
  -1  -4  -3 396.651 322.419   2
  -1  -4  -3 573.095 286.024   3
  -1  -4  -4 71180.5 2435.97   4
   1   4   4 68713.9 2416.14   4
  -1  -4  -4 72299.6 2759.22   3
   1   4   5 68354.1 2502.74   4
  -1  -4  -5 68475.3 2541.82   4
  -1  -4  -5 64065.0 2587.14   3
   1   4   6 115710. 3845.76   4
  -1  -4  -6 111029. 3786.69   3
  -1  -4  -6 118571. 3942.20   4
   1   4   7 616.363 265.976   4
  -1  -4  -7 522.894 316.958   4
  -1  -4  -7 360.231 227.036   3
  -1  -4  -8 69882.9 2650.69   3
   1   4   8 81082.1 3307.20   2
  -1  -4  -8 76358.7 3216.78   4
  -1  -4  -9 409.768 179.469   3
   1   4   9 300.375 353.547   2
  -1  -4  -9 346.373 297.966   4
   1   4  10 36750.3 2138.07   2
  -1  -4 -10 32162.9 1438.25   3
  -1  -4 -10 35104.1 2244.53   4
   1   4  11 34312.6 2100.49   2
  -1  -4 -11 33400.6 2308.47   4
  -1  -4 -12 51079.6 3087.78   4
   1   4  12 51669.2 2707.68   2
   1   4  13 17418.0 1501.15   2
  -1  -4 -13 15283.8 1717.28   4
  -1  -4 -14 5744.65 1125.60   4
  -1  -4 -15-52.1289 509.196   4
  -1  -4 -16 6416.59 1330.78   4
  -1  -4 -16 3550.34 1098.77   5
   1   5 -14 499.095 653.795   5
   1   5 -13 3101.92 839.801   1
   1   5 -13 5317.52 1449.14   5
   1   5 -12 4747.44 998.807   1
   1   5 -11 4497.94 892.272   1
  -1  -5  11 3396.49 651.455   3
  -1  -5  10 835.926 417.355   3
   1   5 -10 1123.38 574.402   1
  -1  -5   9 645.903 311.300   3
   1   5  -9 416.243 360.899   1
  -1  -5   8 7606.57 1001.60   3
   1   5  -8 7578.35 983.839   1
  -1  -5   7 4924.46 788.169   3
  -1  -5   7 5178.77 695.883   2
  -1  -5   6 69530.5 3241.89   3
  -1  -5   6 64417.9 2794.13   2
  -1  -5   6 68931.1 2747.23   4
  -1  -5   5 1994.33 539.834   3
  -1  -5   5 1368.14 362.608   2
  -1  -5   4 162670. 5706.99   3
  -1  -5   4 167626. 5222.66   2
  -1  -5   4 157861. 4703.77   4
   1   5  -4 166140. 5960.41   3
  -1  -5   3 38923.1 2291.33   3
   1   5  -3 44123.7 2508.55   3
  -1  -5   3 40101.3 2020.61   2
  -1  -5   3 39797.7 1580.08   4
   1   5  -2 9622.64 1007.94   2
  -1  -5   2 10048.6 959.035   2
   1   5  -2 9975.33 661.774   5
  -1  -5   2 9561.29 1025.93   3
  -1  -5   2 9578.20 588.896   4
  -1  -5   1 123056. 4450.76   3
   1   5  -1 120482. 3210.10   5
  -1  -5   1 129770. 4351.38   2
  -1  -5   1 119310. 3186.98   4
   1   5  -1 131621. 4578.10   2
  -1  -5   0 45542.6 2309.05   2
  -1  -5   0 47115.1 2344.22   3
  -1  -5   0 44637.2 1276.10   4
  -1  -5  -1 186192. 5990.86   2
  -1  -5  -1 180260. 4462.36   4
  -1  -5  -1 182138. 5837.63   3
  -1  -5  -2 2517.14 246.857   4
  -1  -5  -2 2619.92 603.208   2
  -1  -5  -2 3009.62 557.474   3
  -1  -5  -3 95897.6 3942.09   2
  -1  -5  -3 91900.3 2507.30   5
  -1  -5  -3 89571.4 3519.51   3
  -1  -5  -3 91982.1 2709.32   4
  -1  -5  -4 2375.11 497.696   3
  -1  -5  -4 2793.53 371.187   4
   1   5   4 2243.73 336.096   4
   1   5   5 511.853 246.099   4
  -1  -5  -5 367.927 255.023   3
  -1  -5  -5 282.570 176.691   4
   1   5   5 483.919 343.916   2
  -1  -5  -6 871.264 321.118   3
  -1  -5  -6 1097.96 332.761   4
   1   5   6 1242.38 296.234   4
   1   5   6 657.434 324.988   2
   1   5   7 27360.5 1560.94   4
  -1  -5  -7 28825.4 1634.40   4
   1   5   7 30339.2 1927.24   2
  -1  -5  -7 26732.2 1619.14   3
  -1  -5  -8 566.849 279.472   3
  -1  -5  -8 675.503 333.126   4
   1   5   8 676.165 431.076   2
  -1  -5  -9 1406.87 356.628   3
  -1  -5  -9 2405.42 555.417   4
   1   5   9 1782.40 508.643   2
  -1  -5 -10 36437.4 1787.19   3
   1   5  10 40816.9 2383.73   2
  -1  -5 -10 40325.0 2369.94   4
   1   5  11 6342.91 944.421   2
  -1  -5 -11 8037.84 1094.50   4
   1   5  12 27100.6 1967.11   2
  -1  -5 -12 26699.0 2117.86   4
  -1  -5 -13 3747.04 855.409   4
   1   5  13 5293.73 927.534   2
  -1  -5 -14 6129.52 1159.21   4
  -1  -5 -14 4396.70 1079.44   5
  -1  -5 -15 33993.2 2986.36   5
  -1  -5 -15 29854.1 2585.04   4
  -1  -5 -16 19536.6 2351.83   5
   1   6 -14 4714.44 1062.18   1
   1   6 -14 3393.51 1237.96   5
   1   6 -13 25176.2 2309.46   1
   1   6 -13 22466.6 2638.10   5
   1   6 -12-393.927 637.354   1
   1   6 -11 78637.0 4055.95   1
  -1  -6  11 83107.8 3764.12   3
  -1  -6  10 17540.7 1602.33   3
   1   6 -10 17881.3 1734.84   1
   1   6  -9 8643.48 1144.21   1
  -1  -6   9 9148.44 1155.42   3
  -1  -6   8 886.699 426.235   3
  -1  -6   7 34559.1 2303.71   3
  -1  -6   6 34871.7 1803.75   4
  -1  -6   6 36239.2 2349.62   3
  -1  -6   5 491.856 353.124   3
  -1  -6   4 2703.79 675.456   3
  -1  -6   4 2213.29 358.417   4
   1   6  -3 12980.0 1267.39   2
  -1  -6   3 11269.6 743.626   4
  -1  -6   3 12000.2 1289.04   3
  -1  -6   3 12798.4 1181.72   2
   1   6  -2 11592.4 1208.10   2
  -1  -6   2 10697.8 1218.84   3
  -1  -6   2 13017.0 1196.62   2
   1   6  -2 10480.4 667.109   5
  -1  -6   2 11500.0 646.995   4
  -1  -6   1 77479.4 3550.71   3
   1   6  -1 79562.5 2198.98   5
   1   6  -1 76195.7 2106.05   5
   1   6  -1 83020.3 3681.49   2
  -1  -6   1 77878.1 2147.29   4
  -1  -6   1 76418.1 3377.98   2
  -1  -6   0 25697.3 1843.85   3
  -1  -6   0 25193.2 1809.36   2
   1   6   0 25048.4 1871.77   2
  -1  -6  -1 156.526 251.674   3
  -1  -6  -2 35486.0 2161.77   3
  -1  -6  -2 34583.3 1029.27   4
  -1  -6  -3 248839. 6188.84   4
  -1  -6  -3 242775. 7676.42   3
   1   6   4 4367.41 441.452   4
  -1  -6  -4 3462.56 654.978   3
  -1  -6  -4 4612.40 386.018   5
  -1  -6  -4 4832.24 449.125   4
   1   6   5 36798.3 1608.87   4
  -1  -6  -5 41188.6 1630.70   5
  -1  -6  -5 35611.9 2167.11   3
  -1  -6  -5 39843.3 1674.07   4
   1   6   6 3058.27 634.813   2
   1   6   6 2549.72 431.477   4
  -1  -6  -6 2229.87 528.066   3
  -1  -6  -6 3220.73 454.534   5
  -1  -6  -6 2885.51 479.427   4
   1   6   7 80698.1 3061.58   4
  -1  -6  -7 89710.7 3265.59   5
   1   6   7 93481.3 3863.70   2
  -1  -6  -7 79505.5 3514.87   3
  -1  -6  -7 88252.1 3215.06   4
  -1  -6  -8 3036.08 614.291   3
  -1  -6  -8 3556.01 594.109   4
   1   6   8 4035.74 744.725   2
  -1  -6  -8 4098.46 660.370   5
   1   6   9 6970.42 992.257   2
  -1  -6  -9 6648.05 857.438   3
  -1  -6  -9 7582.25 979.161   5
  -1  -6  -9 6809.39 882.861   4
   1   6  10 55009.3 2923.98   2
  -1  -6 -10 60412.9 3093.96   5
  -1  -6 -10 52759.9 2748.61   4
  -1  -6 -11 684.871 450.299   4
   1   6  11 1101.55 537.246   2
  -1  -6 -11 134.222 362.738   5
   1   6  12 4999.16 892.135   2
  -1  -6 -12 4799.73 889.509   4
  -1  -6 -12 4632.50 953.860   5
  -1  -6 -13 868.527 565.132   4
   1   6  13 744.270 519.360   2
  -1  -6 -13 299.728 457.327   5
  -1  -6 -14 2288.31 711.582   4
  -1  -6 -14 2241.30 937.131   5
  -1  -6 -15 550.198 478.655   4
  -1  -6 -15 2020.10 911.729   5
  -1  -6 -16 26130.9 2722.14   5
   1   7 -14 64.5115 751.048   1
   1   7 -14 1564.42 835.165   5
   1   7 -13 572.620 725.733   1
   1   7 -13 1114.59 752.281   5
   1   7 -12-26.4831 543.696   1
   1   7 -12 571.431 537.561   5
   1   7 -11 50043.0 3268.38   1
  -1  -7  11 48763.9 2941.11   3
  -1  -7  10 1337.86 541.433   3
   1   7 -10 720.930 530.556   1
   1   7  -9 8506.80 1233.13   1
  -1  -7   9 7457.45 1111.28   3
  -1  -7   8 25349.4 2055.18   3
  -1  -7   7 103058. 4584.43   3
  -1  -7   6 7052.69 768.924   4
  -1  -7   6 6191.41 1003.18   3
  -1  -7   5 40843.9 2660.29   3
  -1  -7   4 112895. 3532.61   4
  -1  -7   4 116583. 4937.80   3
  -1  -7   3 9725.61 653.691   4
   1   7  -3 9990.58 1221.29   2
  -1  -7   3 9036.38 1183.44   3
  -1  -7   2 13594.8 660.203   4
   1   7  -2 13527.6 790.749   5
   1   7  -2 12574.0 693.823   5
  -1  -7   2 10665.1 1302.49   3
   1   7  -2 12959.9 1405.11   2
  -1  -7   1 825.230 419.022   3
   1   7  -1 1675.47 565.833   2
  -1  -7   0 140873. 5502.00   3
   1   7   0 135752. 5332.85   2
   1   7   1 1928.25 573.317   2
  -1  -7  -1 1422.23 551.159   3
  -1  -7  -2 6098.62 965.474   3
   1   7   2 4529.80 787.299   2
  -1  -7  -3 14076.1 1456.41   3
   1   7   3 14479.7 1395.14   2
  -1  -7  -4 5407.25 343.881   5
  -1  -7  -4 5575.78 917.068   3
  -1  -7  -4 6850.12 471.434   4
   1   7   5 20027.7 1075.48   4
  -1  -7  -5 21550.8 997.839   5
   1   7   5 20848.3 1684.93   2
  -1  -7  -5 18829.9 1686.97   3
  -1  -7  -5 22071.2 1086.48   4
   1   7   6 7556.66 1001.21   2
   1   7   6 4831.79 549.904   4
  -1  -7  -6 6456.96 982.870   3
  -1  -7  -6 8389.54 690.266   5
  -1  -7  -6 7762.86 692.903   4
  -1  -7  -7 2835.77 664.454   3
  -1  -7  -7 3162.29 496.648   5
  -1  -7  -7 3675.98 534.985   4
   1   7   7 2459.04 636.083   2
   1   7   7 2815.08 453.715   4
  -1  -7  -8 11304.2 1028.14   5
   1   7   8 9181.17 1143.33   2
  -1  -7  -8 9426.12 1144.18   3
  -1  -7  -8 9898.59 967.654   4
  -1  -7  -9 116229. 4227.16   5
   1   7   9 98014.5 4381.73   2
  -1  -7  -9 93732.6 4114.28   3
  -1  -7  -9 114679. 4118.90   4
  -1  -7 -10 918.357 422.421   4
  -1  -7 -10 1524.80 500.004   3
   1   7  10 1148.28 590.019   2
  -1  -7 -10 2225.99 617.462   5
  -1  -7 -11 26664.4 1925.80   4
  -1  -7 -11 27180.5 2077.72   5
   1   7  11 20781.8 1849.80   2
  -1  -7 -12-397.643 453.152   4
   1   7  12 91.8809 442.822   2
  -1  -7 -12-224.184 413.118   5
   1   7  13 29024.7 2225.98   2
  -1  -7 -13 26476.3 2146.78   4
  -1  -7 -13 33478.6 2591.06   5
  -1  -7 -14 9133.35 1443.87   5
  -1  -7 -14 10569.9 1420.37   4
  -1  -7 -15 20982.8 2015.17   4
   1   8 -13 6576.94 1390.53   1
   1   8 -13 7539.84 1448.28   5
   1   8 -12 17009.9 2033.85   5
   1   8 -12 17504.0 2059.08   1
  -1  -8  11 3723.72 882.883   3
   1   8 -11 3903.99 1077.06   1
   1   8 -11 4579.01 1060.16   5
   1   8 -10 15516.4 1760.41   1
  -1  -8  10 13055.9 1564.04   3
  -1  -8   9 8139.04 1216.57   3
  -1  -8   8 4680.96 968.203   3
  -1  -8   7 378.954 455.226   3
  -1  -8   6 4669.73 985.742   3
  -1  -8   5 5155.85 986.519   3
  -1  -8   5 4209.77 524.435   4
  -1  -8   4 670.478 457.595   3
  -1  -8   4 150.956 167.041   4
   1   8  -3 45131.2 2811.80   2
  -1  -8   3 43650.8 1494.34   4
   1   8  -3 40502.5 1583.20   5
  -1  -8   3 40821.1 2744.52   3
  -1  -8   2 1177.19 561.127   3
   1   8  -2 969.456 164.787   5
   1   8  -2 1879.47 252.001   5
  -1  -8   2 896.053 112.046   4
   1   8  -2 1458.87 574.524   2
  -1  -8   1 108721. 4861.79   3
   1   8  -1 104878. 4650.70   2
  -1  -8   0 33945.1 2481.14   3
   1   8   0 31692.6 2269.73   2
   1   8   1 23315.2 1895.06   2
  -1  -8  -1 22174.8 2002.73   3
  -1  -8  -2 19144.3 1840.15   3
   1   8   2 19432.5 1689.31   2
  -1  -8  -3 15314.7 1629.00   3
   1   8   3 15799.4 1504.82   2
  -1  -8  -4 134961. 5628.02   3
   1   8   4 138380. 5296.29   2
  -1  -8  -5 8769.46 1264.15   3
  -1  -8  -5 9411.55 506.570   5
   1   8   5 9248.86 1177.50   2
   1   8   6 16812.2 1015.71   4
  -1  -8  -6 15708.3 1625.71   3
  -1  -8  -6 18653.3 969.353   5
   1   8   6 17978.5 1637.84   2
  -1  -8  -6 18715.5 1014.01   4
  -1  -8  -7 1016.36 507.682   3
  -1  -8  -7 895.363 294.420   4
  -1  -8  -7 570.462 269.874   5
   1   8   7 644.415 437.792   2
  -1  -8  -8 3781.98 741.212   3
  -1  -8  -8 3330.83 543.025   4
   1   8   8 4082.55 849.779   2
  -1  -8  -8 4806.88 635.685   5
  -1  -8  -9 1856.98 529.876   3
  -1  -8  -9 1991.31 495.269   4
   1   8   9 868.107 481.781   2
  -1  -8  -9 2545.65 545.887   5
  -1  -8 -10 4668.41 734.386   4
   1   8  10 3943.22 885.529   2
  -1  -8 -10 3746.69 697.917   5
  -1  -8 -11 665.495 369.639   4
   1   8  11-168.352 397.234   2
  -1  -8 -11 302.848 324.940   5
  -1  -8 -12 1394.56 548.961   4
   1   8  12 1753.32 746.068   2
   1   8  13 24578.8 2120.13   2
   1   9 -12 8476.46 1483.92   5
   1   9 -11 6211.20 1308.55   1
   1   9 -11 5523.23 1085.91   5
  -1  -9  11 5219.83 1087.16   3
   1   9 -10 34097.8 2806.37   1
  -1  -9  10 28696.4 2461.49   3
   1   9 -10 31186.3 2379.50   5
  -1  -9   9 1858.33 561.065   3
   1   9  -9 1454.79 682.986   5
  -1  -9   8 51405.5 3312.50   3
   1   9  -8 52830.3 2821.34   5
   1   9  -7 14259.0 1284.14   5
  -1  -9   7 13243.9 1645.61   3
   1   9  -6 17002.5 1297.41   5
  -1  -9   6 21469.4 2054.31   3
  -1  -9   5 629.865 446.229   3
   1   9  -5 700.023 286.408   5
   1   9  -4 32157.4 1480.96   5
  -1  -9   4 32533.2 2559.57   3
   1   9  -3 8482.95 1243.91   2
   1   9  -3 10524.5 642.286   5
  -1  -9   2 888.504 356.683   3
   1   9  -2 871.188 560.823   2
  -1  -9   1 41.6507 451.982   3
   1   9  -1 690.796 533.634   2
  -1  -9   0 31448.1 2589.19   3
   1   9   0 34459.5 2440.00   2
  -1  -9  -1 12557.2 1594.49   3
   1   9   1 13838.8 1504.25   2
  -1  -9  -2 26609.2 2321.50   3
   1   9   2 26316.9 2058.52   2
   1   9   3 4682.64 872.376   2
  -1  -9  -3 3572.97 885.438   3
   1   9   4 16522.6 1593.97   2
  -1  -9  -4 14532.9 1689.17   3
  -1  -9  -5 38256.4 2748.32   3
   1   9   5 39267.8 2538.82   2
   1   9   6 65993.6 3424.23   2
  -1  -9  -6 60268.5 3516.28   3
  -1  -9  -7 11631.7 1436.09   3
   1   9   7 11785.5 1388.73   2
   1   9   8 58366.1 3249.51   2
  -1  -9  -8 53539.8 3169.78   3
  -1  -9  -9 4702.44 910.463   3
   1   9   9 5353.12 1007.34   2
   1   9  10 35981.2 2563.05   2
   1   9  11 17401.2 1792.45   2
   1   9  12 15535.1 1701.58   2
   1   9  13 2337.21 765.711   2
  -1 -10  11 7481.91 1344.57   3
  -1 -10  10 11061.4 1639.03   3
   1  10 -10 9806.22 1604.54   1
  -1 -10   9 8607.72 1415.34   3
  -1 -10   8 10629.8 1533.91   3
  -1 -10   7 5935.39 1159.36   3
  -1 -10   6 39960.2 3006.22   3
  -1 -10   5 254.363 415.744   3
  -1 -10   4 23259.8 2293.19   3
   1  10  -3 34595.1 2614.03   2
  -1 -10   3 31274.3 2634.98   3
  -1 -10   2 89474.1 4759.59   3
   1  10  -2 96474.9 4583.57   2
  -1 -10   1 29005.5 2557.62   3
   1  10  -1 28587.5 2310.87   2
  -1 -10   0 586.745 491.236   3
   1  10   0 1060.15 554.258   2
  -1 -10  -1 42718.7 3142.98   3
   1  10   1 46576.9 2900.58   2
  -1 -10  -2 7423.38 1280.87   3
   1  10   2 6427.84 1032.32   2
   1  10   3 33518.7 2377.04   2
  -1 -10  -3 28951.5 2562.84   3
  -1 -10  -4 4655.97 1026.74   3
   1  10   4 7182.09 1111.86   2
   1  10   5 10973.1 1356.18   2
  -1 -10  -5 10540.6 1496.65   3
  -1 -10  -6 1355.94 596.697   3
   1  10   6 966.859 538.628   2
   1  10   7 11884.1 1450.14   2
  -1 -10  -7 10578.9 1447.63   3
  -1 -10  -8 776.591 439.792   3
   1  10   8 1056.23 550.526   2
  -1 -10  -9 1142.17 539.802   3
   1  10   9 337.694 398.806   2
   1  10  10 3591.14 864.153   2
   1  10  11 11716.8 1530.72   2
   1  10  12 22473.4 2128.17   2
  -1 -11  10 4926.08 1166.14   3
  -1 -11   9 11784.4 1708.20   3
  -1 -11   8 2731.69 845.637   3
  -1 -11   7 22396.9 2358.50   3
  -1 -11   6 5742.52 1195.01   3
  -1 -11   5 2704.72 838.603   3
  -1 -11   4 220.084 497.039   3
   1  11  -3 342.682 433.341   2
  -1 -11   3 694.822 497.082   3
  -1 -11   2 220.531 476.145   3
   1  11  -2 3218.41 855.100   2
  -1 -11   1 4414.28 1093.48   3
   1  11  -1 3123.17 823.697   2
  -1 -11   0 13295.8 1810.65   3
   1  11   0 13822.8 1608.48   2
  -1 -11  -1 3888.75 1050.75   3
   1  11   1 3136.31 838.088   2
  -1 -11  -2 82223.6 4709.03   3
   1  11   2 84496.9 4204.26   2
  -1 -11  -3 7793.05 1367.44   3
   1  11   3 9194.58 1277.54   2
   1  11   4 13406.3 1566.01   2
  -1 -11  -4 12428.9 1730.46   3
  -1 -11  -5 13620.3 1742.67   3
   1  11   5 16389.6 1714.74   2
  -1 -11  -6 16178.1 1891.92   3
   1  11   6 14714.7 1649.63   2
  -1 -11  -7 30319.3 2572.98   3
   1  11   7 37312.6 2660.31   2
  -1 -11  -8 2429.17 762.335   3
   1  11   8 3128.33 827.474   2
   1  11   9 21027.4 2051.55   2
   1  11  10 3363.00 923.172   2
  -1 -12   7 19552.3 2299.07   3
  -1 -12   6-58.0308 454.499   3
  -1 -12   5 34476.5 3035.29   3
  -1 -12   4 6847.66 1458.10   3
   1  12  -3 10481.7 1493.09   2
  -1 -12   3 10259.2 1668.31   3
  -1 -12   2 731.152 604.667   3
   1  12  -2 1633.24 745.929   2
  -1 -12   1 26279.1 2670.51   3
   1  12  -1 31588.4 2506.96   2
   1  12   0 16499.6 1797.68   2
  -1 -12   0 15727.9 2038.90   3
  -1 -12  -1 561.281 746.664   3
   1  12   1 750.735 595.148   2
   1  12   2 3861.79 933.156   2
  -1 -12  -2 4812.41 1152.16   3
  -1 -12  -3 5566.09 1258.02   3
   1  12   3 5285.90 1054.53   2
  -1 -12  -4 345.335 617.102   3
   1  12   4 23.9284 480.213   2
  -1 -12  -5 18385.2 2144.26   3
   1  12   5 20348.5 2001.57   2
  -1 -12  -6 11313.6 1686.36   3
   1  12   6 13884.9 1674.02   2
  -1 -12  -7 2001.36 853.962   3
   1  12   7 3919.26 979.495   2
   1  12   8 9046.12 1398.88   2
  -1 -13   3 11101.7 1782.11   3
   1  13  -3 12316.1 1631.98   2
  -1 -13   2 3507.76 1063.49   3
   1  13  -2 4885.44 1030.44   2
   1  13  -1 49275.4 3298.12   2
  -1 -13   1 47800.2 3698.95   3
  -1 -13   0 3672.94 1102.64   3
   1  13   0 3485.10 932.798   2
  -1 -13  -1 24780.7 2636.14   3
   1  13   1 24875.5 2297.35   2
  -1 -13  -2 37453.5 3294.72   3
   1  13   2 38103.7 2846.23   2
  -1 -13  -3 12433.1 1839.22   3
   1  13   3 10707.9 1508.24   2
  -1 -13  -4 4145.94 1116.74   3
   1  13   4 4146.09 970.228   2
  -1 -13  -5 1182.04 693.533   3
  -1 -13  -6 40655.9 3258.92   3
  -1 -13  -7 1016.06 826.314   3
  -2  14  -2 807.869 574.504   2
  -2  13   2 18421.8 1879.05   2
  -2  13   1-120.985 332.069   2
  -2  13   0 10951.6 1433.13   2
  -2  13  -1 972.022 618.973   2
  -2  13  -2 4677.66 929.122   2
  -2  13  -3-506.004 522.727   1
  -2  13  -3-168.440 373.074   2
  -2  13  -4 1101.22 712.058   1
  -2  13  -4 1181.48 642.726   2
  -2  13  -5 3837.00 967.419   1
  -2  12   5 245.401 505.522   2
  -2  12   4 4757.23 986.048   2
  -2  12   3 22083.8 1999.71   2
  -2  12   2 27208.1 2211.34   2
  -2  12   1-41.1628 369.769   2
  -2  12   0 20334.8 1894.54   2
  -2  12  -1 1340.47 610.067   2
  -2  12  -2 43668.6 2840.23   2
  -2  12  -3 5926.65 1024.77   2
  -2  12  -4 23989.5 2032.73   2
  -2  12  -4 31053.6 2378.73   1
  -2  12  -5 6898.41 1183.51   1
  -2  12  -5 5190.69 916.236   2
  -2  12  -6 388.727 485.089   1
  -2  12  -7 721.604 604.404   1
  -2  11   7 5804.44 1151.08   2
  -2  11   6 4180.98 964.169   2
  -2  11   5 24813.5 2195.51   2
  -2  11   4-227.873 451.296   2
  -2  11   3 2187.24 684.396   2
  -2  11   2 7032.42 1089.54   2
  -2  11   1 1877.31 648.938   2
  -2  11   0 3325.03 767.618   2
  -2  11  -1 5789.70 964.401   2
  -2  11  -2 1900.36 605.004   2
  -2  11  -3 12002.1 1377.30   2
  -2  11  -4 30032.6 2290.91   1
  -2  11  -4 34659.8 2331.20   2
  -2  11  -5 7643.61 1048.11   2
  -2  11  -5 7382.53 1166.70   1
  -2  11  -6 10010.0 1220.28   2
  -2  11  -6 8868.29 1325.11   1
  -2  11  -7-15.5110 422.942   1
  -2  11  -8 51022.6 3453.59   1
  -2  10   9 4721.08 1178.51   2
  -2  10   8 1697.89 795.113   2
  -2  10   7-52.9915 465.656   2
  -2  10   6 40751.8 2778.65   2
   2 -10  -6 39178.5 2301.83   5
  -2  10   5 7720.16 1171.67   2
   2 -10  -5 7693.40 964.383   5
  -2  10   4 14458.6 1531.74   2
   2 -10  -4 13139.9 1256.46   5
   2 -10  -3 11744.3 1187.92   5
  -2  10   3 11998.1 1390.16   2
  -2  10   2 56831.4 3186.03   2
   2 -10  -2 66686.3 3079.53   5
   2 -10  -1 31568.8 1999.27   5
  -2  10   1 26380.8 2057.00   2
  -2  10   0 1705.48 496.783   2
  -2  10  -1 35760.4 2385.50   2
  -2  10  -2 3738.70 770.803   2
  -2  10  -3 21661.1 1789.75   2
  -2  10  -4 2843.31 703.841   1
  -2  10  -4 4127.49 779.108   2
  -2  10  -5 9704.87 1289.66   1
  -2  10  -5 12467.5 1265.87   2
  -2  10  -6 522.878 398.539   1
  -2  10  -6 790.024 464.794   2
  -2  10  -7 461.725 331.654   2
  -2  10  -7-721.017 565.058   1
  -2  10  -8 6230.72 1155.88   1
  -2  10  -9 1656.10 771.373   1
  -2  10 -10 6420.53 1307.21   1
  -2   9  11 11138.6 1630.47   2
   2  -9 -11 11043.2 1567.34   5
   2  -9 -10 603.149 682.885   5
   2  -9  -9 35080.9 2601.42   5
   2  -9  -8 15499.8 1594.45   5
   2  -9  -7 6324.26 987.972   5
   2  -9  -6 3714.74 763.770   5
   2  -9  -5 2416.01 600.962   5
  -2   9   4 1274.17 493.568   2
   2  -9  -4 1189.10 429.255   5
  -2   9   3 6500.46 951.383   2
   2  -9  -3 7117.42 910.436   5
  -2   9   2 576.886 367.654   2
   2  -9  -2-30.6075 294.976   5
  -2   9   1 5117.51 485.322   4
  -2   9   1 6820.48 969.562   2
   2  -9  -1 6708.21 896.058   5
   2  -9   0 36692.7 2165.11   5
  -2   9   0 35520.7 2312.89   2
  -2   9   0 36288.9 1431.42   4
  -2   9  -1 82433.2 2542.05   4
  -2   9  -1 82417.1 3770.68   2
  -2   9  -2 666.021 200.246   4
  -2   9  -2 1055.18 450.669   2
  -2   9  -3 8604.04 640.642   4
  -2   9  -3 9710.44 1121.14   2
  -2   9  -4 5753.44 557.640   4
  -2   9  -4 5612.71 915.943   1
  -2   9  -4 5229.05 825.254   2
  -2   9  -5 92648.0 4221.93   1
  -2   9  -5 93093.1 3827.32   2
  -2   9  -5 91320.4 3101.52   4
  -2   9  -6 6645.79 1077.17   1
  -2   9  -6 7167.04 958.976   2
  -2   9  -6 5383.67 643.879   4
  -2   9  -7 40894.2 2789.41   1
  -2   9  -7 38246.3 1925.06   4
  -2   9  -7 40861.3 2498.00   2
  -2   9  -8 10206.1 1466.35   1
  -2   9  -8 11318.6 1025.36   4
  -2   9  -9 6522.79 838.516   4
  -2   9  -9 6490.38 1197.70   1
  -2   9 -10 624.738 373.981   4
  -2   9 -10 663.372 555.534   1
  -2   9 -11 3412.98 1093.58   1
  -2   9 -11 2812.68 638.812   4
  -2   9 -12 14306.6 1441.29   4
   2  -8 -13 8795.38 1554.40   5
   2  -8 -12 3677.91 1056.15   5
   2  -8 -11 24550.7 2366.60   5
   2  -8 -10 870.063 602.878   5
   2  -8  -9 23442.4 2107.82   5
   2  -8  -8 8225.28 1192.43   5
   2  -8  -7 58372.8 3192.00   5
   2  -8  -6 26907.1 1983.09   5
   2  -8  -5 10259.9 1161.00   5
   2  -8  -4 45658.5 2442.12   5
  -2   8   4 41574.1 1739.95   4
   2  -8  -3 70674.6 3172.16   5
  -2   8   3 69652.2 2377.72   4
   2  -8  -2 23393.8 1687.35   5
  -2   8   2 24564.5 1124.89   4
   2  -8  -1 7679.92 977.242   5
  -2   8   1 9729.50 1069.59   2
  -2   8   1 10143.5 955.847   5
  -2   8   0 38188.8 1981.34   5
  -2   8   0 36644.1 1575.83   4
   2  -8   0 35964.8 2143.69   5
  -2   8   0 35113.7 2147.61   2
  -2   8  -1 95.8822 242.308   2
  -2   8  -1-48.0283 235.481   5
  -2   8  -1 176.636 153.967   4
  -2   8  -2 371.696 356.344   2
  -2   8  -2 310.868 173.529   4
  -2   8  -3 2847.62 410.037   4
  -2   8  -3 2738.10 596.890   2
  -2   8  -4 1099.18 427.929   1
  -2   8  -4 1946.34 350.438   4
  -2   8  -4 1506.53 436.037   2
  -2   8  -5 6589.38 675.906   4
  -2   8  -5 5945.97 804.518   2
  -2   8  -5 6642.52 991.482   1
  -2   8  -6 66992.0 2640.86   4
  -2   8  -6 62139.3 3342.98   1
  -2   8  -6 63414.2 2995.01   2
  -2   8  -7 5058.71 787.280   2
  -2   8  -7 8020.03 1179.98   1
  -2   8  -7 7280.41 804.276   4
  -2   8  -8-513.436 410.317   1
  -2   8  -8 389.178 291.903   4
  -2   8  -9 35826.8 2687.87   1
  -2   8  -9 34237.3 2039.87   4
  -2   8 -10 11812.6 1632.62   1
  -2   8 -10 9744.81 1104.15   4
  -2   8 -11 31960.3 2154.38   4
  -2   8 -11 38915.6 2986.37   1
  -2   8 -12 4581.66 865.089   4
  -2   8 -12 2128.13 881.147   1
  -2   8 -13 39102.1 2630.51   4
  -2   8 -14 424.708 472.187   4
   2  -7 -13 3998.44 1242.59   5
   2  -7 -12 16281.3 2053.58   5
   2  -7 -11 32799.5 2774.79   5
   2  -7 -10 7107.35 1230.37   5
   2  -7  -9 530.445 447.907   5
   2  -7  -8 465.557 478.282   5
   2  -7  -7 1940.69 587.018   5
   2  -7  -6 682.615 430.335   5
   2  -7  -5 13240.2 1287.62   5
   2  -7  -4 22347.1 1651.23   5
  -2   7   4 21732.8 1220.45   4
   2  -7  -3 12748.8 1193.38   5
  -2   7   3 12395.0 830.588   4
  -2   7   2 25004.3 1579.95   5
   2  -7  -2 22907.1 1659.85   5
  -2   7   1 65562.8 2717.46   5
   2  -7  -1 57371.6 2905.92   5
   2  -7   0 7919.09 983.744   5
  -2   7   0 8451.75 877.630   5
  -2   7  -1 81215.3 2767.01   4
  -2   7  -1 81977.8 3223.56   5
   2  -7   1 72108.0 3308.55   5
  -2   7  -1 81024.1 3310.49   2
  -2   7  -2 50955.0 2047.11   4
  -2   7  -2 52866.5 2531.89   5
  -2   7  -2 53688.8 2629.50   2
  -2   7  -3 16179.3 1017.35   4
  -2   7  -3 15119.8 1298.62   1
  -2   7  -3 15264.7 1271.73   2
  -2   7  -4 40455.5 1809.32   4
  -2   7  -4 39699.9 2296.52   1
  -2   7  -4 39296.3 2075.32   2
  -2   7  -5-86.9817 318.904   1
  -2   7  -5 298.995 246.306   2
  -2   7  -5 245.721 218.356   4
  -2   7  -6 23039.1 1429.14   4
  -2   7  -6 25138.2 1899.75   1
  -2   7  -6 24033.7 1631.28   2
  -2   7  -7 3172.56 770.910   1
  -2   7  -7 2946.46 545.900   4
  -2   7  -7 2186.64 488.771   2
  -2   7  -8 8524.17 1177.78   1
  -2   7  -8 8282.94 936.557   4
  -2   7  -9 264.943 307.146   4
  -2   7  -9 421.790 416.988   1
  -2   7 -10 1848.91 692.103   1
  -2   7 -10 2050.03 577.236   4
  -2   7 -11 4024.29 983.097   1
  -2   7 -11 5096.32 884.532   4
  -2   7 -12 1299.55 535.436   4
  -2   7 -12 973.344 581.433   1
  -2   7 -13 10193.5 1358.78   4
  -2   7 -14-680.564 665.846   4
   2  -6 -13 9326.53 1678.44   5
   2  -6 -12 22454.8 2410.60   5
   2  -6 -11 7713.25 1362.20   5
   2  -6 -10 47767.2 3236.15   5
   2  -6  -9 973.272 548.097   5
   2  -6  -8 8003.53 1176.93   5
   2  -6  -7-247.407 333.985   5
   2  -6  -6 103713. 4361.23   5
   2  -6  -5 25779.4 1858.41   5
  -2   6   4 95.3345 163.711   4
   2  -6  -4 367.513 274.425   5
  -2   6   3 6860.31 816.351   3
  -2   6   3 6333.39 798.273   5
   2  -6  -3 5560.79 789.008   5
  -2   6   3 6412.54 607.104   4
  -2   6   2 21275.9 1489.86   3
   2  -6  -2 18689.5 1438.49   5
  -2   6   2 19660.2 1384.47   5
   2  -6  -1 2530.49 524.575   5
  -2   6   1 2840.85 537.710   5
  -2   6   0 378.777 241.465   5
   2  -6   0 247.808 274.309   5
  -2   6  -1 472.093 228.662   4
   2  -6   1 574.089 354.747   5
  -2   6  -1 1175.38 379.442   5
  -2   6  -2 16702.4 1208.11   1
  -2   6  -2 16081.5 1047.39   4
  -2   6  -2 17059.5 1238.15   2
  -2   6  -2 16611.7 1318.87   5
  -2   6  -3 80054.8 3489.67   5
  -2   6  -3 80656.8 3188.41   1
  -2   6  -3 76314.8 3091.21   2
  -2   6  -3 79102.1 2830.44   4
  -2   6  -4 133226. 4258.76   4
  -2   6  -4 138295. 4780.60   1
  -2   6  -4 139151. 4504.91   2
  -2   6  -5 10222.8 895.908   4
  -2   6  -5 11602.7 1165.20   1
  -2   6  -5 9203.77 865.871   2
  -2   6  -6 30806.2 1680.81   4
  -2   6  -6 30899.1 2034.42   1
  -2   6  -6 25795.6 1605.51   2
  -2   6  -7 16307.1 1045.07   2
  -2   6  -7 18563.9 1352.58   4
  -2   6  -7 20508.1 1663.75   1
  -2   6  -8 100702. 3924.51   4
  -2   6  -8 102240. 4388.08   1
  -2   6  -9 7654.65 1113.88   1
  -2   6  -9 8118.20 1012.37   4
  -2   6 -10 56389.5 3278.17   1
  -2   6 -10 57600.6 2990.47   4
  -2   6 -11 7016.06 1011.67   4
  -2   6 -11 6731.28 1147.99   1
  -2   6 -12 13752.7 1496.66   4
  -2   6 -13 115.446 609.532   4
  -2   6 -14 5815.73 1176.18   4
  -2   6 -15 15300.0 1835.38   4
   2  -5 -14 7617.78 1627.03   5
   2  -5 -13 795.105 746.137   5
   2  -5 -12 69.3822 572.399   5
   2  -5 -11-129.457 533.243   5
   2  -5 -10 13934.5 1685.42   5
   2  -5  -9 53.3618 382.302   5
   2  -5  -8 20873.6 1858.73   5
  -2   5   7 427.917 223.435   3
   2  -5  -7 483.552 397.826   5
  -2   5   7 206.544 85.9014   1
  -2   5   6 115027. 3700.20   3
   2  -5  -6 111858. 4591.74   5
  -2   5   5 1925.27 395.260   3
   2  -5  -5 1168.25 444.610   5
   2  -5  -4 66544.5 3089.73   5
  -2   5   4 69628.0 2583.43   4
   2  -5  -3 98114.8 3963.85   5
  -2   5   3 114126. 4016.09   5
  -2   5   2 77807.5 3040.38   5
   2  -5  -2 65558.2 2987.41   5
   2  -5  -1 37029.3 2113.05   5
  -2   5   1 43796.6 2124.03   5
  -2   5   0 42386.4 2119.33   5
  -2   5   0 45472.1 2141.25   3
  -2   5  -1 136442. 4218.79   1
  -2   5  -1 142594. 4728.78   5
   2  -5   1 136251. 5113.52   5
  -2   5  -2 10215.5 868.248   4
  -2   5  -2 9479.42 831.752   1
   2  -5   2 8540.07 1013.02   5
  -2   5  -2 9452.74 996.343   5
  -2   5  -3 3204.25 499.071   2
  -2   5  -3 2633.22 440.578   4
  -2   5  -3 3164.82 524.176   1
  -2   5  -3 4102.46 739.340   5
  -2   5  -4 22985.6 1366.32   4
  -2   5  -4 23168.7 1838.79   5
  -2   5  -4 24001.4 1354.64   2
  -2   5  -4 23097.9 1506.32   1
  -2   5  -5 78357.6 2981.28   4
  -2   5  -5 78349.9 2800.10   2
  -2   5  -5 79614.3 3233.17   1
  -2   5  -6 4842.91 656.999   4
  -2   5  -6 4336.75 700.748   1
   2  -5   6 3865.11 702.876   4
  -2   5  -6 4331.12 537.864   2
  -2   5  -7 9065.33 954.007   4
  -2   5  -7 7666.99 982.789   1
  -2   5  -8 2466.79 613.042   1
  -2   5  -8 2815.60 583.583   4
  -2   5  -9 7227.91 1064.25   1
  -2   5  -9 9147.02 1068.09   4
  -2   5 -10 32776.9 2334.55   1
  -2   5 -10 36914.3 2334.63   4
  -2   5 -11 19480.9 1740.70   4
  -2   5 -12 3819.55 845.103   4
  -2   5 -13 245.104 438.326   4
  -2   5 -14 61037.0 3666.49   4
  -2   5 -15 407.823 524.168   4
   2  -4 -14-186.685 628.738   5
   2  -4 -13 81228.8 5122.12   5
   2  -4 -12 5715.53 1268.47   5
   2  -4 -11 37533.2 3055.06   5
   2  -4 -10 399.066 477.273   5
   2  -4  -9 55115.7 3327.43   5
   2  -4  -8 7833.10 1142.80   5
  -2   4   8 7826.39 481.310   3
   2  -4  -7 1303.71 493.868   5
  -2   4   7 679.086 189.337   3
   2  -4  -6 18711.0 1570.74   5
  -2   4   6 16830.0 947.303   3
  -2   4   5 16130.7 942.450   3
   2  -4  -5 14555.5 1346.05   5
  -2   4   5 15736.2 1126.39   4
  -2   4   4 142.147 194.753   3
  -2   4   4 406.622 234.042   4
   2  -4  -4 268.294 300.587   5
  -2   4   4-272.042 240.598   5
   2  -4  -3 35263.0 2004.48   5
  -2   4   3 34168.1 1940.33   5
  -2   4   3 36442.6 1625.28   3
  -2   4   2 5231.02 586.659   3
  -2   4   2 4677.68 661.166   5
   2  -4  -2 4990.42 722.804   5
  -2   4   1 779.876 242.895   3
  -2   4   1 1624.62 244.056   1
   2  -4  -1 1132.05 403.412   5
  -2   4   1 1586.01 389.517   5
  -2   4   0 51484.8 1841.69   1
   2  -4   0 51877.6 2602.61   5
  -2   4   0 58075.6 2521.46   5
  -2   4  -1 3676.04 427.953   1
   2  -4   1 3512.26 678.601   5
  -2   4  -1 4066.15 620.845   5
  -2   4  -2 46105.3 2414.22   5
  -2   4  -2 43654.4 2047.84   4
   2  -4   2 41126.5 2408.07   5
  -2   4  -2 43192.8 1824.37   1
  -2   4  -3 30563.0 2070.98   5
  -2   4  -3 26982.6 1513.02   4
  -2   4  -3 27782.1 1460.62   1
  -2   4  -4 176147. 5437.45   4
  -2   4  -4 176072. 6323.40   5
  -2   4  -4 181453. 5063.93   2
  -2   4  -4 185188. 5505.95   1
  -2   4  -4 183699. 5553.90   3
  -2   4  -5 46895.0 2171.71   4
  -2   4  -5 48172.5 1813.27   2
  -2   4  -5 47212.9 2699.79   5
  -2   4  -5 46265.3 2185.35   3
  -2   4  -5 45044.1 2183.40   1
  -2   4  -6 17891.4 1312.36   4
   2  -4   6 18029.9 1555.07   4
  -2   4  -6 15870.8 818.445   2
  -2   4  -6 15937.9 1264.68   1
  -2   4  -7 29327.6 1783.27   4
  -2   4  -7 26068.6 1770.58   1
  -2   4  -8 4818.64 797.525   1
  -2   4  -8 4361.32 738.720   4
  -2   4  -9 44070.4 2534.71   4
  -2   4 -10 1222.90 492.268   4
  -2   4 -11 13700.8 1517.37   4
  -2   4 -12-215.828 451.170   4
  -2   4 -13 2909.55 781.273   4
  -2   4 -14 16352.7 1880.65   4
  -2   4 -15 843.292 646.647   4
   2  -3 -14 4712.05 1348.31   5
   2  -3 -13 5610.67 1340.30   5
   2  -3 -12 320.265 574.286   5
   2  -3 -11 1159.35 684.741   5
   2  -3 -10 11161.8 1552.60   5
   2  -3  -9 84397.4 4345.92   5
   2  -3  -8 14105.2 1521.39   5
   2  -3  -7 36307.4 2403.66   5
  -2   3   7 41164.4 1405.78   3
  -2   3   6 120.817 113.229   3
   2  -3  -6 267.121 298.267   5
   2  -3  -5 37565.8 2190.20   5
  -2   3   5 39486.3 1488.25   3
  -2   3   5 39196.0 1921.09   4
   2  -3  -4 8035.05 928.648   5
  -2   3   4 8666.14 932.275   5
  -2   3   4 7895.26 747.336   4
  -2   3   3 120465. 4147.86   5
   2  -3  -3 109358. 4120.78   5
   2  -3  -2 113028. 4116.61   5
  -2   3   2 122344. 4119.14   5
   2  -3  -1 13201.6 1111.42   5
  -2   3   1 14309.1 1132.99   5
  -2   3   1 12000.5 585.316   1
   2  -3   0 7353.50 887.058   5
  -2   3   0 9313.88 926.779   5
  -2   3   0 8481.48 537.020   1
   2  -3   1 15227.5 1436.96   5
  -2   3  -1 17241.7 1305.23   5
  -2   3  -1 17877.8 906.236   1
  -2   3  -2 61.8501 185.628   4
   2  -3   2 142.971 229.351   5
  -2   3  -2-145.160 191.370   5
  -2   3  -2-48.9613 117.266   1
  -2   3  -3 899.031 271.149   1
  -2   3  -3 725.617 301.241   4
  -2   3  -3 353.349 284.057   5
  -2   3  -4 3977.36 609.813   4
  -2   3  -4 4352.53 557.846   1
  -2   3  -5 3239.29 545.497   4
  -2   3  -5 2840.85 305.941   2
  -2   3  -5 3592.29 556.583   1
  -2   3  -5 3771.84 509.809   3
  -2   3  -5 4771.73 781.250   5
  -2   3  -6 54201.5 2550.20   4
   2  -3   6 55979.6 2858.57   4
  -2   3  -6 52588.7 2288.60   3
  -2   3  -7 165508. 5527.28   4
  -2   3  -7 161017. 5155.13   3
  -2   3  -8 18118.2 1505.51   4
  -2   3  -9 18884.2 1639.02   4
  -2   3 -10 44902.2 2765.77   4
  -2   3 -11 98429.3 4594.34   4
  -2   3 -12 9176.19 1353.05   4
  -2   3 -13 49223.7 3285.15   4
  -2   3 -14 2548.61 777.838   4
  -2   3 -15 12915.9 1810.02   4
   2  -2 -14 10682.8 1950.08   5
   2  -2 -13 10445.1 1912.83   5
   2  -2 -12 13079.6 1928.49   5
   2  -2 -11 8648.31 1481.24   5
   2  -2 -10 2521.85 801.923   5
   2  -2  -9 473.639 583.750   5
   2  -2  -8 17495.1 1766.22   5
   2  -2  -7 2003.78 600.632   5
   2  -2  -6 14597.3 1381.78   5
   2  -2  -5 44279.0 2382.60   5
  -2   2   5 45728.4 2100.95   4
   2  -2  -4 34109.8 1965.30   5
  -2   2   4 34590.2 1675.03   4
   2  -2  -3 140554. 4715.46   5
   2  -2  -2 575.811 260.358   5
   2  -2  -1 186782. 5761.41   5
   2  -2   0 2850.51 267.490   1
   2  -2   0 3903.65 607.880   5
   2  -2   1 56410.4 1842.22   1
   2  -2   1 57503.1 2813.02   5
   2  -2   2 135130. 4999.27   5
   2  -2   2 129363. 3711.82   1
  -2   2  -3 225650. 6664.56   4
   2  -2   3 209838. 5834.52   1
  -2   2  -4 86583.0 3372.44   4
   2  -2   4 83353.8 2877.05   1
  -2   2  -5 4573.33 668.572   4
   2  -2   5 3107.68 458.216   1
  -2   2  -6 39693.9 2117.31   4
   2  -2   6 33848.7 1747.89   1
  -2   2  -7 5758.25 813.573   4
  -2   2  -8 2481.99 455.348   3
  -2   2  -8 1882.64 541.227   4
  -2   2  -9 7476.08 1044.26   4
  -2   2  -9 8507.04 872.402   3
  -2   2 -10 11737.7 1102.18   3
  -2   2 -10 12031.5 1411.86   4
  -2   2 -11 9961.88 1345.84   4
  -2   2 -12 54448.4 3423.88   4
  -2   2 -13 5195.26 1098.48   4
  -2   2 -14 398.345 532.502   4
  -2   2 -15 18535.3 2181.96   4
   2  -1 -14 1814.91 947.886   5
   2  -1 -13 22067.1 2699.47   5
   2  -1 -12 46361.2 3719.34   5
   2  -1 -11 26782.5 2667.24   5
   2  -1 -10 51746.3 3555.91   5
   2  -1  -9 1283.23 575.913   5
   2  -1  -8 192922. 7184.50   5
  -2   1   8 197521. 5021.48   3
   2  -1  -7 18507.4 1679.09   5
   2  -1  -6 62392.0 3107.37   5
   2  -1  -5 58627.8 2839.21   5
   2  -1  -4 17009.4 1307.71   5
   2  -1  -3 3185.33 537.759   5
   2  -1  -2 1976.42 418.481   5
   2  -1  -1 22188.5 1380.75   5
   2  -1   0 2256.52 453.334   5
   2  -1   1 11346.2 1096.90   5
   2  -1   2 9610.87 1082.98   5
   2  -1   3 73157.4 2515.65   1
  -2   1  -3 84339.5 3448.92   4
  -2   1  -4 16898.4 1342.31   4
   2  -1   4 16525.5 1026.04   1
  -2   1  -5 44053.1 2228.08   4
  -2   1  -5 39910.0 1242.70   2
   2  -1   5 42851.2 1865.65   1
  -2   1  -6 18160.5 1437.62   4
   2  -1   6 21312.5 1292.74   1
  -2   1  -7 148106. 5286.20   4
  -2   1  -8 71193.5 3382.99   4
  -2   1  -9 13370.5 1431.28   4
  -2   1 -10 11506.2 1007.72   3
  -2   1 -10 9683.72 1302.20   4
  -2   1 -11 2689.80 521.620   3
  -2   1 -11 1883.94 709.686   4
  -2   1 -12 25144.9 2315.10   4
  -2   1 -13-399.828 572.715   4
  -2   1 -14 13979.4 1871.80   4
  -2   1 -15 711.054 638.520   4
  -2   1 -16 1135.41 888.591   4
   2   0 -14 1486.12 965.724   5
   2   0 -13 16157.0 2343.35   5
   2   0 -12 1701.97 932.288   5
   2   0 -11 11901.8 1840.37   5
   2   0 -10 5738.66 1183.82   5
   2   0  -9 310.328 521.019   5
  -2   0   9 649.374 177.173   3
  -2   0   8 1824.14 304.891   3
   2   0  -8 2121.75 671.242   5
   2   0  -7 48277.9 2920.61   5
  -2   0   7 52532.1 1958.97   3
   2   0  -6 58847.1 3022.09   5
   2   0  -6 59275.1 1987.65   1
   2   0  -5 3124.97 324.076   1
   2   0  -5 3386.98 637.336   5
   2   0  -4 167151. 5484.11   5
   2   0  -3 15375.5 1149.11   5
   2   0  -2 12524.1 1003.28   5
   2   0  -1 234.506 211.273   5
   2   0   0 133663. 4328.77   5
   2   0   1 45052.1 2223.21   5
   2   0   2 1866.32 479.275   5
  -2   0  -3 3812.01 662.549   4
  -2   0  -4 50894.5 2503.45   4
  -2   0  -4 49675.2 1671.94   2
  -2   0  -5 3925.06 389.501   2
  -2   0  -5 3370.18 599.538   4
  -2   0  -6 5965.12 831.759   4
   2   0   6 5029.39 628.445   1
  -2   0  -7 2985.50 658.459   4
  -2   0  -8 3935.81 762.679   4
  -2   0  -9 41534.1 2625.12   4
  -2   0 -10 83394.7 4150.73   4
  -2   0 -11 14907.1 1137.50   3
  -2   0 -11 14312.2 1701.98   4
  -2   0 -12 17791.8 1959.49   4
  -2   0 -13 38688.4 3082.15   4
  -2   0 -14 61132.8 4054.09   4
  -2   0 -15 1415.90 827.754   4
  -2   0 -16 16436.3 2266.87   4
   2   1 -14 41980.7 4060.36   5
   2   1 -13 17589.5 2543.56   5
   2   1 -12 6805.42 1547.19   5
   2   1 -11 10174.0 1734.30   5
  -2  -1  10 7996.68 571.686   3
   2   1 -10 4094.36 1119.89   5
   2   1  -9 45481.6 3283.64   5
  -2  -1   9 53302.2 2071.22   3
   2   1  -8 43929.4 2980.47   5
  -2  -1   8 42940.6 1897.93   3
  -2  -1   7 513.165 234.789   3
   2   1  -7 1056.97 547.392   5
   2   1  -7 530.810 245.565   1
   2   1  -6 3230.31 673.042   5
   2   1  -6 2878.91 394.306   1
  -2  -1   6 2839.42 423.019   3
   2   1  -5 4266.72 726.094   5
   2   1  -4 27794.1 1715.10   5
   2   1  -3 477.238 255.793   5
   2   1  -2 15136.1 1075.61   5
   2   1  -1 321.451 188.944   5
   2   1   0 282597. 7691.92   5
   2   1   1 25150.9 1512.50   5
  -2  -1  -1 27688.1 1439.60   5
  -2  -1  -2 120143. 3504.45   2
   2   1   2 113932. 4167.29   5
  -2  -1  -3 72851.1 2983.61   4
  -2  -1  -3 67023.3 2330.07   2
  -2  -1  -4 109539. 3970.12   4
  -2  -1  -4 106879. 3976.56   5
  -2  -1  -4 102162. 3215.80   2
  -2  -1  -5 11570.6 1076.67   4
  -2  -1  -5 10127.1 802.404   2
   2   1   6 74821.3 2382.44   2
  -2  -1  -6 75049.1 3235.65   4
  -2  -1  -7 213982. 6829.55   4
   2   1   7 205398. 5499.88   2
  -2  -1  -8 42773.1 2499.89   4
   2   1   8 40821.5 1580.80   2
  -2  -1  -9 5220.70 892.016   4
   2   1   9 4670.78 468.797   2
  -2  -1 -10 3882.23 881.614   4
   2   1  10 3518.19 404.096   2
   2   1  11 29158.8 1278.25   2
  -2  -1 -11 31860.6 2510.13   4
  -2  -1 -12 519.223 521.959   4
  -2  -1 -13 590.837 573.832   4
  -2  -1 -14 588.966 614.102   4
  -2  -1 -15 1823.75 856.342   4
  -2  -1 -16 18522.6 2303.52   4
   2   2 -14 13880.9 2321.73   5
   2   2 -13 591.478 746.870   5
   2   2 -12 7878.96 1683.39   5
   2   2 -11 14945.1 2097.83   5
   2   2 -10 99037.3 5518.94   5
   2   2 -10 108811. 4151.03   1
   2   2  -9 22846.0 2258.16   5
   2   2  -9 24350.6 1567.52   1
  -2  -2   9 22743.6 1433.92   3
  -2  -2   8 3793.81 589.528   3
   2   2  -8 5198.99 1046.96   5
   2   2  -7 135601. 5592.52   5
  -2  -2   7 148094. 4670.07   3
   2   2  -6 27954.4 2031.29   5
  -2  -2   6 32059.6 1676.31   3
   2   2  -5 109904. 4293.41   5
  -2  -2   5 114417. 3887.82   4
  -2  -2   5 113823. 3803.37   3
   2   2  -4 2278.24 490.178   5
   2   2  -3 209490. 6173.80   5
   2   2  -2 4621.91 562.443   5
  -2  -2   2 4991.24 557.022   5
   2   2  -1 1697.26 331.920   5
  -2  -2   1 2372.86 359.772   5
  -2  -2   0 59690.1 2126.99   5
   2   2   0 56116.1 2203.80   5
  -2  -2  -1 30697.8 1417.52   2
  -2  -2  -1 33192.5 1455.08   5
   2   2   1 28164.1 1542.12   5
   2   2   2 33135.2 1690.77   5
  -2  -2  -2 34860.7 1601.42   5
  -2  -2  -2 34212.8 1555.93   2
  -2  -2  -3 26257.0 1534.09   4
  -2  -2  -3 26641.4 1341.76   2
  -2  -2  -3 29298.8 1610.24   5
   2   2   4 17677.4 1043.83   2
  -2  -2  -4 16508.5 1263.14   4
  -2  -2  -4 17659.6 1273.34   5
  -2  -2  -4 16482.7 1120.58   2
  -2  -2  -5 6803.62 812.594   4
   2   2   5 6400.01 788.819   4
  -2  -2  -5 5242.96 670.258   2
   2   2   5 5254.44 563.600   2
  -2  -2  -6 44524.5 2308.05   4
   2   2   6 44331.7 2326.43   4
   2   2   6 43421.9 1895.76   2
  -2  -2  -7 408.401 325.518   4
   2   2   7 81.8619 159.670   2
  -2  -2  -8 42457.7 2458.97   4
   2   2   8 41796.7 1914.21   2
  -2  -2  -9 4766.74 841.353   4
   2   2   9 4849.70 610.383   2
   2   2  10 92798.8 3319.82   2
  -2  -2 -10 94015.7 4373.41   4
   2   2  11 41442.8 1959.09   2
  -2  -2 -11 42130.0 2894.39   4
   2   2  12 25034.1 1440.77   2
  -2  -2 -12 27367.1 2376.94   4
  -2  -2 -13 6550.82 1247.08   4
  -2  -2 -14 270.428 560.559   4
  -2  -2 -15 19304.1 2274.21   4
  -2  -2 -16 945.956 793.351   4
   2   3 -14-231.350 724.864   5
   2   3 -13 18564.0 2613.98   5
   2   3 -12 34016.1 2340.22   1
   2   3 -12 34443.3 3419.26   5
   2   3 -11 3490.47 1077.89   5
   2   3 -11 2576.68 615.314   1
   2   3 -10 15980.4 1407.59   1
  -2  -3  10 16468.7 1268.65   3
   2   3 -10 12559.2 1818.95   5
  -2  -3   9 360.716 297.217   3
   2   3  -9 696.733 497.260   5
   2   3  -9 425.137 324.360   1
  -2  -3   8 2009.45 499.625   3
   2   3  -8 1559.58 436.540   1
   2   3  -8 1634.26 642.799   5
   2   3  -7 14825.6 1541.70   5
  -2  -3   7 12993.6 1168.30   3
   2   3  -6 8049.64 1058.21   5
  -2  -3   6 8204.09 887.894   3
   2   3  -5 14382.6 1313.69   5
  -2  -3   5 16028.3 1129.25   4
  -2  -3   5 16220.4 1234.85   3
   2   3  -4 42741.0 2177.49   5
  -2  -3   4 41908.7 2076.71   3
   2   3  -3 93015.1 3374.22   5
  -2  -3   3 95391.2 3130.24   4
  -2  -3   3 97849.4 3477.97   3
  -2  -3   2 6197.29 635.644   2
   2   3  -2 5656.80 605.512   5
  -2  -3   1 99555.9 3312.71   2
  -2  -3   1 101850. 3112.90   5
   2   3  -1 94081.0 3153.57   5
   2   3   0 44795.0 1796.34   5
  -2  -3   0 45278.4 1670.69   5
  -2  -3   0 44376.2 1935.68   2
   2   3   1 94072.0 3162.05   5
  -2  -3  -1 98027.6 2921.15   5
  -2  -3  -1 94366.2 3275.86   2
  -2  -3  -2 9731.37 825.837   4
   2   3   2 9521.42 764.678   5
  -2  -3  -2 8610.65 644.200   5
  -2  -3  -2 8418.01 762.767   2
   2   3   3 99581.0 3506.98   2
  -2  -3  -3 103008. 3482.02   4
  -2  -3  -3 99258.4 3497.85   2
  -2  -3  -3 99406.2 3299.19   5
  -2  -3  -4 96053.0 3498.92   4
  -2  -3  -4 95104.4 3406.88   5
  -2  -3  -4 92894.3 3614.72   2
   2   3   4 91574.1 3405.78   2
  -2  -3  -5 3321.95 591.229   2
   2   3   5 4227.70 631.704   4
  -2  -3  -5 3634.70 605.444   4
   2   3   5 3012.57 517.653   2
  -2  -3  -6 17807.9 1344.47   4
   2   3   6 17158.3 1343.64   4
   2   3   6 18778.9 1330.64   2
  -2  -3  -7 43636.3 2323.69   4
  -2  -3  -8 2246.13 567.893   4
  -2  -3  -9 1567.59 480.530   4
  -2  -3 -10 21814.2 1885.58   4
  -2  -3 -11 4879.69 957.052   4
  -2  -3 -12 13194.2 1592.51   4
  -2  -3 -13 44986.6 3141.88   4
  -2  -3 -14 6703.04 1285.95   4
  -2  -3 -15 17174.9 2099.13   4
  -2  -3 -16 35438.2 3137.98   4
   2   4 -14 1457.60 940.628   5
   2   4 -13 16295.2 1715.53   1
   2   4 -13 13726.7 2239.04   5
   2   4 -12-2.06331 515.304   1
   2   4 -12 675.855 715.499   5
   2   4 -11 65214.9 4472.49   5
   2   4 -11 70573.7 3497.69   1
  -2  -4  10 6296.38 885.527   3
   2   4 -10 5781.22 1246.72   5
   2   4  -9 7038.68 951.937   1
  -2  -4   9 7199.76 946.460   3
   2   4  -9 5613.33 1162.49   5
   2   4  -8 26590.3 2262.12   5
  -2  -4   8 30520.1 2003.27   3
   2   4  -7 23990.0 2013.82   5
  -2  -4   7 27522.3 1875.49   3
   2   4  -6 28246.9 1986.91   5
  -2  -4   6 27967.1 1841.31   3
  -2  -4   5 928.535 321.482   4
  -2  -4   5 1026.94 374.978   3
   2   4  -5 1069.36 389.373   5
   2   4  -4 25019.2 1583.71   5
  -2  -4   4 26557.8 1723.67   3
  -2  -4   3 11897.9 982.198   2
   2   4  -3 11301.7 935.662   5
  -2  -4   3 11355.8 826.957   4
  -2  -4   3 11357.6 1086.83   3
   2   4  -2 51152.2 2083.06   5
  -2  -4   2 54982.5 2503.90   3
  -2  -4   2 54040.9 2349.78   2
  -2  -4   1 101.115 207.717   2
  -2  -4   1 761.492 319.964   3
   2   4  -1 230.503 181.601   5
   2   4   0 6404.94 532.207   5
  -2  -4   0 6276.57 483.584   5
  -2  -4   0 6977.14 742.770   2
  -2  -4  -1 41940.1 1457.23   5
   2   4   1 43897.6 1679.01   5
  -2  -4  -1 41332.1 1995.93   2
  -2  -4  -2 34781.4 1589.98   4
  -2  -4  -2 34666.4 1305.44   5
  -2  -4  -2 30740.0 1738.68   2
  -2  -4  -3 102061. 3347.52   4
  -2  -4  -3 94339.1 2979.38   5
  -2  -4  -3 98899.5 3727.69   2
  -2  -4  -4 2168.86 423.648   4
  -2  -4  -4 2142.38 546.421   2
  -2  -4  -4 2469.23 425.185   5
  -2  -4  -5 217273. 6505.29   4
   2   4   5 219837. 6610.50   4
  -2  -4  -5 226908. 7292.55   2
  -2  -4  -5 234118. 6573.14   5
  -2  -4  -6 1154.77 357.898   4
   2   4   6 200.160 212.038   4
  -2  -4  -7 22679.0 1542.09   4
   2   4   7 21771.5 1530.38   4
  -2  -4  -8 72702.9 3235.21   4
   2   4   8 72285.9 3269.36   2
   2   4   9 113863. 4391.18   2
  -2  -4  -9 108618. 4437.76   4
   2   4  10 41315.3 2373.29   2
  -2  -4 -10 40675.5 2548.92   4
  -2  -4 -11 1276.19 360.406   3
  -2  -4 -11 1659.11 594.252   4
   2   4  11 1033.89 424.699   2
   2   4  12 17927.8 1507.54   2
  -2  -4 -12 17430.6 1788.69   4
  -2  -4 -13 14519.0 1697.94   4
  -2  -4 -14 3931.69 958.697   4
  -2  -4 -15 8843.25 1485.41   4
  -2  -4 -16 2938.09 1052.55   4
   2   5 -13 3323.77 797.685   1
   2   5 -13 3781.82 1232.82   5
   2   5 -12 7991.57 1244.18   1
   2   5 -12 10215.2 1782.79   5
   2   5 -11 2029.29 702.187   1
  -2  -5  11 1634.87 536.834   3
   2   5 -11 2847.33 811.526   5
   2   5 -10 13091.7 1447.08   1
   2   5 -10 12793.0 1755.38   5
  -2  -5  10 15723.2 1457.34   3
   2   5  -9 36582.2 2323.06   1
   2   5  -9 32340.7 2633.40   5
  -2  -5   9 38944.7 2415.27   3
  -2  -5   8 554.365 343.963   3
   2   5  -8 436.134 437.900   5
  -2  -5   7 81735.3 3746.02   3
   2   5  -7 77600.1 3771.36   5
   2   5  -6 85800.7 3736.39   5
  -2  -5   6 88625.6 3892.36   3
   2   5  -5 86244.8 3471.41   5
  -2  -5   5 85952.2 3720.46   3
  -2  -5   5 80512.2 3043.62   4
   2   5  -4 57648.7 2525.95   5
  -2  -5   4 58042.2 2892.59   3
   2   5  -3 5560.79 621.943   5
  -2  -5   3 5678.01 578.823   4
  -2  -5   3 6185.36 861.664   3
   2   5  -2 261037. 7007.15   5
  -2  -5   2 260339. 6863.88   4
  -2  -5   2 264531. 7968.82   3
   2   5  -1 28494.7 1261.80   5
  -2  -5   1 28170.0 1834.49   3
   2   5   0 95540.2 2805.10   5
  -2  -5   0 92076.9 3550.42   2
  -2  -5   0 97363.3 3771.93   3
  -2  -5  -1 12650.1 1109.07   2
  -2  -5  -1 11908.9 557.410   5
  -2  -5  -1 11440.5 1081.13   3
  -2  -5  -2 15377.8 921.287   4
  -2  -5  -2 14054.4 621.114   5
  -2  -5  -2 15192.6 1270.90   2
  -2  -5  -2 13320.6 1170.89   3
  -2  -5  -3 5656.08 589.992   4
  -2  -5  -3 5990.65 433.799   5
  -2  -5  -3 5454.33 811.891   2
   2   5   3 5970.52 889.568   2
  -2  -5  -3 6015.08 789.124   3
  -2  -5  -4 15248.2 1023.16   4
  -2  -5  -4 13611.8 874.532   5
  -2  -5  -4 16961.6 1538.62   2
   2   5   4 16744.8 1491.14   2
  -2  -5  -4 15314.9 1250.38   3
  -2  -5  -5 27011.9 1491.99   4
  -2  -5  -5 28897.4 1497.77   5
   2   5   5 28299.7 1994.16   2
  -2  -5  -5 31283.2 1857.68   3
  -2  -5  -6 957.711 372.709   3
   2   5   6 626.877 290.966   4
  -2  -5  -6 463.825 257.215   4
   2   5   6 586.227 344.973   2
  -2  -5  -7 11559.7 1041.01   4
   2   5   7 10441.6 1001.46   4
   2   5   7 12509.3 1296.56   2
  -2  -5  -7 11379.1 1092.39   3
   2   5   8 4271.44 771.743   2
  -2  -5  -8 4767.27 709.188   3
  -2  -5  -8 5739.69 836.367   4
   2   5   9 21515.6 1755.31   2
  -2  -5  -9 21365.3 1511.44   3
  -2  -5  -9 20467.3 1607.08   4
  -2  -5 -10-95.7268 330.195   4
  -2  -5 -10 123.013 210.735   3
   2   5  10 432.575 379.411   2
   2   5  11 16494.0 1542.54   2
  -2  -5 -11 15740.6 1223.29   3
  -2  -5 -11 16943.9 1602.76   4
  -2  -5 -12 3492.26 785.542   4
   2   5  12 2560.85 656.156   2
  -2  -5 -13 40295.4 2782.19   4
  -2  -5 -14 13363.2 1663.47   4
  -2  -5 -15 11910.3 1627.70   4
   2   6 -13 15778.3 1881.04   1
   2   6 -13 15163.2 2239.81   5
   2   6 -12 24829.1 2646.53   5
   2   6 -12 22179.2 2115.62   1
  -2  -6  11 2505.99 720.944   3
   2   6 -11 4401.48 957.713   1
   2   6 -11 4876.85 1184.28   5
   2   6 -10 39377.1 2686.72   1
  -2  -6  10 46770.2 2797.41   3
   2   6 -10 42164.6 3123.41   5
   2   6  -9 26170.4 2278.55   5
  -2  -6   9 27583.0 2122.48   3
  -2  -6   8 512.973 385.011   3
   2   6  -8 986.536 509.348   5
   2   6  -7 37736.8 2425.36   5
  -2  -6   7 45631.4 2776.96   3
  -2  -6   6 2975.19 761.049   3
   2   6  -6 1705.46 505.919   5
  -2  -6   5 7388.97 1058.86   3
   2   6  -5 5514.99 758.643   5
  -2  -6   5 6127.58 699.485   4
  -2  -6   4 6600.34 963.471   3
   2   6  -4 7781.84 808.402   5
   2   6  -3 3918.69 505.044   5
  -2  -6   3 4983.36 830.403   3
  -2  -6   3 4444.07 494.630   4
   2   6  -2 11639.2 799.600   5
  -2  -6   2 11673.4 1252.89   3
  -2  -6   2 10762.7 731.169   4
   2   6  -1 76249.7 2308.99   5
  -2  -6   1 71308.8 2321.80   4
  -2  -6   1 74983.1 3439.40   3
   2   6   0 52026.4 2819.02   2
   2   6   0 48459.8 1498.08   5
  -2  -6   0 49998.5 2667.85   3
  -2  -6  -1 3129.14 381.574   4
  -2  -6  -1 2530.57 598.194   3
   2   6   1 2398.22 654.458   2
  -2  -6  -2 55167.6 1952.80   4
  -2  -6  -2 54560.8 2809.92   3
   2   6   2 55513.7 3044.60   2
  -2  -6  -3 18421.3 634.230   5
  -2  -6  -3 22112.7 1095.66   4
   2   6   3 20791.0 1791.03   2
  -2  -6  -3 21308.7 1644.09   3
  -2  -6  -4 40980.9 1708.18   4
  -2  -6  -4 38442.3 1402.90   5
   2   6   4 38833.8 2514.39   2
  -2  -6  -4 42335.0 2390.25   3
  -2  -6  -5 13290.9 941.796   4
  -2  -6  -5 13405.6 894.605   5
   2   6   5 11958.6 1348.08   2
  -2  -6  -5 12209.6 1245.57   3
  -2  -6  -6 49272.5 2189.04   4
  -2  -6  -6 50403.5 2187.19   5
   2   6   6 53676.2 2986.25   2
  -2  -6  -6 55265.6 2792.67   3
   2   6   7 22213.2 1464.20   4
   2   6   7 25417.2 1960.48   2
  -2  -6  -7 22632.4 1708.28   3
  -2  -6  -7 21799.7 1447.67   4
  -2  -6  -8 556.594 301.502   3
  -2  -6  -8 904.471 365.911   4
   2   6   8-239.386 396.707   2
  -2  -6  -9 590.096 339.753   3
  -2  -6  -9 543.447 374.783   4
   2   6   9 1210.43 533.478   2
   2   6  10 26657.7 2034.18   2
  -2  -6 -10 23161.4 1659.23   3
  -2  -6 -10 25013.3 1802.35   4
  -2  -6 -11 110.668 236.386   3
  -2  -6 -11 778.648 465.930   4
   2   6  11 727.234 445.689   2
  -2  -6 -12-193.754 446.858   4
   2   6  12 180.326 498.975   2
   2   6  13 11720.5 1370.23   2
  -2  -6 -13 12558.2 1493.50   4
  -2  -6 -14 391.921 485.875   4
  -2  -6 -15 10530.9 1544.90   4
   2   7 -13 501.228 665.103   1
   2   7 -13 87.3530 522.776   5
   2   7 -12 1720.49 785.876   1
   2   7 -12 2306.64 814.104   5
  -2  -7  11 1061.72 457.692   3
   2   7 -11 2093.63 847.213   1
   2   7 -11 1621.70 649.445   5
   2   7 -10 19418.4 1963.89   1
  -2  -7  10 18750.5 1823.22   3
   2   7 -10 15579.4 1806.26   5
  -2  -7   9-37.4133 421.047   3
   2   7  -9 1033.82 519.959   5
   2   7  -8 49696.2 2932.72   5
  -2  -7   8 56782.8 3311.82   3
   2   7  -7 15348.5 1433.52   5
  -2  -7   7 13911.5 1576.70   3
   2   7  -6 19619.7 1501.08   5
  -2  -7   6 21685.9 1979.14   3
  -2  -7   5 1828.88 673.000   3
   2   7  -5 1567.32 403.955   5
   2   7  -4 5787.27 669.932   5
  -2  -7   4 6731.35 1088.66   3
   2   7  -3 47694.3 1905.12   5
  -2  -7   3 45020.8 2830.39   3
  -2  -7   3 44458.4 1816.36   4
   2   7  -2 19600.6 981.866   5
  -2  -7   2 19356.2 1737.44   3
  -2  -7   2 18741.5 979.830   4
   2   7  -1 5456.55 353.404   5
   2   7  -1 5793.95 1021.74   2
  -2  -7   1 4214.16 799.896   3
  -2  -7   1 5157.39 442.471   4
  -2  -7   0 650.497 157.851   4
  -2  -7   0 308.266 281.454   3
  -2  -7  -1 5233.57 422.588   4
  -2  -7  -1 6560.19 992.785   3
   2   7   1 7001.75 1109.13   2
  -2  -7  -2 28364.3 1143.12   4
  -2  -7  -2 27442.3 2053.37   3
   2   7   2 30355.9 2280.67   2
  -2  -7  -3 21746.5 1018.81   4
   2   7   3 21017.6 1887.97   2
  -2  -7  -3 21158.7 1773.71   3
  -2  -7  -4 827.209 460.310   3
  -2  -7  -4 1539.71 290.869   4
   2   7   4 1841.39 585.199   2
  -2  -7  -5 1611.03 546.552   3
  -2  -7  -5 1755.31 352.342   4
  -2  -7  -5 1550.24 250.657   5
   2   7   5 2340.10 653.109   2
  -2  -7  -5 1425.20 221.914   5
  -2  -7  -6 189313. 5398.68   5
   2   7   6 184706. 6797.56   2
  -2  -7  -6 181438. 6572.82   3
  -2  -7  -6 188311. 5511.87   4
   2   7   7 12830.0 1450.95   2
  -2  -7  -7 12187.3 1336.81   3
  -2  -7  -7 10872.0 966.742   4
   2   7   8 50939.8 2995.82   2
  -2  -7  -8 47684.0 2759.93   3
  -2  -7  -8 51211.4 2397.92   4
  -2  -7  -9 3075.05 645.583   3
  -2  -7  -9 3284.75 619.117   4
   2   7   9 3414.94 797.114   2
   2   7  10 90076.5 4215.05   2
  -2  -7 -10 85855.9 3870.67   3
  -2  -7 -10 92025.7 3776.88   4
  -2  -7 -11 3292.45 713.841   4
   2   7  11 2423.88 690.160   2
   2   7  12 26276.1 2113.87   2
  -2  -7 -12 25807.1 2013.77   4
  -2  -7 -13 67078.8 3606.26   5
   2   7  13 58847.0 3333.26   2
  -2  -7 -13 59832.3 3353.26   4
  -2  -7 -14 23043.5 2095.29   4
  -2  -7 -15 2026.90 839.535   4
   2   8 -12 1248.28 807.459   5
   2   8 -12 1973.83 1014.46   1
  -2  -8  11-652.767 519.200   3
   2   8 -11-1038.56 705.519   1
   2   8 -11-221.777 441.883   5
  -2  -8  10 210.365 428.624   3
   2   8 -10-110.657 420.561   5
  -2  -8   9 260.207 540.763   3
   2   8  -9-139.256 330.262   5
  -2  -8   8 9204.27 1353.52   3
   2   8  -8 10109.5 1198.20   5
  -2  -8   7-247.875 423.132   3
   2   8  -7 948.830 431.796   5
  -2  -8   6 9737.94 1396.07   3
   2   8  -6 9187.83 986.385   5
  -2  -8   5 9951.41 1385.98   3
   2   8  -5 10783.7 952.550   5
   2   8  -4 128509. 4027.70   5
  -2  -8   4 128473. 5659.06   3
   2   8  -3 18282.1 1001.01   5
  -2  -8   3 20011.7 1935.24   3
  -2  -8   3 18312.4 1030.40   4
   2   8  -2 34652.6 1222.91   5
  -2  -8   2 36624.0 2634.93   3
  -2  -8   2 34681.9 1398.23   4
   2   8  -1 63570.9 3634.85   2
  -2  -8   1 62720.0 3522.66   3
  -2  -8   1 60744.3 1902.67   4
   2   8   0 55716.8 3360.41   2
  -2  -8   0 56987.7 1657.32   4
  -2  -8   0 55646.1 3259.78   3
  -2  -8   0 53177.4 1604.33   4
  -2  -8  -1 116347. 2885.15   4
  -2  -8  -1 123215. 5090.38   3
   2   8   1 120887. 5173.82   2
  -2  -8  -2 1281.74 587.584   3
  -2  -8  -2 1454.92 180.119   4
   2   8   2 1264.47 600.506   2
  -2  -8  -3 108897. 4865.70   3
   2   8   3 118906. 5133.53   2
  -2  -8  -3 112344. 3096.12   4
  -2  -8  -4-290.659 366.853   3
  -2  -8  -4 41.7690 135.373   4
   2   8   4 611.957 471.432   2
  -2  -8  -5 10880.6 1376.07   3
  -2  -8  -5 13278.3 850.351   4
  -2  -8  -6 9160.06 1224.95   3
  -2  -8  -6 7712.28 485.962   5
   2   8   6 9307.48 1282.24   2
  -2  -8  -6 7731.97 701.382   4
   2   8   7 14504.2 1582.20   2
  -2  -8  -7 13144.6 837.588   5
  -2  -8  -7 13545.3 1514.65   3
  -2  -8  -7 14933.2 1063.75   4
  -2  -8  -8 6839.39 1070.95   3
  -2  -8  -8 9238.42 791.304   5
   2   8   8 8834.32 1270.46   2
  -2  -8  -8 9463.06 905.836   4
  -2  -8  -9 952.705 479.947   3
  -2  -8  -9 97.6497 299.290   4
   2   8   9 514.443 433.486   2
  -2  -8 -10 4983.47 886.548   3
  -2  -8 -10 5478.52 802.451   4
   2   8  10 3949.24 899.698   2
   2   8  11 485.203 466.000   2
  -2  -8 -11 1037.52 541.071   4
  -2  -8 -12 8860.05 1166.04   4
   2   8  12 8785.01 1274.85   2
   2   8  13 1052.72 662.692   2
   2   9 -11 54251.8 3916.77   1
  -2  -9  11 55005.9 3569.28   3
   2   9 -10 17763.4 2141.38   1
  -2  -9  10 14166.7 1708.73   3
  -2  -9   9 41725.9 3083.56   3
  -2  -9   8 284.300 468.726   3
   2   9  -8 273.533 366.533   5
   2   9  -7 41549.4 2276.34   5
  -2  -9   7 44884.8 3158.46   3
  -2  -9   6 47060.9 3253.19   3
   2   9  -6 42774.6 2163.11   5
  -2  -9   5 3714.91 942.347   3
   2   9  -5 5059.53 618.409   5
   2   9  -4 8965.41 715.080   5
  -2  -9   4 10542.9 1516.25   3
  -2  -9   3-229.926 505.301   3
  -2  -9   2 1664.07 748.839   3
   2   9  -1 15016.5 1753.29   2
  -2  -9   1 13873.0 1682.83   3
  -2  -9   0 919.919 578.331   3
   2   9   0 1393.71 608.690   2
  -2  -9  -1 6821.38 1193.99   3
   2   9   1 6219.34 1097.49   2
  -2  -9  -2 28516.6 2434.56   3
   2   9   2 33718.2 2561.20   2
  -2  -9  -3 37002.9 2794.27   3
   2   9   3 43458.0 2912.32   2
  -2  -9  -4 286.273 403.789   3
   2   9   4 1113.24 635.921   2
  -2  -9  -5 16643.7 1872.07   3
   2   9   5 20068.6 1921.46   2
  -2  -9  -6 5079.05 1063.88   3
   2   9   6 6589.72 1156.64   2
  -2  -9  -7 53546.8 3401.75   3
   2   9   7 55707.6 3324.95   2
  -2  -9  -8 6846.77 1179.08   3
   2   9   8 5367.03 1034.29   2
   2   9   9 12652.6 1570.41   2
  -2  -9  -9 13258.8 1561.69   3
   2   9  10 5963.94 1114.53   2
   2   9  11 879.592 610.651   2
   2   9  12-23.4627 514.614   2
   2   9  13 18279.5 1899.90   2
  -2 -10  10 283.853 480.142   3
  -2 -10   9 4365.26 1027.40   3
  -2 -10   8 929.203 626.236   3
  -2 -10   7 10413.7 1556.26   3
  -2 -10   6 4405.16 1099.81   3
  -2 -10   5 83718.7 4688.74   3
  -2 -10   4 9327.32 1470.93   3
  -2 -10   3 7899.36 1390.79   3
  -2 -10   2 8340.59 1399.52   3
   2  10  -1 20025.5 2062.07   2
  -2 -10   1 20600.1 2184.01   3
   2  10   0 19776.2 2020.59   2
  -2 -10   0 21001.3 2224.09   3
  -2 -10  -1 34.4675 494.679   3
   2  10   1 1088.04 545.037   2
  -2 -10  -2 14054.1 1797.41   3
   2  10   2 16521.3 1789.98   2
  -2 -10  -3 9016.85 1462.18   3
   2  10   3 9525.40 1403.67   2
  -2 -10  -4 11016.5 1602.70   3
   2  10   4 12071.8 1545.29   2
  -2 -10  -5 220.241 522.206   3
   2  10   5 710.477 512.447   2
  -2 -10  -6-225.247 554.974   3
   2  10   6-222.555 413.778   2
  -2 -10  -7 3765.57 1029.60   3
   2  10   7 3354.98 887.926   2
  -2 -10  -8 24181.7 2280.06   3
   2  10   8 22583.7 2146.87   2
  -2 -10  -9 22768.2 2193.95   3
   2  10   9 25190.3 2238.83   2
   2  10  10 900.439 661.485   2
   2  10  11 52132.8 3332.62   2
   2  10  12 5101.99 1126.21   2
  -2 -11   8 2421.02 840.919   3
  -2 -11   7 7408.60 1452.49   3
  -2 -11   6 5928.23 1271.90   3
  -2 -11   5-44.0580 484.052   3
  -2 -11   4 736.275 611.494   3
  -2 -11   3 20311.4 2288.30   3
  -2 -11   2 546.491 668.379   3
   2  11  -1 56936.9 3702.91   2
  -2 -11   1 62175.7 4040.93   3
   2  11   0 27695.1 2443.71   2
  -2 -11   0 26150.9 2606.99   3
   2  11   1 50713.6 3345.03   2
  -2 -11  -1 43859.6 3438.92   3
  -2 -11  -2 11694.5 1760.60   3
   2  11   2 12986.3 1627.90   2
  -2 -11  -3 27006.6 2665.04   3
   2  11   3 27838.7 2403.36   2
  -2 -11  -4 59512.4 4037.10   3
   2  11   4 58024.2 3576.99   2
  -2 -11  -5 10718.7 1682.57   3
   2  11   5 10672.7 1477.39   2
  -2 -11  -6 58920.4 3939.44   3
   2  11   6 54915.8 3455.86   2
  -2 -11  -7-304.646 486.505   3
   2  11   7-811.351 624.259   2
  -2 -11  -8 10901.2 1610.01   3
   2  11   8 13868.3 1698.60   2
   2  11   9-644.030 624.002   2
   2  11  10 9597.12 1491.17   2
  -2 -12   5 179.623 510.946   3
  -2 -12   4 66835.5 4381.97   3
  -2 -12   3 11350.2 1774.22   3
  -2 -12   2 107.113 593.871   3
   2  12  -1 9737.17 1537.50   2
  -2 -12   1 12808.9 1882.85   3
   2  12   0 4369.06 1051.38   2
  -2 -12   0 4553.28 1202.67   3
  -2 -12  -1-1027.51 686.539   3
   2  12   1 361.708 498.858   2
  -2 -12  -2 4915.85 1277.00   3
   2  12   2 3997.58 1022.16   2
  -2 -12  -3 423.946 522.509   3
   2  12   3-358.869 530.286   2
  -2 -12  -4-20.6597 541.389   3
   2  12   4-1801.33 753.746   2
  -2 -12  -5 27483.1 2743.61   3
   2  12   5 25145.8 2326.70   2
  -2 -12  -6 11078.0 1749.42   3
   2  12   6 13906.9 1715.98   2
  -2 -12  -7 1418.61 706.386   3
   2  12   7 219.412 552.999   2
  -2 -12  -8 10886.0 1691.11   3
   2  13  -1 18448.7 2099.33   2
   2  13   0 19332.8 2126.20   2
  -2 -13   0 21486.5 2490.40   3
  -2 -13  -1-882.835 683.068   3
   2  13   1-952.041 586.488   2
  -2 -13  -2 6065.02 1331.13   3
   2  13   2 4097.09 1002.71   2
  -2 -13  -3 34825.9 3225.49   3
   2  13   3 28532.1 2546.63   2
  -2 -13  -4 1679.03 930.780   3
  -2 -13  -5 615.090 683.688   3
  -2 -13  -6 505.282 794.108   3
  -2 -13  -7 1625.97 788.297   3
  -3  13   0 7679.48 1177.03   2
  -3  13  -1 168.390 455.976   2
  -3  13  -2-779.807 507.277   2
  -3  13  -2-1517.88 609.818   1
  -3  13  -3-526.361 515.854   2
  -3  13  -3-2.43145 353.203   1
  -3  13  -4 2533.48 769.178   1
  -3  12   3 443.560 461.647   2
  -3  12   2 5102.59 993.834   2
  -3  12   1 10795.9 1376.83   2
  -3  12   0 1386.80 558.747   2
  -3  12   0 1510.05 548.387   1
  -3  12  -1 25373.1 2053.24   1
  -3  12  -1 38064.1 2553.64   2
  -3  12  -2 947.671 451.248   2
  -3  12  -2 546.356 399.060   1
  -3  12  -3 2008.15 624.451   2
  -3  12  -3 658.081 426.226   1
  -3  12  -4 1041.61 421.880   2
  -3  12  -4 1092.12 463.601   1
  -3  12  -5 10715.0 1490.08   1
  -3  12  -6 1601.83 680.353   1
  -3  11   6 4356.08 1017.03   2
  -3  11   5 512.920 456.741   2
  -3  11   4 732.634 472.258   2
  -3  11   3 2903.47 728.547   2
  -3  11   2-253.948 409.626   2
  -3  11   1-233.808 368.366   2
  -3  11   1 1437.56 463.998   1
  -3  11   0 13614.0 1494.85   2
  -3  11   0 13713.3 1364.68   1
  -3  11  -1 9732.31 1199.00   1
  -3  11  -1 11725.2 1369.78   2
  -3  11  -2 1139.08 504.245   1
  -3  11  -2 2988.92 729.986   2
  -3  11  -3 13374.5 1513.54   1
  -3  11  -3 17419.3 1632.02   2
  -3  11  -4 623.012 398.010   2
  -3  11  -4 478.310 433.047   1
  -3  11  -5 50989.3 3275.17   1
  -3  11  -5 56703.3 3012.42   2
  -3  11  -6-374.162 487.803   1
  -3  11  -7 33960.2 2746.97   1
  -3  11  -8 13898.3 1816.37   1
   3 -10  -7 11497.7 1492.58   5
   3 -10  -6 16387.6 1706.86   5
   3 -10  -5 65942.9 3547.13   5
   3 -10  -4 13446.8 1499.64   5
  -3  10   3 3732.41 839.762   2
   3 -10  -3 2419.29 681.834   5
  -3  10   2 57877.2 2686.67   1
  -3  10   2 62834.2 3248.22   2
   3 -10  -2 59569.3 3261.67   5
  -3  10   1 3149.39 748.858   2
  -3  10   1 2432.01 547.227   1
   3 -10  -1 3700.06 790.666   5
  -3  10   0 17562.8 1621.18   2
  -3  10   0 20641.2 1598.20   1
   3 -10   0 20934.9 1813.55   5
  -3  10  -1 883.701 443.716   2
  -3  10  -1-131.410 322.734   1
  -3  10  -2 46440.4 2707.80   1
  -3  10  -2 50362.0 2869.61   2
  -3  10  -3 988.115 477.899   2
  -3  10  -3 443.171 453.390   1
  -3  10  -4 4307.38 795.387   2
  -3  10  -4 2800.80 734.713   1
  -3  10  -5 4817.83 959.744   1
  -3  10  -5 2972.16 677.890   2
  -3  10  -6 1288.03 633.495   1
  -3  10  -6 2798.81 635.025   2
  -3  10  -7 2272.57 781.605   1
  -3  10  -8 1378.39 683.490   1
  -3  10  -9 3704.93 1035.11   1
   3  -9 -10 14766.8 1940.04   5
   3  -9  -9 7880.18 1397.91   5
   3  -9  -8 6954.77 1229.41   5
   3  -9  -7 413.495 360.267   5
   3  -9  -6 2383.08 706.122   5
   3  -9  -5 7756.85 1180.32   5
   3  -9  -4 2054.82 617.540   5
  -3   9   3 13656.0 1042.45   1
   3  -9  -3 13784.7 1515.82   5
  -3   9   2 21720.4 1420.01   1
   3  -9  -2 22564.9 1945.93   5
  -3   9   1 2135.29 457.240   1
   3  -9  -1 571.751 422.872   5
  -3   9   0 1472.22 479.327   2
  -3   9   0 1618.88 478.682   1
  -3   9   0 1348.26 353.825   4
   3  -9   0 821.496 481.987   5
  -3   9  -1 9978.99 864.230   4
  -3   9  -1 12340.6 1226.23   1
   3  -9   1 10655.7 1324.07   5
  -3   9  -1 11033.5 1258.36   2
  -3   9  -2 19882.8 1245.83   4
  -3   9  -2 18768.8 1584.90   1
  -3   9  -2 18822.6 1609.03   2
  -3   9  -3 691.253 397.901   2
  -3   9  -3 900.813 320.755   4
  -3   9  -3 382.037 395.055   1
  -3   9  -4 48148.1 2186.90   4
  -3   9  -4 50883.0 2909.77   1
  -3   9  -4 53794.2 2802.49   2
  -3   9  -5 2817.18 695.828   1
  -3   9  -5 3280.40 548.792   4
  -3   9  -5 2331.77 535.856   2
  -3   9  -6 10146.6 964.286   4
  -3   9  -6 8836.60 1266.36   1
  -3   9  -6 9242.58 1018.99   2
  -3   9  -7 4504.47 979.442   1
  -3   9  -7 4293.90 692.985   4
  -3   9  -8 11869.2 1584.97   1
  -3   9  -8 9769.45 1058.94   4
  -3   9  -9 15184.9 1844.89   1
  -3   9  -9 14205.5 1337.76   4
  -3   9 -10-597.242 358.347   4
  -3   9 -10 1300.49 717.715   1
  -3   9 -11 2804.46 692.310   4
  -3   9 -11 3229.33 1067.04   1
  -3   9 -12 657.033 515.519   4
   3  -8 -11 5510.60 1276.94   5
   3  -8 -10 14985.8 1981.36   5
   3  -8  -9 8541.54 1443.24   5
   3  -8  -8 9751.87 1441.75   5
   3  -8  -7 1200.61 615.902   5
   3  -8  -6 31387.5 2436.57   5
   3  -8  -5 19060.1 1827.17   5
  -3   8   4 3979.61 452.353   1
   3  -8  -4 4235.43 860.892   5
  -3   8   3 6242.88 634.674   1
   3  -8  -3 6303.67 1038.70   5
  -3   8   2-208.777 285.465   1
   3  -8  -2 491.265 390.782   5
  -3   8   1 2378.93 460.786   1
   3  -8  -1 2643.11 714.785   5
  -3   8   0 6313.01 777.233   1
   3  -8   0 5561.18 957.091   5
  -3   8  -1 446.891 218.911   4
   3  -8   1 595.575 391.039   5
  -3   8  -1 302.859 292.569   1
  -3   8  -2 1128.95 469.644   2
  -3   8  -2 1192.96 358.976   4
  -3   8  -2 1575.31 486.531   1
  -3   8  -3 37450.6 1916.93   4
  -3   8  -3 38618.2 2245.57   2
  -3   8  -3 38166.0 2276.69   1
  -3   8  -4 10651.0 963.708   4
  -3   8  -4 10275.0 1116.43   2
  -3   8  -4 11044.1 1248.75   1
  -3   8  -5 2936.37 577.555   2
  -3   8  -5 3193.32 750.136   1
  -3   8  -5 4555.35 648.278   4
  -3   8  -6 25462.7 1631.37   4
  -3   8  -6 23383.7 1562.85   2
  -3   8  -6 23390.4 1985.86   1
  -3   8  -7 5904.15 823.348   4
  -3   8  -7 3928.73 650.589   2
  -3   8  -7 6281.76 1064.84   1
  -3   8  -8 49713.4 2575.18   4
  -3   8  -8 46237.0 3062.64   1
  -3   8  -9 310.987 444.173   1
  -3   8  -9-139.556 405.255   4
  -3   8 -10 94572.0 4947.08   1
  -3   8 -10 96472.8 4203.96   4
  -3   8 -11 4998.88 941.677   4
  -3   8 -12 10719.6 1370.23   4
  -3   8 -13 10637.8 1384.44   4
   3  -7 -12 518.260 867.376   5
   3  -7 -11 677.938 626.800   5
   3  -7 -10 1771.82 748.547   5
   3  -7  -9 653.985 641.869   5
   3  -7  -8 14831.1 1801.61   5
   3  -7  -7 9238.84 1372.43   5
   3  -7  -6 13098.9 1568.28   5
   3  -7  -5 21718.0 1951.83   5
   3  -7  -4 57919.0 3168.82   5
  -3   7   4 50599.5 1699.52   1
   3  -7  -3 1912.28 625.890   5
  -3   7   3 2111.06 334.693   1
  -3   7   2 55892.9 2153.72   1
   3  -7  -2 56876.1 3168.75   5
  -3   7   1 71863.3 2696.88   1
   3  -7  -1 74047.7 3780.93   5
   3  -7   0 73905.9 3825.64   5
  -3   7   0 73400.1 2850.79   1
  -3   7  -1 35495.0 1925.20   4
  -3   7  -1 37388.0 1940.67   1
   3  -7   1 35623.9 2485.43   5
  -3   7  -2 2347.36 503.165   1
  -3   7  -2 2651.33 507.672   4
   3  -7   2 1553.98 577.663   5
  -3   7  -3 98257.7 3652.02   4
  -3   7  -3 98423.5 3767.34   2
  -3   7  -3 99330.8 3884.71   1
  -3   7  -4 8119.87 875.975   4
  -3   7  -4 9595.11 996.174   2
  -3   7  -4 7492.83 954.264   1
  -3   7  -5 39274.8 2068.89   4
  -3   7  -5 37525.9 2029.84   2
  -3   7  -5 38541.4 2364.72   1
  -3   7  -6 11860.7 1115.67   4
  -3   7  -6 11905.9 1008.43   2
  -3   7  -6 10384.2 1252.15   1
  -3   7  -7 3168.83 625.404   4
  -3   7  -7 2250.30 665.534   1
  -3   7  -7 2643.88 500.945   2
  -3   7  -8 2622.04 712.806   1
  -3   7  -8 1996.52 526.863   4
  -3   7  -9 1948.17 566.413   4
  -3   7  -9 1807.30 708.092   1
  -3   7 -10 4206.64 824.504   4
  -3   7 -11 822.520 496.410   4
  -3   7 -12 20619.9 1932.19   4
  -3   7 -13 1538.14 638.155   4
  -3   7 -14 17545.1 1914.50   4
   3  -6 -12 884.652 708.954   5
   3  -6 -11 18853.9 2270.03   5
   3  -6 -10 2357.86 827.019   5
   3  -6  -9 59080.9 3813.43   5
   3  -6  -8 40779.7 3007.67   5
   3  -6  -7 32293.2 2559.30   5
   3  -6  -6 3842.62 863.046   5
   3  -6  -5 18237.6 1768.74   5
   3  -6  -4 2217.89 649.270   5
  -3   6   3 1449.19 224.211   1
   3  -6  -3 2043.70 605.090   5
   3  -6  -2 10272.5 1243.51   5
  -3   6   2 10560.7 693.417   1
  -3   6   1 2863.46 401.880   1
   3  -6  -1 4390.25 841.282   5
   3  -6   0 12820.9 1480.66   5
  -3   6   0 13069.6 928.305   1
   3  -6   1 22743.8 2002.17   5
  -3   6  -1 21706.1 1315.58   1
  -3   6  -2 6532.88 803.062   4
   3  -6   2 5052.43 948.624   5
  -3   6  -2 6023.28 728.319   1
  -3   6  -3 3958.56 634.186   4
  -3   6  -3 3290.51 595.985   1
  -3   6  -4 50972.5 2450.59   4
  -3   6  -4 49503.7 2471.00   1
  -3   6  -5 28629.9 1769.14   4
  -3   6  -5 29089.6 1655.32   2
  -3   6  -5 29320.1 1937.93   1
  -3   6  -6 434.261 330.493   4
  -3   6  -6 334.755 221.113   2
  -3   6  -6 308.926 318.435   1
  -3   6  -7 66503.8 3358.46   1
  -3   6  -7 70577.9 3159.58   4
  -3   6  -7 70831.8 2694.87   2
  -3   6  -8 806.749 460.490   1
  -3   6  -8 504.188 378.661   4
  -3   6  -9 9295.54 1139.00   4
  -3   6 -10 2979.40 744.387   4
  -3   6 -11 31851.2 2383.72   4
  -3   6 -12 6738.75 1138.52   4
  -3   6 -13 3010.40 825.727   4
  -3   6 -14 2736.53 900.228   4
   3  -5 -12 7906.61 1627.19   5
   3  -5 -11 3306.00 996.969   5
   3  -5 -10 1274.43 717.670   5
   3  -5  -9 7876.04 1361.64   5
   3  -5  -8 5606.15 1137.20   5
   3  -5  -7 39245.1 2821.48   5
   3  -5  -6 2249.11 662.598   5
   3  -5  -5 16216.4 1660.09   5
  -3   5   5 19018.0 1219.17   3
  -3   5   4 14003.8 1078.35   3
   3  -5  -4 13504.8 1447.05   5
   3  -5  -3 76599.6 3707.27   5
   3  -5  -2 24890.6 1926.74   5
  -3   5   1 11915.5 740.502   1
   3  -5  -1 12531.7 1375.96   5
   3  -5   0 24596.9 2004.14   5
  -3   5   0 23765.5 1199.12   1
  -3   5  -1 1759.24 338.335   1
   3  -5   1 1460.64 604.536   5
  -3   5  -2 7725.49 921.388   4
   3  -5   2 6979.49 1094.97   5
  -3   5  -2 7504.93 733.907   1
  -3   5  -3 1955.97 499.092   4
   3  -5   3 1995.23 645.180   5
  -3   5  -3 1542.52 386.977   1
  -3   5  -4 576.855 325.539   1
  -3   5  -4 175.277 254.110   4
  -3   5  -5 313.657 265.889   1
  -3   5  -5 229.708 216.757   4
  -3   5  -6 25150.9 1717.57   4
  -3   5  -6 25257.1 1757.02   1
  -3   5  -6 27740.1 1369.63   2
  -3   5  -7 22291.2 1637.98   4
  -3   5  -7 21344.7 1125.16   2
  -3   5  -8 19986.9 1621.11   4
  -3   5  -9 8993.49 1095.69   4
  -3   5 -10 169.860 358.609   4
  -3   5 -11 80963.0 4003.93   4
  -3   5 -12 1327.55 634.195   4
  -3   5 -13 53684.4 3419.89   4
  -3   5 -14 4948.16 1118.15   4
   3  -4 -13 1603.49 994.198   5
   3  -4 -12 29306.8 3026.74   5
   3  -4 -11-49.2973 585.425   5
   3  -4 -10 748.960 594.619   5
   3  -4  -9 10830.4 1573.71   5
   3  -4  -8 16436.8 1837.41   5
   3  -4  -7 2828.32 753.968   5
   3  -4  -6 5868.56 1026.21   5
   3  -4  -5 948.684 484.027   5
   3  -4  -4 5653.10 923.746   5
   3  -4  -3 101132. 4321.94   5
   3  -4  -2-26.1305 344.185   5
   3  -4  -1 19254.7 1662.49   5
   3  -4   0 36862.4 2444.11   5
   3  -4   1 210271. 7519.86   5
   3  -4   2 36383.5 2587.61   5
  -3   4  -3 30790.8 1970.35   4
   3  -4   3 30904.5 2329.60   5
  -3   4  -4 92796.1 3766.01   4
  -3   4  -5 17596.8 1441.91   4
  -3   4  -6 42689.2 2328.71   4
  -3   4  -6 38720.2 1546.79   2
  -3   4  -7 954.086 159.855   2
  -3   4  -7 1264.39 425.243   4
  -3   4  -8 116219. 4586.83   4
  -3   4  -9 936.786 463.215   4
  -3   4 -10 2730.73 687.791   4
  -3   4 -11 332.968 388.631   4
  -3   4 -12 1473.33 640.602   4
  -3   4 -13 579.346 536.722   4
  -3   4 -14 1205.04 710.456   4
  -3   4 -15 2411.05 857.845   4
   3  -3 -13 21960.3 2746.31   5
   3  -3 -12 13492.3 2062.61   5
   3  -3 -11 5675.94 1335.14   5
   3  -3 -10 87355.7 4913.64   5
   3  -3  -9 9353.35 1448.87   5
   3  -3  -8 25450.4 2274.73   5
   3  -3  -7 5459.50 1027.03   5
   3  -3  -6 138373. 5635.09   5
   3  -3  -5 59994.8 3225.73   5
   3  -3  -4 42483.1 2570.92   5
   3  -3  -3 6926.30 965.185   5
   3  -3  -2 53082.3 2844.61   5
   3  -3  -1 2850.38 644.066   5
   3  -3   0 5680.80 923.625   5
  -3   3   0 6102.69 899.514   5
   3  -3   1 14372.4 1547.08   5
   3  -3   2 8728.31 692.426   1
   3  -3   2 10420.8 1354.05   5
   3  -3   3 23513.3 1304.45   1
  -3   3  -3 22050.0 1659.53   4
   3  -3   3 23493.1 2022.37   5
  -3   3  -4 77797.2 3479.72   4
   3  -3   4 75311.5 2841.34   1
  -3   3  -5 654.805 400.855   4
  -3   3  -6 564.674 355.385   4
  -3   3  -7 58029.0 2937.25   4
  -3   3  -8 56732.6 2985.54   4
  -3   3  -9 8941.05 1176.34   4
  -3   3 -10 35136.5 2452.26   4
  -3   3 -11 4374.16 914.322   4
  -3   3 -12 34822.7 2700.79   4
  -3   3 -13 7957.25 1360.71   4
  -3   3 -14 19310.9 2181.32   4
  -3   3 -15 11471.6 1780.44   4
   3  -2 -13 16647.4 2400.59   5
   3  -2 -12 208.557 647.724   5
   3  -2 -11 2429.57 982.234   5
   3  -2 -10 1924.97 719.831   5
   3  -2  -9 4174.61 991.903   5
   3  -2  -8-330.605 415.945   5
   3  -2  -7 177.930 390.229   5
   3  -2  -6 25523.8 2078.95   5
   3  -2  -5 10932.7 1287.89   5
   3  -2  -4 26039.1 1934.42   5
   3  -2  -3 739.705 406.516   5
   3  -2  -2 23872.2 1787.04   5
   3  -2  -1 6147.17 404.434   1
   3  -2  -1 5770.28 870.585   5
   3  -2   0 111921. 3189.31   1
   3  -2   0 111581. 4545.73   5
   3  -2   1 61546.1 3308.98   5
   3  -2   1 61775.7 2142.10   1
   3  -2   2 30375.5 2383.41   5
   3  -2   2 31376.5 1454.21   1
  -3   2  -3 15357.6 1359.96   4
   3  -2   3 13766.5 1532.14   5
   3  -2   3 15085.4 1028.01   1
   3  -2   4 3424.51 534.168   1
  -3   2  -4 2684.99 596.255   4
   3  -2   5 3039.95 516.848   1
  -3   2  -5 3351.81 714.005   4
  -3   2  -6 374.281 345.669   4
  -3   2  -7 6194.46 948.616   4
  -3   2  -8 135.439 283.747   4
  -3   2  -9 47840.6 2898.87   4
  -3   2 -10 14648.8 1604.54   4
  -3   2 -11 9714.13 1374.97   4
  -3   2 -12 9430.48 1444.94   4
  -3   2 -13 15947.6 1956.98   4
  -3   2 -14 46476.7 3500.60   4
  -3   2 -15 2840.04 1032.28   4
   3  -1 -13 8467.43 1809.52   5
   3  -1 -12 1803.00 956.859   5
   3  -1 -11 37437.8 3332.34   5
   3  -1 -10 22732.6 2471.22   5
   3  -1  -9 19419.4 2106.90   5
   3  -1  -8 7272.01 1237.32   5
   3  -1  -7 14836.2 1640.30   5
   3  -1  -6-33.0943 297.714   5
   3  -1  -5 138.795 332.705   5
   3  -1  -4 14243.7 1394.78   5
   3  -1  -3 22215.2 1707.70   5
   3  -1  -2 76698.7 3413.49   5
   3  -1  -1 77514.7 3429.33   5
   3  -1   0 26772.1 1876.46   5
   3  -1   1 5027.65 859.034   5
   3  -1   2 140277. 5649.93   5
  -3   1  -3 834.588 311.654   4
   3  -1   3 613.041 339.379   5
   3  -1   4 172927. 5057.48   1
  -3   1  -4 146458. 5572.75   4
   3  -1   5 158158. 5057.92   1
  -3   1  -5 171863. 6193.49   4
  -3   1  -6 139118. 5183.56   4
  -3   1  -6 112831. 3299.25   2
  -3   1  -7 33475.0 2277.51   4
  -3   1  -7 25240.4 975.966   2
  -3   1  -8 4735.54 874.945   4
  -3   1  -9 112669. 4951.52   4
  -3   1 -10 6188.28 1088.69   4
  -3   1 -11 40884.4 2952.88   4
  -3   1 -12 2854.16 935.364   4
  -3   1 -13 9404.47 1511.28   4
  -3   1 -14 5481.75 1326.98   4
  -3   1 -15 273.855 637.192   4
   3   0 -13 11930.4 2248.21   5
   3   0 -12 4629.35 1398.45   5
   3   0 -11 5183.67 1359.02   5
   3   0 -10 11799.2 1766.37   5
   3   0  -9 24420.1 2417.30   5
  -3   0   9 25708.9 1416.89   3
   3   0  -8 37893.0 2877.80   5
  -3   0   8 42807.8 1967.49   3
   3   0  -7 91835.9 4513.89   5
   3   0  -7 99049.2 2944.82   1
   3   0  -6 5113.55 429.333   1
   3   0  -6 3784.38 824.641   5
   3   0  -5 77327.0 3675.67   5
   3   0  -4 40354.0 2402.34   5
   3   0  -3 171010. 5855.25   5
   3   0  -2 100462. 3989.40   5
   3   0  -1 64697.3 2973.32   5
   3   0   0 10374.9 1107.90   5
   3   0   1 85404.0 3772.56   5
   3   0   2 10594.7 1309.82   5
  -3   0  -3 6608.83 878.082   4
   3   0   3 5744.91 931.324   5
  -3   0  -4 16090.4 1414.08   4
  -3   0  -5 7090.07 988.585   4
  -3   0  -5 8088.62 1146.35   5
  -3   0  -5 6918.51 603.238   2
  -3   0  -6 20532.4 1781.28   4
  -3   0  -6 17967.0 988.947   2
  -3   0  -7 19122.7 1095.36   2
  -3   0  -7 22732.2 1875.90   4
  -3   0  -8 374.817 377.153   4
  -3   0  -9 6962.29 1105.65   4
  -3   0 -10 60492.0 3483.26   4
  -3   0 -11 19262.0 2002.19   4
  -3   0 -12-442.345 596.716   4
  -3   0 -13 24728.2 2494.23   4
  -3   0 -14 924.083 776.680   4
  -3   0 -15 10333.9 1766.83   4
   3   1 -13 24089.3 3052.59   5
   3   1 -12 25626.7 3000.88   5
   3   1 -11 12665.5 2010.69   5
   3   1 -10 47345.0 3705.08   5
   3   1  -9 1772.23 732.484   5
  -3  -1   9 2022.32 468.935   3
  -3  -1   8 3038.18 538.806   3
   3   1  -8 3243.71 885.514   5
  -3  -1   7-3.14842 175.832   3
   3   1  -7 478.960 528.655   5
   3   1  -7 339.940 248.455   1
   3   1  -6 6119.89 977.803   5
   3   1  -5 8.92374 298.625   5
   3   1  -4 3532.52 681.208   5
   3   1  -3 28269.3 1879.69   5
  -3  -1   3 32073.9 1912.05   5
   3   1  -2 11555.8 1136.17   5
   3   1  -1 84818.5 3462.37   5
   3   1   0 1534.29 419.480   5
   3   1   1 16110.5 1394.92   5
  -3  -1  -1 14134.3 1174.79   5
   3   1   2 6264.86 930.834   5
  -3  -1  -3 111673. 3546.03   2
  -3  -1  -3 111986. 4261.90   4
   3   1   3 109318. 4414.96   5
  -3  -1  -4 76760.1 3387.37   4
  -3  -1  -4 81609.8 2812.53   2
  -3  -1  -5 44706.0 2519.12   4
  -3  -1  -5 50583.2 2795.06   5
  -3  -1  -5 44435.2 1896.92   2
  -3  -1  -6 988.121 277.252   2
  -3  -1  -6 2115.95 638.481   5
  -3  -1  -6 2010.66 569.317   4
  -3  -1  -7 1929.46 419.056   2
  -3  -1  -7 4343.69 847.087   4
  -3  -1  -8 11655.4 1355.97   4
  -3  -1  -9 422.773 506.668   4
  -3  -1 -10 115.511 494.506   4
  -3  -1 -11 475.050 473.249   4
  -3  -1 -12 9785.02 1494.93   4
  -3  -1 -13 23531.4 2411.37   4
  -3  -1 -14 16198.5 2127.73   4
  -3  -1 -15 875.525 780.252   4
   3   2 -13 34212.8 3730.09   5
   3   2 -12 2046.68 1146.44   5
   3   2 -11 5035.43 1290.83   5
   3   2 -10 35157.3 3167.70   5
   3   2 -10 40973.3 2224.56   1
   3   2  -9 15814.4 1253.07   1
   3   2  -9 12118.4 1703.91   5
  -3  -2   9 15468.1 1299.77   3
   3   2  -8 28186.3 2445.82   5
  -3  -2   8 30261.9 1831.46   3
  -3  -2   7 2852.57 551.016   3
   3   2  -7 2664.12 716.149   5
   3   2  -6 96065.1 4411.96   5
  -3  -2   6 104391. 3819.88   3
   3   2  -5 284.745 250.828   5
   3   2  -4 2914.39 630.669   5
   3   2  -3 30932.7 1932.02   5
  -3  -2   3 33523.7 1897.16   5
   3   2  -2 58772.8 2739.57   5
   3   2  -1 3127.68 566.905   5
  -3  -2   0 23129.0 1408.71   5
   3   2   0 20418.6 1445.75   5
   3   2   1 9911.84 1038.55   5
  -3  -2  -1 8697.12 848.981   5
  -3  -2  -2 368.138 229.424   2
   3   2   2 998.823 379.259   5
  -3  -2  -2 371.325 201.836   5
  -3  -2  -3 132854. 4700.54   4
  -3  -2  -3 135903. 4469.57   5
   3   2   3 125031. 4726.21   5
  -3  -2  -3 135446. 4268.18   2
  -3  -2  -4 30213.7 1850.91   4
  -3  -2  -4 27850.9 1534.31   2
  -3  -2  -5 5781.06 821.108   4
  -3  -2  -5 5985.68 673.145   2
  -3  -2  -6 10070.1 1138.46   4
  -3  -2  -6 13422.3 1395.49   5
  -3  -2  -6 11668.3 1022.97   2
  -3  -2  -7 239374. 7610.71   4
  -3  -2  -7 213013. 6857.52   2
  -3  -2  -8 28618.3 2127.71   4
  -3  -2  -9 43263.1 2750.63   4
  -3  -2 -10 69901.2 3778.70   4
  -3  -2 -11 49266.3 3209.13   4
  -3  -2 -12 20679.4 2128.89   4
  -3  -2 -13 749.989 647.691   4
  -3  -2 -14 59740.2 4066.67   4
  -3  -2 -15 701.833 811.014   4
   3   3 -13 28798.8 3411.90   5
   3   3 -12 562.851 744.446   5
   3   3 -11 6450.57 1456.51   5
   3   3 -10 3155.50 646.030   1
   3   3 -10 2112.90 836.843   5
  -3  -3   9 1340.26 512.760   3
   3   3  -9 2401.22 597.758   1
   3   3  -9 1716.36 713.077   5
  -3  -3   8 3709.49 700.412   3
   3   3  -8 2703.46 813.014   5
   3   3  -7 59878.3 3471.30   5
  -3  -3   7 67878.1 3080.43   3
   3   3  -6 11269.8 1310.53   5
  -3  -3   6 10620.1 1101.62   3
   3   3  -5 21366.7 1728.24   5
  -3  -3   5 23955.0 1624.81   3
   3   3  -4 74723.1 3352.95   5
   3   3  -3 29484.1 1839.43   5
   3   3  -2 75379.1 3136.49   5
   3   3  -1 71798.1 3003.40   5
  -3  -3   1 78651.3 2894.38   5
  -3  -3   0 211615. 6454.94   2
   3   3   0 224815. 6660.36   5
  -3  -3   0 231313. 6370.57   5
   3   3   1 26585.3 1681.25   5
  -3  -3  -1 29745.5 1531.28   5
  -3  -3  -1 27832.9 1592.38   2
   3   3   2 30946.6 1825.76   5
  -3  -3  -2 30253.6 1564.47   5
  -3  -3  -2 31651.8 1734.11   2
  -3  -3  -3 4204.62 550.204   5
  -3  -3  -3 4032.01 620.177   4
  -3  -3  -3 4467.85 598.373   2
  -3  -3  -4 152678. 5026.28   4
  -3  -3  -4 149346. 4824.57   5
  -3  -3  -4 144591. 4768.17   2
  -3  -3  -5 14658.4 1258.97   4
  -3  -3  -5 16082.7 1235.08   2
  -3  -3  -6 12560.9 1219.62   4
  -3  -3  -6 12381.1 1162.00   2
  -3  -3  -7 400.881 360.562   2
  -3  -3  -7 202.833 308.415   4
  -3  -3  -8 2058.77 590.509   4
  -3  -3  -9 3289.61 777.981   4
  -3  -3 -10 26670.3 2191.36   4
  -3  -3 -11 1858.08 701.643   4
  -3  -3 -12 226.916 483.686   4
  -3  -3 -13 37607.1 2979.72   4
  -3  -3 -14 37376.4 3103.62   4
  -3  -3 -15 4860.70 1256.32   4
   3   4 -13 5376.14 1629.09   5
   3   4 -12 43944.0 3871.93   5
   3   4 -11 1942.31 631.158   1
   3   4 -11 546.218 495.744   5
   3   4 -10 25985.7 1976.52   1
   3   4 -10 19869.1 2306.66   5
  -3  -4  10 25528.0 1926.82   3
   3   4  -9 56175.8 2883.99   1
   3   4  -9 50967.0 3546.49   5
  -3  -4   9 56452.5 3067.38   3
   3   4  -8 36193.1 2764.23   5
  -3  -4   8 45832.2 2642.16   3
   3   4  -7 43753.9 2852.88   5
  -3  -4   7 50632.1 2737.13   3
  -3  -4   6 1382.02 472.435   3
   3   4  -6 782.327 463.779   5
  -3  -4   5 5692.23 834.830   3
   3   4  -5 5277.33 834.444   5
   3   4  -4 17275.4 1420.00   5
  -3  -4   4 18184.7 1450.87   3
   3   4  -3 11508.6 1077.80   5
  -3  -4   3 9092.21 998.492   3
   3   4  -2 5715.17 721.356   5
   3   4  -1 165.576 201.374   5
  -3  -4   1 217.702 173.113   5
   3   4   0 30818.3 1656.21   5
  -3  -4   0 28455.3 1441.52   5
  -3  -4  -1 4857.93 525.087   5
   3   4   1 3376.85 539.162   5
   3   4   2 71703.0 2843.33   5
  -3  -4  -2 71273.1 2559.65   5
  -3  -4  -3 107.035 209.097   4
  -3  -4  -3 252.697 171.470   5
  -3  -4  -4 21604.7 1433.41   4
  -3  -4  -4 19680.6 1217.50   5
   3   4   5 10039.0 1034.23   2
  -3  -4  -5 9757.55 991.701   4
  -3  -4  -5 8902.04 894.861   5
  -3  -4  -5 8594.08 968.601   2
   3   4   6 109389. 4156.19   2
  -3  -4  -6 114649. 4226.53   4
  -3  -4  -6 107289. 4426.54   2
   3   4   7 64825.8 2999.77   2
  -3  -4  -7 68254.3 3174.74   4
  -3  -4  -7 68889.5 3242.31   5
   3   4   8 10423.2 1089.13   2
  -3  -4  -8 12018.4 1274.90   4
  -3  -4  -9 10275.1 1240.31   4
   3   4   9 9988.64 1085.32   2
  -3  -4 -10 11562.5 1365.09   4
   3   4  10 8974.10 1047.95   2
  -3  -4 -11 2469.30 840.891   4
   3   4  11 1701.54 526.085   2
  -3  -4 -12 3148.16 876.265   4
  -3  -4 -13 6638.77 1257.70   4
  -3  -4 -14-493.034 598.691   4
  -3  -4 -15 12975.4 1801.08   4
   3   5 -12 31.7778 634.416   5
   3   5 -11-1654.58 795.213   5
   3   5 -11 637.202 519.680   1
   3   5 -10 21776.3 1902.91   1
   3   5 -10 20132.2 2244.18   5
  -3  -5  10 23496.8 1956.27   3
  -3  -5   9 14975.3 1583.21   3
   3   5  -9 10710.4 1511.87   5
   3   5  -8 32826.5 2507.87   5
  -3  -5   8 37136.0 2506.59   3
  -3  -5   7 4881.00 879.567   3
   3   5  -7 6751.75 1044.60   5
  -3  -5   6 1848.75 540.858   3
   3   5  -6 2826.79 686.991   5
   3   5  -5 92518.6 3842.77   5
  -3  -5   5 89053.8 3969.59   3
   3   5  -4 37233.4 2101.20   5
  -3  -5   4 33920.2 2237.04   3
   3   5  -3 51459.1 2417.72   5
  -3  -5   3 48949.4 2658.64   3
   3   5  -2 20371.1 1346.24   5
  -3  -5   2 19419.5 1558.34   3
   3   5  -1 25718.0 1469.18   5
  -3  -5   1 26033.5 1797.09   3
   3   5   0-98.2787 171.633   5
  -3  -5   0 115.734 164.749   5
   3   5   1 342.026 175.468   5
  -3  -5  -1 224.870 174.118   5
  -3  -5  -2 43480.6 2019.70   4
  -3  -5  -2 38809.6 1596.91   5
  -3  -5  -3 6496.21 732.104   4
  -3  -5  -3 6350.38 567.639   5
   3   5   4 19733.0 1593.36   2
  -3  -5  -4 17971.0 1258.98   4
  -3  -5  -4 17457.4 1048.85   5
   3   5   5 49496.5 2681.79   2
  -3  -5  -5 48990.2 2285.18   4
  -3  -5  -5 43253.8 2006.20   5
   3   5   6 39761.1 2390.83   2
  -3  -5  -6 36336.7 2020.33   4
  -3  -5  -7 998.336 394.053   4
   3   5   7 886.936 498.515   2
  -3  -5  -8 58068.0 2899.74   4
   3   5   8 61096.0 3147.91   2
  -3  -5  -9 6929.46 984.128   4
   3   5   9 5734.82 922.414   2
  -3  -5 -10 39445.8 2538.68   4
   3   5  10 40829.2 2527.29   2
   3   5  11 51882.6 2896.60   2
  -3  -5 -11 56848.2 3235.13   4
   3   5  12 82552.6 3769.97   2
  -3  -5 -12 81530.8 4202.45   4
  -3  -5 -13 5821.76 1143.74   4
  -3  -5 -14 14949.9 1835.45   4
  -3  -5 -15 20556.3 2184.96   4
   3   6 -12 10647.8 1805.73   5
   3   6 -11 10681.2 1474.92   1
   3   6 -11 9789.98 1578.59   5
   3   6 -10 17322.9 1785.67   1
   3   6 -10 16062.4 1913.16   5
  -3  -6  10 17271.0 1781.53   3
  -3  -6   9 3315.56 820.007   3
   3   6  -9 4593.13 998.526   5
  -3  -6   8 1136.28 457.390   3
   3   6  -8-117.082 394.961   5
   3   6  -7 14369.2 1458.70   5
  -3  -6   7 15799.0 1676.76   3
  -3  -6   6 1432.44 533.979   3
   3   6  -6 1040.17 473.890   5
   3   6  -5 15677.8 1346.82   5
  -3  -6   5 16556.0 1632.55   3
   3   6  -4 76943.3 3201.90   5
  -3  -6   4 74191.3 3687.68   3
   3   6  -3 13495.7 1106.62   5
  -3  -6   3 13319.0 1395.75   3
   3   6  -2 24157.9 1411.52   5
  -3  -6   2 22619.7 1811.54   3
   3   6  -1 49917.6 2067.12   5
  -3  -6   1 49116.1 2762.85   3
   3   6   0 23864.1 1316.98   5
  -3  -6   0 24121.0 1830.17   3
   3   6   1 75124.5 2595.59   5
  -3  -6  -1 74863.9 2366.09   5
  -3  -6  -1 73909.0 3426.90   3
  -3  -6  -2 46577.5 2035.05   4
  -3  -6  -2 43310.0 1560.29   5
  -3  -6  -2 45305.8 2498.75   3
   3   6   3 151621. 5626.78   2
  -3  -6  -3 145230. 4423.29   4
  -3  -6  -3 132735. 3786.41   5
  -3  -6  -3 137323. 5043.70   3
   3   6   4 6843.79 1078.13   2
  -3  -6  -4 5743.06 667.335   4
  -3  -6  -4 5218.14 485.613   5
   3   6   5 17571.8 1697.69   2
  -3  -6  -5 18451.8 1242.62   4
  -3  -6  -5 17162.4 1041.26   5
  -3  -6  -6 2960.34 489.148   5
  -3  -6  -6 3332.90 560.303   4
   3   6   6 3673.65 837.975   2
  -3  -6  -7 108107. 4005.95   4
   3   6   7 113352. 4870.27   2
  -3  -6  -7 107135. 4318.82   3
  -3  -6  -8 7068.92 895.118   4
   3   6   8 5365.79 1053.89   2
  -3  -6  -8 7412.16 981.074   3
  -3  -6  -9 7836.62 999.542   4
   3   6   9 7461.53 1158.19   2
  -3  -6  -9 5649.53 867.715   3
  -3  -6 -10 583.276 428.529   4
  -3  -6 -10 742.984 449.903   3
   3   6  10-183.312 402.806   2
  -3  -6 -11 762.883 469.712   4
  -3  -6 -11 374.847 389.915   3
   3   6  11 237.884 395.507   2
  -3  -6 -12 8356.13 1241.67   4
   3   6  12 8020.18 1186.29   2
  -3  -6 -13 9657.23 1363.99   4
  -3  -6 -14 160.566 498.681   4
  -3  -6 -15 2139.60 772.626   4
   3   7 -12 959.602 785.050   5
   3   7 -11 71311.9 4195.25   1
   3   7 -11 69239.5 4222.57   5
  -3  -7  10 406.271 389.147   3
   3   7 -10 1454.94 692.273   1
   3   7 -10 1941.55 792.094   5
   3   7  -9 34885.8 2555.48   5
  -3  -7   9 37872.5 2804.85   3
  -3  -7   8 6700.72 1176.34   3
   3   7  -8 4594.45 893.303   5
   3   7  -7 30322.5 2105.59   5
  -3  -7   7 34104.3 2630.87   3
   3   7  -6 21156.6 1636.11   5
  -3  -7   6 20287.6 1972.53   3
   3   7  -5 23991.2 1646.86   5
  -3  -7   5 22055.5 2029.50   3
   3   7  -4 71981.4 2945.27   5
  -3  -7   4 66842.2 3642.29   3
  -3  -7   3 6717.80 1074.22   3
   3   7  -3 7506.49 768.566   5
  -3  -7   2 510.223 422.517   3
   3   7  -2 251.033 201.353   5
  -3  -7   1 4352.12 857.563   3
   3   7  -1 3484.80 446.817   5
  -3  -7   0 5146.00 902.219   3
   3   7   0 5150.21 488.661   5
  -3  -7  -1 129.225 423.429   3
  -3  -7  -1 93.4949 181.668   4
  -3  -7  -2 2059.28 621.446   3
  -3  -7  -2 2473.13 416.272   4
  -3  -7  -3 18996.2 1125.17   4
  -3  -7  -3 15607.2 626.918   5
  -3  -7  -3 18212.3 1651.64   3
  -3  -7  -4 888.462 295.382   4
  -3  -7  -4 402.542 129.779   5
  -3  -7  -4 758.950 417.894   3
   3   7   4 188.095 370.032   2
  -3  -7  -5 45822.6 2029.28   4
  -3  -7  -5 41379.5 2580.23   3
  -3  -7  -6 101.809 319.239   3
   3   7   6 167.719 473.479   2
  -3  -7  -6-131.713 240.471   4
  -3  -7  -7 35495.1 1899.16   4
  -3  -7  -7 36794.5 2417.34   3
   3   7   7 33175.2 2568.21   2
  -3  -7  -8 521.988 273.349   4
  -3  -7  -8 143.311 311.116   3
   3   7   8 71.0124 464.378   2
   3   7   9 38299.0 2779.19   2
  -3  -7  -9 40730.9 2586.93   3
  -3  -7  -9 40569.2 2291.38   4
  -3  -7 -10 33400.8 2307.74   3
   3   7  10 31170.7 2517.31   2
  -3  -7 -10 36717.9 2256.41   4
  -3  -7 -11 23163.7 1866.68   3
   3   7  11 24006.9 2180.88   2
  -3  -7 -11 28377.2 2021.27   4
  -3  -7 -12 4206.67 861.292   4
   3   7  12 3700.99 902.020   2
  -3  -7 -13 3011.65 822.853   4
  -3  -7 -14 6410.83 1084.09   4
   3   8 -11 2222.15 983.211   1
  -3  -8  10 1620.74 670.687   3
   3   8 -10 1329.48 667.487   5
  -3  -8   9 502.917 448.616   3
   3   8  -9-731.014 473.831   5
  -3  -8   8 7264.26 1301.38   3
   3   8  -8 10032.7 1237.44   5
   3   8  -7 54651.4 2857.17   5
  -3  -8   7 55949.8 3611.49   3
  -3  -8   6 3440.65 894.230   3
   3   8  -6 3013.40 618.483   5
   3   8  -5 13296.5 1141.90   5
  -3  -8   5 11285.3 1532.69   3
   3   8  -4 24075.4 1458.47   5
  -3  -8   4 25371.0 2236.26   3
   3   8  -3 33631.6 1622.07   5
  -3  -8   3 32347.8 2516.85   3
   3   8  -2 23017.0 1162.50   5
  -3  -8   2 21694.5 2017.58   3
  -3  -8   1 1115.51 545.970   3
   3   8  -1 1743.23 274.754   5
  -3  -8   0 123710. 5275.49   3
  -3  -8  -1 5161.74 531.093   4
  -3  -8  -1 3804.29 830.284   3
   3   8   2 7371.20 1292.74   2
  -3  -8  -2 5127.75 520.813   4
  -3  -8  -2 5137.74 955.469   3
   3   8   3 8788.12 1381.19   2
  -3  -8  -3 6846.09 602.835   4
  -3  -8  -3 6925.59 1096.96   3
   3   8   4 23440.9 2240.72   2
  -3  -8  -4 26751.7 1321.99   4
  -3  -8  -4 26841.1 2149.46   3
  -3  -8  -5 2334.75 689.813   3
  -3  -8  -5 3155.73 469.588   4
   3   8   5 4413.60 988.349   2
  -3  -8  -6 2388.98 700.683   3
  -3  -8  -6 2411.23 451.241   4
   3   8   6 1811.88 776.757   2
  -3  -8  -7 710.095 474.695   3
  -3  -8  -7 455.325 300.639   4
   3   8   7 892.216 582.721   2
  -3  -8  -8 913.852 529.875   3
  -3  -8  -8 196.383 306.074   4
   3   8   8-171.917 539.142   2
  -3  -8  -9 36128.5 2572.14   3
   3   8   9 32692.3 2660.55   2
  -3  -8  -9 38904.1 2153.63   4
  -3  -8 -10 15440.3 1636.28   3
   3   8  10 13952.7 1725.01   2
  -3  -8 -10 16354.0 1398.97   4
  -3  -8 -11 5312.17 855.065   4
   3   8  11 5268.90 1131.38   2
   3   8  12-360.149 574.813   2
  -3  -9  10 54913.1 3708.95   3
  -3  -9   9 5297.86 1146.83   3
  -3  -9   8 1802.04 738.902   3
  -3  -9   7 22091.8 2291.02   3
  -3  -9   6-480.016 600.224   3
  -3  -9   5 278.325 522.170   3
  -3  -9   4 7453.85 1372.32   3
  -3  -9   3 760.276 580.544   3
  -3  -9   2 8214.46 1319.45   3
  -3  -9   1 65281.9 3800.64   3
  -3  -9   0 2281.10 740.401   3
  -3  -9  -1 11551.7 1516.37   3
   3   9   2 16430.4 1923.49   2
  -3  -9  -2 13844.0 1636.84   3
   3   9   3 23954.1 2333.59   2
  -3  -9  -3 25358.4 2255.27   3
   3   9   4 50881.5 3460.78   2
  -3  -9  -4 53790.1 3351.03   3
   3   9   5 37236.1 2916.51   2
  -3  -9  -5 40732.9 2875.02   3
  -3  -9  -6 80637.2 4353.19   3
   3   9   6 88412.2 4637.76   2
  -3  -9  -7 6133.92 1095.35   3
   3   9   7 6946.07 1268.03   2
   3   9   8 12737.3 1675.15   2
  -3  -9  -8 13350.5 1629.00   3
  -3  -9  -9 903.028 507.616   3
   3   9   9 1058.64 668.717   2
  -3  -9 -10 38102.5 2791.11   3
   3   9  10 36871.3 2883.97   2
   3   9  11 8203.69 1332.45   2
   3   9  12 8736.57 1402.71   2
  -3 -10   9 4763.35 1151.37   3
  -3 -10   8 49876.0 3610.88   3
  -3 -10   7 2609.98 877.121   3
  -3 -10   6 50436.0 3648.36   3
  -3 -10   5 50.4703 477.457   3
  -3 -10   4 40440.8 3205.91   3
  -3 -10   3 31989.4 2849.68   3
  -3 -10   2 18714.8 2121.73   3
  -3 -10   1 29423.8 2625.26   3
  -3 -10   0 6399.68 1226.23   3
  -3 -10  -1 3471.37 921.391   3
   3  10   2 6597.90 1239.84   2
  -3 -10  -2 5883.17 1151.40   3
   3  10   3 1894.49 727.033   2
  -3 -10  -3 1630.99 700.928   3
  -3 -10  -4-17.0358 617.934   3
   3  10   4 571.239 649.817   2
  -3 -10  -5 2895.46 904.406   3
   3  10   5 3391.37 994.353   2
  -3 -10  -6 17262.9 1999.60   3
   3  10   6 17610.8 2014.94   2
  -3 -10  -7-740.005 614.160   3
   3  10   7-460.073 677.210   2
  -3 -10  -8 30694.4 2696.95   3
   3  10   8 30192.5 2619.59   2
  -3 -10  -9-246.288 532.921   3
   3  10   9 667.152 646.445   2
   3  10  10 20603.4 2165.70   2
   3  10  11 325.899 637.960   2
   3  10  12 27876.3 2486.08   2
  -3 -11   6 2089.17 903.527   3
  -3 -11   5 1162.89 801.145   3
  -3 -11   4 11543.8 1774.16   3
  -3 -11   3 19026.0 2278.65   3
  -3 -11   2 55652.7 3944.72   3
  -3 -11   1 1728.87 814.247   3
  -3 -11   0 2507.31 945.651   3
  -3 -11  -1 47698.0 3586.62   3
   3  11   2 15325.0 1971.61   2
  -3 -11  -2 15460.1 2050.24   3
   3  11   3 33902.5 2882.65   2
  -3 -11  -3 35468.4 3091.25   3
  -3 -11  -4 2076.06 832.582   3
   3  11   4 451.174 535.604   2
   3  11   5 18785.3 2127.74   2
  -3 -11  -5 24301.2 2545.62   3
  -3 -11  -6 4363.92 1119.74   3
   3  11   6 4895.21 1139.82   2
  -3 -11  -7 1777.13 795.198   3
   3  11   7 1004.55 693.625   2
  -3 -11  -8 17079.4 2142.51   3
   3  11   8 13778.5 1789.41   2
  -3 -11  -9 2550.99 945.418   3
   3  11   9 137.204 643.082   2
   3  11  10 1812.82 909.287   2
  -3 -12   2 2001.73 885.047   3
  -3 -12   1 9104.00 1627.24   3
  -3 -12   0-828.030 657.256   3
  -3 -12  -1 5320.61 1286.29   3
   3  12   2 38968.5 3163.04   2
  -3 -12  -2 41874.2 3485.31   3
   3  12   3 4228.43 1140.25   2
  -3 -12  -3 4701.32 1232.89   3
   3  12   4 9080.99 1575.71   2
  -3 -12  -4 11486.1 1872.60   3
  -3 -12  -5 7384.30 1517.32   3
   3  12   5 4854.84 1288.18   2
   3  12   6 15369.2 1930.95   2
  -3 -12  -6 16252.5 2217.24   3
  -3 -12  -7 19510.5 2375.10   3
  -3 -12  -8 17561.3 2255.56   3
  -4  12   1-471.314 442.875   2
  -4  12   0 17577.4 1845.91   2
  -4  12  -1 6041.66 1092.59   2
  -4  12  -2 14716.6 1600.14   2
  -4  12  -3 9067.95 1248.08   2
  -4  12  -4 8020.01 1310.58   1
  -4  12  -5-1076.13 619.073   1
  -4  12  -6 507.486 544.725   1
  -4  11   3-212.977 505.753   2
  -4  11   2 505.908 466.854   2
  -4  11   1-388.484 418.381   2
   4 -11  -1-753.886 506.129   5
  -4  11   0 5301.06 990.351   2
   4 -11   0 4357.50 935.018   5
  -4  11  -1 418.770 404.356   2
  -4  11  -2 7417.34 1101.74   2
  -4  11  -2 9884.86 1254.90   1
  -4  11  -3 437.983 356.538   2
  -4  11  -3-1866.51 649.565   1
  -4  11  -4 38830.7 2456.10   2
  -4  11  -4 26135.9 2247.83   1
  -4  11  -5 553.540 442.565   1
  -4  11  -6 8250.55 1347.39   1
  -4  11  -7 5473.28 1177.89   1
   4 -10  -7 3599.98 1148.13   5
   4 -10  -6 7751.63 1430.51   5
   4 -10  -5 16090.8 2028.37   5
   4 -10  -4-64.4732 513.705   5
   4 -10  -3 8123.15 1383.02   5
   4 -10  -2 1205.16 596.698   5
   4 -10  -1 25135.1 2264.08   5
  -4  10   0 554.887 522.562   2
   4 -10   0 103.129 386.926   5
  -4  10  -1-26.0732 415.194   2
   4 -10   1-44.0754 412.130   5
  -4  10  -1-36.6651 280.632   1
  -4  10  -2 2510.22 700.952   2
  -4  10  -2 2365.09 601.339   1
  -4  10  -3 1305.88 547.563   1
  -4  10  -3 73.3339 298.431   2
  -4  10  -4 1427.63 510.826   2
  -4  10  -4 2303.66 655.756   1
  -4  10  -5 816.752 590.047   1
  -4  10  -6 1903.29 699.070   1
  -4  10  -7 1033.42 755.247   1
   4  -9  -9 2102.31 895.024   5
   4  -9  -8 13506.0 1922.55   5
   4  -9  -7 2118.64 822.768   5
   4  -9  -6 16305.2 1933.73   5
   4  -9  -5 1068.51 624.470   5
   4  -9  -4 3739.23 965.438   5
   4  -9  -3 4152.93 1077.95   5
   4  -9  -2 24602.5 2360.71   5
   4  -9  -1 1172.09 618.041   5
   4  -9   0 14655.1 1747.56   5
  -4   9   0 15548.8 1347.01   4
  -4   9   0 14493.4 1244.02   1
  -4   9  -1 85898.1 3424.01   4
   4  -9   1 74765.8 4169.02   5
  -4   9  -1 82101.6 3529.63   1
  -4   9  -2 1632.40 538.361   2
  -4   9  -2 728.956 310.042   4
  -4   9  -2 1639.29 504.404   1
  -4   9  -3 14219.2 1221.88   4
  -4   9  -3 12243.8 1286.57   2
  -4   9  -3 15572.4 1503.02   1
  -4   9  -4 3379.74 701.282   2
  -4   9  -4 3618.27 649.854   4
  -4   9  -4 3168.13 726.898   1
  -4   9  -5 63102.9 3442.31   1
  -4   9  -5 59284.5 2783.20   4
  -4   9  -5 60018.7 2993.60   2
  -4   9  -6 5064.55 784.087   4
  -4   9  -6 5410.84 1088.45   1
  -4   9  -7 3135.63 679.544   4
  -4   9  -8 6441.57 925.828   4
  -4   9  -9 7707.66 1053.95   4
  -4   9 -10 2093.11 644.751   4
  -4   9 -11 3466.52 816.952   4
   4  -8  -9 46007.4 3701.10   5
   4  -8  -8 4502.65 1171.93   5
   4  -8  -7 34808.5 3003.55   5
   4  -8  -6 9195.52 1510.77   5
   4  -8  -5 2967.75 873.321   5
   4  -8  -4 14370.3 1765.77   5
   4  -8  -3 9761.91 1462.16   5
   4  -8  -2 11660.1 1610.85   5
   4  -8  -1-157.199 466.171   5
   4  -8   0 39.9164 417.879   5
  -4   8  -1 8016.91 910.358   1
  -4   8  -1 7189.99 935.574   4
   4  -8   1 7322.87 1278.64   5
  -4   8  -2 3771.59 652.363   4
   4  -8   2 3626.81 908.257   5
  -4   8  -2 4837.23 740.822   1
  -4   8  -3 756.696 399.444   1
  -4   8  -3 244.544 318.335   4
  -4   8  -4 142.182 343.235   1
  -4   8  -4-167.333 338.062   2
  -4   8  -4 344.812 298.408   4
  -4   8  -5 22662.6 1649.38   4
  -4   8  -5 21826.2 1638.88   2
  -4   8  -6 3539.93 643.916   2
  -4   8  -6 3970.22 702.308   4
  -4   8  -7 54473.4 2840.17   4
  -4   8  -8 4352.99 809.157   4
  -4   8  -9 17414.5 1608.57   4
  -4   8 -10 1153.78 602.056   4
  -4   8 -11 8567.38 1221.55   4
  -4   8 -12 17630.0 1853.03   4
   4  -7 -10 741.760 602.845   5
   4  -7  -9 5081.42 1254.91   5
   4  -7  -8 1280.48 737.582   5
   4  -7  -7 5653.79 1243.13   5
   4  -7  -6 5945.36 1283.94   5
   4  -7  -5 28405.7 2555.86   5
   4  -7  -4 18129.6 1991.11   5
   4  -7  -3 33412.6 2682.27   5
   4  -7  -2 19518.6 2103.06   5
   4  -7  -1-230.508 545.646   5
   4  -7   0 28496.4 2514.10   5
   4  -7   1 2717.10 843.846   5
  -4   7  -2 30965.2 2019.11   4
   4  -7   2 33098.7 2626.98   5
  -4   7  -3 5247.67 821.672   4
   4  -7   3 5923.73 1141.64   5
  -4   7  -4 2482.79 526.166   4
  -4   7  -5 1415.70 452.199   2
  -4   7  -5 1844.92 536.758   4
  -4   7  -6 947.413 365.532   2
  -4   7  -6 990.099 454.788   4
  -4   7  -7 1506.28 512.849   4
  -4   7  -8 1.75722 356.900   4
  -4   7  -9 13330.5 1442.17   4
  -4   7 -10 9699.96 1291.29   4
  -4   7 -11 26661.2 2210.90   4
  -4   7 -12 2436.33 721.516   4
  -4   7 -13 35476.5 2785.19   4
   4  -6 -10 31657.0 3125.83   5
   4  -6  -9 3963.60 1156.51   5
   4  -6  -8-751.293 645.038   5
   4  -6  -7 3332.26 1012.09   5
   4  -6  -6 9352.60 1537.28   5
   4  -6  -5 3483.95 947.523   5
   4  -6  -4 22354.7 2184.84   5
   4  -6  -3 601.951 487.600   5
   4  -6  -2 17720.2 1904.47   5
   4  -6  -1 24382.0 2289.25   5
   4  -6   0 1466.87 687.219   5
   4  -6   1 27758.9 2509.78   5
  -4   6  -2 19142.2 1572.99   4
   4  -6   2 15968.3 1865.25   5
  -4   6  -3 52054.4 2783.67   4
   4  -6   3 51767.2 3407.77   5
  -4   6  -4 47829.4 2621.40   4
  -4   6  -5 465.947 336.097   4
  -4   6  -6 41397.5 2471.06   4
  -4   6  -6 41678.0 2001.79   2
  -4   6  -7 23101.2 1813.21   4
  -4   6  -7 24078.4 1355.36   2
  -4   6  -8 67268.8 3366.70   4
  -4   6  -9 8178.90 1122.01   4
  -4   6 -10 7729.64 1144.64   4
  -4   6 -11 1777.76 650.492   4
  -4   6 -12 8278.79 1289.16   4
  -4   6 -13-244.622 489.089   4
   4  -5 -11 13586.9 2156.11   5
   4  -5 -10 17451.3 2365.71   5
   4  -5  -9 998.694 739.702   5
   4  -5  -8 17363.2 2162.16   5
   4  -5  -7 297.844 498.125   5
   4  -5  -6 80627.1 4486.19   5
   4  -5  -5 7038.41 1247.13   5
   4  -5  -4 66565.9 3942.67   5
   4  -5  -3 6097.58 1096.99   5
   4  -5  -2 21637.7 2065.85   5
   4  -5  -1 5811.28 1139.78   5
   4  -5   0 7851.32 1335.98   5
   4  -5   1 53936.9 3572.09   5
   4  -5   2 1545.29 621.876   5
  -4   5  -3 2819.51 639.237   4
   4  -5   3 2433.59 723.143   5
  -4   5  -4 4918.19 854.240   4
  -4   5  -5 1074.54 448.376   4
  -4   5  -6 8165.75 1093.42   4
  -4   5  -7 4390.11 509.155   2
  -4   5  -7 5211.97 889.709   4
  -4   5  -8 14854.9 1513.31   4
  -4   5  -9 761.654 546.949   4
  -4   5 -10 85378.5 4134.08   4
  -4   5 -11 920.126 536.734   4
  -4   5 -12 15888.5 1768.32   4
  -4   5 -13 1376.18 701.573   4
  -4   5 -14 20375.7 2210.80   4
   4  -4 -11 15964.9 2355.65   5
   4  -4 -10 880.438 746.421   5
   4  -4  -9 21722.1 2471.28   5
   4  -4  -8-1274.66 711.003   5
   4  -4  -7-182.522 469.404   5
   4  -4  -6 23076.1 2249.31   5
   4  -4  -5 3045.28 828.106   5
   4  -4  -4 1736.93 699.252   5
   4  -4  -3 8085.59 1255.09   5
   4  -4  -2 67531.5 3757.25   5
   4  -4  -1 23544.7 2127.41   5
   4  -4   0 32945.5 2626.37   5
   4  -4   1 46383.3 3301.58   5
   4  -4   2 9414.94 1471.17   5
  -4   4  -3 19970.2 1664.18   4
   4  -4   3 18168.8 2040.15   5
  -4   4  -4 52.1930 289.160   4
   4  -4   4-133.313 393.740   5
  -4   4  -5 92510.5 4172.25   4
  -4   4  -6 3185.03 752.281   4
  -4   4  -7 365.206 354.637   4
  -4   4  -8 4201.30 865.629   4
  -4   4  -9 1123.01 547.939   4
  -4   4 -10 1665.04 579.599   4
  -4   4 -11 5737.65 1055.84   4
  -4   4 -12-398.611 413.733   4
  -4   4 -13 1490.78 683.534   4
  -4   4 -14 55623.5 3752.45   4
   4  -3 -11 5086.44 1367.70   5
   4  -3 -10 1213.63 811.122   5
   4  -3  -9 87986.7 5155.38   5
   4  -3  -8 1289.62 776.209   5
   4  -3  -7 11021.4 1628.28   5
   4  -3  -6 31303.7 2628.62   5
   4  -3  -5 33315.1 2613.67   5
   4  -3  -4 526.539 428.278   5
   4  -3  -3 2.29671 354.183   5
   4  -3  -2 50381.5 3127.79   5
   4  -3  -1 16493.7 1749.45   5
   4  -3   0 36743.1 2739.37   5
   4  -3   1 1991.98 341.521   1
   4  -3   1 1544.09 611.877   5
   4  -3   2 600.228 247.654   1
   4  -3   2 318.443 413.665   5
   4  -3   3 971.166 319.854   1
  -4   3  -3 1169.73 470.473   4
   4  -3   3 909.910 556.150   5
  -4   3  -4 135377. 5286.52   4
   4  -3   4 141056. 6201.87   5
  -4   3  -5 793.060 427.586   4
  -4   3  -6 31410.2 2298.29   4
  -4   3  -7 72904.5 3761.46   4
  -4   3  -8 5845.53 976.757   4
  -4   3  -9 28719.5 2286.84   4
  -4   3 -10 17975.5 1839.29   4
  -4   3 -11 92620.1 4627.07   4
  -4   3 -12 1053.10 602.946   4
  -4   3 -13 3525.08 1039.89   4
  -4   3 -14-127.487 665.758   4
   4  -2 -11 1143.90 977.931   5
   4  -2 -10 1745.72 899.949   5
   4  -2  -9 275.538 531.653   5
   4  -2  -8 21017.6 2311.08   5
   4  -2  -7 28203.6 2562.81   5
   4  -2  -6 3371.69 936.049   5
   4  -2  -5 21825.1 2087.71   5
   4  -2  -4 3508.43 808.553   5
   4  -2  -3 117348. 5147.16   5
   4  -2  -2 17924.6 1775.84   5
   4  -2  -1 145660. 4005.14   1
   4  -2  -1 143967. 5847.59   5
   4  -2   0 8042.85 652.210   1
   4  -2   0 6021.31 1056.27   5
   4  -2   1 12444.8 1613.32   5
   4  -2   1 16019.6 1033.39   1
   4  -2   2 5621.28 1165.22   5
   4  -2   2 5768.95 668.119   1
   4  -2   3 15438.6 1842.05   5
   4  -2   3 20890.8 1365.38   1
  -4   2  -4 39737.0 2474.01   4
   4  -2   4 36548.9 2832.89   5
  -4   2  -5-304.341 315.691   4
  -4   2  -6 184.272 300.509   4
  -4   2  -7 22787.4 2014.48   4
  -4   2  -7 17282.1 921.938   2
  -4   2  -8 1590.95 207.567   2
  -4   2  -8 3545.13 841.981   4
  -4   2  -9 1376.53 630.342   4
  -4   2 -10 4275.66 973.064   4
  -4   2 -11 30019.8 2578.78   4
  -4   2 -12 2456.14 827.800   4
  -4   2 -13 47268.1 3505.05   4
  -4   2 -14 3963.35 1149.89   4
   4  -1 -11 7675.47 1690.61   5
   4  -1 -10 10256.6 1801.23   5
   4  -1  -9 628.080 690.553   5
   4  -1  -8 18286.5 2175.15   5
   4  -1  -7 1214.22 660.227   5
   4  -1  -6 20123.5 2054.25   5
   4  -1  -5 2870.31 797.742   5
   4  -1  -4 201.662 371.993   5
   4  -1  -3 23845.8 2030.38   5
   4  -1  -2 2550.46 711.502   5
   4  -1  -1 22304.6 1915.90   5
   4  -1   0 522.521 392.464   5
   4  -1   1 41331.7 2863.21   5
   4  -1   2 63018.2 3780.04   5
   4  -1   3 98491.1 4881.90   5
  -4   1  -4 23879.3 1868.36   4
   4  -1   4 20464.4 2035.49   5
  -4   1  -5 5973.80 942.079   4
  -4   1  -6 49375.4 1958.03   2
  -4   1  -6 53266.6 3044.13   4
  -4   1  -7 7378.01 1154.98   4
  -4   1  -7 6963.27 605.772   2
  -4   1  -8 39311.2 2812.77   4
  -4   1  -8 30121.3 1346.92   2
  -4   1  -9 13230.0 1677.87   4
  -4   1 -10 27739.4 2509.82   4
  -4   1 -11 2876.27 925.936   4
  -4   1 -12 2539.03 797.346   4
  -4   1 -13 8467.86 1556.04   4
  -4   1 -14-437.227 611.861   4
   4   0 -12 10655.0 2144.47   5
   4   0 -11 15803.2 2475.06   5
   4   0 -10 31419.1 3152.09   5
   4   0  -9-149.795 564.454   5
   4   0  -8 49618.4 3605.18   5
   4   0  -7 38476.4 3000.04   5
   4   0  -6 78795.8 2315.93   1
   4   0  -6 76707.9 4235.94   5
   4   0  -5 42803.0 2910.77   5
   4   0  -4 55421.0 3273.52   5
   4   0  -3 1180.76 486.207   5
   4   0  -2 27053.0 2117.04   5
   4   0  -1 39990.8 2560.38   5
   4   0   0 36641.6 2495.91   5
   4   0   1 8294.92 1197.42   5
   4   0   2 58652.5 3550.65   5
   4   0   3 784.522 454.773   5
  -4   0  -4 16064.5 1505.15   4
   4   0   4 15411.9 1674.12   5
  -4   0  -5 8989.91 792.183   2
  -4   0  -5 8447.76 1113.89   4
  -4   0  -6 7977.75 1101.94   4
  -4   0  -6 8657.92 781.273   2
  -4   0  -7 62294.7 3385.19   4
  -4   0  -7 59267.8 2303.68   2
  -4   0  -8 10545.8 1420.37   4
  -4   0  -8 10264.7 838.778   2
  -4   0  -9 51748.7 3318.25   4
  -4   0 -10 20855.0 2134.31   4
  -4   0 -11 1828.76 802.590   4
  -4   0 -12 33709.8 2871.07   4
  -4   0 -13 23442.6 2498.73   4
  -4   0 -14 63919.0 4390.57   4
  -4   0 -15 1829.33 913.230   4
   4   1 -12 1232.72 714.370   5
   4   1 -11 2747.84 1227.90   5
   4   1 -10 360.233 622.320   5
   4   1  -9 2750.00 810.694   5
   4   1  -8 7001.45 1335.50   5
  -4  -1   8 7470.40 913.686   3
   4   1  -7 578.909 243.053   1
   4   1  -7 366.536 463.016   5
   4   1  -6 307.837 521.554   5
   4   1  -5 21556.1 1998.91   5
   4   1  -4 38857.2 2654.44   5
   4   1  -3 17218.0 1639.55   5
   4   1  -2 14715.8 1484.07   5
   4   1  -1 4708.20 863.176   5
   4   1   0 137850. 5387.24   5
   4   1   1 4915.93 925.133   5
   4   1   2 88868.5 4339.74   5
   4   1   3 4594.92 888.914   5
  -4  -1  -4 66132.3 2617.46   2
  -4  -1  -4 64825.3 3209.74   4
   4   1   4 61936.7 3429.49   5
  -4  -1  -5 1441.89 473.034   4
  -4  -1  -5 2624.80 495.625   2
  -4  -1  -6 1299.50 487.126   4
  -4  -1  -6 689.928 284.851   2
  -4  -1  -7 25965.7 2049.80   4
  -4  -1  -7 24851.8 1464.87   2
  -4  -1  -8 657.822 338.024   2
  -4  -1  -8 1269.44 535.931   4
  -4  -1  -9 667.395 494.190   4
  -4  -1 -10 19549.6 2016.30   4
  -4  -1 -11 2349.39 843.920   4
  -4  -1 -12 10041.2 1552.62   4
  -4  -1 -13 14399.1 1927.28   4
  -4  -1 -14 14345.2 2035.70   4
  -4  -1 -15-1046.04 738.546   4
   4   2 -12 3274.39 1324.07   5
   4   2 -11 10322.0 1967.62   5
   4   2 -10 32803.5 3205.54   5
   4   2  -9 37667.9 3242.79   5
   4   2  -8 13684.7 1831.95   5
  -4  -2   8 13460.1 1311.28   3
   4   2  -7 16930.9 1932.81   5
  -4  -2   7 18638.7 1504.70   3
   4   2  -6 5396.69 1089.15   5
   4   2  -5 29387.1 2320.64   5
   4   2  -4 810.619 455.428   5
   4   2  -3 13368.2 1404.94   5
   4   2  -2 808.386 437.546   5
   4   2  -1 487.041 401.355   5
   4   2   0 52456.1 2871.95   5
   4   2   1-408.608 348.832   5
   4   2   2 12472.8 1439.30   5
  -4  -2  -2 14736.2 1262.03   5
   4   2   3 2780.71 686.792   5
  -4  -2  -4 80912.8 3614.96   4
   4   2   4 83674.2 3875.45   5
  -4  -2  -4 83770.6 3306.22   2
  -4  -2  -5 29707.8 2016.25   4
  -4  -2  -5 31388.6 1784.29   2
  -4  -2  -6 47219.7 2665.01   4
  -4  -2  -6 45652.6 2217.47   2
  -4  -2  -7 58298.7 3102.74   4
  -4  -2  -7 56113.2 2561.32   2
  -4  -2  -8 50369.4 2914.09   4
  -4  -2  -8 47205.9 2436.04   2
  -4  -2  -9 10878.8 1372.51   4
  -4  -2 -10-109.779 389.935   4
  -4  -2 -11 95799.8 4813.51   4
  -4  -2 -12 1298.38 713.199   4
  -4  -2 -13 1178.32 741.927   4
  -4  -2 -14 461.365 700.952   4
  -4  -2 -15 11028.5 1862.71   4
   4   3 -11 253.138 616.815   5
   4   3 -10 22438.5 2599.69   5
  -4  -3   9 255.001 327.263   3
   4   3  -9 1176.66 703.163   5
  -4  -3   8 2291.51 634.145   3
   4   3  -8 1512.34 679.044   5
   4   3  -7 72881.8 4174.02   5
  -4  -3   7 77213.6 3555.80   3
   4   3  -6 8941.97 1305.11   5
  -4  -3   6 9630.07 1108.38   3
   4   3  -5 15473.4 1618.10   5
   4   3  -4 25484.8 2036.59   5
   4   3  -3 194366. 6772.12   5
   4   3  -2 6322.10 940.610   5
   4   3  -1 17087.6 1502.75   5
   4   3   0 32606.9 2146.36   5
  -4  -3   0 33726.1 1913.29   5
   4   3   1 90354.4 4109.71   5
  -4  -3  -1 103934. 3799.28   5
   4   3   2 2122.85 607.333   5
  -4  -3  -2 1717.28 388.839   5
   4   3   3 6553.87 967.106   5
  -4  -3  -3 7117.04 809.419   5
  -4  -3  -4 38478.0 2222.93   4
  -4  -3  -4 37175.5 2022.87   5
  -4  -3  -5 6354.51 900.641   4
  -4  -3  -6 13549.7 1325.01   4
  -4  -3  -7 15.3100 280.993   4
  -4  -3  -8 3790.72 810.118   4
  -4  -3  -8 4473.56 758.114   2
  -4  -3  -9 545.488 433.371   4
  -4  -3 -10 80139.6 4046.46   4
  -4  -3 -11 918.970 537.022   4
  -4  -3 -12 27012.6 2408.56   4
  -4  -3 -13 17364.0 2004.00   4
  -4  -3 -14 6829.90 1404.80   4
  -4  -3 -15 11900.2 1797.21   4
   4   4 -11 16076.5 2271.50   5
   4   4 -10 55931.1 4055.39   5
  -4  -4   9 1583.10 680.942   3
   4   4  -9 1002.93 678.572   5
  -4  -4   8 1804.33 554.663   3
   4   4  -8 1339.49 535.303   5
  -4  -4   7 1023.35 534.828   3
   4   4  -7 1602.27 705.742   5
  -4  -4   6 5100.49 854.777   3
   4   4  -6 5686.45 1006.34   5
   4   4  -5 15611.6 1581.39   5
  -4  -4   5 15971.3 1470.18   3
   4   4  -4 171.159 383.507   5
   4   4  -3 1743.31 523.803   5
   4   4  -2 16395.9 1471.71   5
  -4  -4   1 27734.8 1693.19   5
   4   4  -1 28179.8 1907.31   5
   4   4   0 6640.22 895.970   5
  -4  -4   0 5875.11 722.665   5
   4   4   1 34471.7 2182.60   5
   4   4   2 30165.8 1983.26   5
  -4  -4  -3 85035.4 3527.09   4
   4   4   3 84964.4 3603.94   5
  -4  -4  -4 19109.5 1475.11   4
  -4  -4  -4 20012.6 1353.51   5
  -4  -4  -5 81624.4 3414.03   4
  -4  -4  -5 75331.0 3111.13   5
  -4  -4  -6 764.190 355.579   4
  -4  -4  -7 37576.0 2291.21   4
  -4  -4  -8 5162.43 884.281   4
  -4  -4  -9 15922.6 1558.26   4
  -4  -4 -10 17143.6 1689.23   4
  -4  -4 -11 2178.80 699.709   4
  -4  -4 -12 1872.43 716.126   4
  -4  -4 -13 18943.6 2056.21   4
  -4  -4 -14 2542.59 900.176   4
  -4  -4 -15 3806.60 1095.44   4
   4   5 -11 14873.4 2137.04   5
   4   5 -10 151.050 501.127   5
   4   5  -9 12077.1 1650.97   5
  -4  -5   9 16753.7 1784.23   3
  -4  -5   8 5971.91 1017.60   3
   4   5  -8 5979.21 1179.35   5
   4   5  -7 21756.0 2052.93   5
  -4  -5   7 23240.7 1978.57   3
   4   5  -6 52568.6 3121.17   5
  -4  -5   6 53175.4 3088.61   3
   4   5  -5 15644.4 1540.78   5
  -4  -5   5 12379.7 1389.91   3
   4   5  -4 19779.0 1678.94   5
  -4  -5   4 19637.8 1710.96   3
   4   5  -3 13751.1 1330.43   5
  -4  -5   3 12888.4 1334.80   3
   4   5  -2 13587.1 1283.55   5
   4   5  -1 2697.59 584.946   5
  -4  -5   1 3195.50 516.386   5
   4   5   0 26273.9 1755.42   5
   4   5   1 468.666 295.050   5
   4   5   2 471.467 279.934   5
  -4  -5  -3 15447.5 1277.56   4
  -4  -5  -4 1102.36 375.035   4
  -4  -5  -5 19811.7 1491.43   4
  -4  -5  -6 5860.85 837.117   4
  -4  -5  -7 40927.7 2341.25   4
  -4  -5  -8 40616.1 2397.38   4
  -4  -5  -9 65490.4 3285.18   4
  -4  -5 -10 7923.08 1111.82   4
  -4  -5 -11 20204.0 1859.64   4
  -4  -5 -12 24735.9 2166.74   4
  -4  -5 -13 12271.9 1597.41   4
  -4  -5 -14 13154.8 1718.38   4
   4   6 -11 1334.56 784.805   5
   4   6 -10 31515.5 2769.58   5
  -4  -6   9-80.9943 410.258   3
   4   6  -9 140.985 485.399   5
  -4  -6   8 2251.34 764.462   3
   4   6  -8 3579.42 846.817   5
  -4  -6   7 3535.15 933.537   3
   4   6  -7 3746.50 819.366   5
  -4  -6   6 8937.39 1250.87   3
   4   6  -6 6566.34 1035.64   5
   4   6  -5 35049.8 2305.26   5
  -4  -6   5 30837.9 2365.00   3
   4   6  -4 15944.2 1436.37   5
  -4  -6   4 13101.2 1479.99   3
  -4  -6   3 266.461 353.703   3
   4   6  -3 556.383 364.107   5
   4   6  -2 77457.5 3274.30   5
  -4  -6   2 74080.7 3611.50   3
   4   6  -1 81229.6 3311.60   5
  -4  -6   1 76817.6 3664.55   3
   4   6   0 85896.5 3487.77   5
   4   6   1 13109.9 1135.24   5
  -4  -6  -1 11654.9 868.516   5
  -4  -6  -2 70337.2 2958.75   4
  -4  -6  -2 65287.3 2415.87   5
  -4  -6  -3 9.57210 247.544   4
  -4  -6  -3-38.9358 164.270   5
  -4  -6  -4 46608.8 2310.85   4
  -4  -6  -5 31794.3 1891.73   4
  -4  -6  -6 33807.8 1976.12   4
  -4  -6  -7 3747.10 683.992   4
  -4  -6  -8 10909.4 1162.52   4
  -4  -6  -9 1431.37 479.727   4
  -4  -6 -10 2462.56 651.874   4
  -4  -6 -11 458.809 433.908   4
  -4  -6 -12 2374.89 706.785   4
  -4  -6 -13 28401.0 2319.55   4
  -4  -6 -14 10875.0 1493.84   4
   4   7 -10 20727.9 2171.53   5
   4   7  -9 18384.1 1930.31   5
  -4  -7   9 16756.9 1925.53   3
   4   7  -8 29065.5 2341.86   5
  -4  -7   8 27367.0 2493.23   3
   4   7  -7 56755.6 3215.27   5
  -4  -7   7 58085.9 3631.77   3
  -4  -7   6 2531.10 772.151   3
   4   7  -6 1210.56 469.839   5
  -4  -7   5 9907.22 1406.69   3
   4   7  -5 11659.5 1254.38   5
  -4  -7   4 678.107 472.459   3
   4   7  -4 804.582 393.309   5
  -4  -7   3 5859.55 1058.41   3
   4   7  -3 6696.84 845.282   5
   4   7  -2 14253.1 1209.84   5
  -4  -7   2 14196.7 1544.04   3
  -4  -7   1 683.889 512.853   3
   4   7  -1 443.901 308.257   5
  -4  -7   0 1774.91 580.472   3
   4   7   0 1026.87 379.592   5
  -4  -7  -1 1884.56 593.233   3
   4   7   1 2176.64 440.259   5
  -4  -7  -2 37656.6 1985.09   4
  -4  -7  -2 40501.4 2548.77   3
  -4  -7  -3 14393.2 1152.33   4
  -4  -7  -3 14122.4 1469.21   3
  -4  -7  -4 11762.3 1051.33   4
  -4  -7  -4 13382.9 1432.19   3
  -4  -7  -5 14321.9 1163.23   4
  -4  -7  -5 13840.5 1458.95   3
  -4  -7  -6 67676.6 2872.81   4
  -4  -7  -6 62943.4 3373.55   3
  -4  -7  -7 1869.74 611.403   3
  -4  -7  -7 1323.78 421.920   4
  -4  -7  -8 30326.7 1899.36   4
  -4  -7  -8 28710.6 2186.65   3
  -4  -7  -9 5806.28 878.904   4
  -4  -7  -9 7595.88 1176.97   3
  -4  -7 -10 43006.8 2479.90   4
  -4  -7 -10 36837.0 2534.62   3
  -4  -7 -11 758.400 495.986   4
  -4  -7 -11 364.163 397.674   3
  -4  -7 -12 3747.80 859.204   4
  -4  -7 -13 5495.72 1024.01   4
  -4  -8   9-1127.76 651.507   3
  -4  -8   8 20119.5 2234.34   3
  -4  -8   7 165.552 434.566   3
  -4  -8   6 17481.0 2012.09   3
  -4  -8   5 818.901 527.901   3
  -4  -8   4 26464.8 2328.66   3
  -4  -8   3 58938.0 3573.78   3
  -4  -8   2 16208.7 1785.32   3
  -4  -8   1 10779.8 1418.28   3
  -4  -8   0 11663.4 1458.23   3
  -4  -8  -1 22839.2 1428.55   4
  -4  -8  -1 19021.6 1826.28   3
  -4  -8  -2 559.136 421.695   3
  -4  -8  -2 87.2353 234.528   4
  -4  -8  -3 2747.31 687.895   3
  -4  -8  -3 4163.40 590.741   4
  -4  -8  -4 40.8798 352.118   3
  -4  -8  -4 445.331 276.285   4
  -4  -8  -5 6067.76 707.506   4
  -4  -8  -5 6844.78 1114.50   3
  -4  -8  -6 26804.1 1603.99   4
  -4  -8  -6 26868.9 2195.49   3
  -4  -8  -7 333.598 387.603   3
  -4  -8  -7 367.273 338.509   4
   4   8   8 4894.14 1125.17   2
  -4  -8  -8 3461.91 865.317   3
  -4  -8  -8 4539.79 691.586   4
   4   8   9-175.174 567.839   2
  -4  -8  -9 167.692 441.111   3
  -4  -8  -9 173.851 340.125   4
   4   8  10 50644.0 3442.67   2
  -4  -8 -10 43726.0 2928.00   3
   4   8  11 2602.14 892.227   2
  -4  -8 -11 1021.08 533.371   3
  -4  -9   8 889.532 610.806   3
  -4  -9   7 5517.32 1250.68   3
  -4  -9   6 10905.9 1649.81   3
  -4  -9   5 2080.57 765.432   3
  -4  -9   4 31707.5 2693.58   3
  -4  -9   3 49.2119 461.527   3
  -4  -9   2 2762.88 822.806   3
  -4  -9   1 30297.5 2556.01   3
  -4  -9   0 14364.9 1707.21   3
  -4  -9  -1 10845.7 1457.97   3
  -4  -9  -2 16308.4 1781.17   3
  -4  -9  -3 153677. 6287.90   3
  -4  -9  -4 258.930 464.259   3
  -4  -9  -5 6122.74 1133.22   3
  -4  -9  -6 1770.16 679.955   3
  -4  -9  -7 72488.1 4020.94   3
   4   9   8 7721.20 1430.10   2
  -4  -9  -8 7062.17 1186.18   3
   4   9   9 6769.41 1319.24   2
  -4  -9  -9 7657.94 1271.88   3
   4   9  10 8033.49 1424.89   2
  -4  -9 -10 8193.42 1326.43   3
   4   9  11 549.886 866.033   2
  -4 -10   6 11888.7 1763.91   3
  -4 -10   5 20388.9 2326.56   3
  -4 -10   4 33974.0 2957.99   3
  -4 -10   3 2278.11 860.811   3
  -4 -10   2 13490.4 1820.34   3
  -4 -10   1 5890.08 1171.94   3
  -4 -10   0 5521.45 1196.92   3
  -4 -10  -1 9697.09 1494.87   3
  -4 -10  -2-232.168 589.920   3
  -4 -10  -3 75.5466 483.313   3
  -4 -10  -4 3347.00 888.928   3
  -4 -10  -5 14509.9 1799.20   3
  -4 -10  -6 6196.57 1186.91   3
   4  10   7 16913.2 2186.98   2
  -4 -10  -7 14285.1 1829.89   3
   4  10   8 21157.6 2431.32   2
  -4 -10  -8 23899.7 2269.29   3
   4  10   9 26554.2 2662.12   2
  -4 -10  -9 28714.2 2546.11   3
   4  10  10 681.273 749.307   2
  -4 -10 -10 4225.43 1004.48   3
  -4 -11   2 1821.55 830.715   3
  -4 -11   1 28029.6 2722.49   3
  -4 -11   0 21243.6 2340.45   3
  -4 -11  -1 4950.39 1129.08   3
  -4 -11  -2 21959.3 2307.56   3
  -4 -11  -3 19690.0 2201.42   3
  -4 -11  -4 8186.72 1396.75   3
  -4 -11  -5 107.304 508.422   3
  -4 -11  -6 7044.42 1356.79   3
  -4 -11  -7-845.303 682.894   3
  -4 -11  -8 1009.93 694.934   3
  -4 -11  -9 4236.02 1082.87   3
   5 -11  -1 1287.78 562.625   5
  -5  11   0 8555.99 1378.15   2
   5 -11   0 8376.42 1450.89   5
  -5  11  -1 25174.8 2248.93   2
  -5  11  -2 548.154 529.521   2
   5 -10  -5 10747.2 1828.82   5
   5 -10  -4 12317.2 1902.30   5
   5 -10  -3 3.53512 668.320   5
   5 -10  -2 6973.82 1469.90   5
   5 -10  -1 1309.51 701.220   5
   5 -10   0 116.523 419.620   5
   5 -10   1 778.240 548.563   5
  -5  10  -2 3860.70 833.442   2
  -5  10  -3 1224.41 525.905   2
   5  -9  -6 10974.7 1824.87   5
   5  -9  -5 10148.2 1780.52   5
   5  -9  -4 374.471 590.249   5
   5  -9  -3 10086.0 1766.43   5
   5  -9  -2 42860.3 3554.84   5
   5  -9  -1-708.506 808.897   5
  -5   9   0 12120.9 1376.93   4
   5  -9   0 11536.9 1786.90   5
  -5   9  -1 1716.19 588.289   4
   5  -9   1-118.316 523.752   5
  -5   9  -2 65044.9 3202.43   4
   5  -9   2 63536.3 4135.81   5
  -5   9  -3-500.857 368.614   4
  -5   9  -4 6928.55 989.816   2
  -5   9  -4 7442.74 1005.89   4
  -5   9  -5 15674.7 1454.37   4
  -5   9  -6 3818.06 758.304   4
  -5   9  -7 131.628 427.951   4
  -5   9  -8 579.497 389.205   4
  -5   9  -9 6875.02 1068.76   4
   5  -8  -7 3990.10 1184.97   5
   5  -8  -6 19.0359 486.337   5
   5  -8  -5 32802.0 3126.24   5
   5  -8  -4-248.917 570.698   5
   5  -8  -3 2039.31 857.493   5
   5  -8  -2 1563.90 783.468   5
   5  -8  -1-82.9952 456.469   5
   5  -8   0-382.319 506.718   5
  -5   8  -1 1877.04 533.195   4
   5  -8   1 1587.41 787.431   5
  -5   8  -2 97.8708 326.064   4
   5  -8   2-95.4688 644.581   5
  -5   8  -3 10787.6 1242.62   4
  -5   8  -4 32707.2 2197.60   4
  -5   8  -5 2530.73 608.876   2
  -5   8  -5 2229.96 634.711   4
  -5   8  -6 18334.1 1627.49   4
  -5   8  -7 1915.83 597.367   4
  -5   8  -8 23445.4 1910.69   4
  -5   8  -9 4270.22 863.243   4
  -5   8 -10 12774.7 1507.74   4
  -5   8 -11 3349.17 842.450   4
   5  -7  -7 969.393 720.590   5
   5  -7  -6 20219.3 2448.23   5
   5  -7  -5 3376.50 1088.06   5
   5  -7  -4 14511.9 2059.90   5
   5  -7  -3 3789.53 1141.98   5
   5  -7  -2 6372.39 1391.17   5
   5  -7  -1 32375.0 3022.00   5
   5  -7   0 3446.65 1069.65   5
   5  -7   1 3846.47 1181.98   5
  -5   7  -2 2164.28 653.475   4
   5  -7   2 2152.92 843.251   5
  -5   7  -3 1114.12 490.809   4
   5  -7   3 653.500 555.811   5
  -5   7  -4 1123.11 492.928   4
  -5   7  -5 80.3310 350.402   4
  -5   7  -6 435.638 359.182   4
  -5   7  -7-708.918 486.617   4
  -5   7  -8 37244.7 2515.26   4
  -5   7  -9 59.1636 402.302   4
  -5   7 -10 22651.5 2047.27   4
  -5   7 -11-641.867 542.917   4
   5  -6  -8 1595.80 939.450   5
   5  -6  -7 1385.64 843.771   5
   5  -6  -6 1305.91 780.176   5
   5  -6  -5 10712.6 1740.90   5
   5  -6  -4 5565.18 1261.47   5
   5  -6  -3 1501.48 769.844   5
   5  -6  -2 11291.0 1758.57   5
   5  -6  -1 5325.57 1317.88   5
   5  -6   0 53163.5 3918.59   5
   5  -6   1 34436.1 3117.08   5
  -5   6  -2 6011.05 951.058   4
   5  -6   2 6873.75 1414.86   5
  -5   6  -3 54976.6 3088.26   4
   5  -6   3 54551.8 3888.83   5
  -5   6  -4 22256.4 1876.88   4
   5  -6   4 21074.9 2358.89   5
  -5   6  -5 62350.5 3375.76   4
  -5   6  -6 9096.37 1219.01   4
  -5   6  -7 36084.4 2517.29   4
  -5   6  -8 1653.39 636.637   4
  -5   6  -9 966.860 517.973   4
  -5   6 -10 7792.17 1250.84   4
  -5   6 -11 11781.8 1543.54   4
  -5   6 -12 1293.35 727.323   4
   5  -5  -8 15104.9 2214.96   5
   5  -5  -7 68415.4 4664.83   5
   5  -5  -6 5662.31 1313.34   5
   5  -5  -5 6498.79 1361.29   5
   5  -5  -4 18655.0 2214.30   5
   5  -5  -3 16973.7 2082.84   5
   5  -5  -2 31803.9 2866.52   5
   5  -5  -1 4752.31 1202.88   5
   5  -5   0 6784.23 1410.15   5
   5  -5   1 1098.08 687.937   5
   5  -5   2 1717.06 796.507   5
  -5   5  -3 1932.14 635.572   4
   5  -5   3 2333.37 895.606   5
  -5   5  -4 2049.75 594.341   4
   5  -5   4 2640.02 969.565   5
  -5   5  -5 1151.34 453.299   4
  -5   5  -6 13316.9 1533.84   4
  -5   5  -7 29100.1 2319.59   4
  -5   5  -8 294.634 486.272   4
  -5   5  -9 20420.3 1945.77   4
  -5   5 -10 5961.20 1163.55   4
  -5   5 -11 36914.1 2796.26   4
  -5   5 -12 587.338 513.748   4
   5  -4  -9 166.185 581.614   5
   5  -4  -8 660.763 730.900   5
   5  -4  -7 1128.90 741.176   5
   5  -4  -6 1229.82 803.303   5
   5  -4  -5 5509.54 1236.99   5
   5  -4  -4 1430.46 700.451   5
   5  -4  -3 39034.6 3136.91   5
   5  -4  -2 3151.11 873.637   5
   5  -4  -1 11527.4 1737.15   5
   5  -4   0 4939.60 1172.47   5
   5  -4   1 18552.8 2261.86   5
   5  -4   2 41276.3 3438.40   5
  -5   4  -3 860.737 462.313   4
   5  -4   3 972.883 654.027   5
  -5   4  -4 18292.5 1726.63   4
   5  -4   4 17712.3 2196.47   5
  -5   4  -5 5072.48 954.875   4
  -5   4  -6 694.636 489.174   4
  -5   4  -7 817.867 498.065   4
  -5   4  -8 648.046 544.931   4
  -5   4  -9-253.327 493.579   4
  -5   4 -10 1581.41 684.689   4
  -5   4 -11 30241.2 2591.48   4
  -5   4 -12 976.617 636.270   4
  -5   4 -13 18428.0 2128.47   4
   5  -3  -9 5103.26 1377.60   5
   5  -3  -8 20006.4 2516.42   5
   5  -3  -7 2652.26 919.888   5
   5  -3  -6 18863.0 2270.40   5
   5  -3  -5 11425.4 1783.19   5
   5  -3  -4 2397.19 811.852   5
   5  -3  -3 11282.2 1624.85   5
   5  -3  -2 924.973 495.939   5
   5  -3  -1-32.8395 495.708   5
   5  -3   0 8714.82 1506.12   5
   5  -3   1 61572.6 2430.86   1
   5  -3   1 50957.0 3828.20   5
   5  -3   2 1008.75 382.306   1
   5  -3   2 478.587 555.283   5
   5  -3   3 38822.2 3285.60   5
  -5   3  -4 65438.9 3528.58   4
   5  -3   4 71829.2 4495.87   5
  -5   3  -5 9843.64 1275.14   4
  -5   3  -6 21961.9 1938.11   4
  -5   3  -7 4795.98 998.490   4
  -5   3  -8 157330. 6422.88   4
  -5   3  -9 1011.41 603.351   4
  -5   3 -10 8221.27 1387.94   4
  -5   3 -11 11860.0 1642.17   4
  -5   3 -12 15429.0 1931.02   4
  -5   3 -13-497.608 690.259   4
   5  -2  -9 6300.42 1519.14   5
   5  -2  -8 5534.98 1398.41   5
   5  -2  -7 2090.05 959.979   5
   5  -2  -6 87082.8 5067.07   5
   5  -2  -5 945.755 624.587   5
   5  -2  -4 76594.4 4491.72   5
   5  -2  -3 34074.1 2816.08   5
   5  -2  -2 42162.9 3125.57   5
   5  -2  -1 8159.88 667.347   1
   5  -2  -1 8069.31 1363.98   5
   5  -2   0 14185.6 1878.00   5
   5  -2   0 17602.0 1119.85   1
   5  -2   1 67585.7 4426.95   5
   5  -2   1 88788.4 3201.01   1
   5  -2   2 858.032 385.913   1
   5  -2   2 33.0225 479.177   5
   5  -2   3 5415.47 1261.83   5
  -5   2  -4 330.762 310.910   4
   5  -2   4 386.102 600.383   5
  -5   2  -5 1103.38 520.561   4
  -5   2  -6-138.790 337.715   4
  -5   2  -7 5718.49 1055.46   4
  -5   2  -8 493.821 507.997   4
  -5   2  -9 8068.52 1307.31   4
  -5   2 -10 37291.8 2903.99   4
  -5   2 -11 215.164 502.730   4
  -5   2 -12 26286.8 2676.44   4
  -5   2 -13 3628.01 1187.81   4
   5  -1 -10-2113.61 1082.83   5
   5  -1  -9 23047.6 2844.44   5
   5  -1  -8 3810.46 1191.46   5
   5  -1  -7 6268.04 1402.43   5
   5  -1  -6 1801.89 790.558   5
   5  -1  -5 1983.40 754.566   5
   5  -1  -4 1881.39 744.167   5
   5  -1  -3 1189.73 715.407   5
   5  -1  -2 15338.6 1818.09   5
   5  -1  -1 64.9959 420.627   5
   5  -1   0 37165.5 2941.59   5
   5  -1   1 9698.38 1578.07   5
   5  -1   2 26835.5 2642.87   5
   5  -1   3 526.132 452.383   5
  -5   1  -4 12581.3 1447.37   4
   5  -1   4 11472.8 1689.36   5
  -5   1  -5 40725.1 2658.26   4
  -5   1  -6 2142.02 427.888   2
  -5   1  -6 1006.07 510.358   4
  -5   1  -7 9041.67 1290.78   4
  -5   1  -7 11923.8 941.096   2
  -5   1  -8 5986.06 1077.72   4
  -5   1  -9 2324.15 782.695   4
  -5   1 -10-109.587 525.731   4
  -5   1 -11 312.217 503.524   4
  -5   1 -12 110.631 544.016   4
  -5   1 -13 1885.37 928.567   4
   5   0 -10 28106.8 3285.63   5
   5   0  -9 19536.1 2611.88   5
   5   0  -8 734.673 638.799   5
   5   0  -7 21910.6 2529.30   5
   5   0  -6 1636.14 784.981   5
   5   0  -5 25908.0 2480.35   5
   5   0  -4 643.313 404.306   5
   5   0  -3 53518.6 3509.69   5
   5   0  -2 696.428 471.013   5
   5   0  -1 9051.33 1384.71   5
   5   0   0 1597.09 633.705   5
   5   0   1 8496.14 1413.70   5
   5   0   2 3393.04 969.634   5
   5   0   3 3352.35 912.870   5
  -5   0  -4 20026.7 1783.45   4
   5   0   4 17708.4 2013.33   5
  -5   0  -5 17944.3 1706.61   4
  -5   0  -6 90078.8 4297.57   4
  -5   0  -6 95925.2 3502.47   2
  -5   0  -7 15755.5 1659.50   4
  -5   0  -8 413.452 397.747   4
  -5   0  -9 38817.0 2794.13   4
  -5   0 -10 41435.6 3002.30   4
  -5   0 -11 91283.4 4831.10   4
  -5   0 -12 4227.31 1061.46   4
  -5   0 -13 32550.1 2962.41   4
   5   1 -10 5120.27 1468.05   5
   5   1  -9 202.986 618.338   5
   5   1  -8 15263.2 2178.04   5
   5   1  -7 19689.7 2330.39   5
   5   1  -6 1207.07 733.118   5
   5   1  -5 35282.8 2920.77   5
   5   1  -4 22954.4 2237.99   5
   5   1  -3 41653.2 3002.57   5
   5   1  -2 9606.20 1401.79   5
   5   1  -1 100259. 4869.08   5
   5   1   0 6918.60 1194.25   5
   5   1   1 46822.6 3237.88   5
   5   1   2 16170.3 1910.93   5
   5   1   3 27295.6 2414.83   5
  -5  -1  -4 47029.3 2821.23   4
   5   1   4 44716.5 3111.63   5
  -5  -1  -5 675.011 471.607   4
  -5  -1  -6 13012.4 1434.56   4
  -5  -1  -7 2598.64 720.260   4
  -5  -1  -8-325.641 432.186   4
  -5  -1  -9 2.26677 389.220   4
  -5  -1 -10 6275.85 1148.75   4
  -5  -1 -11 370.497 459.491   4
  -5  -1 -12 6818.01 1265.60   4
  -5  -1 -13 21826.3 2354.60   4
   5   2 -10 26054.8 3090.04   5
   5   2  -9 8824.98 1699.24   5
   5   2  -8 18582.6 2342.65   5
  -5  -2   8 20904.3 1777.01   3
   5   2  -7 1039.89 731.654   5
   5   2  -6 50927.4 3619.25   5
   5   2  -5 1489.30 551.702   5
   5   2  -4 3267.59 929.863   5
   5   2  -3 2749.29 797.068   5
   5   2  -2 1351.41 595.604   5
   5   2  -1-340.678 354.865   5
   5   2   0 5719.42 1058.25   5
   5   2   1 3854.19 875.950   5
   5   2   2 1375.30 551.162   5
   5   2   3 63374.8 3659.44   5
  -5  -2  -4 543.287 300.212   4
   5   2   4 1988.47 681.089   5
  -5  -2  -5 26596.3 2016.55   4
  -5  -2  -6 5137.33 886.581   4
  -5  -2  -7 31955.2 2293.12   4
  -5  -2  -8 28098.9 2171.23   4
  -5  -2  -9 618.218 404.653   4
  -5  -2 -10 18096.6 1838.56   4
  -5  -2 -11 8772.29 1344.24   4
  -5  -2 -12 3707.84 994.672   4
  -5  -2 -13 1853.06 784.152   4
   5   3 -10 8898.73 1779.91   5
   5   3  -9-38.9296 599.231   5
  -5  -3   8 271.810 325.637   3
   5   3  -8 17.6577 959.939   5
   5   3  -7 30790.8 2817.25   5
  -5  -3   7 28125.3 2146.69   3
   5   3  -6 48330.8 3442.19   5
   5   3  -5 5410.44 1112.97   5
   5   3  -4 11413.4 1510.19   5
   5   3  -3 6635.16 1165.31   5
   5   3  -2 55511.0 3328.43   5
   5   3  -1 1281.05 564.929   5
   5   3   0 40302.5 2779.15   5
   5   3   1 21534.5 2015.63   5
   5   3   2 678.326 330.098   5
   5   3   3 25103.4 2095.39   5
  -5  -3  -4 156.061 314.093   4
   5   3   4-84.0876 280.343   5
  -5  -3  -5 8926.27 1115.00   4
  -5  -3  -6 399.954 387.584   4
  -5  -3  -7 44685.5 2687.44   4
  -5  -3  -8 104.256 404.144   4
  -5  -3  -9 34777.9 2458.45   4
  -5  -3 -10 45698.5 2931.53   4
  -5  -3 -11 15342.5 1722.72   4
  -5  -3 -12 5220.13 1071.02   4
  -5  -3 -13 8625.23 1418.92   4
   5   4 -10 760.548 701.105   5
   5   4  -9 6931.58 1472.60   5
  -5  -4   8 1286.06 613.092   3
   5   4  -8 800.629 618.862   5
  -5  -4   7 1348.52 563.353   3
   5   4  -7 2758.90 796.969   5
  -5  -4   6 2809.77 728.814   3
   5   4  -6 3936.87 990.095   5
  -5  -4   5 1241.78 499.938   3
   5   4  -5 1203.30 568.943   5
   5   4  -4 46907.9 3083.01   5
   5   4  -3 27336.8 2277.07   5
   5   4  -2 16574.5 1695.09   5
   5   4  -1 18258.4 1759.76   5
   5   4   0 89506.0 4277.79   5
   5   4   1 12.6222 310.288   5
   5   4   2 71723.0 3671.04   5
  -5  -4  -3 22143.6 1735.50   4
   5   4   3 22662.8 1887.38   5
  -5  -4  -4 66361.6 3206.15   4
  -5  -4  -5 2592.27 626.449   4
  -5  -4  -6 29499.6 2054.99   4
  -5  -4  -7 37825.5 2397.41   4
  -5  -4  -8 323.200 339.434   4
  -5  -4  -9 5150.63 925.619   4
  -5  -4 -10 3534.53 853.294   4
  -5  -4 -11 2602.89 782.913   4
  -5  -4 -12-271.068 578.416   4
  -5  -4 -13 2690.70 845.794   4
   5   5 -10 22828.0 2588.09   5
   5   5  -9 31896.5 2905.87   5
   5   5  -8 25132.1 2524.91   5
  -5  -5   8 24680.2 2209.90   3
   5   5  -7 33050.9 2775.00   5
  -5  -5   7 31629.0 2485.38   3
  -5  -5   6 6074.44 1076.96   3
   5   5  -6 6416.44 1195.40   5
   5   5  -5 40407.8 2835.16   5
  -5  -5   5 37838.9 2582.66   3
  -5  -5   4 268.164 335.337   3
   5   5  -4 502.148 477.074   5
   5   5  -3 39543.7 2670.37   5
   5   5  -2 7565.71 1111.53   5
   5   5  -1 17614.5 1651.18   5
   5   5   0 1976.13 605.051   5
   5   5   1 701.147 409.858   5
   5   5   2 329.390 413.130   5
  -5  -5  -3 3729.00 702.532   4
   5   5   3 3790.30 807.140   5
  -5  -5  -4 9168.78 1061.95   4
  -5  -5  -5 694.291 358.318   4
  -5  -5  -6 13353.5 1340.92   4
  -5  -5  -7 2871.09 668.144   4
  -5  -5  -8 34437.3 2278.72   4
  -5  -5  -9 675.367 443.444   4
  -5  -5 -10 17968.8 1730.65   4
  -5  -5 -11 16755.1 1694.65   4
  -5  -5 -12 1454.67 668.809   4
  -5  -5 -13 10493.2 1473.50   4
   5   6  -9 397.042 544.240   5
  -5  -6   8 6498.03 1196.14   3
   5   6  -8 5906.21 1249.10   5
  -5  -6   7 1730.95 628.746   3
   5   6  -7 3343.39 895.888   5
  -5  -6   6 463.520 434.201   3
   5   6  -6-94.9874 587.204   5
  -5  -6   5 3306.34 874.933   3
   5   6  -5 4254.76 898.450   5
   5   6  -4 40069.1 2649.67   5
  -5  -6   4 39182.0 2683.21   3
   5   6  -3 29167.4 2156.17   5
  -5  -6   3 27003.1 2125.42   3
  -5  -6   2 1142.68 489.915   3
   5   6  -2 1012.56 494.964   5
   5   6  -1 22684.2 1846.52   5
   5   6   0 5058.48 880.280   5
   5   6   1 14082.3 1368.24   5
   5   6   2 4696.49 792.578   5
  -5  -6  -3 77412.5 3409.35   4
  -5  -6  -4-39.3940 359.710   4
  -5  -6  -5 11565.1 1189.94   4
  -5  -6  -6 2150.89 571.620   4
  -5  -6  -7 7162.08 1009.43   4
  -5  -6  -8 938.097 496.560   4
  -5  -6  -9 9914.62 1224.83   4
  -5  -6 -10 9148.75 1198.15   4
  -5  -6 -11 15434.1 1593.18   4
  -5  -6 -12 52023.2 3144.41   4
  -5  -6 -13 3112.03 863.317   4
  -5  -7   8 11045.6 1628.34   3
  -5  -7   7 10880.5 1577.54   3
  -5  -7   6 216.084 446.754   3
  -5  -7   5 3389.42 935.091   3
   5   7  -5 3510.13 827.670   5
  -5  -7   4 2391.46 790.380   3
   5   7  -4 1770.57 570.035   5
  -5  -7   3 1949.28 657.194   3
   5   7  -3-152.000 341.271   5
   5   7  -2 10879.6 1207.55   5
  -5  -7   2 11033.8 1397.33   3
   5   7  -1 10719.7 1161.87   5
  -5  -7   1 10626.2 1344.83   3
  -5  -7   0 2626.76 752.813   3
   5   7   0 2436.64 570.000   5
   5   7   1 29063.2 1893.42   5
  -5  -7  -1 28190.0 2224.67   3
  -5  -7  -2 47414.6 2484.15   4
  -5  -7  -3 46117.9 2426.88   4
  -5  -7  -4 1247.16 410.825   4
  -5  -7  -5 65182.1 3045.68   4
  -5  -7  -6 3481.14 661.157   4
  -5  -7  -7 58632.4 2901.08   4
  -5  -7  -8 10955.1 1186.54   4
  -5  -7  -9 32962.2 2192.35   4
  -5  -7 -10 18401.3 1644.22   4
  -5  -7 -11 337.100 451.746   4
  -5  -7 -11 472.096 530.526   3
  -5  -7 -12 3360.27 791.816   4
  -5  -8   7 41744.7 3254.61   3
  -5  -8   6 17982.6 2053.20   3
  -5  -8   5 17928.9 1989.89   3
  -5  -8   4 34034.9 2724.68   3
  -5  -8   3 28047.0 2408.49   3
  -5  -8   2 38400.5 2798.78   3
  -5  -8   1-444.430 435.218   3
  -5  -8   0 36167.8 2666.94   3
  -5  -8  -1 1258.16 566.225   3
  -5  -8  -1 889.788 346.445   4
  -5  -8  -2 8069.96 951.310   4
  -5  -8  -2 7668.37 1233.15   3
  -5  -8  -3 237.565 427.543   3
  -5  -8  -3-198.620 305.122   4
  -5  -8  -4 6179.26 1101.52   3
  -5  -8  -4 6855.43 867.701   4
  -5  -8  -5 180.149 388.409   3
  -5  -8  -5 398.359 321.324   4
  -5  -8  -6 10256.5 1067.76   4
  -5  -8  -6 9923.38 1408.80   3
  -5  -8  -7 3488.92 713.134   3
  -5  -8  -8 293.272 460.820   3
  -5  -8  -9 10129.9 1392.41   3
  -5  -8 -10 3473.90 906.791   3
  -5  -8 -11 14958.3 1744.93   3
  -5  -9   4 3144.10 924.953   3
  -5  -9   3 3331.66 933.124   3
  -5  -9   2 1441.69 683.974   3
  -5  -9   1 18302.7 1965.92   3
  -5  -9   0 63490.3 3777.22   3
  -5  -9  -1 2560.97 796.040   3
  -5  -9  -2 4554.29 1037.92   3
  -5  -9  -3 65.1950 519.707   3
  -5  -9  -4 39040.5 2921.33   3
  -5  -9  -5 561.397 570.657   3
  -5  -9  -6 10947.4 1528.13   3
  -5  -9  -7 10191.1 1494.11   3
  -5  -9  -8 2431.78 775.619   3
  -5  -9  -9 11417.9 1619.33   3
  -5  -9 -10-517.289 530.830   3
  -5 -10   0 1970.54 760.761   3
  -5 -10  -1 3525.02 961.628   3
  -5 -10  -2 12092.8 1664.03   3
  -5 -10  -3 5098.44 1177.55   3
  -5 -10  -4 7149.85 1291.14   3
  -5 -10  -5 22677.5 2280.58   3
  -5 -10  -6 42084.2 3169.94   3
  -5 -10  -7 2270.04 852.334   3
  -5 -10  -8 26394.8 2503.39   3
  -5 -10  -9 3015.21 939.867   3
  -6   9   0 535.978 605.598   4
   6  -9   0 1231.04 793.759   5
  -6   9  -1 10847.6 1492.57   4
   6  -9   1 6820.66 1500.27   5
  -6   9  -2 1301.28 646.059   4
   6  -9   2 845.058 693.962   5
  -6   9  -3-903.419 560.344   4
  -6   9  -4-1043.20 549.811   4
  -6   9  -5 4582.26 899.742   4
  -6   9  -6 549.887 516.733   4
   6  -8  -2 748.607 771.453   5
   6  -8  -1-2764.48 1103.14   5
   6  -8   0 3104.89 1182.02   5
  -6   8  -1 36275.3 2704.57   4
   6  -8   1 30852.7 3165.00   5
  -6   8  -2 9119.27 1319.41   4
   6  -8   2 6767.14 1575.38   5
  -6   8  -3 15244.0 1659.22   4
   6  -8   3 15147.2 2240.33   5
  -6   8  -4-371.651 467.521   4
  -6   8  -5 37853.8 2621.69   4
  -6   8  -6-785.144 539.602   4
  -6   8  -7 17777.8 1744.24   4
  -6   8  -8 16388.3 1716.53   4
   6  -7  -4 14342.5 2232.84   5
   6  -7  -3 4752.04 1467.76   5
   6  -7  -2 20525.4 2649.56   5
   6  -7  -1 2720.23 1130.52   5
   6  -7   0 8998.44 1774.85   5
   6  -7   1-1776.01 924.951   5
  -6   7  -2 7858.41 1250.07   4
   6  -7   2 9635.33 1804.37   5
  -6   7  -3 2294.70 699.341   4
   6  -7   3 1742.66 1041.65   5
  -6   7  -4 383.725 579.299   4
  -6   7  -5 4854.87 996.773   4
  -6   7  -6 1337.55 593.457   4
  -6   7  -7 6027.69 1183.75   4
  -6   7  -8 641.134 513.726   4
  -6   7  -9 9932.11 1421.51   4
   6  -6  -5 1023.59 756.916   5
   6  -6  -4 1399.04 954.873   5
   6  -6  -3 12923.6 2160.52   5
   6  -6  -2 15465.0 2341.47   5
   6  -6  -1-1562.80 896.837   5
   6  -6   0 4877.71 1335.60   5
   6  -6   1 10642.1 1941.10   5
  -6   6  -2 34914.0 2606.32   4
   6  -6   2 33695.5 3366.93   5
  -6   6  -3 880.093 453.322   4
   6  -6   3 1078.46 875.743   5
  -6   6  -4 20878.9 1946.76   4
   6  -6   4 22453.9 2717.29   5
  -6   6  -5 1224.04 552.779   4
  -6   6  -6 899.842 504.382   4
  -6   6  -7 1540.62 641.911   4
  -6   6  -8 17492.8 1901.65   4
  -6   6  -9 2225.33 820.146   4
  -6   6 -10 8218.01 1393.51   4
   6  -5  -5 10549.3 1884.17   5
   6  -5  -4-210.092 560.520   5
   6  -5  -3 12554.9 2065.73   5
   6  -5  -2 2262.19 991.653   5
   6  -5  -1 3543.64 1104.31   5
   6  -5   0 983.809 860.046   5
   6  -5   1 776.524 832.390   5
   6  -5   2 8.06785 664.465   5
  -6   5  -3 22326.1 2029.98   4
   6  -5   3 23733.9 2779.87   5
  -6   5  -4 11720.0 1498.45   4
   6  -5   4 13053.8 2054.34   5
  -6   5  -5-326.547 412.078   4
  -6   5  -6 43171.0 2906.74   4
  -6   5  -7 20113.0 1946.35   4
  -6   5  -8 18120.1 1932.83   4
  -6   5  -9 698.414 546.872   4
  -6   5 -10 44407.9 3205.67   4
   6  -4  -6 29589.7 3170.06   5
   6  -4  -5 2010.31 1136.05   5
   6  -4  -4 38128.2 3511.38   5
   6  -4  -3 2589.78 975.392   5
   6  -4  -2 28685.6 3038.33   5
   6  -4  -1 22306.5 2705.78   5
   6  -4   0 9270.78 1842.43   5
   6  -4   1 33909.4 3409.52   5
   6  -4   2 6647.49 1563.74   5
  -6   4  -3 10999.9 1414.01   4
   6  -4   3 10880.1 1957.30   5
  -6   4  -4 967.322 497.685   4
   6  -4   4 372.266 693.777   5
  -6   4  -5 11964.0 1471.98   4
  -6   4  -6 259.281 418.879   4
  -6   4  -7 9.68417 445.735   4
  -6   4  -8 2430.62 777.886   4
  -6   4  -9 2079.63 771.038   4
  -6   4 -10 7095.75 1268.77   4
  -6   4 -11 6522.29 1314.33   4
   6  -3  -6 598.075 748.595   5
   6  -3  -5 4980.11 1322.02   5
   6  -3  -4 358.641 699.336   5
   6  -3  -3 5600.55 1367.69   5
   6  -3  -2 1284.64 788.052   5
   6  -3  -1 814.959 670.212   5
   6  -3   0 27504.8 2969.58   5
   6  -3   1 12910.7 2087.64   5
   6  -3   2-530.037 810.275   5
  -6   3  -3 7107.97 1186.24   4
   6  -3   3 5816.55 1416.60   5
  -6   3  -4 14877.5 1652.42   4
   6  -3   4 15011.6 2248.21   5
  -6   3  -5 47299.4 3056.79   4
  -6   3  -6 2677.89 756.158   4
  -6   3  -7 21327.1 2060.05   4
  -6   3  -8 1896.10 655.191   4
  -6   3  -9 2260.38 827.124   4
  -6   3 -10-1068.03 648.228   4
  -6   3 -11 10042.7 1578.32   4
   6  -2  -7 18142.6 2616.42   5
   6  -2  -6 9481.63 1811.43   5
   6  -2  -5 32596.0 3206.78   5
   6  -2  -4 258.423 664.489   5
   6  -2  -3 2458.83 937.504   5
   6  -2  -2 33542.1 3149.84   5
   6  -2  -1 2785.49 973.338   5
   6  -2   0 1627.85 744.715   5
   6  -2   1 720.187 632.110   5
   6  -2   2 701.553 502.521   5
   6  -2   3 3444.96 1155.13   5
  -6   2  -4 11175.9 1419.35   4
   6  -2   4 9177.68 1696.54   5
  -6   2  -5 6653.13 1140.82   4
   6  -2   5 6346.06 1448.35   5
  -6   2  -6 9850.72 1384.02   4
  -6   2  -7 32293.6 2541.18   4
  -6   2  -8 10269.4 1463.88   4
  -6   2  -9 18544.2 1966.78   4
  -6   2 -10 7671.65 1320.18   4
  -6   2 -11 52899.6 3621.05   4
   6  -1  -7-488.398 820.016   5
   6  -1  -6 3617.22 1114.11   5
   6  -1  -5 1394.47 809.264   5
   6  -1  -4 1457.92 888.858   5
   6  -1  -3 41446.0 3467.03   5
   6  -1  -2 49.1282 619.261   5
   6  -1  -1 38848.5 3344.42   5
   6  -1   0-18.0522 574.334   5
   6  -1   1 42859.7 3613.68   5
   6  -1   2 27461.0 2907.49   5
   6  -1   3 8892.74 1668.13   5
  -6   1  -4 31424.1 2410.65   4
   6  -1   4 25526.3 2722.14   5
  -6   1  -5 7986.99 1268.14   4
   6  -1   5 9568.57 1692.42   5
  -6   1  -6 34326.4 2557.13   4
  -6   1  -7 3856.94 910.817   4
  -6   1  -8 5353.52 1095.52   4
  -6   1  -9 3218.83 886.738   4
  -6   1 -10 422.661 401.125   4
  -6   1 -11 3225.14 971.503   4
   6   0  -7 4056.50 1332.81   5
   6   0  -6 55871.6 4336.79   5
   6   0  -5 6262.56 1449.11   5
   6   0  -4 2484.25 955.896   5
   6   0  -3-368.523 452.796   5
   6   0  -2 1288.68 692.353   5
   6   0  -1 4021.11 1063.47   5
   6   0   0 2132.20 775.748   5
   6   0   1 157.237 526.115   5
   6   0   2-223.046 533.963   5
   6   0   3 38809.5 3285.13   5
  -6   0  -4 13941.9 1580.76   4
   6   0   4 16202.9 2091.72   5
  -6   0  -5 1735.64 625.544   4
  -6   0  -6 3536.47 813.171   4
  -6   0  -7 23368.4 2108.44   4
  -6   0  -8 46552.1 3135.67   4
  -6   0  -9-56.3517 545.846   4
  -6   0 -10 22974.2 2183.43   4
  -6   0 -11 2.79325 484.608   4
  -6   0 -12 2905.18 928.276   4
   6   1  -7 9755.03 1848.17   5
   6   1  -6 7479.54 1597.50   5
   6   1  -5 3186.21 1076.68   5
   6   1  -4 53100.4 3935.53   5
   6   1  -3 492.355 572.339   5
   6   1  -2 12417.3 1848.99   5
   6   1  -1 5017.06 1185.01   5
   6   1   0 37439.4 3202.12   5
   6   1   1 13456.9 1873.22   5
   6   1   2 7667.55 1410.92   5
   6   1   3 22213.6 2372.38   5
  -6  -1  -4 7841.82 1160.75   4
   6   1   4 5674.35 1228.74   5
  -6  -1  -5 1944.57 655.033   4
  -6  -1  -6 865.639 492.434   4
  -6  -1  -7 413.918 411.134   4
  -6  -1  -8 285.243 459.413   4
  -6  -1  -9 31225.2 2493.65   4
  -6  -1 -10 5056.61 1060.53   4
  -6  -1 -11 849.486 584.833   4
  -6  -1 -12 24204.8 2359.85   4
   6   2  -7 1687.50 755.217   5
   6   2  -6 2144.87 947.382   5
   6   2  -5 1058.86 826.634   5
   6   2  -4 1680.37 743.461   5
   6   2  -3 4494.03 1126.91   5
   6   2  -2 3155.25 1005.39   5
   6   2  -1 8058.35 1487.54   5
   6   2   0 28278.3 2704.73   5
   6   2   1 168.507 525.976   5
   6   2   2 49787.7 3565.72   5
   6   2   3 928.182 632.813   5
  -6  -2  -4 64192.3 3452.61   4
   6   2   4 60392.4 3859.94   5
  -6  -2  -5 12610.5 1433.94   4
  -6  -2  -6 13672.4 1523.19   4
  -6  -2  -7 36316.1 2560.71   4
  -6  -2  -8 16616.9 1745.15   4
  -6  -2  -9 16621.5 1768.99   4
  -6  -2 -10 7489.42 1228.09   4
  -6  -2 -11 12929.9 1632.55   4
  -6  -2 -12 5.35421 424.021   4
   6   3  -7 32182.5 3185.79   5
  -6  -3   7 33801.6 2501.47   3
   6   3  -6 5699.12 1299.65   5
   6   3  -5 22619.8 2434.28   5
   6   3  -4 3282.94 923.275   5
   6   3  -3 93966.0 5102.80   5
   6   3  -2 3021.01 890.370   5
   6   3  -1 4501.14 1100.17   5
   6   3   0 1165.28 667.944   5
   6   3   1 9272.80 1479.52   5
   6   3   2 10102.3 1499.04   5
   6   3   3 2509.76 820.587   5
  -6  -3  -4-64.4784 432.689   4
   6   3   4-281.673 461.563   5
  -6  -3  -5 481.305 430.379   4
  -6  -3  -6 24847.4 2008.81   4
  -6  -3  -7 14489.0 1543.96   4
  -6  -3  -8 6223.98 1038.32   4
  -6  -3  -9 1158.13 562.448   4
  -6  -3 -10 11970.9 1495.25   4
  -6  -3 -11 53758.8 3340.59   4
  -6  -3 -12 893.185 585.042   4
   6   4  -7 15430.9 2147.26   5
  -6  -4   7 15272.4 1752.72   3
  -6  -4   6-187.131 345.811   3
   6   4  -6 686.071 607.527   5
   6   4  -5 2149.37 848.832   5
   6   4  -4 2049.67 753.188   5
   6   4  -3 26935.4 2567.37   5
   6   4  -2 4053.65 975.441   5
   6   4  -1 25436.5 2421.03   5
   6   4   0 18198.9 2026.07   5
   6   4   1 49166.9 3380.98   5
   6   4   2 457.173 491.869   5
  -6  -4  -3 14715.7 1504.50   4
   6   4   3 13992.4 1670.56   5
  -6  -4  -4 31416.7 2220.58   4
  -6  -4  -5 1965.68 591.898   4
  -6  -4  -6 2002.52 592.161   4
  -6  -4  -7 970.371 498.658   4
  -6  -4  -8 10532.1 1322.86   4
  -6  -4  -9 3882.08 865.176   4
  -6  -4 -10 12865.9 1515.35   4
  -6  -4 -11 3748.48 879.334   4
  -6  -4 -12 7501.22 1258.76   4
  -6  -5   7 824.107 533.473   3
   6   5  -7 2182.71 826.617   5
   6   5  -6 25439.2 2537.14   5
  -6  -5   6 27718.7 2375.19   3
  -6  -5   5 3173.63 794.635   3
   6   5  -5 3640.50 875.150   5
  -6  -5   4 5709.20 1028.07   3
   6   5  -4 4483.70 1031.67   5
   6   5  -3 1060.49 696.365   5
   6   5  -2 1924.39 666.322   5
   6   5  -1 578.042 535.676   5
   6   5   0 11151.8 1503.92   5
   6   5   1 2845.00 840.186   5
   6   5   2 5118.73 936.752   5
  -6  -5  -3 17915.1 1640.44   4
   6   5   3 17208.7 1752.10   5
  -6  -5  -4 205.220 350.491   4
  -6  -5  -5 43896.1 2616.46   4
  -6  -5  -6 457.403 376.630   4
  -6  -5  -7 51204.3 2940.57   4
  -6  -5  -8 6783.28 1058.50   4
  -6  -5  -9 15052.7 1588.89   4
  -6  -5 -10 15831.8 1662.84   4
  -6  -5 -11 11595.9 1461.13   4
   6   6  -6 28415.8 2571.30   5
  -6  -6   6 22868.3 2201.99   3
   6   6  -5 24110.8 2258.23   5
  -6  -6   5 22209.8 2110.71   3
  -6  -6   4 10606.8 1416.54   3
   6   6  -4 11109.0 1534.91   5
  -6  -6   3 5446.38 1010.38   3
   6   6  -3 5698.95 1183.46   5
   6   6  -2 29318.9 2430.19   5
  -6  -6   2 24616.4 2112.04   3
   6   6  -1 6155.97 1127.11   5
   6   6   0 56697.6 3327.93   5
   6   6   1 5293.72 964.515   5
  -6  -6  -2 5562.34 859.964   4
   6   6   2 3439.23 818.473   5
  -6  -6  -3 3626.66 749.698   4
  -6  -6  -4 9605.83 1142.31   4
  -6  -6  -5 3505.46 740.216   4
  -6  -6  -6 897.750 519.095   4
  -6  -6  -7 111.243 386.487   4
  -6  -6  -8 3029.55 766.487   4
  -6  -6  -9 23137.9 1952.54   4
  -6  -6 -10 5803.93 1030.01   4
  -6  -6 -11 1895.34 753.620   4
  -6  -7   4 4846.16 1059.43   3
  -6  -7   3 2612.42 798.932   3
  -6  -7   2 11711.9 1455.88   3
  -6  -7   1 15945.6 1725.19   3
  -6  -7   0 12890.4 1563.03   3
  -6  -7  -2 40758.2 2445.49   4
  -6  -7  -3-21.4649 378.485   4
  -6  -7  -4 21082.0 1697.11   4
  -6  -7  -5 7275.52 1008.96   4
  -6  -7  -6 49218.3 2763.16   4
  -6  -7  -7 1738.22 559.445   4
  -6  -7  -8 1943.63 587.787   4
  -6  -7  -9 14110.9 1482.83   4
  -6  -7 -10 5196.85 949.369   4
  -6  -8   0 554.379 636.220   3
  -6  -8  -1 4087.43 936.073   3
  -6  -8  -2-436.199 470.432   3
  -6  -8  -3 4900.38 1077.18   3
  -6  -8  -4 709.057 415.945   3
  -6  -8  -5 7926.30 1343.72   3
  -6  -8  -6 12376.3 1662.95   3
  -6  -8  -7 1786.31 727.025   3
  -7   6  -2-142.599 532.573   4
  -7   6  -3 6026.55 1150.92   4
  -7   6  -4 2224.12 764.761   4
  -7   6  -5 19062.8 1982.72   4
   7  -5   1 4744.41 1438.62   5
  -7   5  -2-2846.21 883.131   4
   7  -5   2-1069.54 974.505   5
  -7   5  -3 17086.4 1939.52   4
   7  -5   3 17213.4 2541.16   5
  -7   5  -4 3185.79 899.357   4
   7  -5   4 5101.50 1442.39   5
  -7   5  -5 9281.33 1384.73   4
  -7   5  -6 348.603 454.878   4
   7  -4  -1 1515.33 1074.43   5
   7  -4   0 20841.6 2942.33   5
   7  -4   1 3179.17 1361.96   5
   7  -4   2 4216.95 1434.22   5
  -7   4  -3 8089.90 1361.89   4
   7  -4   3 5106.79 1486.04   5
  -7   4  -4-136.242 562.536   4
   7  -4   4 423.803 655.741   5
  -7   4  -5-221.577 501.764   4
  -7   4  -6 249.071 416.411   4
  -7   4  -7 853.263 566.077   4
   7  -3  -2 492.970 771.878   5
   7  -3  -1 2045.98 1034.40   5
   7  -3   0-2243.86 1071.02   5
   7  -3   1 18946.7 2709.58   5
   7  -3   2 17394.1 2586.82   5
  -7   3  -3 14029.6 1725.98   4
   7  -3   3 10349.5 1984.27   5
  -7   3  -4 30319.4 2543.51   4
   7  -3   4 28307.3 3274.07   5
  -7   3  -5 1924.66 730.980   4
  -7   3  -6 3274.27 883.132   4
  -7   3  -7 871.002 497.609   4
   7  -2  -3 4420.45 1474.61   5
   7  -2  -2 4332.12 1428.09   5
   7  -2  -1-101.836 593.376   5
   7  -2   0 9168.34 1969.39   5
   7  -2   1 523.017 654.395   5
   7  -2   2-1572.59 954.836   5
  -7   2  -3 3258.33 855.820   4
   7  -2   3 1472.47 875.366   5
  -7   2  -4 11001.6 1527.54   4
   7  -2   4 10646.4 1956.59   5
  -7   2  -5 2638.51 810.363   4
  -7   2  -6 8183.71 1306.79   4
  -7   2  -7 2071.84 807.608   4
  -7   2  -8 35704.1 2830.64   4
   7  -1  -3 2847.14 1090.25   5
   7  -1  -2 40473.5 3903.72   5
   7  -1  -1 6069.19 1518.81   5
   7  -1   0 2197.88 1022.77   5
   7  -1   1 36553.1 3642.11   5
   7  -1   2 13232.2 2156.17   5
  -7   1  -3 15654.3 1775.43   4
   7  -1   3 13475.6 2189.21   5
  -7   1  -4 867.253 583.862   4
   7  -1   4-249.493 571.526   5
  -7   1  -5 18777.8 1933.08   4
  -7   1  -6 1863.86 663.472   4
  -7   1  -7-361.599 425.669   4
  -7   1  -8 4218.69 991.118   4
   7   0  -4 6801.18 1629.01   5
   7   0  -3 585.366 664.459   5
   7   0  -2 2671.28 1152.87   5
   7   0  -1 7490.05 1681.61   5
   7   0   0 15806.4 2390.34   5
   7   0   1 370.993 759.010   5
   7   0   2 2931.19 927.745   5
  -7   0  -3 2943.29 817.872   4
   7   0   3 1790.07 915.616   5
  -7   0  -4 18049.3 1879.76   4
   7   0   4 19080.3 2462.50   5
  -7   0  -5 18228.8 1888.55   4
  -7   0  -6 18306.9 1903.33   4
  -7   0  -7 22194.1 2123.12   4
  -7   0  -8 2791.67 839.560   4
   7   1  -4 2850.34 1189.60   5
   7   1  -3 40442.1 3758.26   5
   7   1  -2 1128.73 622.982   5
   7   1  -1 6962.98 1610.71   5
   7   1   0 3702.89 1224.09   5
   7   1   1 8848.41 1778.10   5
   7   1   2 315.036 614.413   5
  -7  -1  -3 6387.17 1147.31   4
   7   1   3 4638.50 1187.13   5
  -7  -1  -4 210.311 482.190   4
   7   1   4 2580.84 970.800   5
  -7  -1  -5 49.6076 441.070   4
  -7  -1  -6 16222.0 1768.79   4
  -7  -1  -7 1313.91 671.984   4
  -7  -1  -8 947.212 567.101   4
  -7  -1  -9 16130.8 1827.44   4
   7   2  -4 2169.53 992.923   5
   7   2  -3 5849.25 1490.61   5
   7   2  -2 2360.00 903.727   5
   7   2  -1 37170.0 3484.47   5
   7   2   0 374.408 624.991   5
   7   2   1 24938.9 2754.27   5
   7   2   2 20370.9 2418.43   5
  -7  -2  -3 25570.1 2212.58   4
   7   2   3 26696.0 2705.70   5
  -7  -2  -4 15694.5 1742.26   4
   7   2   4 18716.8 2234.48   5
  -7  -2  -5 2371.16 697.029   4
  -7  -2  -6 33941.2 2545.11   4
  -7  -2  -7 10911.3 1467.16   4
  -7  -2  -8 5836.94 1075.52   4
  -7  -2  -9 5069.63 1135.55   4
   7   3  -4 8039.44 1652.52   5
   7   3  -3 2315.51 996.760   5
   7   3  -2 6096.93 1502.79   5
   7   3  -1 3716.55 1162.86   5
   7   3   0 358.399 647.570   5
   7   3   1 5464.00 1296.36   5
   7   3   2 70.9428 642.918   5
  -7  -3  -3 15173.6 1677.39   4
   7   3   3 17004.5 2069.70   5
  -7  -3  -4-116.803 412.240   4
  -7  -3  -5 2993.01 800.819   4
  -7  -3  -6 1021.60 536.919   4
  -7  -3  -7 19298.4 1867.51   4
  -7  -3  -8 7458.50 1175.42   4
  -7  -3  -9 7755.69 1210.26   4
   7   4  -4 8490.03 1616.40   5
   7   4  -3 29.1173 465.024   5
   7   4  -2 13444.9 1949.97   5
   7   4  -1 1921.72 1004.00   5
   7   4   0 31742.7 3018.76   5
   7   4   1 419.715 587.631   5
   7   4   2 6992.48 1268.30   5
  -7  -4  -3 1059.47 513.246   4
   7   4   3-713.972 549.858   5
  -7  -4  -4 3279.00 793.010   4
  -7  -4  -5 6259.74 1066.72   4
  -7  -4  -6 9855.21 1283.29   4
  -7  -4  -7-530.950 449.664   4
  -7  -4  -8 570.920 491.307   4
   7   5  -3 2815.65 956.905   5
   7   5  -2-1438.14 761.471   5
   7   5  -1 968.951 657.734   5
   7   5   0 17886.1 2147.63   5
   7   5   1 1576.28 651.272   5
  -7  -5  -2 12115.4 1427.33   4
   7   5   2 11037.6 1564.96   5
  -7  -5  -3 158.805 420.350   4
  -7  -5  -4 56710.3 3206.68   4
  -7  -5  -5 2595.54 724.752   4
  -7  -5  -6 17153.0 1683.17   4
  -7  -5  -7 22129.5 1955.55   4
  -7  -5  -8 16316.1 1706.22   4
  -7  -6  -2 8420.48 1174.71   4
  -7  -6  -3 1408.88 512.563   4
  -7  -6  -4 800.760 480.608   4
  -7  -6  -5 669.495 467.497   4
  -7  -6  -6 6019.90 1019.06   4
  -7  -6  -7 6318.28 1058.91   4
  -7  -6  -8 1989.85 617.609   4
  -7  -7  -1 9930.46 1285.30   4
  -7  -7  -2 138.773 383.009   4
  -7  -7  -3 38867.9 2522.97   4
  -7  -7  -4 433.114 468.534   4
  -7  -7  -5 5553.52 964.811   4
   8   2   3 10592.9 1998.35   5
   8   3   2 7356.07 1617.85   5
   8   3   3 440.136 687.290   5
   0   0   0    0.00    0.00   0
;
_shelx_hkl_checksum              90563
_olex2_submission_special_instructions 'No special instructions were received'
_oxdiff_exptl_absorpt_empirical_details
;
Empirical correction (ABSPACK) includes:
- Absorption correction using spherical harmonics
- Frame scaling
;
_oxdiff_exptl_absorpt_empirical_full_max 1.687
_oxdiff_exptl_absorpt_empirical_full_min 0.582
loop_
_space_group_symop_operation_xyz
'x, y, z'
'-x, -y, -z'
loop_
_atom_site_label
_atom_site_type_symbol
_atom_site_fract_x
_atom_site_fract_y
_atom_site_fract_z
_atom_site_U_iso_or_equiv
_atom_site_adp_type
_atom_site_occupancy
_atom_site_site_symmetry_order
_atom_site_calc_flag
_atom_site_refinement_flags_posn
_atom_site_refinement_flags_adp
_atom_site_refinement_flags_occupancy
_atom_site_disorder_assembly
_atom_site_disorder_group
U1 U 1.26103(6) 0.91655(3) 0.25245(3) 0.00746(9) Uani 1 1 d . . . . .
Pb1 Pb 0.17143(7) 0.31121(3) 0.19431(3) 0.01207(10) Uani 1 1 d . . . . .
Se1 Se 1.28785(17) 0.88905(7) -0.04632(7) 0.00805(19) Uani 1 1 d . . . . .
Se2 Se 1.22555(19) 1.16914(8) 0.48747(7) 0.0131(2) Uani 1 1 d . . . . .
Se3 Se 0.90623(18) 0.62535(7) 0.22108(7) 0.01035(19) Uani 1 1 d . . . . .
Cu1 Cu 1.000000 0.500000 0.500000 0.0091(3) Uani 1 2 d S . P . .
Cu2 Cu 0.7076(2) 0.44316(9) 0.04640(9) 0.0091(2) Uani 1 1 d . . . . .
Cu3 Cu 0.5639(2) 0.42385(9) 0.38484(9) 0.0109(2) Uani 1 1 d . . . . .
O1 O 1.5210(13) 0.8656(6) 0.3052(6) 0.0192(15) Uani 1 1 d . . . . .
O2 O 1.0034(13) 0.9659(5) 0.1957(5) 0.0168(15) Uani 1 1 d . . . . .
O3 O 1.4457(13) 0.8651(5) 0.0626(5) 0.0127(8) Uani 1 1 d . . . . .
O4 O 1.1594(12) 0.7382(5) -0.0579(5) 0.0107(14) Uani 1 1 d . . . . .
O5 O 1.5178(13) 0.8863(5) -0.1629(5) 0.0127(8) Uani 1 1 d . . . . .
O6 O 1.1582(13) 1.1003(5) 0.3692(5) 0.0127(8) Uani 1 1 d . . . . .
O7 O 1.2393(14) 1.3309(5) 0.4419(5) 0.0186(11) Uani 1 1 d . . . . .
O8 O 0.9566(14) 1.1702(5) 0.5751(5) 0.0186(11) Uani 1 1 d . . . . .
O9 O 1.1794(12) 0.6906(5) 0.2217(5) 0.0106(8) Uani 1 1 d . . . . .
O10 O 0.8890(12) 0.5129(5) 0.3318(5) 0.0106(8) Uani 1 1 d . . . . .
O11 O 0.9801(12) 0.5140(5) 0.1141(5) 0.0106(8) Uani 1 1 d . . . . .
O12 O 0.6949(13) 0.4088(5) 0.5251(5) 0.0136(15) Uani 1 1 d D . . . .
H12 H 0.744(19) 0.324(4) 0.547(8) 0.020 Uiso 1 1 d D U . . .
O13 O 0.4715(12) 0.4575(5) 0.2382(5) 0.0124(14) Uani 1 1 d D . . . .
H13 H 0.382(15) 0.536(6) 0.242(8) 0.019 Uiso 1 1 d D U . . .
O14 O 0.4045(12) 0.3818(5) 0.0063(5) 0.0102(14) Uani 1 1 d D . . . .
H14 H 0.382(19) 0.296(4) -0.021(7) 0.015 Uiso 1 1 d D U . . .
O15 O 0.6992(15) 0.2023(6) 0.3416(6) 0.0281(18) Uani 1 1 d . . . . .
H15A H 0.677735 0.179836 0.272539 0.042 Uiso 1 1 d DR U . . .
H15B H 0.857957 0.195864 0.336232 0.042 Uiso 1 1 d R U . . .
loop_
_atom_site_aniso_label
_atom_site_aniso_U_11
_atom_site_aniso_U_22
_atom_site_aniso_U_33
_atom_site_aniso_U_23
_atom_site_aniso_U_13
_atom_site_aniso_U_12
U1 0.0116(2) 0.00689(15) 0.00354(16) 0.00026(10) -0.00048(14) -0.00336(12)
Pb1 0.0135(2) 0.01144(16) 0.01118(18) 0.00186(12) -0.00231(15) -0.00355(13)
Se1 0.0121(5) 0.0071(4) 0.0047(4) 0.0003(3) -0.0011(4) -0.0029(3)
Se2 0.0197(6) 0.0123(4) 0.0068(4) 0.0002(3) -0.0016(4) -0.0041(4)
Se3 0.0135(5) 0.0079(4) 0.0088(4) -0.0022(3) 0.0005(4) -0.0031(3)
Cu1 0.0103(9) 0.0109(7) 0.0061(8) -0.0013(5) -0.0011(7) -0.0046(6)
Cu2 0.0107(6) 0.0077(5) 0.0094(6) 0.0009(4) -0.0034(5) -0.0028(4)
Cu3 0.0120(7) 0.0150(5) 0.0055(5) -0.0004(4) -0.0010(5) -0.0070(4)
O1 0.018(4) 0.022(3) 0.019(4) 0.001(3) -0.008(3) -0.002(3)
O2 0.013(4) 0.018(3) 0.021(4) 0.001(2) -0.009(3) 0.001(3)
O3 0.023(3) 0.0102(16) 0.0041(18) -0.0014(12) 0.0003(17) -0.0062(15)
O4 0.015(4) 0.006(3) 0.011(3) 0.001(2) -0.003(3) -0.005(2)
O5 0.023(3) 0.0102(16) 0.0041(18) -0.0014(12) 0.0003(17) -0.0062(15)
O6 0.023(3) 0.0102(16) 0.0041(18) -0.0014(12) 0.0003(17) -0.0062(15)
O7 0.026(3) 0.013(2) 0.013(2) 0.0024(17) 0.008(2) -0.0060(19)
O8 0.026(3) 0.013(2) 0.013(2) 0.0024(17) 0.008(2) -0.0060(19)
O9 0.012(2) 0.0139(17) 0.0047(18) 0.0000(12) 0.0016(16) -0.0046(14)
O10 0.012(2) 0.0139(17) 0.0047(18) 0.0000(12) 0.0016(16) -0.0046(14)
O11 0.012(2) 0.0139(17) 0.0047(18) 0.0000(12) 0.0016(16) -0.0046(14)
O12 0.022(4) 0.013(3) 0.006(3) 0.003(2) -0.002(3) -0.003(3)
O13 0.012(4) 0.015(3) 0.009(3) -0.001(2) 0.002(3) -0.002(3)
O14 0.015(4) 0.008(3) 0.008(3) -0.003(2) -0.003(3) 0.001(2)
O15 0.020(5) 0.035(4) 0.027(4) -0.014(3) 0.003(4) -0.005(3)
loop_
_atom_type_symbol
_atom_type_description
_atom_type_scat_dispersion_real
_atom_type_scat_dispersion_imag
_atom_type_scat_source
Cu Cu 0.3201 1.2651 'International Tables Vol C Tables 4.2.6.8 and 6.1.1.4'
H H 0.0000 0.0000 'International Tables Vol C Tables 4.2.6.8 and 6.1.1.4'
O O 0.0106 0.0060 'International Tables Vol C Tables 4.2.6.8 and 6.1.1.4'
Pb Pb -3.3944 10.1111 'International Tables Vol C Tables 4.2.6.8 and 6.1.1.4'
Se Se -0.0929 2.2259 'International Tables Vol C Tables 4.2.6.8 and 6.1.1.4'
U U -9.6767 9.6646 'International Tables Vol C Tables 4.2.6.8 and 6.1.1.4'
loop_
_exptl_crystal_face_index_h
_exptl_crystal_face_index_k
_exptl_crystal_face_index_l
_exptl_crystal_face_perp_dist
3 -13 5 0.0399
3 2 -14 0.0592
-2 13 -7 0.0239
-4 3 13 0.0446
7 -2 9 0.0377
-2 -13 -4 0.0406
-7 -3 -9 0.0219
0 14 1 0.0073
loop_
_geom_angle_atom_site_label_1
_geom_angle_atom_site_label_2
_geom_angle_atom_site_label_3
_geom_angle
_geom_angle_site_symmetry_1
_geom_angle_site_symmetry_3
O1 U1 O2 178.4(3) . .
O1 U1 O3 91.4(3) . .
O1 U1 O5 89.3(3) . 2_875
O1 U1 O6 98.2(3) . .
O1 U1 O8 85.7(3) . 2_776
O1 U1 O9 89.1(2) . .
O2 U1 O3 87.0(3) . .
O2 U1 O5 90.4(2) . 2_875
O2 U1 O6 83.2(3) . .
O2 U1 O8 95.4(3) . 2_776
O2 U1 O9 90.2(2) . .
O3 U1 O5 71.08(18) . 2_875
O6 U1 O3 140.63(18) . .
O6 U1 O5 70.97(19) . 2_875
O6 U1 O8 74.09(19) . 2_776
O6 U1 O9 145.9(2) . .
O8 U1 O3 144.98(18) 2_776 .
O8 U1 O5 143.59(19) 2_776 2_875
O8 U1 O9 73.3(2) 2_776 .
O9 U1 O3 71.80(19) . .
O9 U1 O5 142.78(19) . 2_875
O5 Pb1 O4 105.88(17) 2_765 2_665
O11 Pb1 O4 63.42(16) 1_455 2_665
O11 Pb1 O5 149.12(18) 1_455 2_765
O13 Pb1 O4 147.17(18) . 2_665
O13 Pb1 O5 91.2(2) . 2_765
O13 Pb1 O11 87.49(19) . 1_455
O13 Pb1 O14 75.59(19) . .
O14 Pb1 O4 79.67(19) . 2_665
O14 Pb1 O5 80.85(18) . 2_765
O14 Pb1 O11 68.95(19) . 1_455
O3 Se1 O5 101.0(3) . .
O4 Se1 O3 103.9(3) . .
O4 Se1 O5 100.1(3) . .
O6 Se2 O7 98.2(3) . .
O8 Se2 O6 102.4(3) . .
O8 Se2 O7 99.6(3) . .
O9 Se3 O10 100.0(3) . .
O9 Se3 O11 99.6(3) . .
O10 Se3 O11 96.9(3) . .
O7 Cu1 O7 180.0 1_545 2_776
O10 Cu1 O7 90.0(2) 2_766 2_776
O10 Cu1 O7 90.0(2) . 2_776
O10 Cu1 O7 90.0(2) 2_766 1_545
O10 Cu1 O7 90.0(2) . 1_545
O10 Cu1 O10 180.0 . 2_766
O12 Cu1 O7 80.8(2) . 2_776
O12 Cu1 O7 99.2(2) . 1_545
O12 Cu1 O7 80.8(2) 2_766 1_545
O12 Cu1 O7 99.2(2) 2_766 2_776
O12 Cu1 O10 76.5(2) 2_766 2_766
O12 Cu1 O10 103.5(2) . 2_766
O12 Cu1 O10 103.5(2) 2_766 .
O12 Cu1 O10 76.5(2) . .
O12 Cu1 O12 180.0 2_766 .
O4 Cu2 Cu2 134.45(18) 2_765 2_665
O4 Cu2 O11 88.9(2) 2_765 .
O4 Cu2 O11 88.4(2) 2_765 2_765
O4 Cu2 O14 165.8(2) 2_765 2_665
O11 Cu2 Cu2 98.96(16) 2_765 2_665
O11 Cu2 Cu2 136.58(17) . 2_665
O11 Cu2 O11 75.9(2) . 2_765
O14 Cu2 Cu2 41.49(15) . 2_665
O14 Cu2 Cu2 40.71(18) 2_665 2_665
O14 Cu2 O4 94.5(2) . 2_765
O14 Cu2 O11 113.9(2) . 2_765
O14 Cu2 O11 169.7(3) . .
O14 Cu2 O11 96.8(2) 2_665 .
O14 Cu2 O11 80.4(2) 2_665 2_765
O14 Cu2 O14 82.2(2) . 2_665
O7 Cu3 O12 74.5(2) 1_445 2_666
O7 Cu3 O15 83.2(2) 1_445 .
O10 Cu3 O7 178.4(3) . 1_445
O10 Cu3 O12 106.1(2) . 2_666
O10 Cu3 O15 96.0(2) . .
O12 Cu3 O7 98.2(3) . 1_445
O12 Cu3 O10 80.3(3) . .
O12 Cu3 O12 87.0(3) . 2_666
O12 Cu3 O15 88.7(3) . .
O12 Cu3 O15 156.4(2) 2_666 .
O13 Cu3 O7 90.0(3) . 1_445
O13 Cu3 O10 91.5(3) . .
O13 Cu3 O12 93.3(2) . 2_666
O13 Cu3 O12 171.6(3) . .
O13 Cu3 O15 94.3(2) . .
Se1 O3 U1 119.6(3) . .
Se1 O4 Pb1 124.7(3) . 2_665
Se1 O4 Cu2 130.0(4) . 2_765
Cu2 O4 Pb1 99.7(2) 2_765 2_665
U1 O5 Pb1 105.4(2) 2_875 2_765
Se1 O5 U1 125.0(3) . 2_875
Se1 O5 Pb1 121.6(3) . 2_765
Se2 O6 U1 140.4(4) . .
Se2 O7 Cu1 130.0(4) . 1_565
Se2 O7 Cu3 121.3(4) . 1_665
Cu3 O7 Cu1 102.4(2) 1_665 1_565
Se2 O8 U1 144.1(4) . 2_776
Se3 O9 U1 125.7(3) . .
Se3 O10 Cu1 137.8(3) . .
Se3 O10 Cu3 116.3(3) . .
Cu3 O10 Cu1 95.1(2) . .
Se3 O11 Pb1 108.1(3) . 1_655
Se3 O11 Cu2 122.3(3) . 2_765
Se3 O11 Cu2 116.5(4) . .
Cu2 O11 Pb1 97.4(2) 2_765 1_655
Cu2 O11 Pb1 105.7(2) . 1_655
Cu2 O11 Cu2 104.1(2) . 2_765
Cu1 O12 Cu3 101.0(2) . 2_666
Cu1 O12 Cu3 107.8(3) . .
Cu1 O12 H12 100(7) . .
Cu3 O12 Cu3 93.0(3) . 2_666
Cu3 O12 H12 135(6) 2_666 .
Cu3 O12 H12 117(6) . .
Pb1 O13 H13 98(6) . .
Cu3 O13 Pb1 114.9(3) . .
Cu3 O13 H13 108(6) . .
Pb1 O14 H14 89(6) . .
Cu2 O14 Pb1 111.9(3) 2_665 .
Cu2 O14 Pb1 102.0(2) . .
Cu2 O14 Cu2 97.8(2) . 2_665
Cu2 O14 H14 129(6) 2_665 .
Cu2 O14 H14 124(6) . .
Cu3 O15 H15A 111.6 . .
Cu3 O15 H15B 111.2 . .
H15A O15 H15B 102.5 . .
loop_
_geom_bond_atom_site_label_1
_geom_bond_atom_site_label_2
_geom_bond_distance
_geom_bond_site_symmetry_2
U1 O1 1.772(7) .
U1 O2 1.780(7) .
U1 O3 2.393(6) .
U1 O5 2.466(5) 2_875
U1 O6 2.353(5) .
U1 O8 2.355(6) 2_776
U1 O9 2.372(5) .
Pb1 O4 2.751(6) 2_665
Pb1 O5 2.637(6) 2_765
Pb1 O11 2.555(6) 1_455
Pb1 O13 2.387(6) .
Pb1 O14 2.484(6) .
Se1 O3 1.721(6) .
Se1 O4 1.704(5) .
Se1 O5 1.729(6) .
Se2 O6 1.695(6) .
Se2 O7 1.702(5) .
Se2 O8 1.685(7) .
Se3 O9 1.682(6) .
Se3 O10 1.713(5) .
Se3 O11 1.716(6) .
Cu1 O7 2.217(7) 1_545
Cu1 O7 2.217(7) 2_776
Cu1 O10 2.217(6) 2_766
Cu1 O10 2.217(6) .
Cu1 O12 1.928(7) .
Cu1 O12 1.928(7) 2_766
Cu2 Cu2 2.987(2) 2_665
Cu2 O4 1.983(5) 2_765
Cu2 O11 2.397(6) 2_765
Cu2 O11 2.007(6) .
Cu2 O14 1.966(6) .
Cu2 O14 1.997(5) 2_665
Cu3 O7 2.059(7) 1_445
Cu3 O10 2.037(6) .
Cu3 O12 1.957(6) .
Cu3 O12 2.376(6) 2_666
Cu3 O13 1.944(6) .
Cu3 O15 2.393(7) .
O12 H12 0.94(2) .
O13 H13 0.94(2) .
O14 H14 0.95(2) .
O15 H15A 0.8918 .
O15 H15B 0.8910 .
loop_
_geom_hbond_atom_site_label_D
_geom_hbond_atom_site_label_H
_geom_hbond_atom_site_label_A
_geom_hbond_distance_DH
_geom_hbond_distance_HA
_geom_hbond_distance_DA
_geom_hbond_angle_DHA
_geom_hbond_site_symmetry_A
_geom_hbond_publ_flag
O12 H12 O8 0.94(2) 2.02(4) 2.924(9) 161(9) 1_545 yes
O13 H13 O9 0.94(2) 1.96(3) 2.888(8) 169(9) 1_455 yes
O14 H14 O3 0.95(2) 1.92(7) 2.721(8) 141(9) 2_765 yes
O15 H15A O5 0.89 1.99 2.816(9) 153.3 2_765 yes
O15 H15B O6 0.89 2.04 2.860(11) 151.7 1_545 yes
loop_
_geom_torsion_atom_site_label_1
_geom_torsion_atom_site_label_2
_geom_torsion_atom_site_label_3
_geom_torsion_atom_site_label_4
_geom_torsion
_geom_torsion_site_symmetry_1
_geom_torsion_site_symmetry_2
_geom_torsion_site_symmetry_3
_geom_torsion_site_symmetry_4
O3 Se1 O4 Pb1 172.5(3) . . . 2_665
O3 Se1 O4 Cu2 -39.7(5) . . . 2_765
O3 Se1 O5 U1 -91.8(4) . . . 2_875
O3 Se1 O5 Pb1 52.7(3) . . . 2_765
O4 Se1 O3 U1 -93.5(3) . . . .
O4 Se1 O5 U1 161.8(4) . . . 2_875
O4 Se1 O5 Pb1 -53.7(4) . . . 2_765
O5 Se1 O3 U1 163.1(3) . . . .
O5 Se1 O4 Pb1 -83.4(4) . . . 2_665
O5 Se1 O4 Cu2 64.4(5) . . . 2_765
O6 Se2 O7 Cu1 112.1(5) . . . 1_565
O6 Se2 O7 Cu3 -101.1(4) . . . 1_665
O6 Se2 O8 U1 115.6(6) . . . 2_776
O7 Se2 O6 U1 137.5(5) . . . .
O7 Se2 O8 U1 -143.7(5) . . . 2_776
O8 Se2 O6 U1 -120.7(5) . . . .
O8 Se2 O7 Cu1 8.0(5) . . . 1_565
O8 Se2 O7 Cu3 154.8(4) . . . 1_665
O9 Se3 O10 Cu1 36.9(6) . . . .
O9 Se3 O10 Cu3 170.7(3) . . . .
O9 Se3 O11 Pb1 78.0(3) . . . 1_655
O9 Se3 O11 Cu2 -33.6(4) . . . 2_765
O9 Se3 O11 Cu2 -163.2(3) . . . .
O10 Se3 O9 U1 -118.6(4) . . . .
O10 Se3 O11 Pb1 -23.4(3) . . . 1_655
O10 Se3 O11 Cu2 95.4(3) . . . .
O10 Se3 O11 Cu2 -135.0(4) . . . 2_765
O11 Se3 O9 U1 142.6(3) . . . .
O11 Se3 O10 Cu1 137.9(5) . . . .
O11 Se3 O10 Cu3 -88.3(4) . . . .
loop_
_exptl_oxdiff_crystal_face_indexfrac_h
_exptl_oxdiff_crystal_face_indexfrac_k
_exptl_oxdiff_crystal_face_indexfrac_l
_exptl_oxdiff_crystal_face_x
_exptl_oxdiff_crystal_face_y
_exptl_oxdiff_crystal_face_z
2.7488 -12.7968 5.0768 -0.0421 -0.1495 0.9879
2.6772 1.8415 -14.4772 0.2308 0.9686 -0.0923
-2.3407 12.5631 -6.5853 0.0675 0.2571 -0.9640
-3.7935 3.0340 12.8520 -0.2198 -0.9329 -0.2852
7.3134 -2.4873 8.6646 -0.7969 0.1932 0.5724
-2.2948 -13.4171 -4.0183 0.6757 -0.1557 0.7205
-7.2355 -2.7805 -9.0520 0.9455 -0.2263 -0.2340
0.1619 14.1853 1.4952 -0.4446 0.0996 -0.8902
