#------------------------------------------------------------------------------
#$Date: 2022-02-01 10:55:05 +0200 (Tue, 01 Feb 2022) $
#$Revision: 272384 $
#$URL: file:///home/coder/svn-repositories/cod/cif/1/56/62/1566231.cif $
#------------------------------------------------------------------------------
#
# This file is available in the Crystallography Open Database (COD),
# http://www.crystallography.net/
#
# All data on this site have been placed in the public domain by the
# contributors.
#
data_1566231
loop_
_publ_author_name
'Vladislav V. Gurzhiy'
'Alina R. Izatulina'
'Maria G. Krzhizhanovskaya'
'Mikhail N. Murashko'
'Dar-ya V. Spiridonova'
'Vladimir V. Shilovskikh'
'Sergey V. Krivovichev'
_publ_section_title
;
 Thermal behavior of uranyl selenite minerals derriksite and
 demesmaekerite
;
_journal_name_full               'Journal of GeoSciences'
_journal_page_first              249
_journal_page_last               259
_journal_paper_doi               10.3190/jgeosci.315
_journal_volume                  65
_journal_year                    2020
_chemical_formula_moiety         'Cu4 H6 O14 Se2 U'
_chemical_formula_sum            'Cu4 H6 O14 Se2 U'
_chemical_formula_weight         880.16
_space_group_crystal_system      orthorhombic
_space_group_IT_number           31
_space_group_name_Hall           'P 2ac -2'
_space_group_name_H-M_alt        'P m n 21'
_atom_sites_solution_hydrogens   difmap
_cell_angle_alpha                90
_cell_angle_beta                 90
_cell_angle_gamma                90
_cell_formula_units_Z            2
_cell_length_a                   5.9784(3)
_cell_length_b                   5.5874(4)
_cell_length_c                   19.1254(11)
_cell_measurement_reflns_used    2223
_cell_measurement_temperature    333(2)
_cell_measurement_theta_max      30.7990
_cell_measurement_theta_min      4.2350
_cell_volume                     638.86(7)
_computing_cell_refinement       'CrysAlisPro 1.171.39.44a (Rigaku OD, 2018)'
_computing_data_collection       'CrysAlisPro 1.171.39.44a (Rigaku OD, 2018)'
_computing_data_reduction        'CrysAlisPro 1.171.39.44a (Rigaku OD, 2018)'
_computing_molecular_graphics    'Olex2 1.3 (Dolomanov et al., 2009)'
_computing_publication_material  'Olex2 1.3 (Dolomanov et al., 2009)'
_computing_structure_refinement  'SHELXL 2018/3 (Sheldrick, 2015)'
_computing_structure_solution    'SHELXT 2018/3 (Sheldrick, 2015)'
_diffrn_ambient_environment      air
_diffrn_ambient_temperature      333(2)
_diffrn_detector                 'CCD plate'
_diffrn_detector_area_resol_mean 10.3829
_diffrn_detector_type            Atlas
_diffrn_measured_fraction_theta_full 0.998
_diffrn_measured_fraction_theta_max 0.999
_diffrn_measurement_details
;
List of Runs (angles in degrees, time in seconds):

  # Type    Start    End  Width  t~exp~   \w     \q     \k     \f   Frames
--------------------------------------------------------------------------
  1  \w    -47.00   3.00   1.00   22.50    --  -14.99  77.00-180.00   50
  2  \w    -27.00  19.00   1.00   22.50    --  -14.99 -77.00-150.00   46
  3  \w     42.00  83.00   1.00   22.50    --   16.86 178.00 -30.00   41
  4  \w     31.00  59.00   1.00   22.50    --   16.86 -99.00 120.00   28
  5  \w     -4.00  93.00   1.00   22.50    --   16.86  38.00 120.00   97
  6  \w     -8.00  93.00   1.00   22.50    --   16.86  38.00  30.00  101
;
_diffrn_measurement_device       'four-circle diffractometer'
_diffrn_measurement_device_type  'SuperNova, Dual, Cu at home/near, Atlas'
_diffrn_measurement_method       '\w scans'
_diffrn_orient_matrix_type
'CrysAlisPro convention (1999,Acta A55,543-557)'
_diffrn_orient_matrix_UB_11      0.1105534000
_diffrn_orient_matrix_UB_12      0.0355530000
_diffrn_orient_matrix_UB_13      0.0086854000
_diffrn_orient_matrix_UB_21      -0.0267442000
_diffrn_orient_matrix_UB_22      0.1204136000
_diffrn_orient_matrix_UB_23      -0.0086290000
_diffrn_orient_matrix_UB_31      -0.0340730000
_diffrn_orient_matrix_UB_32      0.0207973000
_diffrn_orient_matrix_UB_33      0.0350202000
_diffrn_radiation_monochromator  mirror
_diffrn_radiation_probe          x-ray
_diffrn_radiation_type           'Mo K\a'
_diffrn_radiation_wavelength     0.71073
_diffrn_reflns_av_R_equivalents  0.0439
_diffrn_reflns_av_unetI/netI     0.0436
_diffrn_reflns_Laue_measured_fraction_full 0.998
_diffrn_reflns_Laue_measured_fraction_max 0.999
_diffrn_reflns_limit_h_max       6
_diffrn_reflns_limit_h_min       -7
_diffrn_reflns_limit_k_max       6
_diffrn_reflns_limit_k_min       -7
_diffrn_reflns_limit_l_max       22
_diffrn_reflns_limit_l_min       -24
_diffrn_reflns_number            5163
_diffrn_reflns_point_group_measured_fraction_full 0.973
_diffrn_reflns_point_group_measured_fraction_max 0.970
_diffrn_reflns_theta_full        25.242
_diffrn_reflns_theta_max         27.494
_diffrn_reflns_theta_min         3.571
_diffrn_source                   'micro-focus sealed X-ray tube'
_diffrn_source_type              'SuperNova (Mo) X-ray Source'
_exptl_absorpt_coefficient_mu    24.950
_exptl_absorpt_correction_T_max  0.994
_exptl_absorpt_correction_T_min  0.990
_exptl_absorpt_correction_type   analytical
_exptl_absorpt_process_details
;
CrysAlisPro 1.171.39.44a (Rigaku Oxford Diffraction, 2018)
Analytical numeric absorption correction using a multifaceted crystal
			model based on expressions derived by R.C. Clark & J.S. Reid.
(Clark, R. C. & Reid, J. S. (1995). Acta Cryst. A51, 887-897)
Empirical absorption correction using spherical harmonics,
 implemented in SCALE3 ABSPACK scaling algorithm.
;
_exptl_crystal_colour            green
_exptl_crystal_density_diffrn    4.575
_exptl_crystal_description       prism
_exptl_crystal_F_000             788
_exptl_crystal_size_max          0.108
_exptl_crystal_size_mid          0.06
_exptl_crystal_size_min          0.041
_refine_diff_density_max         1.239
_refine_diff_density_min         -1.506
_refine_diff_density_rms         0.238
_refine_ls_abs_structure_details
;
 Flack x determined using 649 quotients [(I+)-(I-)]/[(I+)+(I-)]
 (Parsons, Flack and Wagner, Acta Cryst. B69 (2013) 249-259).
;
_refine_ls_abs_structure_Flack   -0.03(3)
_refine_ls_extinction_coef       .
_refine_ls_extinction_method     none
_refine_ls_goodness_of_fit_ref   1.049
_refine_ls_hydrogen_treatment    refxyz
_refine_ls_matrix_type           full
_refine_ls_number_parameters     123
_refine_ls_number_reflns         1563
_refine_ls_number_restraints     7
_refine_ls_restrained_S_all      1.047
_refine_ls_R_factor_all          0.0475
_refine_ls_R_factor_gt           0.0448
_refine_ls_shift/su_max          0.000
_refine_ls_shift/su_mean         0.000
_refine_ls_structure_factor_coef Fsqd
_refine_ls_weighting_details
'w=1/[\s^2^(Fo^2^)+(0.0770P)^2^+1.3394P] where P=(Fo^2^+2Fc^2^)/3'
_refine_ls_weighting_scheme      calc
_refine_ls_wR_factor_gt          0.1086
_refine_ls_wR_factor_ref         0.1113
_reflns_Friedel_coverage         0.885
_reflns_Friedel_fraction_full    0.947
_reflns_Friedel_fraction_max     0.939
_reflns_number_gt                1482
_reflns_number_total             1563
_reflns_threshold_expression     'I > 2\s(I)'
_cod_data_source_file            Derriksite_SN_60C_last.cif
_cod_data_source_block           derriksite_sn_60C
_cod_database_code               1566231
_chemical_oxdiff_formula         'Cu4 U Se2 O14'
_shelx_space_group_comment
;
The symmetry employed for this shelxl refinement is uniquely defined
by the following loop, which should always be used as a source of
symmetry information in preference to the above space-group names.
They are only intended as comments.
;
_reflns_odcompleteness_completeness 99.70
_reflns_odcompleteness_iscentric 1
_reflns_odcompleteness_theta     28.51
_olex2_refinement_description
;
1. Fixed Uiso
 At 1.5 times of:
  All O(H) groups
2. Restrained distances
 O9-H9
 1 with sigma of 0.02
 O8-H8
 0.98 with sigma of 0.02
 H8-O1_$3
 2.15 with sigma of 0.02
 H9-O5_$5
 2.15 with sigma of 0.02
 O7-H7
 0.9 with sigma of 0.02
 O10-H10
 0.9 with sigma of 0.02
3. Others
 Fixed Sof: H9(0.5)
;
_shelx_res_file
;
TITL Derriksite_SN_333K in Pmn2(1)
    derriksite_sn_333k.res
    created by SHELXL-2018/3 at 11:58:04 on 05-Sep-2020
REM Pmn2(1) (#31, found as Pnm2(1) in ba-c setting)
CELL 0.71073 5.978421 5.587391 19.125402 90 90 90
ZERR 2 0.000341 0.000443 0.00108 0 0 0
LATT -1
SYMM 0.5-X,-Y,0.5+Z
SYMM 0.5+X,-Y,0.5+Z
SYMM -X,+Y,+Z
SFAC Cu H O Se U
UNIT 8 12 28 4 2
EQIV $1 1+X,+Y,+Z
EQIV $2 0.5-X,-Y,-0.5+Z
EQIV $3 -X,+Y,+Z
EQIV $4 -1-X,+Y,+Z
EQIV $5 -0.5+X,1-Y,-0.5+Z
DFIX 1 O9 H9
DFIX 0.98 O8 H8
DFIX 2.15 H8 O1_$3
DFIX 2.15 H9 O5_$5
DFIX 0.9 O7 H7
DFIX 0.9 O10 H10

L.S. 20
PLAN  2
CONF
HTAB O7 O3_$3
HTAB O10 O5_$2
FREE Cu2 Cu3_$1
FREE Cu2 Cu3_$3
FREE Cu2 Cu3_$4
FREE Cu2 Cu3
FREE Cu1 Cu1_$4
list 4
MORE -1
BOND $H
fmap 2
acta
OMIT -4 55
REM <olex2.extras>
REM <HklSrc "%.\\Derriksite_SN_333K.hkl">
REM </olex2.extras>

WGHT    0.077000    1.339400
FVAR       1.00148
U1    5    0.500000    0.184185    0.606541    10.50000    0.01540    0.03365 =
         0.01335   -0.00523    0.00000    0.00000
SE1   4    0.000000   -0.140447    0.527347    10.50000    0.02089    0.03352 =
         0.01499    0.00249    0.00000    0.00000
SE2   4    1.000000    0.506434    0.689708    10.50000    0.02009    0.02933 =
         0.01497    0.00239    0.00000    0.00000
CU1   1   -0.250088    0.609310    0.361663    11.00000    0.00736    0.00879 =
         0.02216    0.00016    0.00161    0.00088
CU2   1    0.000000    0.113789    0.354058    10.50000    0.00605    0.00930 =
         0.02008   -0.00131    0.00000    0.00000
CU3   1   -0.500000    0.104353    0.356428    10.50000    0.00564    0.00883 =
         0.01985   -0.00241    0.00000    0.00000
O1    3    0.500000    0.452962    0.557111    10.50000    0.05740    0.05802 =
         0.02919    0.00208    0.00000    0.00000
O2    3    0.500000   -0.086307    0.655566    10.50000    0.06349    0.03158 =
         0.01939    0.01273    0.00000    0.00000
O3    3    0.217557    0.060309    0.534556    11.00000    0.03263    0.05452 =
         0.02347   -0.01212   -0.00503   -0.00749
O4    3    0.000000   -0.200225    0.441964    10.50000    0.01193    0.00490 =
         0.02150   -0.00167    0.00000    0.00000
O5    3    0.778492    0.310207    0.681981    11.00000    0.03130    0.03911 =
         0.02919   -0.00649   -0.00659   -0.00632
O6    3    1.000000    0.555281    0.774563    10.50000    0.01172    0.02893 =
         0.02107   -0.01218    0.00000    0.00000
O7    3   -0.254240    0.278698    0.402726    11.00000    0.00906    0.01340 =
         0.01941   -0.00127    0.00250   -0.00236
H7    2   -0.243969    0.281468    0.449468    11.00000   -1.50000
O8    3   -0.500000    0.724595    0.413633    10.50000    0.00666    0.01876 =
         0.01600   -0.00294    0.00000    0.00000
H8    2   -0.500000    0.632234    0.457407    10.50000   -1.50000
O9    3    0.000000    0.491155    0.308347    10.50000    0.00918    0.01910 =
         0.01218   -0.00145    0.00000    0.00000
H9    2    0.064860    0.560988    0.264480    10.50000   -1.50000
O10   3   -0.248098   -0.068553    0.312064    11.00000    0.00498    0.01657 =
         0.01734    0.00224   -0.00323   -0.00052
H10   2   -0.273576   -0.085933    0.266225    11.00000   -1.50000
HKLF 4




REM  Derriksite_SN_333K in Pmn2(1)
REM wR2 = 0.1113, GooF = S = 1.049, Restrained GooF = 1.047 for all data
REM R1 = 0.0448 for 1482 Fo > 4sig(Fo) and 0.0475 for all 1563 data
REM 123 parameters refined using 7 restraints

END

WGHT      0.0770      1.3394

REM Highest difference peak  1.239,  deepest hole -1.506,  1-sigma level  0.238
Q1    1   0.5000  0.4760  0.6084  10.50000  0.05    1.24
Q2    1   0.0000  0.1133  0.4729  10.50000  0.05    1.12
;
_shelx_res_checksum              14032
_shelx_hkl_file
;
   0   0 -26 1150.10 362.883   2
   0   0 -25 20.8938 86.8045   6
   0   0 -25 176.622 160.657   2
   0   0 -24 21528.1 843.836   6
   0   0 -24 16614.6 1248.25   2
   0   0 -23 231.147 153.849   2
   0   0 -23 533.432 153.047   6
   0   0 -22 365.745 192.590   2
   0   0 -22 504.366 127.725   6
   0   0 -21 4.99892 62.2994   6
   0   0 -21-48.6302 98.0622   2
   0   0 -20 11478.1 556.451   6
   0   0 -20 10702.5 874.001   2
   0   0 -19 241.408 107.505   6
   0   0 -18 5052.24 345.032   6
   0   0 -18 6308.35 403.326   1
   0   0 -17 170.090 80.5677   1
   0   0 -17 17.4953 59.3012   6
   0   0 -16 36441.2 955.920   1
   0   0 -16 27989.9 824.705   6
   0   0 -15 113.020 66.9572   6
   0   0 -15 61.0238 60.4926   1
   0   0 -14 4551.54 285.020   6
   0   0 -14 5338.10 323.382   1
   0   0 -13 88.3853 45.2358   1
   0   0 -13 189.618 77.4619   6
   0   0 -13 98.6930 63.2944   4
   0   0 -13 100.184 54.7046   3
   0   0 -12 94662.8 1630.90   6
   0   0 -12 101938. 1913.75   4
   0   0 -11 138.071 68.4818   6
   0   0 -11 46.8146 42.1064   1
   0   0 -11 74.0327 59.1971   4
   0   0 -10 735.342 94.7205   6
   0   0 -10 746.167 101.759   3
   0   0 -10 668.595 118.275   4
   0   0 -10 688.822 96.3220   1
   0   0  -9 3.53980 21.5935   4
   0   0  -9-11.5634 32.9540   3
   0   0  -9 89.8907 41.6077   6
   0   0  -9 45.2409 32.3746   1
   0   0  -8 18151.6 464.226   6
   0   0  -8 18779.6 479.864   1
   0   0  -8 19192.5 583.432   4
   0   0  -7 15.9841 27.2811   4
   0   0  -7 25.0551 21.8539   1
   0   0  -7 21.2212 28.7726   6
   0   0  -6 31472.5 596.431   1
   0   0  -6 31401.0 688.580   4
   0   0  -6 30022.4 573.636   6
   0   0  -5 33.4054 27.6376   1
   0   0  -5 53.2831 35.8882   6
   0   0  -4 99012.9 1301.08   1
   0   0  -3 11.9806 14.0691   1
   0   0   4 104584. 1492.25   4
   0   0   5 17.2590 26.7154   4
   0  -1 -26 377.479 218.467   2
   0   1 -26 434.730 157.603   6
   0   1 -25 896.953 185.637   6
   0  -1 -25 1011.38 320.042   2
   0   1 -25 570.291 279.822   2
   0  -1 -24 252.645 172.859   2
   0   1 -24 371.271 125.261   6
   0   1 -24 288.763 178.069   2
   0  -1 -23 3320.80 298.368   6
   0  -1 -23 2464.69 461.272   2
   0   1 -23 3172.41 323.103   6
   0   1 -23 2989.03 502.694   2
   0   1 -22 3074.41 311.563   6
   0  -1 -22 2328.56 442.479   2
   0  -1 -22 3137.48 282.731   6
   0  -1 -22 2638.24 321.455   5
   0   1 -22 2863.26 477.968   2
   0  -1 -21 2228.93 297.739   5
   0  -1 -21 2542.29 244.650   6
   0   1 -21 2533.75 433.106   2
   0   1 -21 2721.65 282.788   6
   0   1 -20 1241.03 190.652   6
   0   1 -20 903.885 251.789   2
   0  -1 -20 981.861 194.322   5
   0  -1 -20 1080.25 164.929   6
   0  -1 -19 9442.28 571.691   5
   0  -1 -19 10475.3 475.230   6
   0   1 -19 9582.31 790.531   2
   0   1 -19 10413.6 530.876   6
   0   1 -18 1471.73 193.152   6
   0   1 -18 1313.04 140.904   5
   0  -1 -18 1276.18 160.455   6
   0   1 -18 1189.14 286.410   2
   0   1 -17 2829.02 260.250   6
   0   1 -17 2599.09 387.359   2
   0   1 -17 3448.36 215.467   5
   0  -1 -17 2997.75 235.419   6
   0  -1 -16 8122.13 370.264   6
   0   1 -16 7252.77 404.982   6
   0   1 -15 11826.1 503.232   6
   0  -1 -15 12798.7 453.025   6
   0   1 -14 3163.98 185.224   5
   0  -1 -14 3085.52 213.035   6
   0  -1 -14 3753.56 319.844   1
   0  -1 -13 1873.35 155.996   6
   0  -1 -13 2312.90 242.329   1
   0   1 -13 2003.05 140.913   5
   0   1 -13 1933.80 180.441   3
   0  -1 -12 789.883 142.016   1
   0   1 -12 706.515 140.030   4
   0   1 -12 753.259 84.7339   5
   0  -1 -12 745.509 99.7636   6
   0   1 -11 11087.2 534.539   4
   0  -1 -11 9696.37 336.246   6
   0  -1 -11 10445.6 495.994   1
   0   1 -11 10266.6 308.078   5
   0  -1 -10 14585.6 570.381   1
   0   1 -10 13948.4 436.984   3
   0   1 -10 14084.4 354.660   5
   0  -1 -10 12990.3 379.042   6
   0   1  -9 15229.5 438.937   3
   0   1  -9 14293.6 348.936   5
   0  -1  -9 14095.3 377.734   6
   0  -1  -9 13933.4 558.286   1
   0  -1  -8 3765.46 174.266   6
   0   1  -8 4038.30 163.355   5
   0   1  -8 4019.29 208.650   3
   0  -1  -8 4375.22 294.113   1
   0  -1  -7 13613.7 523.849   1
   0   1  -7 13619.2 383.163   3
   0   1  -7 13932.7 317.665   5
   0  -1  -7 13347.5 336.821   6
   0  -1  -6 3002.65 138.626   6
   0   1  -6 3169.42 135.106   5
   0   1  -5 20544.9 392.987   5
   0  -1  -5 19901.2 401.310   6
   0  -1  -4 18063.4 490.001   5
   0  -1  -4 17889.2 362.951   6
   0   1  -4 18010.9 366.848   5
   0   1  -3 20715.5 417.320   5
   0  -1  -3 20871.0 534.016   5
   0  -1  -3 21358.3 400.484   6
   0  -1  -2 12960.9 302.869   6
   0  -1  -2 13530.7 403.782   5
   0  -1  -1 13657.8 401.429   5
   0  -1   0 2372.30 128.498   2
   0  -1   1 14875.8 386.359   5
   0  -1   1 16077.8 418.735   2
   0  -1   2 12205.6 308.162   5
   0  -1   3 24352.7 447.718   5
   0  -1   4 16988.0 394.372   3
   0  -1   4 17377.7 351.661   5
   0   1   4 16909.9 357.718   6
   0   1   5 22234.2 449.616   6
   0  -1   5 22717.1 424.160   5
   0  -1   5 22230.4 486.343   3
   0  -1   6 4488.75 206.677   3
   0  -1   6 4769.73 147.762   1
   0   1   6 4811.39 197.005   6
   0   1   7 15193.9 397.929   6
   0  -1   7 15823.1 425.912   3
   0  -1   7 15297.9 331.875   1
   0   1   8 5186.62 232.718   6
   0  -1   8 5303.86 247.341   3
   0  -1   8 5367.16 204.157   1
   0   1   8 5470.57 308.121   4
   0   1   9 16501.6 582.454   4
   0   1   9 14462.1 428.498   6
   0  -1   9 15660.2 412.988   1
   0  -1   9 15781.8 471.789   3
   0   1  10 17002.1 487.164   6
   0   1  10 18373.8 662.753   4
   0  -1  10 18195.6 501.985   1
   0  -1  10 18413.0 532.667   3
   0   1  11 10682.0 514.705   4
   0  -1  11 10849.3 416.971   1
   0  -1  11 10248.9 405.910   3
   0   1  12 781.071 149.723   4
   0   1  13 2757.18 288.491   4
   0   1  14 3452.35 343.369   4
   0   1  15 16699.4 791.737   4
   0   2 -26 1348.10 231.415   6
   0  -2 -26 1048.79 345.623   2
   0  -2 -25 1246.72 389.253   2
   0   2 -25 1433.19 240.767   6
   0   2 -24-74.5065 167.338   2
   0   2 -24 135.051 97.9119   6
   0   2 -23 631.781 156.431   6
   0  -2 -23 488.642 228.088   2
   0   2 -23 664.473 241.332   2
   0  -2 -23 775.849 194.877   5
   0   2 -22 1576.00 364.371   2
   0  -2 -22 1498.17 181.022   6
   0   2 -22 1126.34 196.097   6
   0  -2 -22 1303.55 248.995   5
   0  -2 -21 7691.34 407.999   6
   0  -2 -21 8561.20 627.795   5
   0   2 -21 7413.63 753.478   2
   0   2 -21 7147.47 477.373   6
   0  -2 -20 1283.40 244.646   5
   0   2 -20 1225.94 198.550   6
   0  -2 -20 1155.78 158.551   6
   0   2 -20 1576.15 333.420   2
   0  -2 -19 5143.27 451.045   5
   0   2 -19 5104.56 586.101   2
   0  -2 -19 5494.20 326.634   6
   0   2 -19 4655.45 367.882   6
   0  -2 -18 4749.61 297.817   6
   0  -2 -18 4939.99 426.733   5
   0   2 -18 4349.53 521.594   2
   0  -2 -17 9790.01 592.185   5
   0  -2 -17 9697.51 418.319   6
   0   2 -17 9794.98 743.244   2
   0   2 -17 9823.81 385.553   5
   0   2 -16 4063.53 238.871   5
   0   2 -16 4760.62 504.231   2
   0  -2 -16 4473.91 271.302   6
   0  -2 -16 3710.45 354.784   5
   0   2 -15 12116.0 421.652   5
   0  -2 -15 13548.7 656.090   5
   0  -2 -15 13581.0 470.877   6
   0   2 -15 13358.6 811.960   2
   0   2 -14 2574.16 182.045   5
   0  -2 -14 3597.57 334.287   5
   0  -2 -14 4031.10 242.945   6
   0   2 -14 3933.18 426.973   2
   0   2 -13 11514.7 702.631   2
   0  -2 -13 11014.1 565.443   5
   0  -2 -13 11870.2 415.720   6
   0   2 -13 12114.1 401.265   5
   0   2 -12 1415.15 239.416   2
   0   2 -12 1380.90 125.957   5
   0  -2 -12 1306.53 132.805   6
   0  -2 -12 1298.13 190.839   5
   0   2 -11 13660.1 420.500   5
   0  -2 -11 13251.1 591.105   5
   0  -2 -11 13596.3 428.172   6
   0   2 -11 14334.1 729.055   2
   0  -2 -10 8158.97 543.952   1
   0  -2 -10 8797.30 468.500   5
   0  -2 -10 8711.38 327.762   6
   0   2 -10 8365.70 317.731   5
   0   2  -9 44634.8 860.251   5
   0  -2  -9 46500.3 868.042   6
   0  -2  -9 45171.3 1134.48   5
   0   2  -8 5125.00 246.866   5
   0  -2  -8 5697.43 360.678   5
   0  -2  -8 5175.48 240.415   6
   0   2  -7 31180.7 694.825   5
   0  -2  -7 31510.8 896.343   5
   0  -2  -7 32237.7 671.846   6
   0  -2  -6 25315.6 581.195   6
   0   2  -6 26256.3 853.941   2
   0  -2  -6 25670.2 787.303   5
   0   2  -6 25259.3 621.516   5
   0  -2  -5 50405.2 1168.66   5
   0  -2  -5 50380.2 919.399   6
   0   2  -5 53193.9 1240.12   2
   0   2  -5 49469.9 974.568   5
   0  -2  -4 3501.32 202.043   6
   0   2  -4 3579.48 224.162   5
   0  -2  -4 3742.48 279.582   5
   0   2  -4 4149.02 306.298   2
   0  -2  -3 39833.7 982.746   5
   0   2  -3 40059.6 983.664   2
   0  -2  -3 37216.2 788.360   6
   0   2  -3 38516.9 882.488   5
   0   2  -2 15434.5 537.892   2
   0   2  -2 15523.0 539.749   5
   0  -2  -2 15114.1 568.758   5
   0  -2  -1 24293.0 727.210   5
   0   2  -1 23308.3 648.950   2
   0  -2  -1 24298.1 580.768   2
   0  -2   0 36.9230 44.8751   5
   0  -2   0 15.2787 25.4525   2
   0  -2   1 19734.0 595.540   2
   0  -2   1 20508.2 625.065   5
   0   2   2 12732.8 431.927   6
   0  -2   2 12861.0 470.741   5
   0  -2   2 13888.4 534.698   2
   0   2   3 44272.5 882.487   6
   0  -2   3 44788.9 922.685   5
   0   2   4 7408.55 296.538   6
   0  -2   4 7110.84 310.158   5
   0   2   5 46111.4 865.328   6
   0  -2   5 45047.5 874.946   5
   0   2   6 25278.5 590.936   6
   0  -2   6 25745.9 600.374   5
   0  -2   7 43286.9 831.490   5
   0   2   7 42544.7 840.203   6
   0  -2   7 44332.2 936.925   3
   0  -2   8 6832.05 338.594   3
   0   2   8 7254.02 304.796   6
   0  -2   8 7433.51 294.247   5
   0   2   9 49326.5 973.002   6
   0  -2   9 48342.3 1034.68   3
   0  -2   9 47572.9 893.940   5
   0  -2  10 10529.0 441.159   3
   0   2  10 10529.2 405.408   6
   0  -2  10 9589.49 285.165   1
   0  -2  11 21141.8 661.613   3
   0  -2  11 20383.6 470.767   1
   0   2  11 20803.9 608.542   6
   0   2  12 893.658 123.966   6
   0   2  12 751.751 154.341   4
   0  -2  12 886.551 96.7697   1
   0  -2  12 864.363 139.150   3
   0  -2  13 12864.7 429.394   1
   0  -2  13 12545.3 531.601   3
   0   2  13 11659.1 632.140   4
   0   2  14 4754.02 413.318   4
   0  -2  14 5170.51 350.364   3
   0   2  15 20774.4 913.040   4
   0  -2  15 21328.2 752.096   3
   0   2  16 4207.66 416.203   4
   0   2  17 8719.14 622.490   4
   0   2  18 7452.34 605.361   4
   0   2  19 9823.39 722.681   4
   0   2  20 1672.44 286.763   4
   0   3 -25 915.096 178.503   6
   0   3 -24 3582.62 374.591   6
   0  -3 -23-8.71278 80.0012   5
   0  -3 -23 150.437 152.627   2
   0   3 -23-16.4803 72.8887   6
   0   3 -23 53.7030 128.327   2
   0  -3 -22 3048.44 418.100   5
   0   3 -22 2499.62 479.870   2
   0   3 -22 2359.86 283.344   6
   0  -3 -22 1649.08 388.717   2
   0  -3 -21 902.960 228.846   5
   0   3 -21 961.163 297.837   2
   0   3 -20 1482.57 333.697   2
   0  -3 -20 1491.77 278.363   5
   0  -3 -20 1401.35 174.658   6
   0  -3 -19 284.508 87.5946   6
   0  -3 -19 187.493 110.930   5
   0   3 -19 143.252 127.089   2
   0   3 -18 204.547 120.425   2
   0  -3 -18 413.437 152.977   5
   0  -3 -18 434.080 100.070   6
   0   3 -17 782.586 239.890   2
   0  -3 -17 887.853 193.920   5
   0  -3 -17 1028.69 143.931   6
   0   3 -16 1925.22 340.197   2
   0  -3 -16 2007.82 283.804   5
   0  -3 -16 2093.62 199.179   6
   0   3 -15 767.238 219.856   2
   0  -3 -15 918.849 130.109   6
   0  -3 -15 1030.79 210.337   5
   0   3 -15 524.906 103.898   5
   0  -3 -14 6989.57 349.522   6
   0   3 -14 5843.33 334.449   5
   0   3 -14 6841.66 599.877   2
   0  -3 -14 6634.28 506.567   5
   0   3 -13 2887.54 230.188   5
   0   3 -13 3006.58 390.225   2
   0  -3 -13 3114.78 344.630   5
   0  -3 -13 3179.11 235.075   6
   0   3 -12 14044.1 525.819   5
   0   3 -12 14715.6 831.474   2
   0  -3 -12 14002.6 720.806   5
   0  -3 -12 14966.7 511.520   6
   0  -3 -11 1119.77 196.749   5
   0  -3 -11 1359.35 154.337   6
   0   3 -11 1163.41 226.980   2
   0   3 -11 1225.78 151.208   5
   0  -3 -10 7779.22 512.351   5
   0   3 -10 8499.12 587.076   2
   0   3 -10 6980.21 365.939   5
   0  -3 -10 7953.18 363.495   6
   0  -3  -9 1791.30 238.867   5
   0   3  -9 1873.77 269.077   2
   0  -3  -9 1744.40 171.943   6
   0   3  -9 1751.59 183.552   5
   0  -3  -8 3779.28 255.430   6
   0   3  -8 3986.70 282.769   5
   0  -3  -8 4349.41 364.924   5
   0   3  -8 4203.83 394.141   2
   0  -3  -7 85.1975 102.594   5
   0  -3  -7-10.0647 54.7068   6
   0   3  -7-30.0094 47.8231   5
   0   3  -6 1922.82 205.238   5
   0  -3  -6 1509.42 221.939   5
   0  -3  -6 1495.79 159.231   6
   0   3  -5 490.928 110.015   5
   0  -3  -5 518.984 136.904   5
   0   3  -4 4581.88 358.628   2
   0   3  -4 4904.29 354.010   5
   0  -3  -4 5395.75 399.150   5
   0  -3  -3 1149.25 126.035   2
   0  -3  -3 1462.02 211.309   5
   0   3  -3 1156.99 182.345   2
   0   3  -3 1491.32 198.692   5
   0  -3  -2 16250.1 510.556   2
   0  -3  -2 17349.0 716.431   5
   0   3  -2 16094.6 629.441   2
   0   3  -2 17406.1 716.609   5
   0  -3  -1 2751.23 281.189   5
   0   3  -1 2748.13 294.074   5
   0  -3  -1 2614.87 209.342   2
   0  -3   0 23067.0 814.293   5
   0  -3   0 22580.9 699.479   2
   0  -3   1 2556.14 255.146   5
   0  -3   1 2489.57 234.133   2
   0  -3   2 16920.9 660.484   5
   0   3   2 18056.8 644.230   6
   0  -3   3 2147.84 221.932   5
   0   3   3 2126.78 211.086   6
   0   3   4 3719.03 272.797   6
   0  -3   4 3401.06 276.111   5
   0   3   5 672.350 114.565   6
   0  -3   5 385.958 91.7088   5
   0   3   6 2243.95 199.788   6
   0  -3   6 2257.47 210.884   5
   0   3   7 0.66154 35.1531   6
   0  -3   7 38.7040 48.6783   5
   0  -3   8 3548.14 252.481   5
   0  -3   9 2426.27 210.082   5
   0  -3   9 2162.86 234.933   3
   0  -3  10 10233.7 516.860   3
   0  -3  10 10363.4 442.200   5
   0  -3  11 897.093 133.177   5
   0  -3  11 861.767 159.388   3
   0  -3  12 19249.5 729.596   3
   0  -3  12 19663.0 612.450   5
   0  -3  13 3504.25 181.956   1
   0  -3  13 5267.66 380.906   3
   0   3  14 8882.17 452.117   6
   0  -3  14 8261.89 500.405   3
   0   3  15 398.370 139.381   4
   0  -3  15 557.712 147.793   3
   0  -3  16 2478.34 288.749   3
   0   3  16 1949.03 314.830   4
   0   3  17 1065.55 231.519   4
   0  -3  17 1764.27 246.418   3
   0  -3  18 581.851 158.092   3
   0   3  18 658.858 199.869   4
   0   3  19 192.427 127.492   4
   0   3  20 1026.44 250.616   4
   0   3  21 1311.22 295.617   4
   0   3  22 4690.23 567.286   4
   0   3  23 69.0086 96.0010   4
   0  -4 -23 2459.66 392.073   5
   0  -4 -22 1916.01 340.756   5
   0   4 -22 1630.47 396.124   2
   0  -4 -21 2977.76 423.126   5
   0   4 -21 1837.98 398.790   2
   0   4 -20 2059.87 436.569   2
   0  -4 -20 3087.80 418.376   5
   0   4 -19 3527.17 531.846   2
   0  -4 -19 4163.98 476.097   5
   0  -4 -18 1630.67 299.973   5
   0  -4 -18 1518.14 183.970   6
   0   4 -18 1684.22 358.195   2
   0  -4 -17 4121.64 458.411   5
   0   4 -17 3879.03 520.941   2
   0  -4 -17 3647.54 285.789   6
   0  -4 -16 5136.16 501.134   5
   0   4 -16 4820.65 562.214   2
   0  -4 -16 4306.93 310.429   6
   0  -4 -15 3045.10 263.225   6
   0   4 -15 3107.16 443.249   2
   0  -4 -15 3482.51 405.740   5
   0  -4 -14 4893.79 331.114   6
   0   4 -14 5157.00 555.572   2
   0  -4 -14 4780.16 462.930   5
   0  -4 -13 1135.56 159.783   6
   0   4 -13 1370.01 287.740   2
   0  -4 -13 1747.32 281.936   5
   0  -4 -12 7903.93 425.954   6
   0  -4 -12 8001.03 596.118   5
   0   4 -12 8080.34 652.468   2
   0   4 -11 4886.89 495.332   2
   0  -4 -11 4854.81 335.841   6
   0  -4 -11 5098.94 462.354   5
   0   4 -10 11348.5 728.617   2
   0  -4 -10 12028.9 712.755   5
   0  -4  -9 5200.49 456.121   5
   0   4  -9 4816.57 462.721   2
   0   4  -8 17658.7 865.974   2
   0  -4  -8 18053.3 855.968   5
   0   4  -7 16158.1 810.285   2
   0  -4  -7 16371.0 809.755   5
   0  -4  -6 12686.8 691.888   5
   0   4  -6 12308.7 677.472   2
   0  -4  -5 4774.40 272.787   2
   0  -4  -5 6409.27 508.713   5
   0  -4  -4 18762.6 833.838   5
   0  -4  -4 14372.8 494.316   2
   0  -4  -3 13837.2 710.586   5
   0  -4  -3 11976.9 468.976   2
   0  -4  -2 13709.3 702.706   5
   0  -4  -2 11977.8 491.520   2
   0  -4  -1 3600.80 358.420   5
   0  -4  -1 3151.04 264.487   2
   0  -4   0 12147.1 657.041   5
   0  -4   1 4613.83 397.251   5
   0  -4   2 11314.3 606.041   5
   0  -4   3 12232.9 628.429   5
   0  -4   4 18356.0 765.355   5
   0  -4   5 9741.56 543.211   5
   0  -4   6 12880.8 609.969   5
   0   4   6 13604.2 603.886   6
   0   4   7 15542.5 642.348   6
   0  -4   7 14803.4 639.457   5
   0  -4   8 16691.0 677.949   5
   0  -4   9 6471.52 412.463   5
   0  -4  10 13515.2 599.763   5
   0  -4  10 11921.0 636.122   3
   0  -4  11 4552.83 392.402   3
   0  -4  11 4350.05 340.270   5
   0  -4  12 8966.38 567.933   3
   0  -4  12 10038.9 514.363   5
   0  -4  13 3325.05 349.254   3
   0  -4  13 3114.89 286.089   5
   0  -4  14 6534.51 491.318   3
   0  -4  15 3944.37 398.966   3
   0  -4  16 6162.27 510.036   3
   0  -4  17 6109.85 518.963   3
   0   4  17 4300.89 510.849   4
   0   4  18 1905.65 347.217   4
   0  -4  18 1924.65 304.548   3
   0  -4  19 4031.55 448.671   3
   0   4  19 3611.55 485.730   4
   0  -4  20 3237.70 411.935   3
   0   4  20 3803.95 502.469   4
   0  -4  21 3365.59 423.974   3
   0   4  21 3107.32 470.590   4
   0   4  22 1700.42 367.449   4
   0  -5 -21-56.1458 101.538   5
   0  -5 -20 1041.06 264.937   5
   0   5 -20 1295.95 352.538   2
   0   5 -19 453.998 234.084   2
   0  -5 -19 1150.74 284.433   5
   0   5 -18 4298.77 590.060   2
   0  -5 -18 4237.27 497.299   5
   0  -5 -17 747.869 203.869   5
   0   5 -17 761.199 256.388   2
   0   5 -16 845.740 258.466   2
   0  -5 -16 917.918 233.890   5
   0   5 -15 316.763 185.859   2
   0  -5 -15 654.077 182.722   5
   0  -5 -14 1884.60 309.627   5
   0   5 -14 2004.80 363.296   2
   0   5 -13 58.6929 108.822   2
   0  -5 -13 54.9731 89.3619   5
   0  -5 -12 782.804 214.525   5
   0   5 -12 515.439 211.822   2
   0  -5 -11 1010.53 219.868   5
   0   5 -11 1000.16 249.914   2
   0  -5 -10 769.999 212.617   5
   0   5 -10 518.106 176.115   2
   0  -5  -9 776.013 202.440   5
   0   5  -9 958.067 228.707   2
   0  -5  -8 6377.58 546.277   5
   0   5  -8 6043.43 550.085   2
   0   5  -7 2812.27 367.558   2
   0  -5  -7 3909.52 427.372   5
   0  -5  -6 7767.59 598.469   5
   0   5  -6 7070.04 557.565   2
   0  -5  -5 541.697 83.7842   2
   0  -5  -5 1275.53 250.714   5
   0   5  -5 1160.52 236.382   2
   0  -5  -4 2600.04 204.765   2
   0  -5  -4 3479.43 400.177   5
   0  -5  -3 2085.36 312.140   5
   0  -5  -2 2699.97 351.055   5
   0  -5  -1 263.838 128.591   5
   0  -5   0 53.3279 73.4259   5
   0  -5   1 361.942 137.612   5
   0  -5   2 1971.89 284.005   5
   0  -5   3 2421.73 312.376   5
   0  -5   4 3377.99 369.993   5
   0  -5   5 1474.57 248.153   5
   0  -5   6 7195.03 522.519   5
   0  -5   7 3648.05 363.287   5
   0  -5   8 6884.21 496.247   5
   0  -5   9 704.781 163.773   5
   0  -5  10 348.871 128.438   5
   0  -5  11 959.676 193.502   5
   0  -5  11 854.320 185.917   3
   0  -5  12 830.768 192.322   3
   0  -5  12 1347.20 232.442   5
   0  -5  13 200.166 88.6772   5
   0  -5  13 119.602 104.471   3
   0  -5  14 1276.68 244.683   3
   0  -5  14 1557.99 234.423   5
   0  -5  15 604.238 171.324   3
   0  -5  15 774.322 176.341   5
   0  -5  16 1508.32 276.770   3
   0  -5  17 896.524 231.629   3
   0  -5  18 4166.01 465.504   3
   0   5  18 4505.92 595.662   4
   0   5  19 1119.07 310.209   4
   0  -5  19 1474.81 295.379   3
   0  -5  20 1681.75 319.437   3
   0   5  20 1644.14 356.652   4
   0  -5  21 403.522 201.232   3
   0   5  21 664.742 245.227   4
   0  -5  22 1185.13 295.476   3
   0   6 -18 1184.07 354.631   2
   0   6 -17 252.078 177.041   2
   0  -6 -16-53.7321 102.599   5
   0   6 -16 103.989 111.184   2
   0  -6 -15 3776.34 482.683   5
   0   6 -15 3039.08 491.028   2
   0  -6 -14 4574.87 522.155   5
   0   6 -14 3741.16 533.267   2
   0   6 -13 1875.86 372.051   2
   0  -6 -13 2196.08 361.046   5
   0   6 -12 272.405 163.204   2
   0  -6 -12 542.733 206.581   5
   0  -6 -11 3892.39 485.344   5
   0   6 -11 3478.30 469.776   2
   0   6 -10 4327.01 521.378   2
   0  -6 -10 5800.60 569.367   5
   0   6  -9 3248.50 432.496   2
   0  -6  -9 3908.83 476.832   5
   0  -6  -8 722.828 219.346   5
   0  -6  -7 4053.05 476.662   5
   0  -6  -6 2809.74 394.574   5
   0  -6  -5 3018.93 402.097   5
   0  -6  -4 917.799 242.003   5
   0  -6  -3 10090.2 731.849   5
   0  -6  -2 10327.3 744.033   5
   0  -6  -1 7810.11 635.910   5
   0  -6   0 150.769 133.352   5
   0  -6   1 9014.30 665.863   5
   0  -6   2 10372.4 711.281   5
   0  -6   3 8133.19 627.891   5
   0  -6   4 798.431 208.402   5
   0  -6   5 3390.90 395.975   5
   0  -6   6 2390.96 327.364   5
   0  -6   7 3267.82 385.305   5
   0  -6   8 532.105 171.162   5
   0  -6   9 4403.95 440.580   5
   0  -6  10 6051.99 516.699   5
   0  -6  11 3588.41 399.071   5
   0  -6  11 2254.25 345.875   3
   0  -6  12 406.249 178.369   3
   0  -6  12 641.546 189.313   5
   0  -6  13 2914.44 363.469   5
   0  -6  13 1920.82 325.683   3
   0  -6  14 3764.87 464.659   3
   0  -6  15 2079.47 351.272   3
   0  -6  16-102.575 117.246   3
   0  -6  17 457.140 183.475   3
   0  -6  18 1377.38 296.925   3
   0  -7  -9 1239.36 300.240   5
   0  -7  -8 1194.14 305.347   5
   0  -7  -7 599.687 214.070   5
   0  -7  -6 33.3660 91.5540   5
   0  -7  -5 1432.67 298.889   5
   0  -7  -4 294.062 176.524   5
   0  -7  -3 898.108 258.386   5
   0  -7  -2 437.329 177.042   5
   0  -7  -1 1279.01 283.528   5
   0  -7   0 333.133 166.708   5
   0  -7   1 869.570 241.342   5
   0  -7   2 635.604 211.979   5
   0  -7   3 1121.76 262.099   5
   0  -7   4 184.630 139.355   5
   0  -7   5 843.972 241.823   5
   0  -7   6 189.729 142.757   5
   0  -7   7 390.043 194.871   5
   0  -7   8 178.390 157.045   5
   0  -7   9 808.444 221.684   5
   0  -7  10 239.246 118.741   5
   0  -7  11 133.716 129.260   5
   0  -7  11 85.9051 147.806   3
   0  -7  12 367.529 182.855   3
  -1   0 -27 1290.51 239.716   6
  -1   0 -26 208.754 132.832   6
  -1   0 -26 228.579 174.165   2
  -1   0 -25 646.598 159.649   6
   1   0 -25 450.221 143.020   2
   1   0 -24 46.7271 146.563   2
  -1   0 -24 90.5549 92.0579   6
   1   0 -23 638.371 231.296   2
  -1   0 -23 661.035 151.241   6
   1   0 -23 808.693 156.511   6
  -1   0 -22-5.00747 69.9225   6
   1   0 -22-6.43582 56.7041   6
   1   0 -21 9357.63 476.522   6
  -1   0 -21 8362.99 519.422   6
   1   0 -20 116.537 84.7210   6
  -1   0 -20 42.4851 58.8137   6
   1   0 -20-40.4366 93.6363   2
   1   0 -19 13638.0 601.970   5
  -1   0 -19 14015.5 638.230   6
   1   0 -19 13144.0 988.503   2
   1   0 -19 15444.1 586.352   6
   1   0 -18-28.1641 49.2078   5
   1   0 -18-62.9654 67.8867   2
  -1   0 -18 116.371 100.388   6
  -1   0 -18 98.4925 67.6305   1
   1   0 -18 161.448 83.4299   6
   1   0 -17 15264.5 620.777   5
  -1   0 -17 15722.1 645.845   6
   1   0 -17 15888.4 566.626   6
   1   0 -17 13524.1 945.001   2
   1   0 -16 18.2150 88.9416   2
  -1   0 -16 7.15858 58.9252   1
  -1   0 -16 56.2747 66.5735   6
   1   0 -16 73.6358 65.0345   6
   1   0 -16-11.2410 46.3357   5
   1   0 -15 7051.31 626.213   2
   1   0 -15 8682.00 431.566   1
  -1   0 -15 6887.47 435.157   4
  -1   0 -15 7035.69 397.821   6
   1   0 -15 7735.85 358.627   6
  -1   0 -15 9380.62 464.792   1
   1   0 -15 7305.97 388.762   5
   1   0 -14 65.0717 47.3401   1
   1   0 -14 28.0273 33.5716   6
   1   0 -14 29.7020 77.6137   2
  -1   0 -14 65.9816 42.5184   3
  -1   0 -14 82.1153 67.4666   1
   1   0 -14 17.9785 41.4787   5
  -1   0 -14 63.9002 70.2839   6
  -1   0 -14-5.12768 37.6378   4
   1   0 -13 832.568 118.132   5
   1   0 -13 897.448 125.766   1
   1   0 -13 803.285 105.732   6
  -1   0 -13 885.243 133.823   6
  -1   0 -13 966.093 148.273   4
  -1   0 -13 972.464 142.078   1
   1   0 -13 708.818 185.888   2
   1   0 -12 74.4753 50.7648   1
   1   0 -12-2.69730 27.6905   6
  -1   0 -12 50.0074 52.9880   6
   1   0 -12-19.0922 28.4247   5
  -1   0 -12 5.67668 27.2460   4
  -1   0 -12 45.9806 44.6544   1
   1   0 -12 15.8040 59.5931   2
   1   0 -12 8.65606 52.6406   4
   1   0 -11 953.722 111.791   5
   1   0 -11 942.681 98.6472   6
  -1   0 -11 848.313 121.200   1
  -1   0 -11 997.482 110.444   3
  -1   0 -11 1213.21 141.228   6
   1   0 -11 1049.61 122.753   1
   1   0 -11 1063.71 168.358   4
  -1   0 -11 876.327 126.893   4
   1   0 -11 790.689 197.521   2
   1   0 -10-26.8142 54.1896   2
  -1   0 -10 1.51210 26.4759   4
   1   0 -10-3.36493 35.4560   4
   1   0 -10 26.3390 39.6809   1
   1   0 -10 10.9083 27.4743   5
  -1   0 -10 69.4510 56.2506   6
  -1   0 -10-99.6971 45.4742   1
  -1   0 -10-7.52880 24.3584   3
  -1   0  -9 20732.2 588.123   4
   1   0  -9 19773.3 849.392   2
   1   0  -9 21534.1 558.126   1
   1   0  -9 19337.1 492.818   5
  -1   0  -9 21909.0 503.281   3
  -1   0  -9 21952.2 594.481   6
  -1   0  -8-3.16820 21.8454   4
   1   0  -8-38.7873 55.2999   2
  -1   0  -8 15.0436 19.2555   3
   1   0  -8 10.1953 20.5873   5
   1   0  -8 41.8732 35.7888   1
  -1   0  -8 53.1212 46.1268   6
   1   0  -7 33759.3 1036.07   2
  -1   0  -7 34482.5 724.378   6
  -1   0  -7 32889.7 678.518   4
   1   0  -7 34844.5 692.190   1
   1   0  -7 30421.8 572.909   5
  -1   0  -6-12.5718 19.7306   4
   1   0  -6-36.7880 58.1635   2
   1   0  -6 21.3380 31.3975   1
   1   0  -6 1.35686 12.8305   5
  -1   0  -6 83.1785 53.3404   6
  -1   0  -5 64127.7 1040.32   6
  -1   0  -5 61886.9 946.936   4
   1   0  -5 67292.2 1016.76   1
   1   0  -5 64409.0 829.760   5
   1   0  -4 10.7233 8.13441   5
  -1   0  -4 54.9596 35.1535   6
  -1   0  -3 23617.7 479.393   6
   1   0  -3 23906.1 351.996   5
   1   0  -3 24165.6 391.513   6
   1   0  -2-3.60639 8.86420   5
  -1   0  -2 19.7233 17.9445   6
   1   0  -2-0.02681 8.76543   6
  -1   0   1 3642.58 148.766   4
  -1   0   2-1.72928 23.4018   2
  -1   0   2 9.16433 15.1777   3
  -1   0   2 14.5076 15.5291   6
  -1   0   2-3.10316 13.4879   4
  -1   0   3 24120.5 456.951   3
  -1   0   3 25251.4 384.533   5
  -1   0   3 25926.2 673.202   2
  -1   0   3 26074.7 569.764   4
  -1   0   4-3.88442 26.6503   2
  -1   0   4-10.8006 17.5852   5
  -1   0   4 13.6326 23.4817   4
  -1   0   5 74104.5 1296.30   4
  -1   0   5 73970.0 1433.48   2
  -1   0   6 3.65418 34.3373   4
  -1   0   7 39783.3 953.909   4
  -1   0   7 36893.8 794.576   1
  -1   0   8 8.08025 37.6500   4
  -1   0   8 34.7623 37.0092   1
  -1   0   9 25334.0 810.085   4
  -1   0   9 23759.4 678.383   1
  -1   0  10 58.3743 43.8345   1
  -1   1 -27 250.563 124.323   6
   1  -1 -27 409.884 249.801   2
  -1   1 -26 2363.84 305.788   6
   1  -1 -26 1326.21 437.878   2
   1   1 -25 507.488 266.777   2
   1  -1 -25 501.842 263.548   2
  -1   1 -25 809.385 286.394   2
  -1   1 -25 660.175 157.389   6
  -1  -1 -25 543.267 145.779   6
  -1   1 -24 3646.30 582.370   2
  -1  -1 -24 3426.28 342.755   6
   1   1 -24 3489.12 609.083   2
   1  -1 -24 2948.07 600.072   2
   1   1 -24 4063.92 353.880   6
  -1   1 -24 3817.36 384.900   6
   1   1 -23 1273.49 355.976   2
   1   1 -23 1456.80 209.840   6
  -1   1 -23 1484.38 239.596   6
  -1  -1 -23 1198.17 206.162   6
   1  -1 -23 1215.07 370.305   2
   1   1 -22 2586.76 484.533   2
   1   1 -22 2854.19 283.449   6
  -1   1 -22 2789.23 317.354   6
   1  -1 -22 2724.03 520.672   2
  -1  -1 -22 2581.04 277.334   6
   1  -1 -21 2586.75 217.040   6
   1   1 -21 2691.14 272.480   6
  -1   1 -21 2021.49 259.783   6
  -1  -1 -21 2368.56 258.401   6
   1  -1 -21 2037.56 425.971   2
   1   1 -21 2292.13 434.792   2
   1  -1 -20 1915.20 274.604   5
   1  -1 -20 1729.99 167.891   6
  -1  -1 -20 2243.29 248.350   6
   1   1 -20 1257.95 318.130   2
  -1   1 -20 1531.28 224.427   6
   1   1 -20 1697.98 206.266   6
   1  -1 -20 1715.60 379.794   2
  -1   1 -19 290.373 97.0612   6
   1   1 -19 234.295 74.5568   6
   1  -1 -19 201.920 85.7806   5
   1   1 -19 27.4850 107.655   2
   1  -1 -19 333.158 78.7138   6
  -1  -1 -19 217.728 92.6212   6
   1  -1 -19 454.920 191.237   2
   1   1 -18 2391.56 171.848   5
  -1  -1 -18 3239.44 277.522   6
   1  -1 -18 3248.61 216.425   6
   1  -1 -18 2303.07 414.779   2
  -1   1 -18 3580.27 322.599   6
   1  -1 -18 3596.43 360.945   5
   1   1 -18 2968.32 258.069   6
   1   1 -18 2448.54 409.521   2
   1   1 -17 911.685 67.4257   5
  -1  -1 -17 1204.78 171.324   6
  -1   1 -17 1005.70 170.686   6
   1  -1 -17 1473.02 221.486   5
   1  -1 -17 674.031 239.196   2
   1  -1 -17 1165.70 128.792   6
   1   1 -17 1063.71 268.556   2
   1  -1 -16 3888.10 220.723   6
  -1  -1 -16 4091.71 290.247   6
   1   1 -16 4071.97 491.829   2
  -1   1 -16 3646.02 252.209   5
   1  -1 -16 3829.80 492.076   2
   1   1 -16 3201.11 131.633   5
   1  -1 -16 4583.10 390.296   5
  -1   1 -16 4178.89 327.756   6
   1   1 -15 1352.60 281.786   2
  -1   1 -15 1939.78 183.484   3
  -1  -1 -15 1996.22 252.516   1
   1   1 -15 1742.12 90.5343   5
  -1   1 -15 2012.51 224.218   6
   1  -1 -15 2031.31 253.905   5
   1  -1 -15 1856.45 145.454   6
  -1  -1 -15 2235.25 206.725   6
   1  -1 -15 1814.20 323.339   2
  -1   1 -15 1978.42 178.734   5
   1   1 -14 9413.29 228.187   5
  -1  -1 -14 10923.9 448.289   6
   1  -1 -14 10502.8 340.955   6
  -1   1 -14 10825.4 406.630   5
  -1  -1 -14 10911.9 575.522   1
  -1   1 -14 11080.0 511.538   6
   1  -1 -14 11361.8 578.045   5
  -1   1 -14 11057.5 564.339   4
   1  -1 -14 9878.64 722.250   2
   1   1 -14 9212.38 702.049   2
   1  -1 -13 3209.70 172.416   6
   1  -1 -13 3493.02 309.485   5
  -1   1 -13 3225.90 261.791   6
  -1  -1 -13 3132.77 308.891   1
  -1  -1 -13 3284.65 235.301   6
  -1   1 -13 3324.15 295.358   4
   1  -1 -13 2760.51 369.249   2
   1   1 -13 3119.25 114.743   5
  -1   1 -13 3433.77 216.858   5
   1   1 -13 2825.24 375.733   2
  -1   1 -12 15375.1 468.311   3
   1  -1 -12 16873.8 670.791   5
   1   1 -12 14332.4 278.844   5
   1  -1 -12 17465.0 641.956   1
   1   1 -12 14992.0 845.159   2
  -1   1 -12 15599.3 575.940   6
   1  -1 -12 15101.7 380.676   6
  -1  -1 -12 15807.8 512.535   6
   1  -1 -12 15562.7 836.710   2
  -1   1 -12 15940.2 471.713   5
   1  -1 -11 6114.82 214.970   6
  -1   1 -11 6661.32 354.878   6
   1   1 -11 6277.99 323.745   3
  -1   1 -11 6433.49 278.654   3
  -1  -1 -11 6189.25 305.817   6
   1  -1 -11 6379.38 507.013   2
  -1   1 -11 6535.93 282.108   5
   1   1 -11 5810.01 151.426   5
   1  -1 -11 6980.83 407.471   5
   1   1 -11 7739.92 461.961   4
   1  -1 -11 6409.73 372.227   1
  -1   1 -10 9491.98 325.814   3
  -1   1 -10 9451.27 336.815   5
   1  -1 -10 8943.15 246.810   6
  -1   1 -10 9616.11 412.950   6
   1  -1 -10 8837.36 573.009   2
   1  -1 -10 9663.08 469.950   5
   1  -1 -10 10256.8 451.700   1
  -1  -1 -10 9366.12 360.681   6
   1   1 -10 8553.46 188.714   5
  -1   1  -9 5980.68 241.749   3
   1  -1  -9 6388.37 447.541   2
  -1   1  -9 6331.27 265.812   5
   1  -1  -9 6029.55 184.242   6
   1  -1  -9 6572.28 346.765   1
  -1  -1  -9 6157.43 279.134   6
   1  -1  -9 6713.49 376.464   5
  -1   1  -8 7566.12 283.550   5
  -1   1  -8 7231.34 252.083   3
  -1  -1  -8 7556.15 299.849   6
   1  -1  -8 7380.96 378.904   5
   1  -1  -8 7720.27 364.795   1
   1  -1  -8 7214.92 186.126   6
   1  -1  -8 7246.51 448.425   2
   1  -1  -7 1972.77 82.6075   6
   1  -1  -7 1876.69 182.836   5
   1  -1  -7 2064.68 182.200   1
  -1  -1  -7 1996.62 146.281   6
   1  -1  -7 2013.96 217.277   2
  -1   1  -7 2095.63 141.247   5
   1  -1  -6 7535.06 350.719   5
   1  -1  -6 7222.36 386.191   2
  -1  -1  -6 7119.23 276.792   6
  -1   1  -6 8027.82 279.781   5
   1  -1  -6 7733.46 344.518   1
   1  -1  -6 8231.83 168.841   6
   1  -1  -5 3590.35 243.684   2
  -1  -1  -5 3535.39 180.315   6
   1  -1  -5 3637.72 220.563   1
   1  -1  -5 3007.97 214.492   5
  -1   1  -5 3505.72 179.240   5
   1  -1  -4 12449.1 403.572   2
   1  -1  -4 12316.1 411.373   5
   1  -1  -4 12392.2 403.284   1
  -1  -1  -4 11934.8 346.264   6
   1  -1  -3 17819.5 423.439   2
  -1  -1  -3 17512.3 429.281   6
   1  -1  -3 18074.7 476.878   1
   1  -1  -3 18158.9 481.271   5
  -1   1  -3 18750.2 331.278   1
  -1   1  -2 26685.2 464.467   1
  -1  -1  -2 26081.1 539.292   6
   1  -1  -2 25936.9 566.686   1
   1  -1  -2 26334.7 576.712   5
  -1  -1  -1 7759.33 259.193   6
   1  -1  -1 7440.22 257.820   1
  -1   1  -1 7837.75 235.659   1
   1  -1  -1 7622.54 271.015   5
   1  -1   0 29242.6 549.488   1
   1  -1   0 29735.6 578.351   5
  -1  -1   0 29462.6 588.177   6
  -1   1   0 29503.6 572.900   1
   1  -1   1 9092.38 243.222   1
  -1  -1   1 8940.61 304.580   6
  -1  -1   1 8368.61 384.352   2
   1  -1   1 8829.17 276.236   5
  -1   1   2 24776.1 476.952   2
  -1  -1   2 26081.0 761.714   2
   1  -1   2 24268.4 518.287   5
   1  -1   2 24616.1 420.407   1
  -1  -1   3 21071.7 424.108   5
  -1  -1   3 19205.0 461.455   3
  -1   1   3 19910.0 341.235   6
  -1  -1   3 21943.9 722.692   2
  -1   1   3 21489.4 454.216   2
   1  -1   3 21093.8 470.742   5
  -1   1   4 10518.8 395.562   5
  -1  -1   4 10793.4 264.706   5
  -1  -1   4 10912.1 348.494   3
  -1  -1   4 11009.6 538.165   2
   1  -1   4 11039.3 325.410   5
  -1  -1   5 4863.17 231.273   3
  -1  -1   5 5036.54 367.448   2
  -1   1   5 4932.16 272.699   5
   1  -1   5 4998.42 172.352   3
  -1  -1   5 5010.59 133.931   5
  -1   1   6 8792.71 370.292   5
  -1  -1   6 8813.55 521.600   2
   1  -1   6 8243.05 241.543   3
  -1  -1   6 8366.50 322.115   3
   1   1   7 2330.16 160.389   4
   1   1   7 2760.34 196.176   6
   1  -1   7 2439.97 135.868   3
  -1  -1   7 2818.19 192.511   3
   1   1   8 8809.78 344.367   4
   1   1   8 9422.63 381.388   6
  -1  -1   8 9331.04 368.044   3
  -1  -1   8 9188.60 327.365   1
   1  -1   8 8587.92 282.511   3
  -1   1   8 9620.66 475.031   4
   1  -1   9 5838.08 243.797   3
   1   1   9 6908.51 338.292   6
   1   1   9 5767.31 296.261   4
  -1  -1   9 6228.36 316.640   3
  -1   1   9 6967.03 414.191   4
  -1  -1   9 6611.34 293.590   1
  -1   1  10 12990.5 597.175   4
   1   1  10 11258.0 450.788   4
  -1  -1  10 11991.0 463.374   3
  -1  -1  10 12473.4 430.666   1
   1   1  11 6458.31 360.004   4
  -1  -1  11 6568.62 348.727   3
  -1  -1  11 6408.08 324.877   1
  -1   1  11 6388.18 435.335   4
  -1   1  12 21593.3 852.983   4
  -1  -1  12 21522.8 660.048   1
  -1  -1  12 20658.3 668.617   3
   1   1  12 20015.8 698.630   4
  -1   1  13 4611.31 399.103   4
   1   1  13 4268.89 301.030   6
  -1   1  14 13317.6 715.805   4
  -1   1  15 3296.94 370.789   4
  -1   1  16 5076.54 478.005   4
  -1   1  17 1264.68 251.839   4
  -1   2 -26 1664.94 261.690   6
   1  -2 -26 1092.17 322.034   2
  -1   2 -25 1068.17 207.603   6
   1   2 -25 1015.58 186.609   6
  -1   2 -24 1976.28 281.375   6
  -1  -2 -24 1776.12 280.365   5
  -1  -2 -24 2160.94 275.917   6
  -1   2 -24 2482.53 504.844   2
   1  -2 -24 1063.31 355.624   2
   1   2 -24 2164.25 454.890   2
   1   2 -24 1685.53 235.760   6
   1  -2 -23 1960.46 462.512   2
   1   2 -23 2357.01 275.878   6
  -1   2 -23 2122.69 291.837   6
   1   2 -23 2528.53 485.488   2
  -1  -2 -23 2457.87 279.939   6
  -1   2 -23 2759.20 501.622   2
  -1  -2 -23 2192.15 309.767   5
   1   2 -22 892.897 161.404   6
  -1  -2 -22 1173.34 225.864   5
  -1   2 -22 1173.20 206.417   6
   1   2 -22 952.640 285.405   2
  -1   2 -22 1132.31 324.893   2
  -1  -2 -22 1234.26 199.815   6
   1  -2 -22 1598.64 406.736   2
  -1  -2 -21 2490.96 264.092   6
  -1   2 -21 2112.54 284.973   6
  -1   2 -21 2396.08 457.769   2
   1  -2 -21 3234.51 424.374   5
   1  -2 -21 2136.45 454.396   2
   1   2 -21 1999.03 235.325   6
  -1  -2 -21 2382.82 308.185   5
   1   2 -21 2354.34 446.635   2
  -1   2 -20 1021.44 300.941   2
   1  -2 -20 1382.89 272.306   5
  -1  -2 -20 774.323 146.999   6
   1  -2 -20 1018.41 305.925   2
   1   2 -20 899.928 266.411   2
  -1   2 -20 553.950 152.124   6
  -1   2 -19 629.045 154.390   6
  -1  -2 -19 487.297 110.055   6
   1  -2 -19 455.882 84.1515   6
   1  -2 -19 594.111 173.338   5
   1  -2 -19 535.894 220.235   2
   1   2 -19 688.277 218.200   2
   1  -2 -18 935.482 213.137   5
  -1  -2 -18 712.004 132.554   6
   1  -2 -18 718.198 98.0447   6
   1   2 -18 624.376 202.978   2
  -1   2 -18 757.450 151.477   6
   1  -2 -18 584.408 232.237   2
   1  -2 -17 1013.42 281.657   2
   1   2 -17 759.548 226.756   2
  -1  -2 -17 835.838 138.584   6
   1  -2 -17 1224.54 243.689   5
   1  -2 -17 769.005 102.615   6
  -1   2 -17 795.475 159.905   6
   1  -2 -16 3342.93 380.776   5
   1  -2 -16 2724.29 179.962   6
   1  -2 -16 3078.98 440.069   2
  -1   2 -16 2410.44 260.621   6
  -1  -2 -16 2788.39 240.907   6
   1   2 -16 2709.04 146.271   5
   1   2 -16 2872.45 424.834   2
   1   2 -15 2605.51 149.190   5
   1  -2 -15 3384.24 370.633   5
   1  -2 -15 2699.26 171.953   6
  -1   2 -15 2921.13 226.988   5
   1  -2 -15 2838.72 421.043   2
   1   2 -15 3142.83 433.533   2
  -1  -2 -15 2738.26 233.005   6
  -1  -2 -14 7579.35 377.800   6
   1  -2 -14 7407.86 632.728   2
   1   2 -14 7690.80 655.940   2
   1  -2 -14 7355.20 280.467   6
   1  -2 -14 8961.43 589.163   5
  -1   2 -14 7745.80 366.162   5
   1   2 -14 7610.41 273.567   5
   1  -2 -13 5412.82 511.376   2
   1   2 -13 6045.23 566.727   2
  -1  -2 -13 5697.72 320.039   6
  -1   2 -13 6582.50 328.078   5
   1   2 -13 5808.46 245.051   5
   1  -2 -13 7371.72 518.106   5
   1  -2 -13 5590.98 234.855   6
  -1  -2 -12 9157.98 396.519   6
   1  -2 -12 7885.31 588.068   2
   1   2 -12 9474.52 695.663   2
  -1   2 -12 9585.65 390.089   5
   1   2 -12 8968.80 323.351   5
   1  -2 -12 10348.5 595.633   5
   1  -2 -12 8699.45 290.318   6
   1  -2 -11 13866.7 678.298   5
   1  -2 -11 11570.3 333.885   6
  -1   2 -11 12160.1 435.488   5
   1   2 -11 11523.4 382.579   5
   1   2 -11 12985.8 791.325   2
  -1  -2 -11 11704.4 442.065   6
   1  -2 -11 10046.8 635.388   2
   1  -2 -10 10227.1 564.685   5
  -1  -2 -10 8205.96 365.790   6
   1  -2 -10 8625.33 276.441   6
   1  -2 -10 7562.85 510.545   2
   1   2 -10 8887.54 340.929   5
  -1   2 -10 9106.90 366.236   5
   1   2  -9 5614.23 277.600   5
  -1   2  -9 5652.10 282.039   5
   1  -2  -9 6126.89 427.053   5
   1  -2  -9 5421.40 392.258   2
  -1  -2  -9 5594.87 292.880   6
   1  -2  -9 5690.14 217.626   6
   1  -2  -9 5229.53 390.348   1
   1   2  -8 3643.16 230.131   5
   1  -2  -8 3811.71 323.605   5
  -1  -2  -8 3656.90 231.965   6
   1  -2  -8 3616.58 309.666   1
   1  -2  -8 3141.06 270.169   2
   1  -2  -8 3670.73 174.109   6
  -1   2  -8 3651.38 224.814   5
   1   2  -7 3141.22 220.472   5
   1  -2  -7 3437.62 251.154   2
   1  -2  -7 3536.30 307.421   5
   1  -2  -7 3645.04 305.412   1
  -1  -2  -7 3538.24 224.014   6
  -1   2  -7 3609.63 224.619   5
   1  -2  -6 2469.96 249.781   1
   1   2  -6 2598.25 206.769   5
   1  -2  -6 2714.21 264.839   5
  -1  -2  -6 2660.70 188.534   6
   1  -2  -6 2375.81 178.146   2
  -1   2  -6 2676.74 188.252   5
   1  -2  -5 2120.39 230.926   5
   1  -2  -5 2268.28 232.517   1
   1   2  -5 2374.47 205.704   5
  -1  -2  -5 2268.45 176.794   6
  -1   2  -5 2317.71 178.229   5
   1  -2  -5 1979.71 126.936   2
  -1   2  -4 5279.45 271.702   5
   1  -2  -4 5153.16 347.656   5
  -1  -2  -4 5388.59 275.294   6
   1  -2  -4 4937.35 337.344   1
  -1  -2  -3 8259.89 338.580   6
   1  -2  -3 7592.77 411.071   1
   1  -2  -3 7891.86 422.604   5
   1  -2  -2 14114.6 542.712   5
  -1  -2  -2 14512.1 517.046   5
   1  -2  -2 12871.3 529.794   1
  -1  -2  -2 14902.3 476.768   6
  -1  -2  -1 10970.8 438.780   5
  -1  -2  -1 10881.6 416.902   6
   1  -2  -1 11230.4 459.037   5
   1  -2  -1 10088.8 453.211   1
  -1  -2   0 14622.6 497.734   6
   1  -2   0 13891.7 508.875   5
   1  -2   0 14082.4 512.969   1
  -1  -2   0 14014.6 557.804   2
  -1  -2   0 13892.8 502.754   5
   1  -2   1 11667.2 444.190   1
   1  -2   1 11816.0 447.085   5
  -1  -2   1 11833.3 449.423   5
  -1  -2   1 10797.1 519.403   2
  -1  -2   2 12008.4 448.131   5
  -1  -2   2 11076.8 551.928   2
   1  -2   2 11947.4 430.550   1
   1  -2   2 12365.6 446.370   5
  -1  -2   3 9913.29 397.828   5
   1  -2   3 9711.09 354.446   1
   1  -2   3 9474.91 381.904   5
  -1   2   3 9421.13 335.888   6
  -1  -2   3 8890.25 509.776   2
   1  -2   4 5392.43 232.294   1
  -1   2   4 5312.60 227.480   6
  -1  -2   4 5236.73 408.458   2
  -1  -2   4 4946.36 266.238   5
   1  -2   4 4980.14 271.866   5
   1  -2   5 2564.08 197.398   5
  -1  -2   5 2670.31 183.083   5
  -1   2   5 2794.89 148.005   6
   1   2   5 2729.36 201.368   6
  -1  -2   5 3044.19 319.139   2
  -1   2   5 2971.23 274.714   5
   1  -2   5 2865.16 142.397   1
  -1  -2   6 2511.12 205.443   3
   1   2   6 2558.63 196.938   6
  -1  -2   6 3040.58 332.378   2
  -1  -2   6 2548.85 163.939   5
  -1   2   6 2443.84 133.778   6
  -1   2   6 2827.51 271.791   5
   1  -2   6 2574.60 198.397   5
   1  -2   6 2364.00 100.577   1
   1  -2   7 3324.26 204.072   3
   1   2   7 3751.55 243.432   6
  -1  -2   7 4029.33 404.966   2
  -1   2   7 3685.12 320.018   5
  -1   2   7 3493.22 158.262   6
   1  -2   7 3458.10 230.015   5
  -1  -2   7 3442.85 174.040   5
  -1  -2   7 3306.53 249.426   3
   1  -2   8 4606.83 248.024   3
  -1  -2   8 4501.95 191.286   5
  -1   2   8 4360.73 185.123   6
   1  -2   8 4241.34 256.826   5
  -1  -2   8 4536.79 291.414   3
  -1  -2   9 6625.76 227.470   5
   1  -2   9 6652.98 307.012   3
  -1  -2   9 6866.11 365.683   3
  -1   2   9 6574.78 239.777   6
   1  -2  10 11114.7 416.083   3
  -1  -2  10 11241.6 491.383   3
  -1   2  10 10870.3 326.155   6
  -1   2  11 11414.6 347.538   6
   1  -2  11 12728.8 457.007   3
   1   2  11 13752.6 552.838   6
  -1  -2  11 12986.9 444.204   1
  -1  -2  11 13001.2 545.983   3
   1   2  11 11792.9 537.615   4
  -1  -2  12 11027.4 427.198   1
  -1   2  12 11786.2 666.586   4
   1   2  12 10409.6 519.226   4
   1   2  12 12018.9 533.112   6
   1  -2  12 11195.7 444.102   3
  -1  -2  12 10871.6 512.429   3
  -1  -2  13 8664.87 467.287   3
   1  -2  13 8230.12 395.152   3
  -1  -2  13 8890.59 395.328   1
   1   2  13 7930.90 468.489   4
  -1   2  13 8518.37 578.547   4
  -1   2  14 8729.34 606.776   4
   1   2  14 8491.85 505.366   4
   1  -2  14 8521.63 415.448   3
  -1  -2  14 9046.59 497.339   3
  -1   2  15 4195.60 439.919   4
   1   2  15 4079.55 370.363   4
  -1  -2  15 4362.44 355.468   3
   1   2  16 3724.67 370.973   4
  -1   2  16 3753.20 422.898   4
  -1  -2  16 3855.45 346.479   3
   1   2  17 912.853 195.411   4
  -1   2  17 1166.70 245.372   4
   1   2  18 633.847 172.538   4
  -1   2  18 952.354 231.853   4
  -1   2  19 490.177 170.328   4
  -1   2  20 1774.69 334.684   4
  -1   2  21 2624.22 426.024   4
   1   3 -25 354.235 127.957   6
  -1  -3 -24-93.9531 114.369   5
   1   3 -24-168.693 94.7425   6
  -1   3 -24 56.9304 87.5407   6
  -1  -3 -23 58.4604 84.7825   5
  -1   3 -23 235.293 188.345   2
  -1   3 -23 323.673 145.092   6
   1  -3 -22 150.896 116.831   5
  -1  -3 -22-14.7454 76.3177   5
  -1  -3 -22 183.401 68.2337   6
  -1   3 -22 197.732 184.154   2
  -1   3 -22 0.38673 75.3018   6
   1   3 -22 401.626 193.868   2
  -1  -3 -21 2738.12 362.824   5
  -1  -3 -21 3184.03 297.725   6
  -1   3 -21 2199.47 295.150   6
   1  -3 -21 3173.28 533.555   2
  -1   3 -21 3223.41 521.723   2
   1   3 -21 3577.28 550.328   2
  -1  -3 -20 880.942 163.953   6
  -1  -3 -20 728.966 186.591   5
   1  -3 -20 1285.98 275.618   5
  -1   3 -20 766.880 249.046   2
   1   3 -20 995.205 292.817   2
  -1   3 -20 462.555 128.652   6
   1  -3 -20 888.734 280.045   2
  -1  -3 -19 5567.85 488.242   5
   1  -3 -19 7033.82 717.475   2
  -1  -3 -19 6397.63 409.409   6
  -1   3 -19 7427.06 737.984   2
  -1   3 -19 5707.99 455.520   6
   1   3 -19 6759.56 714.181   2
   1  -3 -18 1206.35 258.915   5
  -1  -3 -18 877.543 157.009   6
   1   3 -18 962.061 289.776   2
  -1  -3 -18 780.255 188.471   5
   1  -3 -18 1161.60 302.422   2
  -1   3 -18 1346.55 322.845   2
  -1  -3 -17 6662.82 399.598   6
   1  -3 -17 5764.67 291.058   6
  -1  -3 -17 6337.44 493.831   5
  -1   3 -17 7667.62 692.594   2
   1   3 -17 7035.63 695.224   2
   1  -3 -17 7060.04 672.170   2
   1  -3 -16 435.396 166.475   2
  -1  -3 -16 434.344 142.291   5
   1   3 -16 443.185 180.987   2
  -1  -3 -16 379.176 105.774   6
   1  -3 -16 228.711 68.6616   6
   1  -3 -16 377.886 150.407   5
  -1   3 -16 393.455 176.230   2
   1  -3 -15 4224.77 451.805   5
   1   3 -15 3950.35 498.388   2
  -1   3 -15 3188.82 422.564   2
  -1  -3 -15 3422.20 275.013   6
   1  -3 -15 3876.87 441.303   2
  -1  -3 -15 2967.06 326.573   5
   1  -3 -15 2751.11 198.028   6
   1   3 -14 356.497 81.8919   5
  -1  -3 -14 410.550 130.010   5
   1  -3 -14 381.184 76.1310   6
  -1   3 -14 534.818 197.693   2
  -1  -3 -14 335.223 86.7237   6
   1  -3 -14 272.104 112.664   2
   1  -3 -14 592.269 176.299   5
   1   3 -14 492.094 188.882   2
  -1   3 -13 548.239 167.247   2
   1  -3 -13 389.610 128.099   2
  -1  -3 -13 515.756 108.226   6
   1   3 -13 390.719 166.096   2
  -1  -3 -13 444.448 131.393   5
   1  -3 -13 238.319 64.4030   6
   1   3 -13 249.373 72.4831   5
   1  -3 -13 565.261 153.855   5
   1  -3 -12 118.052 42.3194   6
   1   3 -12 152.888 56.4249   5
  -1   3 -12 134.352 97.2296   2
  -1  -3 -12 139.871 79.0990   5
  -1  -3 -12 168.705 70.8935   6
   1   3 -12 164.929 121.409   2
   1  -3 -12 218.927 95.5591   2
   1  -3 -12 228.481 122.754   5
  -1  -3 -11 343.390 107.331   5
   1  -3 -11 470.903 152.138   5
  -1  -3 -11 619.943 116.726   6
  -1   3 -11 477.743 148.908   2
   1   3 -11 187.911 65.2062   5
   1   3 -11 276.938 139.643   2
   1  -3 -11 248.202 95.1731   2
  -1  -3 -10 373.372 99.7170   6
   1   3 -10 320.428 149.970   2
  -1   3 -10 298.010 113.054   2
  -1  -3 -10 380.236 110.615   5
   1   3 -10 200.940 73.8281   5
  -1   3 -10 297.651 86.1027   5
   1  -3 -10 263.942 87.4885   2
   1  -3 -10 277.722 120.408   5
   1   3  -9 8652.47 458.079   5
   1  -3  -9 8983.94 582.459   5
  -1  -3  -9 7471.08 476.663   5
   1  -3  -9 7814.61 392.952   2
  -1  -3  -9 8785.85 414.715   6
  -1   3  -9 8911.31 425.900   5
  -1   3  -9 9268.10 560.044   2
   1   3  -9 9753.46 680.997   2
   1  -3  -8 1589.03 145.463   2
   1   3  -8 2342.45 326.402   2
   1   3  -8 2325.24 242.309   5
   1  -3  -8 2005.07 266.842   5
  -1  -3  -8 1978.40 242.673   5
  -1   3  -8 2087.72 206.850   5
  -1  -3  -8 1933.47 192.694   6
  -1   3  -8 2284.67 268.009   2
  -1   3  -7 16759.1 591.910   5
   1   3  -7 17928.7 902.605   2
  -1  -3  -7 15375.8 664.510   5
  -1  -3  -7 15847.9 563.051   6
   1   3  -7 16551.2 672.402   5
   1  -3  -7 16743.5 767.016   5
   1   3  -6 2389.58 251.741   5
  -1   3  -6 2215.11 216.815   5
  -1  -3  -6 2077.16 238.917   5
   1  -3  -6 2125.95 269.921   5
  -1  -3  -6 2458.37 217.758   6
  -1   3  -5 21172.2 704.690   5
  -1  -3  -5 19868.4 757.589   5
  -1   3  -5 20965.9 719.896   2
   1  -3  -5 21936.5 992.309   1
  -1  -3  -5 21105.3 671.323   6
   1   3  -5 20960.0 806.205   5
   1  -3  -5 21148.6 861.414   5
   1   3  -4 1656.26 233.413   5
  -1   3  -4 1488.32 180.738   5
  -1  -3  -4 1222.87 186.792   5
  -1  -3  -4 1355.26 167.926   6
   1  -3  -4 1295.21 206.234   5
  -1   3  -4 1602.78 184.083   2
   1  -3  -4 1506.29 249.617   1
  -1  -3  -3 9702.94 514.785   5
  -1   3  -3 10355.2 443.779   2
  -1   3  -3 9860.52 487.190   5
  -1  -3  -3 10109.9 469.793   6
   1  -3  -3 10165.6 558.991   5
   1  -3  -3 9982.15 644.977   1
  -1   3  -2 971.770 126.269   2
  -1  -3  -2 751.194 146.597   5
   1  -3  -2 822.859 157.321   5
   1  -3  -2 980.240 187.657   1
  -1  -3  -1 1116.95 179.222   2
  -1  -3  -1 1048.50 170.727   5
   1  -3  -1 1117.17 179.163   5
  -1   3  -1 1161.94 124.641   2
   1  -3  -1 1288.71 225.593   1
  -1  -3   0 25.7589 47.2836   2
  -1   3   0 24.1095 24.7241   2
   1  -3   0-50.4808 105.991   1
  -1  -3   0 5.02691 53.4722   5
   1  -3   0 36.1771 47.8206   5
  -1  -3   1 1895.43 217.016   5
  -1  -3   1 1646.21 224.625   2
   1  -3   1 1563.26 198.691   5
   1  -3   2 956.105 157.124   5
  -1  -3   2 882.177 167.550   2
  -1  -3   2 1038.75 158.493   5
  -1  -3   3 9305.76 469.995   5
  -1   3   3 9882.03 438.763   6
   1  -3   3 9455.69 468.869   5
  -1  -3   3 9544.62 586.324   2
  -1  -3   4 1687.41 196.717   5
  -1  -3   4 1988.06 277.127   2
   1  -3   4 1740.42 198.113   5
  -1   3   4 1926.89 186.426   6
  -1  -3   5 22138.7 718.350   5
  -1   3   5 23390.0 651.729   6
  -1  -3   5 21770.5 955.309   2
   1  -3   5 21022.7 707.710   5
  -1   3   6 3063.07 340.640   5
  -1  -3   6 2962.34 243.501   5
  -1  -3   6 3203.03 375.687   2
   1  -3   6 2899.96 247.417   1
  -1   3   6 3021.82 211.592   6
   1   3   6 2915.25 252.869   6
   1  -3   6 2834.08 249.609   5
  -1   3   7 17581.1 520.509   6
   1  -3   7 17258.3 557.020   1
  -1  -3   7 18924.3 607.537   5
   1  -3   7 18341.0 644.077   5
   1   3   7 18713.2 650.026   6
  -1  -3   8 2129.61 186.455   5
  -1  -3   8 1825.28 224.603   3
  -1   3   8 2196.15 167.425   6
   1   3   8 2457.59 236.551   6
   1  -3   8 1503.16 127.439   1
   1  -3   8 2300.67 221.224   5
   1  -3   9 9054.15 433.210   3
  -1   3   9 9123.25 339.856   6
  -1  -3   9 8616.38 491.206   3
   1  -3   9 9532.78 453.088   5
   1   3   9 9515.77 466.178   6
  -1  -3   9 8930.88 363.431   5
   1  -3  10 503.608 110.687   5
  -1  -3  10 488.254 85.7525   5
  -1   3  10 520.900 84.0149   6
  -1  -3  10 380.511 107.306   3
   1  -3  10 382.036 100.746   3
  -1  -3  11 673.494 151.173   3
   1  -3  11 572.505 114.169   3
  -1  -3  11 543.668 90.4296   5
   1  -3  11 633.339 127.479   5
  -1   3  11 608.925 95.8119   6
  -1   3  12 176.753 51.0319   6
   1  -3  12 223.994 90.5246   3
  -1  -3  12 260.752 100.749   3
  -1  -3  12 162.155 51.6760   5
  -1  -3  13 368.238 128.502   3
  -1   3  13 471.815 88.2753   6
   1  -3  13 591.272 136.235   3
   1  -3  14 338.425 104.785   3
  -1  -3  14 294.555 114.232   3
   1   3  14 342.391 133.642   4
  -1   3  14 391.574 78.4494   6
   1   3  15 3576.23 367.829   4
  -1   3  15 3858.41 452.694   4
   1  -3  15 4230.26 336.946   3
  -1  -3  15 4024.99 373.499   3
  -1   3  16 539.917 177.886   4
  -1  -3  16 499.433 155.823   3
   1   3  16 434.278 149.965   4
   1  -3  16 353.981 127.977   3
   1   3  17 8518.34 610.428   4
  -1   3  17 8492.64 697.597   4
   1  -3  17 8777.71 521.602   3
  -1  -3  17 9764.88 618.650   3
   1   3  18 1386.75 258.109   4
  -1   3  18 1072.71 276.017   4
  -1  -3  18 1656.20 281.323   3
  -1  -3  19 9440.27 639.173   3
   1   3  19 8851.06 666.895   4
  -1   3  19 8319.49 731.714   4
  -1   3  20 1112.00 295.341   4
   1   3  20 939.238 238.866   4
  -1   3  21 4209.96 555.283   4
   1   3  21 5075.96 543.512   4
  -1   3  22 587.306 228.021   4
  -1   3  23 1114.59 308.712   4
  -1   3  24 203.502 167.280   4
  -1  -4 -24 1502.72 295.227   5
  -1  -4 -23 81.1840 131.203   5
   1  -4 -22 2417.57 416.388   5
  -1  -4 -22 1640.08 289.537   5
  -1   4 -22 1304.94 252.352   6
  -1   4 -22 1389.03 398.725   2
   1   4 -21 478.913 227.709   2
  -1  -4 -21 528.064 168.889   5
   1  -4 -21 877.723 275.022   5
  -1   4 -21 315.811 203.962   2
  -1  -4 -20 954.491 223.446   5
   1   4 -20 1064.60 346.126   2
  -1  -4 -20 1104.25 186.969   6
  -1   4 -20 959.021 293.565   2
   1  -4 -20 1379.37 300.137   5
  -1  -4 -19-69.2432 87.3852   5
  -1  -4 -19-3.16546 75.2948   6
   1   4 -19 207.030 175.841   2
   1  -4 -19-76.9234 93.2327   5
  -1   4 -19-315.739 184.357   2
   1  -4 -18 2555.04 387.208   5
  -1  -4 -18 1746.36 226.319   6
   1   4 -18 1989.22 429.656   2
  -1   4 -18 1772.87 362.035   2
  -1  -4 -18 2015.51 313.298   5
   1   4 -17 1162.17 302.079   2
  -1  -4 -17 1104.11 179.160   6
  -1  -4 -17 650.335 188.295   5
  -1   4 -17 770.699 235.010   2
   1  -4 -17 620.654 196.519   5
   1   4 -16 2043.77 378.728   2
  -1   4 -16 1575.37 333.188   2
   1  -4 -16 2637.93 391.456   5
  -1  -4 -16 1661.88 272.040   5
  -1  -4 -16 1940.64 227.966   6
   1   4 -15 1362.31 325.305   2
  -1  -4 -15 1055.04 174.687   6
   1  -4 -15 1619.05 297.872   5
  -1   4 -15 1227.17 277.717   2
   1  -4 -15 1083.14 190.017   2
  -1  -4 -15 1159.76 231.619   5
   1  -4 -14 4806.35 493.492   5
  -1  -4 -14 3056.98 370.408   5
  -1  -4 -14 3607.61 315.529   6
   1  -4 -14 2866.50 285.073   2
  -1   4 -14 3374.57 434.838   2
   1   4 -14 4922.60 566.685   2
   1  -4 -13 468.986 183.403   5
   1   4 -13 775.005 234.928   2
  -1  -4 -13 492.347 159.145   5
  -1  -4 -13 516.249 127.379   6
   1  -4 -13 453.330 99.1719   2
  -1   4 -13 653.026 199.350   2
   1   4 -12 5490.76 405.961   5
  -1  -4 -12 4855.25 352.394   6
   1   4 -12 4755.34 537.333   2
  -1   4 -12 4637.04 474.054   2
   1  -4 -12 6116.70 544.054   5
  -1  -4 -12 4316.19 424.650   5
   1  -4 -12 3113.04 244.400   2
   1   4 -11 748.511 226.692   2
  -1  -4 -11 632.055 167.522   5
   1  -4 -11 332.503 68.1134   2
   1  -4 -11 946.585 217.925   5
  -1  -4 -11 707.103 149.401   6
   1   4 -11 543.035 137.419   5
  -1   4 -11 554.795 164.344   2
   1   4 -10 4663.62 389.716   5
  -1  -4 -10 4663.30 340.737   6
  -1   4 -10 3401.94 387.340   2
   1  -4 -10 4776.57 461.884   5
  -1  -4 -10 3964.91 389.225   5
   1   4 -10 5134.00 539.204   2
   1  -4  -9 2175.55 312.019   5
   1   4  -9 1798.27 316.030   2
  -1  -4  -9 1511.13 245.474   5
   1   4  -9 1770.72 250.821   5
  -1   4  -9 1297.84 245.119   2
  -1  -4  -9 1681.63 212.921   6
  -1  -4  -8 1660.55 216.023   6
  -1   4  -8 1362.54 233.518   2
   1  -4  -8 1972.08 302.570   5
   1   4  -8 1625.21 242.033   5
  -1  -4  -8 1712.93 249.771   5
   1   4  -8 1434.07 278.692   2
   1  -4  -7 403.872 138.909   5
   1   4  -7 218.707 113.257   2
  -1   4  -7 312.422 116.318   2
  -1  -4  -7 256.056 120.706   5
   1   4  -7 289.320 113.485   5
  -1  -4  -7 425.175 112.782   6
  -1  -4  -6 4809.35 414.915   5
   1   4  -6 5282.01 451.598   5
   1  -4  -6 5268.41 470.376   5
  -1  -4  -6 5173.06 371.192   6
   1   4  -6 5012.44 483.391   2
   1  -4  -5 1344.87 238.238   5
  -1  -4  -5 1375.57 219.961   5
   1  -4  -4 3178.91 360.856   5
  -1   4  -4 3253.63 288.669   2
  -1  -4  -4 2491.16 268.337   2
  -1  -4  -4 2763.92 317.960   5
  -1  -4  -3 3561.54 351.963   5
  -1   4  -3 3974.48 304.456   2
   1  -4  -3 3583.00 369.325   5
  -1  -4  -3 2889.10 301.260   2
   1  -4  -2 8201.96 549.945   5
  -1  -4  -2 9810.81 580.781   5
  -1  -4  -2 7853.34 499.767   2
  -1   4  -2 8694.49 462.425   2
  -1  -4  -1 1054.47 185.973   2
   1  -4  -1 866.918 188.433   5
  -1  -4  -1 1110.48 203.855   5
  -1  -4   0 12318.0 655.831   5
  -1  -4   0 12104.7 633.855   2
   1  -4   0 11704.6 646.743   5
   1  -4   1 936.043 185.413   5
  -1   4   1 1312.89 191.648   6
  -1  -4   1 1232.66 206.542   5
  -1  -4   1 1002.36 203.271   2
  -1   4   2 9167.06 501.440   6
  -1  -4   2 9049.01 600.201   2
  -1  -4   2 10012.7 563.706   5
   1  -4   2 9011.48 548.221   5
  -1  -4   3 3947.08 400.258   2
  -1  -4   3 3926.69 355.893   5
  -1   4   3 3289.60 299.335   6
   1  -4   3 3683.58 341.036   5
  -1  -4   4 2883.17 292.575   5
   1  -4   4 3104.08 308.949   5
  -1  -4   4 3137.05 370.264   2
   1  -4   5 1753.51 229.590   5
  -1  -4   5 1660.98 221.653   5
  -1  -4   6 4781.84 364.639   5
   1  -4   6 4720.10 374.409   5
  -1  -4   7 406.502 103.769   5
   1  -4   7 592.933 138.436   5
   1  -4   7 373.900 115.123   1
  -1  -4   8 2209.98 230.676   5
   1  -4   8 1402.71 195.547   1
   1  -4   8 1857.04 237.470   5
   1  -4   9 1576.32 215.497   5
  -1  -4   9 1786.49 205.060   5
  -1  -4   9 1518.03 241.233   3
   1  -4   9 824.181 135.153   1
  -1  -4  10 4750.42 415.805   3
   1  -4  10 4527.95 363.306   3
  -1  -4  10 5401.29 346.396   5
   1  -4  10 5269.83 394.490   5
  -1  -4  11 680.498 126.714   5
   1  -4  11 45.4974 32.3390   1
  -1  -4  11 412.959 148.024   3
   1  -4  11 602.771 133.768   3
   1  -4  11 563.738 136.362   5
   1  -4  12 5564.01 424.668   3
  -1  -4  12 6255.97 496.924   3
  -1  -4  12 6256.13 368.294   5
   1  -4  12 5620.50 423.075   5
  -1  -4  13 587.762 116.929   5
   1  -4  13 601.339 139.560   3
  -1  -4  13 863.394 204.354   3
   1  -4  13 469.038 137.791   5
  -1  -4  14 4921.22 314.857   5
   1  -4  14 5586.61 423.290   3
  -1  -4  14 4153.57 433.000   3
   1  -4  15 1680.33 257.992   3
  -1  -4  15 2069.88 307.207   3
  -1  -4  16 2903.95 375.446   3
   1  -4  16 2304.97 279.552   3
  -1  -4  17 1018.31 225.879   3
   1  -4  17 896.556 201.894   3
   1   4  17 907.699 229.114   4
  -1   4  17 1142.62 274.358   4
  -1  -4  18 2782.68 366.057   3
   1   4  18 2394.32 358.207   4
  -1   4  18 2521.70 416.252   4
   1  -4  18 2643.67 319.457   3
   1  -4  19 163.272 134.038   3
  -1  -4  19-28.0592 132.243   3
   1   4  19-89.0435 82.0460   4
  -1   4  19 83.1163 135.206   4
   1  -4  20 1868.91 284.228   3
  -1  -4  20 1796.25 324.182   3
  -1   4  20 1080.65 295.922   4
  -1   4  21 497.489 222.384   4
  -1  -4  21 944.272 244.104   3
  -1   4  22 2723.65 485.387   4
  -1   4  23-105.335 139.295   4
  -1   4  24 1768.25 404.195   4
   1  -5 -21 502.133 200.957   5
  -1  -5 -20 166.006 139.073   5
   1  -5 -20 558.074 214.490   5
  -1   5 -20 173.120 165.855   2
   1   5 -19 237.299 172.708   2
   1  -5 -19 542.863 218.452   5
  -1  -5 -19 490.624 187.587   5
  -1   5 -19-181.086 168.478   2
   1   5 -18 35.8633 133.051   2
  -1  -5 -18 100.401 87.6745   6
   1  -5 -18 379.884 176.273   5
  -1  -5 -18-6.93814 101.510   5
   1   5 -17 292.307 177.137   2
  -1  -5 -17 99.8231 114.583   5
  -1   5 -17 151.075 133.154   2
  -1  -5 -17 109.852 87.0285   6
   1  -5 -16 572.838 216.805   5
   1   5 -16 537.429 215.270   2
  -1  -5 -16 382.377 142.191   5
  -1   5 -16 194.395 123.188   2
  -1  -5 -16 309.440 97.3602   6
   1   5 -15 1442.41 328.097   2
  -1  -5 -15 1511.09 228.801   6
  -1  -5 -15 1374.18 268.862   5
   1  -5 -15 2362.13 380.720   5
  -1   5 -15 1509.03 338.266   2
   1   5 -14 1621.14 375.220   2
  -1  -5 -14 1517.04 233.292   6
  -1   5 -14 1348.51 288.481   2
   1  -5 -14 2220.76 364.839   5
  -1  -5 -14 1556.53 287.995   5
   1  -5 -13 3964.93 467.999   5
  -1  -5 -13 3441.42 418.203   5
   1   5 -13 3868.73 534.882   2
  -1   5 -13 2680.49 410.396   2
  -1  -5 -13 3206.63 323.181   6
   1  -5 -12 903.987 231.131   5
  -1  -5 -12 663.984 186.356   5
  -1   5 -12 809.919 233.379   2
   1   5 -12 595.186 240.659   2
   1  -5 -11 4189.86 478.858   5
  -1   5 -11 4229.52 464.817   2
  -1  -5 -11 4420.67 460.292   5
   1   5 -11 4194.76 520.052   2
  -1  -5 -10 2044.83 321.203   5
   1  -5 -10 2367.51 358.601   5
   1   5 -10 1490.33 342.989   2
  -1   5 -10 1669.55 290.546   2
   1  -5  -9 2592.89 371.667   5
   1   5  -9 1777.02 355.352   2
  -1  -5  -9 2235.65 334.299   5
  -1   5  -9 1890.07 301.790   2
  -1  -5  -8 493.057 173.768   5
   1  -5  -8 467.959 162.952   5
  -1   5  -8 496.031 164.765   2
   1   5  -8 229.133 142.434   2
  -1   5  -7 746.366 168.538   2
  -1  -5  -7 1214.23 251.817   5
  -1  -5  -7 549.401 145.458   2
   1  -5  -7 1064.39 240.768   5
  -1   5  -6 236.385 107.702   2
  -1  -5  -6 200.020 94.6129   2
   1  -5  -6 217.241 125.986   5
  -1  -5  -6 188.208 116.697   5
  -1  -5  -5 189.989 85.7957   2
   1  -5  -5 50.7095 84.7262   5
  -1  -5  -5 283.007 113.593   5
  -1  -5  -4 357.053 157.397   5
   1  -5  -4 368.170 158.621   5
  -1  -5  -4 392.211 116.490   2
  -1  -5  -3 3682.06 398.841   5
  -1  -5  -3 3000.91 309.193   2
   1  -5  -3 4195.67 437.278   5
   1  -5  -2 2486.72 331.665   5
  -1  -5  -2 2538.11 334.231   5
  -1  -5  -2 1845.22 248.649   2
  -1  -5  -1 5369.79 476.655   5
  -1  -5  -1 4749.59 413.401   2
   1  -5  -1 5079.23 473.837   5
   1  -5   0 1118.85 222.518   5
  -1  -5   0 1605.34 262.556   5
  -1  -5   0 1719.13 256.600   2
  -1  -5   1 5653.11 483.334   5
  -1  -5   1 5540.72 462.083   2
   1  -5   1 4959.62 464.076   5
  -1  -5   2 2310.88 310.541   5
   1  -5   2 2136.17 301.501   5
   1  -5   3 3860.35 398.907   5
  -1  -5   3 3830.66 392.460   5
   1  -5   4 222.297 114.688   5
  -1  -5   4 435.788 133.314   5
   1  -5   5 176.504 105.794   5
  -1  -5   5 52.0671 70.1844   5
  -1  -5   6 341.094 122.758   5
   1  -5   6 236.764 109.708   5
   1  -5   7 1115.28 217.310   5
  -1  -5   7 937.214 187.754   5
   1  -5   8 941.711 205.886   5
  -1  -5   8 486.806 127.953   5
  -1  -5   9 2357.98 279.478   5
   1  -5   9 2080.23 287.661   5
  -1  -5  10 1721.76 285.554   3
  -1  -5  10 2416.94 277.348   5
   1  -5  10 2266.51 304.094   5
  -1  -5  11 3595.96 425.279   3
   1  -5  11 3319.51 360.969   3
   1  -5  11 4372.68 417.456   5
  -1  -5  11 4545.31 375.541   5
   1  -5  12 651.540 186.115   5
  -1  -5  12 758.726 163.840   5
  -1  -5  12 586.758 185.962   3
   1  -5  12 632.084 158.940   3
   1  -5  13 4553.75 431.243   5
   1  -5  13 3427.82 381.328   3
  -1  -5  13 3587.52 430.750   3
  -1  -5  13 4700.47 380.579   5
   1  -5  14 1701.12 277.208   5
   1  -5  14 1429.17 260.380   3
  -1  -5  14 1171.09 262.431   3
   1  -5  15 1703.24 268.594   3
  -1  -5  15 1943.17 330.756   3
   1  -5  16 128.972 119.817   3
  -1  -5  16 533.493 218.766   3
   1  -5  17 177.439 103.320   3
  -1  -5  17 470.140 180.810   3
  -1   5  18-59.0574 136.440   4
  -1  -5  18-6.11906 128.257   3
   1  -5  18 274.114 144.155   3
   1   5  18 255.379 150.203   4
   1  -5  19 313.553 149.794   3
  -1  -5  19 231.124 149.544   3
  -1   5  19 245.045 186.310   4
   1  -5  20 504.051 197.207   3
  -1  -5  20 120.406 142.102   3
  -1   5  20 312.799 214.270   4
  -1   5  21 852.004 280.987   4
  -1   6 -18 645.588 252.208   2
  -1   6 -17 687.779 247.901   2
   1   6 -17 1323.76 345.517   2
   1  -6 -17 1291.95 292.613   5
  -1   6 -16 449.864 217.519   2
   1  -6 -16 477.630 210.003   5
   1   6 -16 696.147 257.233   2
  -1   6 -15 577.059 205.419   2
   1   6 -15 383.098 209.487   2
   1  -6 -15 1035.74 261.630   5
  -1  -6 -15 613.765 191.907   5
  -1   6 -14 81.3431 108.064   2
   1   6 -14 59.5524 129.887   2
   1  -6 -14-76.7464 97.5290   5
  -1  -6 -14 53.6276 89.6763   5
  -1   6 -13-10.2881 99.0833   2
   1   6 -13-112.073 124.208   2
   1  -6 -13 188.640 153.535   5
  -1  -6 -13-59.5779 123.056   5
  -1   6 -12 238.563 135.056   2
   1  -6 -12 225.072 155.281   5
   1   6 -12-33.6423 100.930   2
  -1  -6 -12 292.006 167.121   5
   1  -6 -11 374.232 175.726   5
  -1  -6 -11 64.7022 85.8477   5
  -1   6 -11 334.794 154.231   2
  -1   6 -10 140.225 101.092   2
   1  -6 -10 193.422 141.821   5
  -1  -6 -10 240.486 151.476   5
  -1   6  -9 877.487 224.270   2
   1  -6  -9 818.979 233.230   5
  -1  -6  -9 1119.27 249.135   5
   1  -6  -8 1706.33 321.040   5
  -1   6  -8 1632.22 282.247   2
  -1  -6  -8 1125.07 259.722   5
  -1   6  -7 2188.07 320.605   2
  -1  -6  -7 2603.30 378.244   5
  -1  -6  -6 1447.61 283.308   5
   1  -6  -6 1663.50 298.849   5
   1  -6  -5 3345.77 428.536   5
  -1  -6  -5 2928.82 397.315   5
   1  -6  -4 1312.71 267.760   5
  -1  -6  -4 1496.00 287.493   5
  -1  -6  -3 1099.89 241.336   5
   1  -6  -3 1485.82 288.341   5
  -1  -6  -2 112.795 123.299   5
   1  -6  -2 26.4918 132.482   5
   1  -6  -1 349.004 161.717   5
  -1  -6  -1 81.1022 118.271   5
  -1  -6   0 310.757 146.709   5
   1  -6   0 364.293 151.267   5
   1  -6   1 168.427 104.458   5
  -1  -6   1 459.367 166.818   5
   1  -6   2 55.7589 107.831   5
  -1  -6   2 36.0917 78.7737   5
   1  -6   3 927.209 225.390   5
  -1  -6   3 1019.29 227.765   5
   1  -6   4 1850.54 320.699   5
  -1  -6   4 1539.76 272.501   5
   1  -6   5 3077.97 394.279   5
  -1  -6   5 2428.85 332.897   5
   1  -6   6 1927.93 306.803   5
  -1  -6   6 1676.67 273.835   5
   1  -6   7 3094.75 384.941   5
  -1  -6   7 2339.60 322.889   5
   1  -6   8 1289.22 256.223   5
  -1  -6   8 1238.90 229.028   5
   1  -6   9 1562.97 287.049   5
  -1  -6   9 1220.94 220.404   5
  -1  -6  10 224.313 122.998   3
   1  -6  10 96.0708 84.5225   5
  -1  -6  11 78.0844 71.4202   5
  -1  -6  11 327.682 162.166   3
   1  -6  11 362.563 157.321   5
   1  -6  11 129.638 109.828   3
   1  -6  12 418.367 161.460   5
   1  -6  12 434.660 167.684   3
  -1  -6  12 246.124 179.069   3
   1  -6  13 31.3041 109.912   5
  -1  -6  13 92.3182 145.107   3
   1  -6  13-31.8426 132.968   3
   1  -6  14 4.22029 85.0267   5
  -1  -6  14 139.099 148.908   3
   1  -6  14 39.6425 91.5381   3
   1  -6  15 513.995 194.215   3
  -1  -6  15 436.850 229.465   3
  -1  -6  16 698.114 195.937   3
   1  -6  16 670.793 221.086   3
   1  -6  17 902.833 250.032   3
   1  -7  -9 205.118 145.800   5
   1  -7  -8 928.823 260.365   5
  -1  -7  -8 378.345 171.433   5
   1  -7  -7 255.414 136.543   5
  -1  -7  -7 235.531 161.337   5
   1  -7  -6 957.710 265.521   5
  -1  -7  -6 690.948 225.473   5
  -1  -7  -5 614.172 209.773   5
   1  -7  -5 675.385 231.290   5
   1  -7  -4 692.215 233.640   5
  -1  -7  -4 553.004 204.382   5
  -1  -7  -3 640.528 222.626   5
   1  -7  -3 935.331 256.044   5
   1  -7  -2 1333.13 299.565   5
  -1  -7  -2 1502.24 315.803   5
   1  -7  -1 142.090 162.793   5
  -1  -7  -1 213.429 126.678   5
   1  -7   0 1619.70 329.119   5
  -1  -7   0 1428.08 290.097   5
  -1  -7   1 352.326 202.333   5
   1  -7   1 199.699 144.063   5
   1  -7   2 1054.66 267.488   5
  -1  -7   2 729.809 220.576   5
   1  -7   3 580.505 189.348   5
  -1  -7   3 94.4385 116.057   5
   1  -7   4 729.407 234.834   5
  -1  -7   4 783.902 236.096   5
  -1  -7   5 408.557 182.476   5
   1  -7   5 407.335 176.777   5
   1  -7   6 521.186 189.177   5
  -1  -7   6 671.061 197.684   5
   1  -7   7 302.715 168.505   5
  -1  -7   7 557.559 174.699   5
   1  -7   8 419.707 179.320   5
  -1  -7   8 584.126 179.695   5
  -1  -7   9-182.978 121.977   5
   1  -7   9-30.8441 96.4813   5
   1  -7  10 495.997 212.508   5
  -1  -7  10 589.048 189.505   3
   1  -7  11 179.643 158.726   3
   1  -7  11 149.473 124.247   5
   1  -7  12 522.774 203.991   5
   1  -7  12 234.255 128.657   3
   1  -7  13 329.770 160.556   3
  -2   0 -27 119.141 134.410   6
  -2   0 -26 3450.62 383.804   6
   2   0 -26 3843.38 730.613   2
  -2   0 -25 191.061 100.804   6
   2   0 -25 157.757 173.278   2
  -2   0 -24 6945.12 520.940   6
   2   0 -24 7749.77 965.017   2
   2   0 -23 243.955 234.354   2
  -2   0 -23 77.3417 112.004   6
  -2   0 -22 4592.24 416.041   6
   2   0 -22 5507.21 781.383   2
  -2   0 -21 65.2966 75.8608   6
   2   0 -21 512.664 268.670   2
   2   0 -20 3394.12 246.619   6
  -2   0 -20 2999.93 321.525   6
   2   0 -20 3014.69 534.910   2
  -2   0 -19-27.1907 87.6840   6
   2   0 -19-57.6632 47.8725   6
   2   0 -18 892.679 119.959   6
  -2   0 -18 680.229 153.391   6
   2   0 -18 725.251 261.089   2
   2   0 -17-18.8364 76.4800   2
  -2   0 -17 77.7832 70.8030   1
  -2   0 -17-12.5096 87.6065   6
   2   0 -17-47.5300 40.3625   6
  -2   0 -16 6889.68 438.864   1
  -2   0 -16 6033.92 402.808   6
   2   0 -16 6732.02 312.382   6
   2   0 -16 5610.82 649.847   2
  -2   0 -16 5910.53 313.169   3
  -2   0 -15-38.4048 53.9770   6
   2   0 -15-0.37201 40.5454   6
  -2   0 -15-36.8201 67.6750   1
   2   0 -14 8782.98 327.643   6
  -2   0 -14 7995.47 448.529   6
   2   0 -14 8183.20 740.125   2
  -2   0 -14 7457.17 426.013   1
  -2   0 -13 0.33295 25.3368   3
   2   0 -13 24.8521 10.7549   5
   2   0 -13 54.1175 121.968   2
  -2   0 -13 98.7875 73.5883   6
  -2   0 -13 20.4432 47.6964   4
  -2   0 -12 27433.3 710.632   4
   2   0 -12 29601.5 1325.43   2
  -2   0 -12 31126.1 865.031   6
  -2   0 -12 29958.3 642.544   3
   2   0 -12 28432.1 413.017   5
  -2   0 -11 17.1329 29.2952   3
   2   0 -11 5.43031 13.7433   5
   2   0 -11 27.8817 55.2066   2
  -2   0 -11 65.0190 62.6492   6
  -2   0 -11 7.98495 20.6067   4
   2   0 -10 9520.11 686.533   2
  -2   0 -10 10318.7 449.836   6
  -2   0 -10 10282.3 303.579   3
  -2   0 -10 8905.35 331.404   4
   2   0 -10 9805.54 197.669   5
   2   0  -9-50.3356 74.6932   2
  -2   0  -9 13.0047 22.8814   3
  -2   0  -9 2.19376 20.1291   4
   2   0  -9 3.23797 12.1648   5
  -2   0  -9-10.5382 53.1576   6
   2   0  -8 8084.27 574.320   2
  -2   0  -8 7671.45 358.945   6
  -2   0  -8 6719.95 241.341   4
   2   0  -8 7618.56 178.098   5
   2   0  -8 7894.47 275.886   6
   2   0  -7 47.4044 58.7488   2
   2   0  -7-0.17524 13.8890   5
  -2   0  -7-28.7881 38.8033   6
  -2   0  -7-5.10155 12.7315   4
   2   0  -7 24.8891 21.0747   6
  -2   0  -6 5344.48 276.229   6
   2   0  -6 5696.39 190.226   6
   2   0  -6 5635.64 430.132   2
  -2   0  -5 10.9450 33.0469   6
   2   0  -5 19.4666 63.3654   2
   2   0  -5-7.81582 17.4407   6
   2   0  -4 6567.17 199.983   6
  -2   0  -4 6636.63 287.735   6
   2   0  -4 6683.81 255.077   3
   2   0  -3-0.74255 21.0513   3
  -2   0  -3-13.6165 26.5562   6
   2   0  -3 7.03762 15.3914   6
  -2   0  -2 33720.9 681.119   6
   2   0  -2 34306.5 588.945   6
   2   0  -2 35433.0 617.055   3
  -2   0  -2 34238.3 484.795   3
  -2   0  -1 18.2663 26.7607   6
  -2   0  -1 22.6369 13.8868   3
   2   0  -1 0.96568 18.6568   3
  -2   0  -1 17.3977 18.1898   4
   2   0  -1-11.4781 24.0505   6
   2   0   0 45977.2 695.124   3
  -2   0   0 45318.9 681.984   3
  -2   0   0 46951.3 773.824   6
   2   0   0 43292.4 787.013   6
  -2   0   0 47609.2 806.354   4
  -2   0   1-6.55220 16.7568   3
  -2   0   1-1.57188 16.6053   5
  -2   0   1-16.6742 25.9985   4
  -2   0   1-5.05479 22.8423   6
   2   0   1 4.66530 20.6987   6
  -2   0   2 38156.4 650.299   3
  -2   0   2 38695.6 798.942   4
  -2   0   2 37668.8 648.027   6
  -2   0   2 36675.2 657.096   5
  -2   0   3 3.41099 20.8538   3
  -2   0   3-0.46388 31.5168   2
  -2   0   3 5.86218 22.7010   4
  -2   0   3 14.7351 20.9688   6
  -2   0   3-0.43161 20.0842   5
  -2   0   4 6098.65 219.805   6
  -2   0   4 6825.70 335.941   4
  -2   0   4 6671.89 430.131   2
  -2   0   4 6304.51 206.371   5
  -2   0   4 6089.42 241.298   3
  -2   0   5-3.45909 55.3314   2
  -2   0   5 8.19443 18.2349   5
  -2   0   5 9.82464 33.5499   4
  -2   0   6 6379.31 443.298   2
  -2   0   6 6085.44 212.651   5
  -2   0   6 6767.13 375.969   4
  -2   0   7-8.39151 22.7390   5
  -2   0   7-22.8220 47.2456   4
  -2   0   7-13.8528 57.3007   2
  -2   0   8 8055.09 453.343   4
  -2   0   8 7874.27 512.809   2
  -2   0   9 6.03252 44.0816   4
  -2   0   9-5.18856 59.5347   2
  -2   0  10 14164.1 665.494   4
  -2   0  11-1.25267 70.3279   4
  -2   0  11 57.4516 69.5345   1
  -2   0  12 35591.3 1035.11   1
  -2   0  13-15.5146 50.3587   1
  -2   0  14 11620.1 623.451   1
  -2   0  15-74.0365 73.3360   1
  -2   0  16 5933.50 480.943   1
  -2   0  17 1.66438 71.5825   1
  -2   0  18 1468.57 262.120   1
  -2  -1 -26 1201.59 240.106   6
  -2   1 -26 743.444 197.000   6
  -2  -1 -25 1339.55 231.793   6
  -2   1 -25 1187.54 202.319   6
   2  -1 -25 1060.55 387.308   2
   2   1 -25 1370.61 413.586   2
  -2  -1 -24 1572.55 246.865   6
  -2   1 -24 1395.41 249.717   6
   2  -1 -24 1188.87 395.165   2
   2   1 -24 1373.75 423.684   2
  -2  -1 -23 1208.51 215.084   6
   2   1 -23 1102.14 334.682   2
  -2   1 -23 1272.58 223.997   6
   2  -1 -23 1657.40 455.574   2
   2   1 -22 758.216 141.889   6
   2  -1 -22 1073.84 357.331   2
  -2  -1 -22 533.470 144.546   6
  -2   1 -22 646.167 166.276   6
   2   1 -22 761.111 287.804   2
  -2   1 -21 7408.88 523.705   6
   2  -1 -21 7253.28 875.450   2
   2   1 -21 7937.68 434.032   6
  -2  -1 -21 7496.54 497.315   6
   2   1 -21 9552.59 964.814   2
  -2   1 -20 4741.02 411.273   6
  -2  -1 -20 5606.53 422.648   6
   2   1 -20 4994.56 334.823   6
   2   1 -20 4847.26 663.285   2
   2  -1 -20 4858.28 709.815   2
  -2   1 -19 5448.36 434.341   6
  -2  -1 -19 5053.96 385.486   6
   2   1 -19 4933.45 324.467   6
   2   1 -19 5014.41 663.656   2
   2  -1 -19 4540.88 657.850   2
   2  -1 -19 4506.47 270.312   5
  -2  -1 -18 379.180 122.563   6
   2  -1 -18 292.704 81.4546   5
  -2   1 -18 301.685 109.549   6
   2   1 -18 472.332 225.195   2
   2  -1 -18 164.958 45.8807   6
   2  -1 -18 274.066 200.201   2
  -2   1 -17 11005.7 584.294   6
   2  -1 -17 9536.75 881.912   2
   2  -1 -17 10050.2 301.296   6
  -2  -1 -17 11327.8 546.529   6
   2   1 -17 11482.8 946.822   2
   2  -1 -17 10198.9 424.130   5
   2   1 -16 12648.3 969.897   2
  -2   1 -16 11062.7 569.497   4
   2  -1 -16 10613.3 893.313   2
   2  -1 -16 11012.9 447.642   5
  -2   1 -16 12712.2 616.928   6
   2  -1 -16 11004.7 302.994   6
  -2  -1 -16 11596.2 544.274   6
  -2   1 -15 6205.21 418.065   6
  -2  -1 -15 5640.65 364.370   6
   2  -1 -15 5136.84 610.348   2
  -2   1 -15 5306.90 379.502   4
   2  -1 -15 5354.21 190.075   6
   2   1 -15 6066.20 653.153   2
   2  -1 -15 5475.22 309.313   5
  -2   1 -14 5456.71 268.633   3
   2  -1 -14 4860.64 160.555   6
  -2  -1 -14 5408.09 339.941   6
  -2   1 -14 5112.15 357.952   4
  -2   1 -14 5575.56 384.074   6
   2  -1 -14 4933.17 555.071   2
   2   1 -14 6072.88 638.271   2
   2  -1 -14 5079.04 284.993   5
  -2   1 -13 8475.89 319.433   3
  -2   1 -13 8894.70 475.693   6
   2  -1 -13 7571.81 661.496   2
   2   1 -13 9334.09 766.986   2
  -2   1 -13 8158.05 435.581   4
   2  -1 -13 7649.67 188.247   6
  -2  -1 -13 8333.12 412.580   6
   2  -1 -13 8051.07 358.943   5
   2  -1 -12 12847.5 234.976   6
  -2  -1 -12 13609.6 520.062   6
  -2   1 -12 14947.4 611.527   6
   2   1 -12 15181.4 960.461   2
   2  -1 -12 13556.0 832.685   2
   2  -1 -12 13085.6 457.788   5
  -2   1 -11 5927.50 370.924   6
   2  -1 -11 5327.35 497.412   2
   2   1 -11 5481.22 561.667   2
  -2  -1 -11 4856.32 296.301   6
  -2   1 -11 5464.70 294.907   5
   2  -1 -11 5110.67 271.890   5
  -2   1 -11 3750.16 164.540   1
   2  -1 -10 8226.67 411.895   1
   2  -1 -10 7210.66 548.909   2
   2  -1 -10 7553.51 328.217   5
  -2  -1 -10 7556.76 362.429   6
   2   1 -10 7944.61 659.778   2
  -2   1 -10 8312.23 428.465   6
  -2   1 -10 7671.90 346.309   5
   2   1  -9 32590.3 1327.33   2
   2  -1  -9 31978.6 1120.90   2
  -2  -1  -9 30900.3 776.257   6
   2  -1  -9 31652.9 722.865   5
   2  -1  -9 33836.8 861.840   1
  -2   1  -9 33225.0 877.923   6
  -2   1  -9 30464.2 747.558   5
   2  -1  -8 40691.1 1217.93   2
  -2   1  -8 42484.3 996.092   6
   2  -1  -8 42128.7 961.620   1
   2   1  -8 41456.2 998.750   6
  -2  -1  -8 40405.0 894.617   6
  -2   1  -8 40131.6 864.667   5
   2  -1  -8 40688.0 829.008   5
   2  -1  -7 35860.6 1056.60   2
   2  -1  -7 36973.7 870.652   1
  -2  -1  -7 35507.1 805.897   6
  -2   1  -7 36341.7 887.210   6
   2   1  -7 35705.8 887.279   6
  -2   1  -7 35557.6 788.089   5
   2  -1  -7 36391.5 753.177   5
   2  -1  -6 5478.81 294.828   1
   2   1  -6 5168.65 291.446   6
  -2  -1  -6 5124.53 264.555   6
  -2   1  -6 5434.53 302.394   6
   2  -1  -6 4868.78 333.194   2
   2  -1  -6 4882.37 233.385   5
  -2   1  -5 29250.0 719.740   6
   2   1  -5 28572.6 702.243   6
  -2   1  -5 27396.2 482.846   1
  -2  -1  -5 27628.6 664.925   6
   2  -1  -5 29069.9 712.493   1
   2  -1  -5 28135.1 616.212   5
   2  -1  -4 35342.5 779.660   1
  -2   1  -4 36387.8 789.615   6
  -2   1  -4 34140.0 582.035   1
  -2  -1  -4 34046.4 752.840   6
   2   1  -4 34812.0 763.090   6
   2  -1  -4 33836.5 692.788   5
  -2  -1  -3 37744.0 784.430   6
   2   1  -3 38337.9 790.077   6
   2  -1  -3 38544.2 797.019   1
   2   1  -3 38667.4 860.797   4
  -2   1  -3 37824.6 791.707   6
  -2   1  -3 36423.1 640.536   1
   2  -1  -3 37124.5 731.512   5
   2   1  -2 13478.6 422.065   6
   2  -1  -2 12997.3 408.749   1
  -2   1  -2 13503.8 350.281   1
  -2  -1  -2 13353.6 420.573   6
  -2   1  -2 13184.7 400.151   6
   2   1  -2 13640.0 446.725   4
   2  -1  -2 13247.5 389.813   5
  -2  -1  -1 10726.0 364.123   6
   2  -1  -1 10119.6 350.964   1
   2   1  -1 10500.3 368.329   6
  -2   1  -1 10743.7 338.135   6
  -2   1  -1 10662.5 323.909   1
   2  -1  -1 10782.4 349.607   5
  -2   1   0 17593.1 428.706   6
  -2   1   0 18532.3 466.264   1
   2  -1   0 17668.8 476.374   5
  -2  -1   0 18012.6 489.331   6
  -2  -1   1 6471.83 277.120   6
  -2   1   1 6070.71 217.058   6
  -2   1   1 6485.65 273.517   1
   2  -1   1 6304.70 273.771   5
  -2  -1   2 11304.7 355.960   3
  -2  -1   2 11194.3 568.104   2
  -2   1   2 12547.9 394.766   5
  -2  -1   2 11565.9 395.052   6
  -2   1   2 11659.7 282.652   6
   2  -1   2 12254.1 389.896   5
  -2  -1   3 43126.6 1237.97   2
   2  -1   3 41712.4 826.662   5
  -2   1   3 40423.6 607.151   6
  -2   1   3 42081.7 976.064   2
  -2  -1   3 40396.6 853.818   6
  -2   1   3 41378.5 828.815   5
  -2  -1   3 40391.8 809.575   3
  -2   1   4 43109.5 866.578   5
  -2  -1   4 42955.5 1286.46   2
  -2   1   4 41625.8 560.002   6
  -2   1   4 43156.7 1012.38   2
  -2  -1   4 42616.6 840.454   3
  -2   1   5 22447.2 615.763   5
  -2   1   5 23353.9 721.723   2
  -2  -1   5 22899.5 594.683   3
  -2  -1   5 24335.6 951.077   2
  -2   1   6 4619.17 272.995   5
  -2   1   6 5196.50 332.486   2
  -2  -1   6 5620.08 286.067   3
  -2  -1   6 5486.23 457.555   2
  -2   1   7 42991.3 996.815   5
  -2   1   7 49340.3 1154.62   2
  -2  -1   7 46468.1 1459.78   2
  -2   1   7 49244.5 1220.99   4
  -2  -1   7 44864.3 962.516   3
  -2   1   8 45019.2 1027.96   5
  -2  -1   8 47490.0 1479.53   2
  -2   1   8 48789.8 1249.06   4
  -2  -1   8 46355.0 1006.47   3
  -2   1   9 30396.9 804.754   5
  -2  -1   9 33434.4 1254.49   2
  -2   1   9 33218.6 1045.57   4
  -2  -1   9 31982.5 828.772   3
   2   1  10 12001.0 532.905   6
  -2   1  10 10520.0 549.004   1
  -2   1  10 10999.0 602.607   4
  -2  -1  10 11041.3 478.917   3
  -2   1  11 8646.93 521.381   1
  -2   1  11 10439.9 610.408   4
  -2  -1  11 10434.1 470.635   3
  -2  -1  12 15990.1 617.148   1
  -2   1  12 14459.7 714.039   1
  -2  -1  12 15983.4 622.329   3
  -2   1  12 16539.1 795.217   4
  -2  -1  13 7951.07 453.123   1
  -2   1  13 8521.00 586.924   4
  -2   1  13 7741.42 536.740   1
  -2   1  14 5033.23 447.089   1
  -2   1  14 5495.17 489.656   4
  -2  -1  14 5936.81 405.709   1
  -2   1  15 10596.7 691.083   1
  -2   1  15 11202.4 729.092   4
  -2  -1  15 11083.5 593.786   1
  -2  -1  16 15888.1 742.562   1
  -2   1  16 15982.0 908.322   4
  -2   1  17 13688.9 864.441   4
  -2  -1  17 13581.8 716.086   1
  -2  -1  18 282.330 143.043   1
  -2  -1  19 8059.36 610.787   1
  -2  -1  20 7950.01 639.480   1
  -2  -2 -25 103.775 77.5738   6
  -2  -2 -25-142.450 101.043   5
   2   2 -24-48.1556 123.704   2
  -2  -2 -24 55.8896 81.9772   6
  -2   2 -24-90.9954 82.6668   6
   2   2 -23 2727.71 537.652   2
   2  -2 -23 2245.03 507.178   2
   2   2 -23 1867.28 229.256   6
  -2   2 -23 2045.14 304.032   6
  -2  -2 -23 2535.76 305.493   6
  -2  -2 -22 1095.31 199.638   6
  -2   2 -22 820.365 194.067   6
   2  -2 -22 761.398 299.970   2
   2   2 -22 871.533 278.666   2
  -2  -2 -21 1740.30 244.878   6
   2  -2 -21 1585.88 392.601   2
  -2   2 -21 1709.59 269.443   6
   2   2 -21 1491.29 376.728   2
  -2  -2 -20 1537.32 221.069   6
  -2   2 -20 1638.21 254.726   6
   2  -2 -20 1784.80 409.214   2
   2   2 -20 1570.89 381.987   2
   2  -2 -19 5980.27 470.313   5
   2  -2 -19 6513.11 741.343   2
  -2   2 -19 6122.25 476.190   6
  -2  -2 -19 5827.29 413.568   6
   2   2 -19 7014.11 766.035   2
   2  -2 -18 4103.98 385.723   5
  -2  -2 -18 4009.64 335.593   6
  -2   2 -18 4240.16 389.418   6
   2  -2 -18 4908.31 619.011   2
   2   2 -18 4604.91 606.447   2
  -2  -2 -17 1260.49 188.282   6
   2  -2 -17 1028.93 186.282   5
  -2   2 -17 1296.10 219.302   6
   2  -2 -17 1148.75 291.541   2
   2   2 -17 1180.83 314.956   2
   2  -2 -16 4627.44 550.315   2
  -2  -2 -16 3798.23 306.022   6
   2   2 -16 4520.09 572.943   2
   2  -2 -16 3709.18 357.692   5
  -2   2 -16 3454.63 330.809   6
   2  -2 -15 4681.23 398.825   5
   2   2 -15 5567.96 632.116   2
  -2  -2 -15 4835.06 338.561   6
  -2   2 -15 5200.84 396.875   6
   2  -2 -15 5681.71 578.405   2
   2  -2 -14 3661.63 346.014   5
  -2  -2 -14 3638.60 287.329   6
   2   2 -14 4448.86 552.897   2
   2  -2 -14 4582.23 482.654   2
  -2   2 -14 3533.85 324.471   6
   2   2 -13 222.733 167.378   2
   2  -2 -13 262.879 118.825   2
   2  -2 -13 208.681 88.0716   5
  -2   2 -13 177.377 86.4800   6
  -2  -2 -13 237.496 84.7811   6
   2   2 -12 1383.96 304.279   2
   2  -2 -12 1124.65 192.021   5
  -2  -2 -12 1287.26 167.087   6
  -2   2 -12 1140.10 181.976   6
   2  -2 -12 1706.19 258.340   2
   2  -2 -11 8316.10 492.049   5
  -2   2 -11 8276.45 455.649   6
   2  -2 -11 9317.24 569.375   2
  -2  -2 -11 8247.53 409.207   6
   2  -2 -10 4495.30 366.596   2
   2  -2 -10 4471.93 345.164   5
  -2  -2 -10 4331.45 287.802   6
   2   2 -10 5520.06 568.620   2
  -2  -2  -9 4762.30 300.695   6
   2  -2  -9 4898.94 351.458   2
  -2   2  -9 5328.95 304.869   5
   2  -2  -9 4676.31 348.327   5
  -2   2  -8 7734.91 365.824   5
   2   2  -8 8040.09 483.088   6
   2  -2  -8 8639.60 425.257   2
  -2  -2  -8 7583.22 374.349   6
   2  -2  -8 8228.67 446.142   5
   2   2  -7 18908.7 738.998   6
   2  -2  -7 18700.6 673.144   5
  -2  -2  -7 17362.8 579.488   6
   2  -2  -7 17970.1 665.473   1
  -2   2  -7 18383.3 577.645   5
  -2  -2  -6 10886.5 439.191   6
   2   2  -6 11357.8 545.925   6
   2  -2  -6 9746.34 468.993   1
  -2   2  -6 11141.4 433.640   5
   2  -2  -6 10789.9 487.930   5
   2   2  -5 7905.99 438.333   6
   2  -2  -5 7300.43 393.699   1
  -2  -2  -5 7164.47 354.014   6
   2  -2  -5 8061.42 411.972   5
   2   2  -4 11089.4 507.997   6
  -2  -2  -4 10736.0 430.964   6
   2  -2  -4 10568.8 465.093   1
   2  -2  -4 11216.2 476.310   5
   2   2  -3 11806.8 514.235   6
   2  -2  -3 11776.1 477.915   1
  -2   2  -3 13469.6 460.647   1
   2  -2  -3 12828.3 498.753   5
  -2  -2  -3 12543.9 464.555   6
   2  -2  -2 9011.19 405.048   5
  -2  -2  -2 9473.22 399.931   6
   2  -2  -2 8437.98 385.781   1
  -2   2  -2 9372.15 393.895   1
  -2  -2  -1 1280.65 149.716   6
   2  -2  -1 1414.28 148.640   1
  -2   2  -1 1494.65 160.162   1
   2  -2  -1 1406.92 156.350   5
   2  -2   0 614.889 106.629   5
  -2   2   0 766.962 119.170   1
   2  -2   0 628.268 101.136   1
  -2  -2   0 751.360 119.059   6
  -2   2   1 1825.16 188.276   1
  -2  -2   1 1592.81 177.778   6
  -2  -2   1 1725.69 234.351   2
   2  -2   1 1760.57 176.613   5
   2  -2   1 1709.11 147.881   1
  -2   2   2 6996.51 378.824   1
  -2  -2   2 7093.08 374.869   6
   2  -2   2 6796.08 284.661   1
  -2  -2   2 7291.98 503.123   2
   2  -2   2 7099.68 350.088   5
  -2   2   3 15098.0 569.885   5
  -2  -2   3 15454.6 498.964   5
  -2   2   3 15020.0 585.665   1
  -2   2   3 13494.6 402.444   2
   2  -2   3 14487.9 402.715   1
  -2  -2   3 14621.7 749.795   2
   2  -2   3 15332.7 532.836   5
  -2   2   4 9221.43 458.103   5
  -2  -2   4 8758.03 591.223   2
  -2   2   4 8806.01 312.805   2
  -2  -2   4 10037.6 388.120   5
   2  -2   4 10202.5 426.126   5
  -2  -2   5 8406.66 348.832   5
  -2  -2   5 8709.73 606.610   2
  -2   2   5 9063.77 257.149   6
  -2   2   5 7386.67 425.159   5
  -2  -2   5 7914.68 397.510   3
   2  -2   5 9012.82 403.215   5
  -2  -2   6 11424.0 488.621   3
  -2  -2   6 11302.1 389.922   5
  -2  -2   6 12379.6 751.531   2
  -2   2   6 10846.3 234.081   6
   2  -2   6 12020.5 475.610   5
   2  -2   7 18559.8 457.750   3
  -2  -2   7 18692.2 477.528   5
   2   2   7 20322.6 672.758   6
  -2  -2   7 19256.0 988.308   2
   2  -2   7 19291.2 621.779   5
  -2  -2   7 18486.7 652.639   3
  -2  -2   8 8866.22 263.510   5
   2   2   8 9302.46 466.094   6
   2  -2   8 8535.15 293.467   3
  -2  -2   8 8858.00 437.924   3
   2  -2   9 4284.16 211.338   3
  -2   2   9 4353.63 381.080   1
  -2  -2   9 4622.14 142.514   5
  -2  -2   9 4683.14 326.737   3
   2  -2  10 6435.92 271.672   3
  -2  -2  10 7203.11 416.750   3
   2   2  10 6409.18 317.611   4
  -2   2  11 9223.42 616.079   4
   2   2  11 7699.76 368.817   4
   2  -2  11 8222.79 323.499   3
  -2  -2  11 9160.07 478.973   3
  -2  -2  12 1839.60 204.004   1
  -2   2  12 2008.46 293.047   4
   2   2  12 1591.41 170.758   4
   2  -2  12 1760.02 156.302   3
  -2  -2  12 1840.39 223.970   3
  -2  -2  13 708.743 138.839   3
   2   2  13 637.665 122.924   4
  -2   2  13 720.717 193.195   4
  -2  -2  13 748.968 136.855   1
   2   2  14 3958.66 304.479   4
  -2  -2  14 4010.91 321.492   1
  -2   2  14 3884.30 434.562   4
  -2  -2  14 3756.24 335.175   3
  -2  -2  15 7714.99 466.237   1
  -2   2  15 7782.81 635.552   4
  -2  -2  15 7442.15 488.291   3
  -2  -2  16 4927.42 388.691   1
  -2   2  16 5540.91 551.434   4
  -2  -2  16 4792.52 403.689   3
  -2   2  17 2588.57 389.560   4
  -2  -2  17 2565.83 292.900   1
  -2   2  18 5208.79 573.026   4
  -2  -2  18 5278.92 441.463   1
  -2  -2  19 9244.37 608.903   1
  -2   2  19 10029.4 816.460   4
  -2  -2  20 2975.66 361.385   1
  -2   2  20 2979.31 459.025   4
  -2   2  21 1697.00 370.634   4
  -2  -3 -25 550.196 184.484   5
  -2  -3 -24 5822.65 471.425   6
  -2  -3 -24 5180.53 519.056   5
  -2   3 -23 2270.30 325.278   6
  -2  -3 -23 2136.79 286.391   6
  -2  -3 -23 1916.81 307.694   5
   2   3 -22 447.210 214.853   2
  -2  -3 -22 589.774 176.034   5
  -2  -3 -22 392.944 138.673   6
  -2   3 -22 470.587 166.286   6
   2   3 -21 2311.99 474.209   2
  -2  -3 -21 1986.97 269.429   6
  -2   3 -21 2479.18 504.297   2
  -2  -3 -21 1518.71 275.713   5
  -2   3 -21 1792.16 278.501   6
   2   3 -20 2039.30 449.496   2
   2  -3 -20 2184.00 338.091   5
  -2  -3 -20 1696.43 282.808   5
  -2  -3 -20 2332.56 280.491   6
  -2   3 -20 2184.89 306.297   6
   2  -3 -19 4557.90 489.863   5
  -2  -3 -19 4293.48 363.653   6
   2   3 -19 4708.69 637.039   2
   2  -3 -19 4362.88 510.351   2
  -2   3 -19 3594.61 388.928   6
   2   3 -18 202.208 157.478   2
   2  -3 -18 244.306 134.452   5
  -2  -3 -18 321.705 109.989   6
  -2   3 -18 222.774 122.699   6
   2  -3 -18 316.801 127.129   2
   2   3 -17 1533.76 346.364   2
   2  -3 -17 939.540 219.324   5
  -2  -3 -17 879.980 163.895   6
  -2   3 -17 676.679 170.658   6
   2  -3 -17 971.170 220.120   2
   2  -3 -16 5652.25 525.376   5
  -2  -3 -16 5155.86 380.707   6
   2   3 -16 5896.96 678.316   2
   2  -3 -16 5631.91 500.029   2
  -2   3 -16 4765.64 413.996   6
   2  -3 -15 7848.45 615.454   5
   2  -3 -15 8091.51 567.623   2
   2   3 -15 9680.89 843.449   2
  -2  -3 -15 7765.36 455.566   6
   2  -3 -14 3973.85 425.225   5
   2   3 -14 4521.61 569.983   2
  -2  -3 -14 4028.70 321.823   6
   2  -3 -14 4112.98 376.678   2
   2  -3 -13 3967.25 427.259   5
   2   3 -13 4844.68 588.513   2
  -2  -3 -13 4090.73 319.175   6
   2  -3 -13 3885.67 339.117   2
   2  -3 -12 24530.6 1048.48   5
   2   3 -12 26601.5 1349.66   2
  -2  -3 -12 23888.3 792.007   6
   2  -3 -12 24662.1 823.964   2
   2  -3 -11 6016.01 500.994   5
   2   3 -11 7845.83 705.799   2
   2  -3 -11 6574.65 368.836   2
  -2  -3 -11 6432.77 384.606   6
   2  -3 -10 2306.90 305.491   5
   2   3 -10 2959.98 435.655   2
  -2  -3 -10 2129.17 224.592   6
   2  -3  -9 7546.87 535.306   5
   2   3  -9 8991.57 743.976   2
  -2  -3  -9 8132.99 427.960   6
  -2  -3  -8 6425.70 377.149   6
   2   3  -8 6557.46 613.084   2
   2  -3  -8 5937.48 467.413   5
  -2  -3  -7 7987.53 418.996   6
   2   3  -7 7519.76 625.485   2
   2  -3  -7 6865.20 485.594   5
  -2  -3  -6 2321.36 226.680   6
   2  -3  -6 2013.34 263.718   5
  -2  -3  -5 9858.70 472.017   6
   2  -3  -5 9895.03 563.909   5
  -2  -3  -4 13964.0 575.639   6
   2  -3  -4 14470.7 675.770   5
  -2  -3  -3 29389.5 865.925   6
   2  -3  -3 29714.3 962.436   1
   2  -3  -3 28007.0 953.696   5
  -2  -3  -2 2313.32 250.961   5
  -2  -3  -2 2163.88 236.289   6
   2  -3  -2 2230.22 253.701   5
   2  -3  -2 2247.84 248.906   1
  -2  -3  -1 29538.5 907.998   5
  -2  -3  -1 29982.0 898.426   6
   2  -3  -1 29474.6 935.664   5
   2  -3  -1 29455.7 927.462   1
  -2  -3   0 72721.6 1540.39   5
  -2  -3   0 73634.6 1554.83   6
  -2  -3   0 70998.5 1778.26   2
   2  -3   0 74460.6 1539.70   1
   2  -3   0 73393.7 1574.96   5
  -2  -3   1 33096.0 949.805   5
  -2  -3   1 33680.5 1183.33   2
   2  -3   1 33539.2 920.794   1
   2  -3   1 32310.7 961.613   5
  -2  -3   2 2725.90 256.847   5
   2  -3   2 2609.32 231.176   1
  -2  -3   2 2330.76 330.787   2
   2  -3   2 2446.44 255.047   5
  -2  -3   3 28743.6 860.811   5
  -2  -3   3 29052.7 1140.04   2
   2  -3   3 28955.1 777.953   1
   2  -3   3 28202.5 879.134   5
  -2  -3   4 15002.7 599.930   5
   2  -3   4 15210.9 503.133   1
  -2  -3   4 15047.0 827.466   2
   2  -3   4 14752.7 614.845   5
  -2  -3   5 12475.7 530.752   5
  -2   3   5 12892.2 446.393   6
   2  -3   5 11612.9 399.916   1
   2  -3   5 11875.3 547.091   5
  -2  -3   6 2133.65 212.448   5
   2  -3   6 1990.23 137.464   1
  -2   3   6 2303.02 166.788   6
   2  -3   6 2485.29 246.139   5
  -2  -3   7 7441.32 376.826   5
  -2  -3   7 7134.79 449.778   3
  -2   3   7 7447.65 280.266   6
   2  -3   7 7464.18 434.801   5
  -2  -3   8 6073.03 430.221   3
  -2   3   8 6316.01 234.516   6
   2  -3   8 6170.34 399.530   5
  -2  -3   8 6313.72 320.482   5
   2  -3   9 9884.54 432.751   3
   2  -3   9 11409.2 544.077   5
  -2   3   9 10387.7 287.092   6
  -2  -3   9 11000.8 402.830   5
  -2  -3   9 10939.7 575.360   3
  -2  -3  10 2276.26 161.956   5
  -2   3  10 2578.73 127.420   6
   2  -3  10 2220.67 248.179   5
  -2  -3  10 2952.54 304.384   3
   2  -3  10 2312.24 204.715   3
  -2   3  11 6330.64 192.820   6
  -2  -3  11 7053.96 269.099   5
   2  -3  11 6583.31 343.031   3
  -2  -3  11 6973.22 467.027   3
   2  -3  12 29148.9 793.678   3
  -2  -3  12 31259.5 1050.29   3
   2   3  13 5410.38 397.017   4
   2  -3  13 5612.15 332.766   3
  -2  -3  13 6045.12 458.433   3
  -2  -3  14 5012.33 363.485   1
   2   3  14 3900.24 336.433   4
  -2   3  14 4259.57 494.180   4
   2  -3  14 4201.18 296.551   3
  -2  -3  14 4881.21 419.944   3
  -2  -3  15 9377.41 511.090   1
   2   3  15 8484.68 517.013   4
   2  -3  15 8766.55 439.645   3
  -2  -3  15 9076.77 586.222   3
  -2   3  15 9217.99 732.758   4
   2   3  16 6730.15 473.721   4
  -2   3  16 6800.05 650.612   4
  -2  -3  16 7530.20 471.865   1
  -2  -3  16 7650.04 556.647   3
  -2  -3  17 1657.73 277.479   3
  -2   3  17 1544.47 315.727   4
  -2  -3  17 1932.39 243.239   1
   2   3  17 1640.22 239.746   4
  -2  -3  18 202.057 111.638   3
  -2  -3  18 175.565 106.957   1
  -2   3  18 206.235 161.161   4
  -2   3  19 6056.57 661.388   4
  -2  -3  19 5047.86 483.665   3
  -2   3  20 2927.03 480.978   4
  -2   3  21 2784.80 482.339   4
  -2   3  22 603.221 255.020   4
  -2   3  23 3023.62 549.851   4
  -2   3  24 9892.07 991.273   4
  -2  -4 -22 1136.80 261.598   5
  -2  -4 -22 1997.23 267.234   6
   2   4 -21 2082.22 467.930   2
  -2  -4 -21 1259.65 271.265   5
  -2   4 -21 2060.95 465.713   2
  -2  -4 -21 1683.90 252.560   6
  -2   4 -21 1375.45 276.576   6
   2   4 -20-36.0454 142.428   2
   2  -4 -20-31.8498 94.6952   5
  -2  -4 -20 102.863 78.7278   5
  -2   4 -20-299.313 198.268   2
  -2  -4 -20-17.3228 71.5479   6
  -2   4 -20-7.87981 107.602   6
   2   4 -19 1758.53 401.506   2
   2  -4 -19 1847.56 349.850   5
  -2  -4 -19 1914.83 263.307   6
  -2   4 -19 1834.16 300.433   6
  -2  -4 -19 1784.17 302.767   5
  -2   4 -19 1242.07 350.173   2
   2   4 -18 496.198 223.845   2
  -2   4 -18 432.188 208.990   2
   2  -4 -18 854.576 267.317   5
  -2  -4 -18 288.966 131.144   5
  -2  -4 -18 396.817 119.116   6
  -2   4 -18 25.5198 119.737   6
   2   4 -17 2810.23 495.111   2
   2  -4 -17 3136.78 435.497   5
  -2  -4 -17 2551.72 288.910   6
  -2  -4 -17 2301.01 329.401   5
  -2   4 -17 2354.16 423.273   2
  -2  -4 -16 2892.42 362.945   5
   2   4 -16 2735.81 473.310   2
   2  -4 -16 2917.84 424.651   5
  -2   4 -16 2731.61 454.839   2
  -2  -4 -16 2947.24 304.889   6
  -2  -4 -15 3462.87 392.437   5
   2  -4 -15 4019.10 482.514   5
  -2   4 -15 4463.95 524.022   2
   2   4 -15 3302.02 527.767   2
  -2  -4 -15 3598.68 339.363   6
  -2  -4 -14 206.775 123.984   6
   2   4 -14 14.5734 122.523   2
   2  -4 -14-15.6373 86.6744   5
  -2  -4 -14 104.683 75.9447   5
  -2   4 -14 213.463 152.422   2
  -2   4 -13 2203.33 369.235   2
  -2  -4 -13 2010.44 242.756   6
   2   4 -13 2547.17 445.409   2
   2  -4 -13 2528.16 368.095   5
  -2  -4 -13 1716.64 271.114   5
   2   4 -12-110.142 119.997   2
   2  -4 -12 112.310 82.1850   5
  -2  -4 -12 109.514 93.8604   6
  -2  -4 -12 35.6020 67.5410   5
   2   4 -11 1591.83 342.705   2
   2  -4 -11 1924.11 307.930   5
  -2   4 -11 1692.73 276.176   2
  -2  -4 -11 1880.16 232.297   6
  -2  -4 -11 1535.94 255.314   5
  -2  -4 -10 3044.23 357.489   5
  -2  -4 -10 3200.06 307.684   6
  -2   4 -10 3651.30 389.340   2
   2   4 -10 3803.69 515.804   2
   2  -4 -10 3224.96 397.123   5
  -2  -4  -9 4634.72 423.006   5
  -2   4  -9 5271.51 448.621   2
  -2  -4  -9 5284.87 388.354   6
   2   4  -9 5637.29 599.780   2
   2  -4  -9 5010.89 491.046   5
   2  -4  -8 1233.48 246.785   5
  -2  -4  -8 1391.97 202.282   6
  -2   4  -8 1096.22 203.843   2
  -2  -4  -8 952.089 190.005   5
  -2  -4  -7 1994.44 277.480   5
  -2  -4  -7 2119.49 256.126   6
  -2   4  -7 2015.11 255.440   2
   2  -4  -7 2414.39 331.566   5
  -2  -4  -6 127.288 90.2441   5
   2  -4  -6 9.07709 99.2975   5
  -2  -4  -6 13.1554 67.3269   6
  -2  -4  -5 7989.58 535.759   5
  -2  -4  -5 7655.66 478.392   6
   2  -4  -5 8110.79 584.252   5
  -2  -4  -4 1894.69 258.526   5
   2  -4  -4 1983.47 276.736   5
  -2  -4  -4 1896.37 239.686   6
  -2   4  -4 1591.32 188.684   2
  -2   4  -3 3975.86 279.474   2
  -2  -4  -3 4626.44 400.287   5
  -2  -4  -3 3890.69 388.981   2
   2  -4  -3 4121.24 410.349   5
  -2  -4  -2 2179.36 275.473   5
  -2   4  -2 1721.87 174.241   2
  -2  -4  -2 2145.98 298.463   2
   2  -4  -2 2035.49 288.920   5
  -2  -4  -1 6384.17 468.945   5
  -2   4  -1 4861.00 253.738   2
  -2  -4  -1 5950.94 497.161   2
   2  -4  -1 5585.20 465.250   5
   2  -4   0-12.6622 56.8271   5
  -2  -4   0 53.2571 60.2770   5
  -2  -4   1 6119.82 448.852   5
   2  -4   1 5928.59 451.940   5
   2  -4   1 6235.21 484.992   1
  -2  -4   2 2408.32 278.557   5
   2  -4   2 1877.17 255.291   5
   2  -4   2 2077.10 275.482   1
  -2  -4   3 4954.60 396.054   5
   2  -4   3 5042.49 400.706   1
   2  -4   3 4611.03 395.435   5
  -2  -4   4 1884.49 243.311   5
   2  -4   4 1931.63 239.318   1
   2  -4   4 1956.62 264.988   5
  -2  -4   5 8842.77 510.123   5
   2  -4   5 7558.39 432.673   1
   2  -4   5 9182.61 548.287   5
   2  -4   6-88.5375 75.1498   5
   2  -4   6 0.76949 63.1935   1
  -2  -4   6 33.4994 52.8280   5
  -2   4   6 7.10790 40.6719   6
  -2  -4   7 1882.83 226.315   5
  -2   4   7 2045.60 197.309   6
   2  -4   7 1374.65 145.500   1
   2  -4   7 2016.63 261.391   5
   2  -4   8 1194.18 206.869   5
  -2  -4   8 1049.56 210.920   3
  -2  -4   8 1360.96 181.885   5
   2  -4   8 698.711 89.7813   1
  -2   4   8 1309.43 149.966   6
  -2  -4   9 4888.04 453.784   3
   2  -4   9 5831.48 447.396   5
  -2   4   9 5981.06 304.754   6
  -2  -4   9 6220.53 375.387   5
  -2  -4  10 4642.87 441.660   3
   2  -4  10 4030.39 371.828   5
  -2  -4  10 4161.43 297.223   5
  -2  -4  11 1590.03 260.654   3
   2  -4  11 1468.93 205.439   3
   2  -4  11 1963.79 262.520   5
  -2  -4  11 1831.73 190.160   5
   2  -4  12 115.355 83.1015   5
  -2  -4  12 81.5702 46.2461   5
   2  -4  12 78.7500 92.1313   3
  -2  -4  12 48.4053 84.0723   3
   2  -4  13 2024.47 247.505   3
  -2  -4  13 2360.33 330.408   3
   2  -4  14 223.005 116.546   3
  -2  -4  14 1.28243 93.6190   3
  -2  -4  15 4475.48 371.835   1
   2  -4  15 4713.22 363.905   3
  -2  -4  15 5232.77 499.025   3
   2   4  16 3322.58 366.758   4
  -2   4  16 3116.01 471.765   4
   2  -4  16 3191.12 315.610   3
  -2  -4  16 3667.87 434.986   3
  -2   4  17 3485.41 512.039   4
  -2  -4  17 3536.39 438.213   3
   2  -4  17 3352.64 331.216   3
   2  -4  18 574.296 145.715   3
  -2  -4  18 723.329 219.564   3
  -2   4  18 340.073 162.647   4
  -2  -4  19 2312.26 388.190   3
  -2   4  19 1959.54 406.938   4
  -2  -4  20-114.153 123.877   3
  -2   4  20-30.4025 114.531   4
  -2  -4  21 2557.97 407.703   3
  -2   4  21 1778.64 405.412   4
  -2   4  22 3288.96 563.042   4
   2  -5 -20-196.602 139.083   5
  -2   5 -20-2.97997 133.016   2
  -2   5 -19 432.305 221.917   2
   2  -5 -19 1262.12 309.904   5
  -2  -5 -19 861.621 229.661   5
  -2  -5 -19 781.222 186.681   6
  -2  -5 -18 6759.60 630.739   5
  -2  -5 -18 6904.58 513.072   6
  -2   5 -18 5764.34 710.278   2
   2   5 -18 8339.33 877.942   2
   2  -5 -18 9456.99 812.117   5
   2   5 -17 194.431 132.420   2
   2  -5 -17 420.995 184.469   5
  -2  -5 -17 212.318 121.470   5
  -2  -5 -17 153.634 102.391   6
  -2   5 -17 289.756 159.798   2
   2   5 -16 406.678 210.455   2
  -2  -5 -16 515.131 164.794   5
  -2  -5 -16 863.329 191.058   6
  -2   5 -16 481.018 181.324   2
   2   5 -15 1458.55 349.033   2
   2  -5 -15 1883.97 353.836   5
  -2  -5 -15 1267.42 225.782   6
  -2  -5 -15 1218.80 255.286   5
  -2   5 -15 1521.33 318.735   2
  -2  -5 -14 6851.38 604.861   5
  -2   5 -14 6195.67 628.473   2
  -2  -5 -14 6997.54 505.998   6
   2   5 -14 7782.34 790.184   2
  -2  -5 -13-32.4807 97.9561   5
   2   5 -13 101.425 118.915   2
   2  -5 -13 266.689 156.950   5
  -2  -5 -13 299.412 118.920   6
  -2   5 -13 67.0056 93.5828   2
  -2  -5 -12 1815.99 316.125   5
   2   5 -12 1681.32 386.501   2
   2  -5 -12 2395.70 392.706   5
  -2  -5 -12 1992.52 264.990   6
  -2   5 -12 1364.89 279.166   2
   2  -5 -11 492.163 176.093   5
  -2  -5 -11 661.212 195.766   5
  -2  -5 -11 447.441 124.390   6
  -2   5 -11 293.540 123.543   2
  -2  -5 -10 11167.8 741.919   5
  -2   5 -10 9897.12 682.577   2
  -2  -5 -10 11943.6 666.870   6
  -2  -5  -9 2327.84 349.377   5
   2  -5  -9 2090.67 357.657   5
  -2  -5  -9 2066.28 281.609   6
  -2   5  -9 1995.63 294.806   2
   2  -5  -8 856.688 229.150   5
  -2  -5  -8 646.929 187.097   5
  -2  -5  -8 698.579 177.629   6
  -2   5  -8 571.911 148.405   2
  -2   5  -7 788.200 176.948   2
   2  -5  -7 880.481 230.784   5
  -2  -5  -7 1091.06 249.173   5
  -2  -5  -6 23994.0 1068.23   5
   2  -5  -6 27384.8 1205.35   5
  -2  -5  -5 2848.65 363.627   5
   2  -5  -5 2864.88 394.526   5
   2  -5  -4 1665.80 294.279   5
  -2  -5  -4 1173.15 239.072   5
  -2  -5  -3 2215.11 326.091   5
   2  -5  -3 2135.26 332.549   5
  -2   5  -3 1753.84 201.551   2
  -2  -5  -2 15532.5 833.871   5
   2  -5  -2 15816.7 871.068   5
   2  -5  -1 353.622 152.033   5
  -2  -5  -1 840.558 203.286   5
  -2  -5   0 3942.10 414.685   5
   2  -5   0 4317.69 449.037   5
   2  -5   1 491.519 171.527   5
  -2  -5   1 799.925 198.076   5
  -2  -5   2 16234.8 818.664   5
   2  -5   2 15243.0 830.309   5
  -2  -5   3 3459.62 368.635   5
   2  -5   3 3188.12 372.459   5
   2  -5   4 1293.87 245.978   5
  -2  -5   4 918.448 199.191   5
  -2  -5   5 2763.71 328.760   5
   2  -5   5 2696.59 353.565   5
  -2  -5   6 26653.6 1006.74   5
   2  -5   6 26234.4 1085.46   5
   2  -5   7 1364.47 261.488   5
  -2  -5   7 1560.14 239.162   5
   2  -5   8 906.920 212.856   5
  -2  -5   8 855.990 163.539   5
   2  -5   9 2163.01 313.010   5
  -2  -5   9 1820.53 300.805   3
  -2  -5   9 2225.48 266.528   5
  -2  -5  10 11829.4 777.916   3
   2  -5  10 12913.5 766.988   5
  -2  -5  10 14146.3 653.508   5
   2  -5  11 383.274 151.012   5
  -2  -5  11 559.984 136.456   5
  -2  -5  11 492.096 184.225   3
   2  -5  11 197.188 113.924   3
   2  -5  12 2022.54 303.879   5
  -2  -5  12 1518.88 289.797   3
   2  -5  12 1176.19 214.623   3
   2  -5  13 399.150 169.716   5
   2  -5  13 67.7124 75.5629   3
  -2  -5  13 146.872 137.957   3
   2  -5  14 6005.41 468.540   3
  -2  -5  14 8228.28 676.302   3
   2  -5  15 1259.21 229.195   3
  -2  -5  15 1877.56 349.353   3
   2  -5  16 312.569 125.778   3
  -2  -5  16 824.965 265.661   3
  -2  -5  17 470.824 196.301   3
  -2   5  18 9070.34 900.300   4
  -2  -5  18 10112.5 799.755   3
  -2  -5  19 1282.91 297.633   3
  -2   5  19 689.622 249.671   4
   2  -6 -16 16.0614 141.490   5
   2  -6 -15 253.831 176.904   5
   2  -6 -14 2322.77 407.189   5
  -2  -6 -14 2540.21 408.781   5
   2  -6 -13 1815.71 358.211   5
  -2  -6 -13 1992.12 355.254   5
   2  -6 -12 1950.70 371.093   5
  -2  -6 -12 2019.13 353.926   5
   2  -6 -11 857.311 253.402   5
  -2  -6 -11 658.398 216.085   5
   2  -6 -10 2365.40 398.670   5
  -2  -6 -10 2462.78 393.620   5
   2  -6  -9 1566.77 321.430   5
  -2  -6  -9 1469.66 306.478   5
   2  -6  -8 795.740 264.229   5
  -2  -6  -8 3.25572 103.268   5
   2  -6  -7-155.030 127.894   5
  -2  -6  -7 37.0485 99.5885   5
   2  -6  -6 40.4424 99.1087   5
  -2  -6  -6 195.716 148.915   5
   2  -6  -5 803.518 235.550   5
  -2  -6  -5 609.367 198.828   5
   2  -6  -4 599.652 203.557   5
  -2  -6  -4 471.975 173.492   5
   2  -6  -3 261.240 137.667   5
  -2  -6  -3 348.681 147.202   5
   2  -6  -2 1298.41 284.429   5
  -2  -6  -2 1155.06 259.142   5
   2  -6  -1 1876.22 323.963   5
  -2  -6  -1 2021.80 334.776   5
  -2  -6   0 3633.25 440.634   5
   2  -6   0 3458.70 440.686   5
   2  -6   1 1623.76 298.417   5
  -2  -6   1 2012.91 318.064   5
   2  -6   2 947.064 228.724   5
  -2  -6   2 934.355 218.539   5
   2  -6   3 546.734 193.891   5
  -2  -6   3 322.608 151.272   5
   2  -6   4 711.241 204.216   5
  -2  -6   4 720.035 192.936   5
   2  -6   5 727.535 205.289   5
  -2  -6   5 833.172 201.890   5
   2  -6   6 68.5583 89.6863   5
  -2  -6   6 62.9101 91.4007   5
   2  -6   7-131.517 110.666   5
  -2  -6   7-70.8902 105.861   5
   2  -6   8 179.514 123.736   5
  -2  -6   8 161.600 94.4707   5
   2  -6   9 1587.77 318.156   5
  -2  -6   9 1335.94 233.337   5
  -2  -6   9 1026.87 246.613   3
   2  -6  10 1994.62 347.830   5
  -2  -6  10 2016.52 374.046   3
   2  -6  11 444.884 194.449   5
  -2  -6  11 251.853 165.488   3
   2  -6  11 271.029 124.779   3
   2  -6  12 1713.04 325.173   5
  -2  -6  12 1473.71 312.352   3
   2  -6  12 823.859 207.792   3
   2  -6  13 2109.88 356.697   5
  -2  -6  13 1595.51 330.368   3
   2  -6  13 1154.97 246.256   3
   2  -6  14 1595.63 330.639   5
  -2  -6  14 1871.87 367.059   3
  -2  -7  -7 4636.30 547.383   5
   2  -7  -7 5889.25 636.931   5
   2  -7  -6 510.795 225.123   5
  -2  -7  -6 173.247 178.791   5
  -2  -7  -5 3711.38 490.849   5
   2  -7  -5 3795.85 519.141   5
   2  -7  -4 845.226 268.740   5
  -2  -7  -4 1080.50 272.611   5
  -2  -7  -3 6648.66 635.889   5
   2  -7  -3 6027.64 636.833   5
   2  -7  -2 552.566 210.111   5
  -2  -7  -2 387.292 182.273   5
  -2  -7  -1 4164.43 499.237   5
   2  -7  -1 3743.68 492.463   5
   2  -7   0 213.997 191.712   5
  -2  -7   0 132.687 169.434   5
  -2  -7   1 4518.53 512.299   5
   2  -7   1 4408.45 523.724   5
   2  -7   2 279.596 149.418   5
  -2  -7   2 425.589 192.070   5
   2  -7   3 4698.02 542.331   5
  -2  -7   3 5282.13 539.026   5
   2  -7   4 443.314 211.677   5
  -2  -7   4 922.249 229.726   5
   2  -7   5 4006.08 504.377   5
  -2  -7   5 4677.21 495.664   5
   2  -7   6-85.7575 140.725   5
  -2  -7   6 212.229 142.909   5
   2  -7   7 3585.63 477.953   5
  -2  -7   7 3854.53 441.308   5
   2  -7   8 315.965 150.463   5
   2  -7   9 4878.84 600.349   5
   2  -7  10 1047.00 292.832   5
   2  -7  11 2678.33 427.973   5
   2  -7  12 137.715 149.682   5
   3   0 -25 391.357 276.282   2
  -3   0 -25 985.494 239.053   6
   3   0 -24 10.1227 147.391   2
  -3   0 -24 178.693 130.231   6
   3   0 -23 418.939 259.407   2
  -3   0 -23 476.616 149.017   6
   3   0 -22-218.489 201.712   2
  -3   0 -22 62.1683 106.884   6
   3   0 -21 5393.22 831.832   2
  -3   0 -21 5860.46 471.257   6
   3   0 -20 5.72701 111.993   2
  -3   0 -20 80.1135 93.1329   6
  -3   0 -19 8736.20 563.055   6
   3   0 -19 8558.09 966.145   2
   3   0 -18 55.3095 124.118   2
  -3   0 -18-10.3086 72.2642   6
  -3   0 -17 10809.7 602.179   6
   3   0 -17 9771.82 979.394   2
   3   0 -16 7.86638 100.853   2
  -3   0 -16 76.6262 76.3590   6
   3   0 -16 0.81311 41.1973   6
  -3   0 -15 6292.25 432.275   6
   3   0 -15 6276.33 254.360   6
   3   0 -15 6052.58 708.763   2
   3   0 -15 5814.38 272.070   6
  -3   0 -15 4661.68 242.106   3
  -3   0 -14 52.2961 38.0668   3
   3   0 -14-44.2166 103.667   2
   3   0 -14 57.9144 26.1504   6
  -3   0 -14 35.6685 60.6957   6
   3   0 -13 1144.76 289.743   2
   3   0 -13 722.808 83.2953   6
  -3   0 -13 765.847 158.380   6
  -3   0 -13 845.685 86.6287   3
  -3   0 -12 24.3031 23.8540   3
   3   0 -12-27.6214 75.4456   2
   3   0 -12 19.3819 21.3791   6
  -3   0 -12 26.9471 62.5238   6
   3   0 -11 988.030 246.867   2
   3   0 -11 796.971 77.8928   6
  -3   0 -11 882.923 150.580   6
  -3   0 -11 860.329 73.8278   3
  -3   0 -10-9.52772 16.3844   3
   3   0 -10 17.4976 54.8204   2
   3   0 -10 16.2188 24.0383   6
  -3   0 -10 26.3359 53.2930   6
   3   0  -9 10998.3 297.290   6
  -3   0  -9 11773.2 503.401   6
  -3   0  -9 9370.60 230.532   3
  -3   0  -8 0.95654 12.6795   3
   3   0  -8 12.3831 39.1800   3
   3   0  -8 24.2304 22.1376   6
  -3   0  -8 36.9739 63.6639   6
  -3   0  -7 17184.9 598.236   6
   3   0  -7 16840.7 392.697   6
   3   0  -7 19167.9 564.185   3
   3   0  -6 8.10723 34.2625   3
   3   0  -6 2.96514 19.7381   6
  -3   0  -6-16.7350 40.3604   6
   3   0  -5 30036.5 573.523   6
  -3   0  -5 31788.5 764.710   6
   3   0  -5 32963.3 709.005   3
  -3   0  -4 10.3465 13.0293   3
   3   0  -4 46.3392 41.2680   3
   3   0  -4-11.1829 26.7375   6
  -3   0  -4-13.8393 33.3879   6
  -3   0  -4 13.2141 16.3519   4
  -3   0  -3 14250.7 474.457   6
   3   0  -3 14221.3 397.298   6
  -3   0  -3 12787.0 337.420   4
  -3   0  -3 14665.9 271.570   3
   3   0  -3 15470.2 433.774   3
  -3   0  -2-2.18426 15.7817   3
   3   0  -2 7.37446 26.5319   3
   3   0  -2 7.51781 23.9193   6
  -3   0  -2-18.4593 35.2205   6
  -3   0  -2 10.7792 19.5530   4
   3   0  -1 4261.50 196.168   3
  -3   0  -1 4333.38 232.821   6
  -3   0  -1 4320.03 161.709   3
   3   0  -1 4318.33 223.265   6
  -3   0  -1 4124.37 217.388   4
  -3   0  -1 4161.35 239.070   5
  -3   0   0 0.25644 21.9334   3
  -3   0   0-40.2114 43.5263   5
  -3   0   0 45.3273 37.7691   6
  -3   0   0-18.7443 23.3759   4
   3   0   0 16.2422 30.2413   6
  -3   0   1 4412.85 225.454   6
   3   0   1 4325.07 241.918   6
  -3   0   1 4483.06 260.105   4
  -3   0   1 4485.74 193.514   3
  -3   0   1 4431.48 232.627   5
  -3   0   2 21.5089 34.9873   3
  -3   0   2 22.9011 20.1423   5
  -3   0   2 51.4449 53.4636   4
  -3   0   2-13.1432 30.7992   6
   3   0   2-32.7562 40.2054   6
   3   0   3 16607.7 531.313   6
  -3   0   3 16558.2 581.455   4
  -3   0   3 15791.9 437.066   6
  -3   0   3 15476.2 443.904   5
  -3   0   4-17.3583 58.1937   2
  -3   0   4 44.6599 38.6359   5
  -3   0   4-2.61028 31.8008   6
  -3   0   4-14.2605 33.3740   4
   3   0   4 39.0493 50.5603   6
  -3   0   5 36278.7 990.929   4
  -3   0   5 33685.5 707.039   6
  -3   0   5 35897.4 1256.44   2
  -3   0   5 33758.8 692.607   5
  -3   0   6-12.5180 68.3492   2
  -3   0   6 23.1807 23.6914   5
  -3   0   6-27.4562 35.5146   4
  -3   0   7 20414.1 954.635   2
  -3   0   7 20941.6 783.502   4
  -3   0   7 19502.3 498.737   5
  -3   0   8 50.8304 25.8963   5
  -3   0   8-12.6037 45.3313   4
  -3   0   8-32.1493 62.2199   2
  -3   0   9 12573.3 393.247   5
  -3   0   9 14142.9 688.206   4
  -3   0   9 13165.0 575.426   1
  -3   0   9 13046.6 781.220   2
  -3   0  10-11.2543 61.7131   1
  -3   0  10 31.6145 22.6640   5
  -3   0  10 12.5133 72.4118   4
  -3   0  11 764.048 152.515   1
  -3   0  11 694.713 158.653   4
  -3   0  12-32.7864 57.2128   1
  -3   0  13 798.753 161.635   1
  -3   0  14 85.3469 85.9495   1
  -3   0  15 7989.18 569.469   1
  -3   0  16 52.0979 95.9884   1
  -3   0  17 13336.8 800.680   1
  -3   0  18 3.94043 82.7376   1
  -3   0  19 10914.4 795.318   1
  -3   0  20 23.6187 115.931   1
  -3   0  21 7948.84 744.445   1
   3  -1 -25 432.209 288.705   2
  -3  -1 -25 404.569 157.063   6
   3  -1 -24 3364.82 674.472   2
   3   1 -24 3623.15 715.674   2
  -3  -1 -24 2956.21 358.773   6
  -3   1 -24 2916.73 366.954   6
   3  -1 -23 746.686 328.721   2
   3   1 -23 1109.80 426.367   2
  -3  -1 -23 669.774 175.993   6
  -3   1 -23 695.987 176.239   6
   3  -1 -22 1715.50 444.583   2
   3   1 -22 2460.53 552.343   2
  -3  -1 -22 1953.46 286.281   6
  -3   1 -22 1578.18 262.365   6
   3  -1 -21 2304.84 503.494   2
   3   1 -21 1703.86 458.268   2
  -3  -1 -21 1792.54 275.019   6
  -3   1 -21 1180.52 223.573   6
   3  -1 -20 1260.93 378.173   2
   3   1 -20 1665.01 440.971   2
  -3  -1 -20 1029.82 198.979   6
  -3   1 -20 843.534 195.119   6
   3  -1 -19 212.199 171.157   2
   3   1 -19 230.181 182.851   2
  -3  -1 -19 108.018 106.044   6
  -3   1 -19 185.819 105.777   6
   3  -1 -18 2526.95 484.784   2
   3   1 -18 1954.50 460.331   2
  -3  -1 -18 2451.50 284.798   6
  -3   1 -18 2292.78 297.976   6
   3  -1 -17 972.992 285.023   2
   3   1 -17 571.165 258.985   2
  -3  -1 -17 707.903 164.518   6
  -3   1 -17 646.827 166.837   6
   3  -1 -17 827.624 85.8085   5
   3   1 -16 3272.98 568.127   2
  -3  -1 -16 3006.00 298.141   6
   3  -1 -16 3659.88 535.626   2
  -3   1 -16 3564.17 343.401   6
   3  -1 -16 3297.96 173.000   5
   3  -1 -15 2111.87 383.868   2
   3   1 -15 1162.58 319.949   2
  -3   1 -15 1383.49 173.312   4
  -3  -1 -15 1770.96 225.650   6
   3   1 -15 1489.01 202.487   6
  -3   1 -15 1649.60 233.944   6
   3  -1 -15 1428.78 116.079   5
  -3   1 -14 8941.22 532.890   6
   3   1 -14 8701.17 491.904   6
   3  -1 -14 8798.01 747.903   2
  -3  -1 -14 8435.31 475.475   6
  -3   1 -14 8004.90 411.471   4
   3   1 -14 8999.30 862.823   2
   3  -1 -14 8308.71 295.858   5
   3   1 -13 2421.87 432.555   2
  -3   1 -13 2579.87 286.690   6
   3  -1 -13 2739.27 401.163   2
   3   1 -13 2782.02 260.772   6
  -3  -1 -13 2575.48 258.453   6
   3  -1 -13 2619.10 163.156   5
  -3   1 -12 13043.5 608.660   6
  -3  -1 -12 11773.7 533.827   6
   3   1 -12 11933.7 921.657   2
   3  -1 -12 12764.2 820.422   2
   3  -1 -12 11601.2 364.958   5
   3   1 -11 3994.44 288.626   6
  -3  -1 -11 3544.21 288.443   6
  -3   1 -11 3504.57 314.976   6
   3   1 -11 3644.55 494.276   2
   3  -1 -11 3690.64 416.704   2
   3  -1 -11 3574.81 198.762   5
  -3   1 -10 6703.18 422.556   6
   3   1 -10 7062.53 367.300   6
  -3  -1 -10 6114.46 362.903   6
   3   1 -10 5814.55 610.288   2
   3  -1 -10 6498.25 274.868   5
  -3   1  -9 3612.62 294.476   6
   3   1  -9 3707.55 252.001   6
   3   1  -9 3248.19 433.816   2
   3  -1  -9 3516.51 203.800   5
  -3  -1  -9 3436.76 262.843   6
  -3  -1  -8 4289.10 287.613   6
  -3   1  -8 4844.69 333.950   6
   3   1  -8 4529.95 271.150   6
   3  -1  -8 4396.21 230.964   5
  -3  -1  -7 1093.98 147.164   6
   3   1  -7 1061.40 127.347   6
   3   1  -7 1099.02 172.298   4
  -3   1  -7 1204.87 161.352   6
   3  -1  -7 1354.23 162.719   3
   3  -1  -7 1149.28 119.743   5
  -3   1  -6 3687.81 276.993   6
   3   1  -6 3718.11 234.372   6
  -3  -1  -6 3361.76 251.211   6
   3  -1  -6 4256.02 263.457   3
   3  -1  -6 3639.68 213.523   5
   3   1  -5 1087.91 125.046   6
  -3  -1  -5 1067.32 145.518   6
  -3   1  -5 1234.94 153.845   6
   3  -1  -5 1131.19 128.258   3
   3  -1  -5 1083.97 122.673   5
  -3   1  -4 7350.26 358.565   6
  -3   1  -4 6978.91 275.552   1
   3   1  -4 6664.48 315.525   6
   3   1  -4 7157.30 387.312   4
  -3  -1  -4 6936.35 345.728   6
   3  -1  -4 7397.52 314.486   3
   3  -1  -4 6905.82 300.575   5
  -3   1  -3 7113.23 285.974   1
  -3  -1  -3 7463.75 352.146   6
   3   1  -3 7350.10 339.965   6
  -3   1  -3 7525.29 343.659   6
   3   1  -3 7246.96 374.982   4
   3  -1  -3 7647.61 301.098   3
   3  -1  -3 7483.53 319.581   5
  -3   1  -2 17170.9 479.997   1
  -3  -1  -2 18112.5 567.432   6
   3   1  -2 17414.1 543.334   6
  -3   1  -2 17721.4 529.084   6
   3   1  -2 16172.7 554.087   4
   3  -1  -2 17748.5 455.142   3
   3  -1  -2 17400.1 513.645   5
  -3   1  -1 4689.67 248.004   1
  -3  -1  -1 5443.16 293.179   6
   3   1  -1 4858.55 270.225   6
  -3   1  -1 4587.41 246.325   6
   3  -1  -1 4844.72 205.239   3
   3  -1  -1 5271.65 269.466   5
   3   1  -1 4811.43 274.377   4
  -3  -1   0 19088.4 503.031   3
   3   1   0 22095.0 615.089   6
  -3   1   0 20708.2 528.351   6
   3   1   0 19354.1 548.425   4
  -3   1   0 20543.3 565.228   1
  -3  -1   0 20857.1 597.178   6
   3  -1   0 19502.2 423.571   3
   3   1   1 4653.96 231.480   4
  -3  -1   1 5257.58 284.051   6
  -3   1   1 5164.20 278.808   1
  -3   1   1 5019.28 232.053   6
   3   1   1 5523.76 299.510   6
   3  -1   1 4745.63 167.776   3
  -3   1   1 4602.71 260.604   5
  -3  -1   1 4852.13 242.345   3
  -3   1   2 16951.0 423.753   6
  -3   1   2 17982.0 565.129   1
   3   1   2 18018.1 573.076   6
  -3  -1   2 18352.6 553.331   6
   3  -1   2 16281.3 312.021   3
  -3   1   2 17936.2 537.951   5
  -3  -1   2 17326.6 493.827   3
  -3  -1   3 8903.59 382.135   6
  -3   1   3 8616.77 394.814   1
  -3  -1   3 8266.43 583.167   2
  -3   1   3 8123.35 267.251   6
  -3  -1   3 9207.15 354.579   3
  -3   1   3 8699.14 369.637   5
  -3  -1   4 5798.44 319.480   6
  -3   1   4 6011.36 208.952   6
  -3  -1   4 6693.77 542.217   2
  -3   1   4 5870.68 432.087   2
  -3  -1   4 6088.11 298.708   3
  -3   1   4 6470.38 321.841   5
  -3  -1   5 1478.57 262.018   2
  -3   1   5 1536.73 91.9258   6
  -3   1   5 1515.83 225.139   2
  -3  -1   5 1723.67 163.909   3
  -3   1   5 1562.11 160.490   5
  -3   1   6 3823.46 259.610   5
  -3   1   6 4090.31 363.200   2
  -3  -1   6 4103.87 444.688   2
  -3   1   6 4281.81 348.845   4
  -3  -1   6 3780.74 169.142   5
  -3  -1   6 4322.59 267.649   3
  -3   1   7 1419.38 164.898   5
  -3   1   7 1317.44 200.940   4
  -3  -1   7 1241.95 90.0774   5
  -3  -1   7 1334.28 157.810   3
  -3   1   7 1459.79 224.734   2
  -3   1   8 4640.11 304.206   5
  -3   1   8 5373.31 418.905   4
  -3   1   8 5294.37 431.055   2
  -3  -1   8 5131.91 314.632   3
  -3  -1   8 4662.27 158.129   5
  -3   1   9 3055.60 255.416   5
  -3  -1   9 3700.88 293.808   1
  -3   1   9 3713.33 358.328   2
  -3   1   9 3792.45 367.520   4
  -3  -1   9 3829.97 280.761   3
  -3   1   9 3301.70 312.959   1
  -3   1  10 7371.45 404.352   5
  -3   1  10 8330.70 564.621   4
  -3   1  10 9648.63 595.003   2
  -3  -1  10 8080.18 448.881   1
  -3  -1  10 8061.54 427.574   3
  -3   1  10 7856.60 500.282   1
  -3   1  11 3510.23 344.637   1
  -3   1  11 3473.50 266.356   5
  -3  -1  11 3356.33 305.957   1
  -3   1  11 3874.19 399.103   4
  -3  -1  11 3513.48 293.814   3
  -3   1  12 15357.7 761.103   1
  -3  -1  12 15510.4 689.381   1
  -3   1  12 16710.0 862.649   4
  -3   1  13 3649.16 383.118   1
  -3   1  13 3854.06 422.081   4
  -3  -1  13 3665.24 333.912   1
  -3   1  14 9327.19 637.053   1
  -3   1  14 11042.7 740.404   4
  -3  -1  14 10379.9 590.816   1
  -3   1  15 1945.46 303.194   1
  -3   1  15 2253.75 348.847   4
  -3  -1  15 2528.18 301.809   1
  -3   1  16 3493.21 427.399   1
  -3   1  16 4875.28 530.148   4
  -3  -1  16 4718.29 422.679   1
  -3  -1  17 1037.70 207.991   1
  -3   1  17 1163.13 264.855   4
  -3   1  17 695.371 201.037   1
  -3  -1  18 2989.77 367.968   1
  -3   1  18 3142.76 451.360   4
  -3   1  18 2370.22 381.161   1
  -3  -1  19 270.414 144.279   1
  -3  -1  20 1457.53 285.324   1
  -3  -1  21 1975.30 341.916   1
  -3  -1  22 2334.24 393.365   1
  -3  -2 -25 1268.25 254.548   6
  -3  -2 -24 2057.07 312.372   6
   3   2 -23 2545.52 558.755   2
  -3  -2 -23 2107.52 297.813   6
  -3   2 -23 2169.78 323.475   6
   3  -2 -22 1866.37 415.444   2
   3   2 -22 1686.84 454.810   2
  -3  -2 -22 963.245 199.036   6
  -3   2 -22 1088.52 229.551   6
   3  -2 -21 2080.99 434.871   2
   3   2 -21 2660.13 545.202   2
  -3  -2 -21 1712.99 263.143   6
  -3   2 -21 2087.35 303.135   6
   3  -2 -20 679.440 247.075   2
   3   2 -20 678.260 289.231   2
  -3  -2 -20 619.087 155.775   6
  -3   2 -20 480.017 164.089   6
   3  -2 -19 393.630 177.657   2
   3   2 -19 476.555 247.551   2
  -3  -2 -19 345.281 115.632   6
  -3   2 -19 434.221 163.372   6
   3   2 -18 1011.51 327.868   2
   3  -2 -18 892.261 264.084   2
   3  -2 -18 808.418 128.535   5
  -3  -2 -18 604.881 143.909   6
  -3   2 -18 752.684 194.304   6
   3   2 -17 994.053 310.760   2
   3  -2 -17 682.842 198.975   2
   3  -2 -17 755.783 122.094   5
  -3  -2 -17 662.434 153.648   6
  -3   2 -17 606.799 162.797   6
   3   2 -16 3046.63 535.203   2
   3  -2 -16 2483.78 368.329   2
  -3  -2 -16 2387.10 273.352   6
  -3   2 -16 2338.45 298.630   6
   3  -2 -16 2262.91 216.466   5
   3   2 -15 2959.00 509.042   2
  -3  -2 -15 2243.17 256.216   6
  -3   2 -15 2242.81 293.274   6
   3  -2 -15 2492.89 357.456   2
   3  -2 -15 2037.52 206.345   5
   3   2 -14 7081.02 777.232   2
  -3  -2 -14 5992.23 406.473   6
  -3   2 -14 6216.92 469.448   6
   3  -2 -14 6596.83 553.945   2
   3  -2 -14 5767.83 352.501   5
  -3  -2 -13 4680.31 348.269   6
  -3   2 -13 4461.92 388.926   6
   3   2 -13 4634.75 611.118   2
   3  -2 -13 4248.69 417.849   2
   3  -2 -13 4711.32 315.070   5
   3   2 -12 6509.19 718.474   2
  -3  -2 -12 6543.38 407.914   6
  -3   2 -12 6794.51 465.522   6
   3  -2 -12 6418.47 370.179   5
  -3  -2 -11 8702.45 465.553   6
  -3   2 -11 9475.38 536.454   6
   3   2 -11 9766.21 842.782   2
   3  -2 -11 9082.47 436.771   5
  -3  -2 -10 5953.88 377.281   6
  -3   2 -10 6692.11 445.314   6
   3   2 -10 6179.56 641.887   2
   3  -2 -10 6444.57 362.999   5
   3   2  -9 4816.61 379.433   6
  -3  -2  -9 4218.17 311.236   6
  -3   2  -9 4348.41 361.317   6
   3  -2  -9 4680.66 305.170   5
  -3   2  -8 3531.76 204.364   1
   3   2  -8 2555.98 266.292   6
  -3   2  -8 2667.02 266.000   6
  -3  -2  -8 2481.40 233.714   6
   3  -2  -8 2684.65 230.129   5
  -3   2  -7 3409.10 209.950   1
   3   2  -7 2498.66 261.049   6
  -3   2  -7 2260.10 247.364   6
  -3  -2  -7 2599.14 236.019   6
   3  -2  -7 2544.36 223.918   5
   3   2  -6 1976.63 224.818   6
  -3  -2  -6 1945.95 202.549   6
  -3   2  -6 2200.64 227.482   6
   3  -2  -6 1976.76 192.847   5
  -3   2  -6 2442.84 181.570   1
   3   2  -5 1646.52 200.670   6
  -3  -2  -5 1674.77 190.469   6
  -3   2  -5 1574.18 196.238   6
   3   2  -5 1586.86 204.548   4
   3  -2  -5 1841.08 186.824   5
  -3   2  -5 1858.86 164.035   1
  -3  -2  -4 4214.53 295.316   6
   3  -2  -4 4661.75 306.792   1
   3   2  -4 4262.17 313.293   6
  -3   2  -4 4124.08 306.999   6
   3  -2  -4 4928.13 307.352   5
  -3   2  -4 5127.79 275.789   1
   3  -2  -3 6236.11 349.381   1
  -3  -2  -3 5932.08 352.580   6
   3   2  -3 6294.91 378.107   6
   3  -2  -3 6536.30 355.084   5
  -3   2  -3 5983.00 355.639   6
  -3   2  -3 6452.73 321.658   1
   3  -2  -2 11212.2 467.662   1
  -3  -2  -2 11168.1 483.009   6
   3   2  -2 11314.7 506.833   6
  -3   2  -2 10779.5 447.225   6
   3  -2  -2 11282.8 477.119   5
  -3   2  -2 11285.4 446.564   1
   3  -2  -1 8039.17 387.279   1
  -3  -2  -1 7995.14 404.715   6
   3   2  -1 8680.20 436.810   6
  -3   2  -1 7749.23 369.130   6
   3  -2  -1 7783.21 400.547   5
  -3   2  -1 8295.47 390.475   1
  -3  -2   0 10429.6 468.736   6
  -3   2   0 10290.4 401.131   6
   3   2   0 10755.9 498.319   6
   3  -2   0 11064.0 472.265   5
  -3   2   0 10301.1 451.546   1
  -3   2   1 9122.07 439.765   1
  -3  -2   1 8766.87 434.540   6
   3   2   1 8833.67 442.090   6
  -3   2   1 8071.58 340.803   6
   3  -2   1 8439.76 421.145   5
  -3   2   1 9247.09 445.421   5
  -3   2   2 9322.30 456.443   1
  -3  -2   2 8867.72 445.526   6
  -3   2   2 8692.64 328.315   6
  -3  -2   2 8192.98 607.031   2
   3  -2   2 9645.08 445.626   5
  -3   2   2 9367.05 456.246   5
  -3  -2   3 7191.46 378.767   3
  -3   2   3 8223.23 439.249   1
  -3  -2   3 8208.65 433.601   6
  -3   2   3 7591.07 276.775   6
  -3   2   3 6904.57 400.029   2
   3  -2   3 7843.96 412.995   5
  -3   2   3 8391.66 431.835   5
  -3   2   4 4467.68 320.565   5
  -3  -2   4 3748.79 281.036   3
  -3   2   4 3919.46 313.372   1
  -3   2   4 3209.38 272.742   2
  -3   2   4 3820.89 170.209   6
   3  -2   4 3854.19 283.631   5
  -3   2   5 2373.23 258.375   1
  -3   2   5 2416.58 115.910   6
   3  -2   5 2342.37 226.149   5
  -3   2   5 2273.51 224.025   2
  -3  -2   5 2609.68 233.365   3
  -3   2   6 1552.83 184.221   2
  -3   2   6 1641.59 220.766   1
  -3  -2   6 1789.10 198.559   3
   3  -2   6 1180.92 74.5465   3
  -3  -2   7 2160.67 165.624   5
  -3   2   7 2260.36 260.982   1
  -3   2   7 2324.90 224.569   2
   3  -2   7 1515.55 80.2935   3
  -3  -2   7 2564.02 235.202   3
  -3  -2   8 3287.18 186.195   5
  -3   2   8 3132.82 322.561   1
   3  -2   8 2244.33 101.673   3
  -3  -2   8 3424.89 280.810   3
  -3   2   9 4405.04 401.345   1
   3   2   9 3774.25 137.332   4
  -3  -2   9 5302.28 360.538   3
  -3  -2   9 4591.77 172.772   5
  -3   2  10 7618.57 543.017   1
  -3   2  10 8888.41 625.545   4
  -3  -2  10 8533.85 474.378   3
  -3   2  11 9622.38 666.634   4
  -3   2  11 8620.20 595.334   1
  -3  -2  11 9123.15 499.292   3
  -3  -2  12 8664.45 503.283   1
  -3   2  12 9224.87 670.411   4
  -3   2  12 8201.86 605.825   1
  -3  -2  12 7945.10 487.257   3
  -3  -2  13 6233.00 445.059   1
  -3   2  13 6279.37 549.616   1
  -3   2  13 6510.98 580.704   4
  -3  -2  13 5829.64 425.505   3
  -3   2  14 5717.32 550.464   1
  -3  -2  14 6462.37 463.755   1
  -3   2  14 6457.11 607.022   4
  -3  -2  14 7124.01 481.796   3
  -3  -2  15 3621.57 357.876   1
  -3   2  15 3618.64 455.961   4
  -3  -2  15 3569.05 350.168   3
  -3   2  16 3171.16 443.478   4
  -3  -2  16 2762.24 323.374   1
  -3  -2  16 2692.96 316.149   3
  -3  -2  17 1076.54 223.898   1
  -3   2  17 1067.48 276.603   4
  -3  -2  18 1086.86 228.567   1
  -3   2  18 683.915 235.930   4
  -3  -2  19 478.905 177.159   1
  -3   2  19 862.939 270.603   4
  -3   2  20 977.219 295.277   4
  -3  -2  20 1107.44 241.308   1
  -3  -2  21 2124.52 345.971   1
  -3   2  21 2303.40 455.342   4
  -3   2  22 1899.58 425.956   4
  -3  -3 -24 37.3876 132.864   6
  -3  -3 -23 416.797 137.102   6
  -3  -3 -22 239.815 120.095   6
   3   3 -21 2464.40 530.698   2
  -3  -3 -21 2746.72 342.074   6
  -3   3 -21 2496.48 346.019   6
   3   3 -20 909.064 320.852   2
  -3  -3 -20 552.681 155.076   6
  -3   3 -20 611.391 182.260   6
  -3  -3 -19 5605.32 456.236   6
  -3   3 -19 4731.07 484.232   6
   3   3 -18 618.367 269.319   2
   3  -3 -18 432.259 129.542   5
  -3  -3 -18 789.841 200.553   6
  -3   3 -18 493.424 179.586   6
  -3  -3 -17 4877.88 408.270   6
  -3   3 -17 5250.25 476.060   6
   3   3 -17 5715.46 742.716   2
   3  -3 -17 5166.32 430.090   5
   3   3 -16 257.737 183.664   2
   3  -3 -16 21.7011 94.0142   5
  -3  -3 -16 191.308 105.778   6
  -3   3 -16 301.613 118.274   6
   3   3 -15 2478.74 469.598   2
  -3   3 -15 2144.02 299.876   6
  -3  -3 -15 2375.19 277.848   6
   3  -3 -15 2418.83 302.394   5
   3   3 -14 260.766 148.280   2
   3  -3 -14 165.247 66.0644   5
  -3  -3 -14 427.000 112.880   6
  -3   3 -14 165.573 104.684   6
   3   3 -13 225.697 144.360   2
   3  -3 -13 241.306 102.656   5
  -3  -3 -13 381.200 119.654   6
  -3   3 -13 146.748 99.8359   6
   3   3 -12 341.352 165.612   2
   3  -3 -12 274.070 106.854   5
  -3  -3 -12 250.837 105.543   6
  -3   3 -12 195.266 85.7689   6
  -3  -3 -11 391.851 123.483   6
   3  -3 -11 399.783 111.005   5
   3   3 -11 49.5083 131.919   2
  -3   3 -11 283.723 96.0798   6
   3  -3 -10 468.655 131.066   5
  -3  -3 -10 425.369 114.312   6
  -3   3 -10 402.385 110.453   6
  -3  -3  -9 6624.51 413.671   6
  -3   3  -9 6136.28 440.109   6
   3  -3  -9 7284.86 489.372   5
  -3  -3  -8 2184.88 241.726   6
   3  -3  -8 1923.14 244.427   5
  -3  -3  -7 12861.7 588.502   6
   3  -3  -7 13884.8 662.227   5
  -3  -3  -6 1895.43 229.529   6
   3  -3  -6 2106.75 255.867   5
  -3  -3  -5 15621.7 647.912   6
   3  -3  -5 15882.9 694.934   5
   3  -3  -4 1220.15 197.275   5
  -3  -3  -4 1189.99 177.203   6
  -3  -3  -3 6374.02 414.319   6
   3  -3  -3 7492.43 462.949   5
   3  -3  -2 849.930 160.472   5
  -3  -3  -2 725.832 139.215   6
   3  -3  -1 560.226 132.061   5
  -3  -3  -1 419.278 112.514   6
   3  -3  -1 430.116 118.740   1
   3  -3   0 20.2287 51.8370   5
  -3  -3   0-51.5569 73.2771   6
   3  -3   0 82.2741 54.5335   1
   3  -3   1 542.659 132.776   5
  -3  -3   1 845.781 160.148   6
   3  -3   1 850.951 137.028   1
   3  -3   2 915.567 161.115   5
   3  -3   2 960.201 140.349   1
  -3  -3   2 805.205 150.648   5
  -3  -3   3 6165.69 386.257   5
   3  -3   3 6454.51 334.414   1
   3  -3   3 6851.17 438.341   5
  -3  -3   4 1561.46 196.097   5
  -3   3   4 908.948 88.3027   2
   3  -3   4 1743.64 223.686   5
  -3  -3   5 16651.4 717.454   3
  -3  -3   5 16893.5 639.995   5
   3  -3   5 17440.9 720.485   5
  -3  -3   6 2643.94 282.697   3
  -3  -3   6 2638.18 238.006   5
  -3   3   6 2596.99 169.560   6
   3  -3   6 2655.31 282.370   5
  -3  -3   7 14618.0 684.448   3
  -3  -3   7 14993.7 565.963   5
  -3   3   7 14433.9 328.837   6
   3  -3   7 14454.9 668.331   5
  -3   3   7 14989.6 343.982   6
   3  -3   8 1198.86 125.678   3
  -3  -3   8 1739.09 175.026   5
  -3  -3   8 1926.95 243.674   3
   3  -3   8 1939.22 241.675   5
  -3  -3   9 8214.63 512.518   3
  -3  -3   9 7815.27 344.699   5
   3  -3  10 391.569 69.3776   3
  -3  -3  10 703.376 170.454   3
  -3  -3  10 581.126 83.0656   5
   3  -3  11 395.382 74.1343   3
  -3  -3  11 572.367 156.829   3
  -3  -3  11 425.413 50.0310   5
   3  -3  12 95.1041 45.0212   3
  -3  -3  12 256.615 128.738   3
   3   3  12 120.727 43.1200   4
   3  -3  13 179.710 59.7783   3
  -3  -3  13 290.811 139.796   3
   3   3  13 200.351 44.1069   4
  -3   3  13 172.104 115.130   4
  -3  -3  14 187.969 105.193   3
  -3  -3  14 303.868 120.091   1
  -3   3  14 179.365 134.499   4
  -3   3  15 2810.49 432.264   4
  -3  -3  15 2941.37 333.214   1
  -3  -3  15 2969.89 351.923   3
  -3  -3  16 484.216 174.175   3
  -3   3  16 508.933 201.724   4
  -3  -3  16 292.580 135.111   1
  -3  -3  17 6874.86 533.412   1
  -3   3  17 6779.96 709.135   4
  -3  -3  17 7057.31 569.019   3
  -3  -3  18 1254.67 260.983   3
  -3  -3  18 1254.99 242.540   1
  -3   3  18 980.454 281.934   4
  -3   3  19 7240.94 770.212   4
  -3  -3  19 8340.94 616.684   1
  -3  -3  19 7854.71 637.226   3
  -3   3  20 950.048 304.168   4
  -3   3  21 3648.60 574.501   4
  -3   3  22 538.796 244.613   4
  -3  -4 -22 1681.04 276.672   6
  -3  -4 -21 804.756 206.750   6
  -3  -4 -20 952.490 240.317   5
  -3  -4 -20 1406.58 238.958   6
  -3   4 -20 1748.56 463.127   2
   3   4 -19-362.605 217.937   2
   3  -4 -19-278.255 146.960   5
  -3  -4 -19-127.968 153.413   5
  -3  -4 -19 63.2810 107.439   6
  -3   4 -19-144.188 124.894   6
   3   4 -18 1787.97 427.816   2
   3  -4 -18 1382.65 252.072   5
  -3  -4 -18 1788.81 265.085   6
  -3   4 -18 1282.74 256.002   6
  -3  -4 -18 1545.65 299.298   5
   3   4 -17 411.675 204.325   2
   3  -4 -17 447.320 143.294   5
  -3  -4 -17 909.247 237.486   5
  -3  -4 -17 845.479 188.039   6
  -3   4 -17 442.913 169.540   6
   3   4 -16 1547.58 395.534   2
   3  -4 -16 1007.37 224.403   5
  -3  -4 -16 1400.84 280.851   5
  -3  -4 -16 1220.37 227.469   6
  -3   4 -16 1363.36 253.100   6
   3   4 -15 888.565 287.689   2
   3  -4 -15 466.793 171.350   5
  -3  -4 -15 1005.63 233.443   5
  -3  -4 -15 973.871 204.367   6
  -3   4 -15 545.250 156.157   6
  -3  -4 -14 2341.43 283.875   6
  -3  -4 -14 2611.80 360.888   5
   3   4 -14 2956.64 518.038   2
   3  -4 -14 2068.28 340.862   5
  -3   4 -14 2163.14 311.715   6
   3  -4 -13 290.333 123.415   5
  -3  -4 -13 525.790 150.942   6
  -3  -4 -12 3279.51 335.612   6
   3  -4 -12 3372.67 404.692   5
   3  -4 -11 309.503 109.801   5
  -3  -4 -11 619.598 168.171   6
  -3  -4 -10 3690.22 346.324   6
   3  -4 -10 3399.59 409.292   5
   3  -4  -9 981.717 209.240   5
  -3  -4  -9 1327.50 201.669   6
   3  -4  -8 2270.34 318.554   5
  -3  -4  -8 2025.56 267.521   6
   3  -4  -7 308.236 142.322   5
  -3  -4  -7 248.190 119.490   5
  -3  -4  -7 316.336 112.301   6
  -3  -4  -6 4322.79 413.937   5
  -3  -4  -6 4414.52 375.603   6
   3  -4  -6 4186.11 420.985   5
   3  -4  -5 782.112 186.347   5
  -3  -4  -5 1011.97 208.406   5
  -3  -4  -5 948.954 188.971   6
  -3  -4  -4 2559.41 310.598   5
  -3  -4  -4 2480.60 283.880   6
   3  -4  -4 2492.77 313.758   5
  -3  -4  -3 2356.40 296.937   5
  -3  -4  -3 2353.93 284.526   6
   3  -4  -3 2310.44 309.401   5
  -3  -4  -2 5272.42 444.056   5
  -3  -4  -2 5295.76 428.638   6
   3  -4  -2 5277.62 450.655   5
   3  -4  -1 806.108 182.070   5
  -3  -4  -1 736.231 168.831   5
  -3  -4   0 6934.81 488.305   5
   3  -4   0 6534.00 507.938   5
   3  -4   1 826.316 194.940   5
  -3  -4   1 717.695 163.051   5
  -3  -4   2 5209.17 421.120   5
   3  -4   2 5156.04 391.922   1
   3  -4   2 5113.42 443.806   5
  -3  -4   3 2587.70 289.312   5
   3  -4   3 2201.69 297.845   5
   3  -4   3 2394.50 249.084   1
  -3  -4   4 2957.47 305.593   5
   3  -4   4 2609.78 243.392   1
   3  -4   4 3055.95 340.527   5
   3  -4   5 1360.59 239.748   5
  -3  -4   5 1000.52 186.038   5
   3  -4   5 963.745 143.470   1
  -3   4   5 1046.34 156.529   6
  -3  -4   6 5117.52 387.576   5
  -3   4   6 4697.61 303.087   6
   3  -4   6 4515.25 416.755   5
  -3  -4   7 58.3398 109.259   3
  -3  -4   7 141.675 79.4864   5
  -3  -4   8 2314.54 245.508   5
  -3  -4   8 2229.43 319.552   3
   3  -4   8 1896.70 284.776   5
   3  -4   9 1195.09 226.421   5
  -3  -4   9 1480.42 268.330   3
  -3  -4   9 1364.42 179.932   5
   3  -4  10 4208.29 410.278   5
  -3  -4  10 4400.58 293.194   5
  -3  -4  10 4097.62 439.261   3
   3  -4  11 276.789 90.1854   3
  -3  -4  11 604.367 171.200   3
   3  -4  12 2582.68 227.212   3
  -3  -4  12 4161.27 445.999   3
   3  -4  13 507.017 115.757   3
  -3  -4  13 666.598 196.254   3
  -3  -4  14 3030.04 395.070   3
  -3  -4  15 1628.21 296.574   3
  -3  -4  15 1137.25 229.079   1
  -3  -4  16 1541.64 298.826   3
  -3  -4  16 1426.48 249.705   1
  -3   4  16 1459.31 343.627   4
  -3  -4  17 580.949 189.557   3
  -3   4  17 390.877 199.511   4
  -3  -4  18 1719.31 324.939   3
  -3   4  18 1849.55 404.697   4
  -3  -4  19 268.801 179.746   3
  -3   4  19 163.702 132.031   4
  -3   4  20 1703.79 399.216   4
   3  -5 -19 440.943 180.302   5
  -3  -5 -19 453.461 175.284   6
  -3   5 -19 143.868 169.390   2
   3  -5 -18 72.2575 114.589   5
  -3  -5 -18 110.584 82.2132   6
  -3   5 -18 124.008 163.781   2
   3  -5 -17 330.759 172.317   5
  -3  -5 -17 177.577 115.996   5
  -3  -5 -17 287.681 136.996   6
  -3   5 -17-176.337 157.028   2
   3  -5 -16 385.716 158.857   5
  -3  -5 -16 39.0409 93.9132   5
  -3  -5 -16 274.659 150.478   6
  -3   5 -16-93.9066 123.971   2
  -3   5 -16 96.8746 114.314   6
   3  -5 -15 1688.32 352.225   5
  -3  -5 -15 1144.61 260.391   5
  -3  -5 -15 1135.89 234.113   6
  -3   5 -15 1101.39 271.062   2
   3  -5 -14 1409.65 327.402   5
  -3  -5 -14 907.416 240.938   5
  -3  -5 -14 1181.29 219.846   6
  -3   5 -14 1096.98 272.698   2
   3  -5 -13 2282.54 391.696   5
  -3  -5 -13 2240.94 361.880   5
  -3  -5 -13 2163.78 300.748   6
  -3   5 -13 1841.20 321.604   2
   3  -5 -12 445.738 203.659   5
  -3  -5 -12 428.478 188.641   5
  -3  -5 -12 364.739 144.905   6
  -3   5 -12 279.447 149.552   2
  -3  -5 -11 2667.09 397.895   5
  -3  -5 -11 3042.53 360.542   6
  -3   5 -11 2349.62 339.957   2
   3  -5 -11 3232.07 446.778   5
   3  -5 -10 1362.06 301.885   5
  -3  -5 -10 1268.56 232.238   6
  -3  -5 -10 1447.78 282.322   5
  -3   5 -10 1321.16 245.569   2
   3  -5  -9 1765.62 328.875   5
  -3  -5  -9 1892.86 314.540   5
  -3   5  -9 1498.50 249.610   2
  -3  -5  -9 1859.91 273.854   6
   3  -5  -8 128.646 131.130   5
  -3  -5  -8 90.2528 99.4280   5
  -3  -5  -8 336.295 138.956   6
  -3   5  -8 236.800 96.9895   2
   3  -5  -7 760.253 202.764   5
  -3  -5  -7 664.456 171.438   6
  -3  -5  -7 1010.93 245.355   5
  -3   5  -7 735.948 165.105   2
   3  -5  -6 414.832 151.839   5
  -3  -5  -6 459.863 158.393   5
  -3  -5  -6 223.904 101.544   6
  -3   5  -6 178.553 68.6457   2
   3  -5  -5 436.609 169.435   5
  -3  -5  -5 200.967 98.2097   5
   3  -5  -4 286.121 147.480   5
  -3  -5  -4 339.407 141.407   5
  -3  -5  -3 2356.13 343.315   5
   3  -5  -3 2760.96 376.876   5
   3  -5  -2 1746.50 291.680   5
  -3  -5  -2 1650.85 280.231   5
  -3  -5  -1 3585.91 405.218   5
   3  -5  -1 3434.16 423.327   5
   3  -5   0 1052.88 234.024   5
  -3  -5   0 1003.63 214.505   5
  -3  -5   1 4029.35 418.952   5
   3  -5   1 3885.75 433.906   5
   3  -5   2 1200.86 252.382   5
  -3  -5   2 1751.69 280.299   5
  -3  -5   3 2847.74 342.369   5
   3  -5   3 2465.64 346.678   5
   3  -5   4 225.903 134.895   5
  -3  -5   4 167.488 89.9914   5
   3  -5   5 181.570 105.698   5
  -3  -5   5 292.340 118.181   5
   3  -5   6 121.289 91.1725   5
  -3  -5   6 230.963 105.092   5
   3  -5   7 674.317 196.361   5
  -3  -5   7 585.378 157.137   3
  -3  -5   7 869.606 190.001   5
   3  -5   8 380.661 165.165   5
  -3  -5   8 74.0216 111.193   3
  -3  -5   8 422.197 129.234   5
   3  -5   9 1866.35 310.622   5
  -3  -5   9 1483.33 293.296   3
  -3  -5   9 1929.53 239.714   5
   3  -5  10 1635.90 294.985   5
  -3  -5  10 1440.20 307.753   3
   3  -5  10 1017.45 184.527   3
  -3  -5  11 2403.76 375.815   3
   3  -5  11 1750.80 240.448   3
   3  -5  12 380.356 150.097   5
  -3  -5  12 308.053 165.352   3
  -3  -5  13 3245.67 446.744   3
  -3  -5  14 989.571 263.192   3
  -3  -5  15 1579.06 325.418   3
  -3  -5  16 344.532 182.293   3
  -3   5  17 344.008 246.927   4
   3  -6 -15 144.324 163.802   5
  -3  -6 -15 461.878 168.154   6
   3  -6 -14 64.3945 119.952   5
  -3  -6 -14 135.325 105.248   6
   3  -6 -13 97.3960 129.833   5
  -3  -6 -13 177.438 157.118   6
   3  -6 -12 469.364 194.322   5
  -3  -6 -12 105.648 122.246   5
   3  -6 -11 530.574 243.660   5
  -3  -6 -11 143.923 134.532   5
   3  -6 -10 408.065 224.609   5
  -3  -6 -10 369.764 184.526   5
   3  -6  -9 1093.25 286.595   5
  -3  -6  -9 926.872 242.602   5
   3  -6  -8 1150.89 305.127   5
  -3  -6  -8 1232.71 296.713   5
   3  -6  -7 2192.87 385.830   5
  -3  -6  -7 2192.33 371.966   5
   3  -6  -6 1303.39 298.333   5
  -3  -6  -6 1466.12 295.412   5
   3  -6  -5 2416.81 391.408   5
  -3  -6  -5 2159.82 352.992   5
   3  -6  -4 862.194 246.473   5
  -3  -6  -4 1341.13 295.466   5
   3  -6  -3 1030.40 263.684   5
  -3  -6  -3 1130.42 262.611   5
   3  -6  -2 84.3334 84.8540   5
  -3  -6  -2 33.9237 83.3064   5
   3  -6  -1-13.7822 108.455   5
  -3  -6  -1 39.9182 122.559   5
   3  -6   0 133.842 122.234   5
  -3  -6   0 55.5097 92.0886   5
   3  -6   1 300.385 172.949   5
  -3  -6   1-1.94787 109.869   5
   3  -6   2-116.030 120.027   5
  -3  -6   2 23.2188 90.6482   5
   3  -6   3 767.983 216.013   5
  -3  -6   3 1125.59 248.185   5
   3  -6   4 1396.43 283.217   5
  -3  -6   4 1279.80 256.680   5
   3  -6   5 2244.92 374.394   5
  -3  -6   5 2162.59 318.968   5
   3  -6   6 1168.25 278.633   5
  -3  -6   6 1602.87 269.427   5
   3  -6   7 2878.28 426.111   5
  -3  -6   7 2792.91 345.264   5
   3  -6   8 1097.03 281.684   5
  -3  -6   8 658.680 238.926   3
   3  -6   9 939.562 262.203   5
  -3  -6   9 964.747 274.157   3
   3  -6  10-51.0422 106.865   5
  -3  -6  10 273.775 159.534   3
   3  -6  11-8.66496 92.5294   5
  -3  -6  11-14.3289 136.875   3
   3  -6  12 289.535 156.866   5
  -3  -6  12 30.3031 140.498   3
   3  -6  13 307.682 165.236   5
  -3  -7  -5 404.266 187.886   5
  -3  -7  -4 325.935 153.728   5
  -3  -7  -3 467.788 194.282   5
  -3  -7  -2 895.818 266.578   5
  -3  -7  -1 176.906 128.997   5
  -3  -7   0 1250.73 289.440   5
  -3  -7   1 49.6778 115.165   5
  -3  -7   2 544.987 191.435   5
  -3  -7   3 547.609 196.415   5
  -3  -7   4 568.994 194.681   5
  -3  -7   5 579.589 190.992   5
   4   0 -24 11348.1 1333.20   2
   4   0 -23 218.493 204.259   2
  -4   0 -23 144.098 142.289   6
   4   0 -22-25.5666 125.516   2
  -4   0 -22 563.563 171.903   6
   4   0 -21-254.936 200.967   2
  -4   0 -21 148.280 117.953   6
  -4   0 -20 6620.46 528.266   6
   4   0 -20 6165.53 865.049   2
   4   0 -19 54.9771 125.296   2
  -4   0 -19 73.6663 94.4260   6
   4   0 -18 2456.51 524.345   2
  -4   0 -18 2392.49 307.625   6
   4   0 -17-285.311 184.896   2
  -4   0 -17 92.7258 104.494   6
  -4   0 -16 13653.7 705.741   6
  -4   0 -15 48.9842 97.7678   6
  -4   0 -14 1302.83 213.660   6
   4   0 -13 11.4813 26.9086   6
  -4   0 -13 66.9908 86.6809   6
   4   0 -12 35769.0 629.046   6
  -4   0 -12 42446.4 1164.76   6
   4   0 -11-8.67705 26.8707   6
  -4   0 -11 74.7522 99.4258   6
   4   0 -10 223.698 43.7264   6
  -4   0 -10 458.271 134.005   6
   4   0  -9 24.3481 28.3245   6
  -4   0  -9 53.1508 73.4924   6
   4   0  -8 13680.7 382.813   6
  -4   0  -8 14775.8 596.355   6
  -4   0  -7 53.5463 71.9330   6
   4   0  -7-4.03268 27.5028   6
  -4   0  -6 9561.59 453.790   6
   4   0  -6 9825.72 342.308   6
   4   0  -5-24.0185 33.1392   3
  -4   0  -5 19.7535 48.3810   6
   4   0  -5 24.0164 47.4105   6
   4   0  -4 41695.6 895.156   3
  -4   0  -4 38611.3 963.799   6
   4   0  -4 40963.6 834.018   6
  -4   0  -4 37410.6 721.650   4
   4   0  -3 41.2216 39.8736   3
  -4   0  -3 7.33658 26.5064   4
  -4   0  -3-31.3498 45.8193   6
   4   0  -3-16.7465 35.5174   6
  -4   0  -2 1356.47 161.518   6
   4   0  -2 1656.51 157.278   6
  -4   0  -2 1403.03 141.417   4
  -4   0  -1 120.379 68.1257   5
  -4   0  -1 114.088 61.0859   4
  -4   0  -1 44.6283 61.2561   6
   4   0  -1 14.2474 54.8899   6
  -4   0   0 165005. 2446.37   6
   4   0   0 165789. 2467.06   6
  -4   0   0 166586. 2520.91   4
  -4   0   0 165438. 2470.77   5
  -4   0   1 58.4666 66.6542   6
  -4   0   1 18.5333 60.5219   4
   4   0   1 79.9660 80.0990   6
  -4   0   2 1555.14 161.283   6
  -4   0   2 1282.74 174.196   4
   4   0   2 1132.08 155.111   6
  -4   0   3-9.18615 44.0199   6
  -4   0   3 26.9689 47.4714   4
   4   0   3 28.7719 54.3221   6
  -4   0   4 42796.2 1088.65   1
  -4   0   4 43118.4 916.629   6
  -4   0   5 23.0087 30.8707   5
  -4   0   5 37.9762 67.2876   1
  -4   0   5 48.8388 48.0297   6
  -4   0   5 45.0551 74.4210   4
  -4   0   6 10272.6 404.214   6
  -4   0   6 10916.7 524.757   1
  -4   0   6 11303.7 598.727   4
  -4   0   6 10387.2 401.083   5
  -4   0   7 22.2017 28.7318   5
  -4   0   7 80.1403 91.1159   4
  -4   0   7 63.5739 67.5662   1
  -4   0   8 18020.5 733.431   1
  -4   0   8 18574.7 836.268   4
  -4   0   8 17314.7 540.927   5
  -4   0   9-0.44084 31.7014   5
  -4   0   9 29.6591 51.6662   4
  -4   0   9-5.53918 66.2442   1
  -4   0  10 275.272 110.333   1
  -4   0  10 210.402 51.6511   5
  -4   0  10 281.007 130.159   4
  -4   0  11-21.8604 68.8034   1
  -4   0  11-7.30353 45.0762   5
  -4   0  12 55994.4 1555.44   1
  -4   0  13 51.8672 94.6179   1
  -4   0  14 1406.38 260.830   1
  -4   0  15 240.876 129.148   1
  -4   0  16 19830.2 1017.05   1
  -4   0  17 75.7957 96.3193   1
  -4   0  18 3079.23 416.471   1
  -4   0  19 61.1645 103.300   1
  -4   0  20 9230.90 801.148   1
  -4   0  21-145.113 157.744   1
  -4   0  22 2.32929 146.053   1
  -4   0  23 86.2939 114.004   1
   4   1 -23 2104.95 544.326   2
   4  -1 -23 2106.59 532.470   2
  -4  -1 -23 2302.12 332.980   6
   4   1 -22 1485.55 445.906   2
   4  -1 -22 1714.91 451.484   2
  -4  -1 -22 1398.09 260.806   6
  -4   1 -22 1046.00 207.984   6
   4   1 -21 1343.75 408.515   2
   4  -1 -21 1341.21 406.632   2
  -4  -1 -21 1698.03 269.234   6
  -4   1 -21 1432.06 266.599   6
   4   1 -20 734.820 314.094   2
   4  -1 -20 715.694 274.565   2
  -4  -1 -20 428.407 145.582   6
  -4   1 -20 447.375 161.046   6
  -4  -1 -19 5800.98 476.737   6
  -4   1 -19 6067.04 514.772   6
   4   1 -19 6464.43 865.722   2
   4  -1 -19 6522.30 763.327   2
   4   1 -18 811.338 307.272   2
  -4  -1 -18 771.051 185.418   6
  -4   1 -18 736.046 182.678   6
   4   1 -17 1705.07 429.750   2
  -4  -1 -17 1772.22 250.085   6
  -4   1 -17 1789.49 275.062   6
   4   1 -16 4057.08 623.800   2
  -4   1 -16 3878.62 390.851   6
  -4  -1 -16 3724.44 359.763   6
  -4  -1 -15 6379.17 461.128   6
  -4   1 -15 7313.69 525.664   6
  -4  -1 -14 1498.90 220.908   6
  -4   1 -14 1568.95 235.915   6
   4   1 -13 869.072 125.760   6
  -4  -1 -13 988.162 176.469   6
  -4   1 -13 708.406 178.123   6
   4   1 -12 399.615 84.8111   6
  -4  -1 -12 332.599 118.877   6
  -4   1 -12 687.515 169.021   6
   4   1 -11 4583.16 279.377   6
  -4  -1 -11 4880.38 361.369   6
  -4   1 -11 4923.85 392.715   6
   4   1 -10 5021.43 289.141   6
  -4  -1 -10 4687.05 346.988   6
  -4   1 -10 5500.66 404.079   6
   4  -1 -10 5322.27 272.095   5
   4   1  -9 6833.50 339.127   6
  -4   1  -9 7361.49 456.120   6
  -4  -1  -9 6672.11 409.759   6
   4  -1  -9 6846.00 315.099   5
   4   1  -8 1810.40 173.837   6
  -4   1  -8 2051.35 244.589   6
  -4  -1  -8 1907.77 216.833   6
   4   1  -7 8598.33 384.617   6
  -4  -1  -7 8655.78 454.351   6
  -4   1  -7 8932.83 474.984   6
  -4  -1  -6 1694.84 196.839   6
   4   1  -6 1559.98 168.568   6
  -4   1  -6 1575.68 197.622   6
  -4   1  -5 8732.06 372.643   1
   4   1  -5 9196.79 398.570   6
  -4   1  -5 9174.37 457.439   6
   4   1  -5 9541.36 520.491   4
   4  -1  -5 9640.98 404.155   3
  -4  -1  -5 9468.30 462.443   6
  -4   1  -4 5972.65 307.335   1
  -4  -1  -4 6788.26 382.581   6
   4   1  -4 6580.28 337.905   6
  -4   1  -4 6078.81 355.452   6
   4  -1  -4 6844.61 317.009   3
  -4  -1  -3 7568.89 296.599   3
  -4   1  -3 7749.70 359.101   1
  -4  -1  -3 8180.52 419.892   6
   4   1  -3 8023.39 386.771   6
  -4   1  -3 7448.44 388.097   6
   4  -1  -3 7946.02 329.911   3
  -4   1  -2 3735.47 253.878   1
  -4  -1  -2 4014.23 289.574   6
   4   1  -2 4095.79 275.120   6
  -4   1  -2 3416.16 251.233   6
   4  -1  -2 3461.35 201.986   3
  -4  -1  -2 3597.87 204.533   3
  -4   1  -1 4376.20 277.963   1
  -4  -1  -1 4251.04 297.610   6
  -4   1  -1 4226.97 257.888   6
   4   1  -1 4735.23 300.645   6
   4  -1  -1 4269.56 211.167   3
  -4  -1  -1 4686.28 241.093   3
  -4  -1   0 732.885 120.633   6
  -4   1   0 744.837 106.947   6
   4   1   0 761.899 130.451   6
  -4   1   0 802.551 136.079   1
  -4  -1   0 885.416 109.912   3
   4  -1   0 846.470 89.0134   3
  -4  -1   1 5190.67 321.912   6
  -4   1   1 5037.22 266.067   6
  -4   1   1 4929.22 315.298   1
  -4   1   1 5226.60 320.046   5
  -4  -1   1 5103.95 269.209   3
   4  -1   1 4819.76 197.067   3
  -4  -1   2 3693.02 270.470   6
  -4   1   2 3224.90 204.505   6
  -4   1   2 3023.59 258.467   1
  -4  -1   2 3812.57 238.846   3
  -4   1   2 3420.45 257.471   5
  -4   1   3 10021.7 531.458   4
  -4  -1   3 9776.17 444.402   6
  -4   1   3 9429.53 346.756   6
  -4   1   3 8937.92 468.150   1
  -4  -1   3 9812.28 402.776   3
  -4   1   3 10592.1 455.536   5
  -4   1   4 5883.56 259.673   6
  -4   1   4 5962.34 381.535   1
  -4  -1   4 5517.14 336.284   6
  -4   1   4 6180.34 515.611   2
  -4   1   4 6501.30 437.855   4
  -4  -1   4 5423.43 274.910   5
  -4  -1   4 6489.97 334.400   3
  -4  -1   5 9456.43 453.352   6
  -4   1   5 9328.34 316.004   6
  -4   1   5 10141.8 677.642   2
  -4   1   5 9587.65 500.835   1
  -4  -1   5 9061.11 353.686   5
  -4  -1   5 10183.0 440.841   3
  -4   1   5 9999.57 567.126   4
  -4   1   6 2091.17 134.659   6
  -4   1   6 2120.41 318.053   2
  -4   1   6 2228.49 277.790   4
  -4   1   6 2417.11 257.495   1
  -4  -1   6 2233.47 214.356   3
  -4  -1   6 2049.90 158.915   5
  -4   1   7 10407.6 619.848   4
  -4   1   7 9632.15 667.472   2
  -4   1   7 9553.21 538.555   1
  -4  -1   7 9380.93 454.421   3
  -4  -1   7 9172.12 334.979   5
  -4  -1   8 2390.91 267.143   1
  -4   1   8 2568.41 314.999   4
  -4   1   8 2428.45 277.617   1
  -4  -1   8 2312.55 231.712   3
  -4   1   8 2102.98 309.920   2
  -4  -1   8 2262.38 154.198   5
  -4  -1   9 7987.03 483.374   1
  -4   1   9 7274.55 552.838   4
  -4   1   9 7717.59 510.063   1
  -4  -1   9 7404.89 424.411   3
  -4  -1   9 6941.62 260.639   5
  -4   1  10 7217.39 427.857   5
  -4  -1  10 7262.46 474.789   1
  -4   1  10 7460.58 573.563   4
  -4  -1  10 7470.01 434.746   3
  -4   1  10 7528.68 520.641   1
  -4  -1  10 5911.18 207.789   5
  -4   1  11 5172.89 359.255   5
  -4  -1  11 5159.91 420.325   1
  -4   1  11 5360.48 508.020   4
  -4   1  11 5584.01 468.456   1
  -4   1  12 420.464 104.211   5
  -4   1  12 355.340 129.115   4
  -4   1  12 524.349 167.102   1
  -4  -1  12 354.915 116.453   1
  -4   1  13 1546.10 289.095   4
  -4  -1  13 1190.05 220.317   1
  -4   1  13 1531.63 275.845   1
  -4  -1  14 1522.57 250.754   1
  -4   1  14 1337.77 256.783   1
  -4   1  14 1829.72 329.856   4
  -4   1  15 8257.86 652.402   1
  -4   1  15 9461.60 763.122   4
  -4  -1  15 8894.98 632.409   1
  -4   1  16 4448.23 496.493   1
  -4   1  16 4771.07 560.715   4
  -4  -1  16 4311.15 449.159   1
  -4   1  17 2936.40 438.216   4
  -4  -1  17 2825.58 380.150   1
  -4   1  17 2138.02 341.021   1
  -4   1  18 1194.91 278.477   1
  -4  -1  18 988.897 255.621   1
  -4   1  19 8190.81 751.107   1
  -4  -1  19 8855.45 716.710   1
  -4  -1  20 960.161 278.389   1
  -4   1  20 984.484 315.926   1
  -4  -1  21 2342.32 386.914   1
  -4   1  21 1252.77 306.208   1
  -4  -1  22 2867.58 450.945   1
  -4  -1  23 3674.50 532.483   1
  -4  -2 -22 1063.38 227.882   6
  -4  -2 -21 4963.86 465.676   6
  -4   2 -21 4429.77 454.690   6
   4   2 -21 5594.84 846.978   2
   4   2 -20 317.889 261.322   2
  -4  -2 -20 912.138 221.436   6
  -4   2 -20 872.002 254.374   6
   4   2 -19 3805.99 659.495   2
  -4  -2 -19 3428.44 378.435   6
  -4   2 -19 3244.04 391.900   6
  -4  -2 -18 2465.28 314.771   6
  -4   2 -18 2858.74 363.472   6
  -4  -2 -17 5780.58 462.888   6
  -4   2 -17 6050.37 521.245   6
   4   2 -17 6528.60 843.866   2
  -4  -2 -16 2511.31 306.833   6
  -4   2 -16 2291.30 328.886   6
   4  -2 -16 2589.44 207.979   5
  -4  -2 -15 7516.91 504.132   6
  -4   2 -15 7609.36 566.450   6
   4  -2 -15 7832.41 378.177   5
  -4  -2 -14 2494.33 287.977   6
  -4   2 -14 2182.68 307.564   6
   4  -2 -14 2091.24 196.670   5
  -4  -2 -13 6569.12 459.582   6
  -4   2 -13 6893.02 529.205   6
   4  -2 -13 7564.72 378.696   5
   4  -2 -12 454.248 97.2813   5
  -4  -2 -12 476.904 131.742   6
  -4   2 -12 744.174 183.906   6
  -4  -2 -11 6525.70 440.277   6
  -4   2 -11 6685.15 501.216   6
   4  -2 -11 6225.79 350.803   5
  -4   2 -11 7095.53 305.783   1
  -4  -2 -10 4276.77 352.411   6
  -4   2 -10 4336.11 391.251   6
  -4   2 -10 4905.45 256.937   1
   4  -2 -10 4004.98 286.861   5
  -4  -2  -9 23667.9 839.138   6
  -4   2  -9 24451.4 919.323   6
  -4   2  -9 27271.9 662.776   1
   4  -2  -9 23568.6 733.836   5
  -4  -2  -8 2359.52 265.979   6
  -4   2  -8 2860.37 303.212   6
  -4   2  -8 2603.28 194.804   1
   4  -2  -8 2432.87 227.634   5
  -4  -2  -7 15004.8 641.063   6
  -4   2  -7 15972.3 699.057   6
  -4   2  -7 16082.4 517.480   1
   4  -2  -7 15292.9 580.190   5
  -4  -2  -6 11972.5 566.459   6
  -4   2  -6 12679.4 598.253   6
  -4   2  -6 12483.7 456.569   1
   4  -2  -6 11810.4 509.118   5
  -4  -2  -5 23140.2 795.870   6
  -4   2  -5 22755.3 798.565   6
  -4   2  -5 23161.8 661.703   1
   4  -2  -5 22061.8 719.589   5
  -4   2  -4 1807.93 214.104   6
   4   2  -4 1272.82 191.920   4
  -4  -2  -4 1376.55 191.087   6
  -4   2  -4 1503.81 165.900   1
   4  -2  -4 1220.70 170.153   5
  -4  -2  -3 20237.0 734.086   6
  -4   2  -3 19377.1 692.093   6
   4   2  -3 17567.8 701.177   4
  -4   2  -3 19893.1 637.212   1
   4  -2  -3 20083.8 685.767   5
  -4  -2  -2 6860.65 412.374   6
  -4   2  -2 6818.71 380.513   6
  -4   2  -2 7322.95 383.046   1
   4  -2  -2 6738.64 394.538   5
  -4  -2  -1 12570.7 560.846   6
  -4   2  -1 12080.2 490.999   6
  -4   2  -1 11807.8 504.948   1
   4  -2  -1 12054.9 531.742   5
   4  -2   0 83.8104 69.2881   5
  -4  -2   0 39.0144 48.1791   3
  -4  -2   0 156.457 93.1233   6
  -4   2   0 192.720 83.4037   1
   4   2   0 37.1883 25.6157   4
  -4   2   0 195.701 69.5896   6
  -4  -2   1 9801.91 453.528   3
  -4  -2   1 10258.1 512.511   6
  -4   2   1 9776.35 391.824   6
   4   2   1 8628.36 402.174   4
   4  -2   1 10184.2 493.078   5
  -4   2   1 9970.04 490.823   1
  -4  -2   2 5449.73 340.683   3
  -4  -2   2 5639.82 379.889   6
  -4   2   2 5368.81 277.215   6
   4   2   2 5041.96 280.380   4
   4  -2   2 5075.49 200.037   3
  -4   2   2 5444.68 370.524   1
  -4  -2   3 24356.3 824.956   6
  -4   2   3 23400.3 562.817   6
   4   2   3 21228.1 569.544   4
  -4   2   3 24550.1 840.065   1
  -4  -2   3 24444.7 748.582   3
  -4   2   4 1862.12 257.799   2
  -4  -2   4 2514.11 261.289   6
  -4   2   4 2341.09 152.613   6
   4   2   4 2000.82 139.373   4
  -4   2   4 2479.58 267.937   1
  -4  -2   4 2490.97 236.437   3
  -4   2   5 18684.2 428.233   6
  -4   2   5 17556.7 819.668   2
  -4  -2   5 19241.0 683.156   3
  -4   2   5 19441.6 790.332   1
  -4   2   6 11675.8 622.157   1
  -4   2   6 11127.5 270.574   6
  -4   2   6 11118.3 629.893   2
  -4  -2   6 12356.2 546.334   3
  -4   2   7 20078.7 855.646   1
  -4   2   7 20721.7 884.636   2
  -4  -2   7 20323.1 737.120   3
  -4   2   8 3257.46 351.951   1
  -4   2   8 3135.00 332.657   2
  -4  -2   8 3343.26 182.043   5
  -4  -2   8 3652.50 310.387   3
  -4  -2   9 21768.2 551.128   5
  -4   2   9 21763.8 947.090   1
  -4   2   9 24299.4 928.930   2
  -4   2   9 22941.5 1051.24   4
  -4  -2   9 21702.9 478.151   5
  -4  -2   9 23448.9 822.071   3
  -4  -2  10 3309.68 143.400   5
  -4   2  10 5101.96 461.442   1
  -4   2  10 5765.60 447.100   2
  -4   2  10 5037.42 493.956   4
  -4  -2  10 5370.40 391.101   3
  -4   2  11 9902.89 673.578   1
  -4  -2  11 9738.11 590.844   1
  -4   2  11 10156.6 725.590   4
  -4  -2  11 10022.9 559.941   3
  -4  -2  12 110.140 96.1698   3
  -4  -2  12 310.052 124.511   1
  -4   2  12 463.299 168.493   4
  -4   2  12 223.985 101.182   1
  -4   2  13 6090.02 566.417   1
  -4  -2  13 6769.59 513.699   1
  -4   2  13 7211.21 648.750   4
  -4  -2  13 6639.87 479.041   3
  -4   2  14 2936.67 399.394   1
  -4  -2  14 3083.76 352.112   1
  -4   2  14 2746.75 419.721   4
  -4  -2  14 3048.96 337.721   3
  -4   2  15 10813.2 806.163   1
  -4  -2  15 11801.0 727.790   1
  -4   2  15 12457.4 908.703   4
  -4  -2  15 11378.8 670.578   3
  -4  -2  16 2454.72 334.641   1
  -4   2  16 2370.03 383.277   1
  -4   2  16 2979.65 459.730   4
  -4   2  17 5334.00 607.673   1
  -4   2  17 5683.08 642.500   4
  -4  -2  17 5950.41 543.101   1
  -4   2  18 5099.09 633.323   4
  -4  -2  18 5384.42 533.171   1
  -4   2  19 6895.41 759.346   4
  -4  -2  19 5701.65 569.698   1
  -4  -2  20 1298.47 278.790   1
  -4   2  20 1788.24 422.472   4
  -4   2  21 5838.29 739.842   4
  -4  -2  21 5840.49 620.097   1
  -4  -3 -21 701.828 195.069   6
  -4  -3 -20 759.601 196.884   6
  -4  -3 -19 383.359 129.372   6
  -4   3 -19 230.238 154.656   6
  -4  -3 -18 351.801 144.927   6
  -4   3 -18 328.405 155.506   6
  -4  -3 -17 798.974 188.271   6
  -4   3 -17 598.283 197.757   6
   4  -3 -16 1553.48 208.952   5
  -4  -3 -16 1355.91 237.422   6
  -4   3 -16 1130.12 250.713   6
   4  -3 -15 729.558 146.055   5
  -4  -3 -15 534.826 153.428   6
  -4   3 -15 531.207 178.050   6
  -4  -3 -14 3724.11 367.941   6
  -4   3 -14 4254.17 436.245   6
   4  -3 -14 4160.98 351.531   5
  -4  -3 -13 1784.90 252.833   6
  -4   3 -13 1757.07 286.306   6
   4  -3 -13 1967.24 245.539   5
  -4  -3 -12 9334.81 558.919   6
  -4   3 -12 8935.78 626.387   6
   4  -3 -12 8791.38 518.340   5
   4  -3 -11 708.230 164.128   5
  -4  -3 -11 732.380 161.587   6
  -4   3 -11 700.583 199.480   6
  -4  -3 -10 4370.39 374.414   6
  -4   3 -10 4531.12 423.768   6
   4  -3 -10 5172.34 395.315   5
   4  -3  -9 1204.97 195.808   5
  -4  -3  -9 956.093 178.555   6
  -4   3  -9 984.406 211.183   6
  -4  -3  -8 1982.38 259.552   6
  -4   3  -8 2510.03 304.215   6
   4  -3  -8 2310.48 271.942   5
   4  -3  -7 44.7779 66.0837   5
  -4  -3  -7 99.2902 89.0766   6
  -4   3  -7 19.0999 69.0244   6
   4  -3  -6 703.128 151.035   5
  -4  -3  -6 668.912 158.449   6
  -4   3  -6 626.446 167.841   6
   4  -3  -5 287.933 91.5202   5
  -4  -3  -5 263.002 106.949   6
  -4   3  -5 390.837 128.456   6
  -4   3  -5 267.087 91.2173   1
  -4   3  -4 2653.71 297.322   1
  -4  -3  -4 2137.15 269.277   6
  -4   3  -4 2245.07 267.652   6
   4  -3  -4 2771.28 290.444   5
   4  -3  -3 452.770 130.265   5
  -4   3  -3 296.689 116.703   1
  -4  -3  -3 580.593 148.955   6
  -4   3  -3 376.606 125.884   6
  -4   3  -2 8999.67 536.277   1
  -4  -3  -2 9391.27 536.870   6
  -4   3  -2 8945.88 496.365   6
   4  -3  -2 9395.47 540.765   5
  -4   3  -1 1513.99 219.411   1
   4  -3  -1 1478.96 220.663   5
  -4  -3  -1 1802.07 245.164   6
  -4   3  -1 1650.32 212.110   6
  -4   3   0 13296.4 666.878   1
  -4  -3   0 12952.6 654.355   6
  -4   3   0 13805.0 580.617   6
   4  -3   0 14083.7 678.367   5
  -4   3   1 1278.10 216.795   1
  -4   3   1 1582.25 186.305   6
  -4  -3   1 1300.22 215.416   6
   4  -3   1 1571.93 226.970   5
  -4   3   2 8772.72 554.944   1
  -4  -3   2 8677.78 539.919   6
  -4   3   2 9767.58 430.913   6
   4  -3   2 9761.55 556.140   5
  -4   3   3 226.660 75.2909   2
   4  -3   3 568.648 147.605   5
  -4  -3   3 473.760 144.571   3
  -4   3   3 713.584 165.590   1
  -4   3   3 585.580 95.0379   6
  -4   3   4 1316.56 177.703   2
  -4  -3   4 1606.99 237.908   3
  -4   3   4 1756.92 260.756   1
  -4   3   4 1917.51 164.332   6
   4  -3   4 1738.18 243.137   5
   4  -3   5 361.885 123.015   5
  -4  -3   5 147.322 83.2626   3
  -4  -3   5 467.140 114.506   5
  -4   3   5 266.825 113.583   1
  -4   3   5 409.117 69.3365   6
  -4   3   5 232.364 62.4410   2
  -4  -3   6 1003.21 184.615   3
  -4  -3   6 1024.37 157.704   5
  -4   3   6 971.117 84.3702   6
  -4   3   6 908.125 198.521   1
  -4   3   6 838.478 127.559   2
   4  -3   7-34.8202 34.1332   3
  -4  -3   7-65.9161 84.4957   3
  -4  -3   7-39.5168 51.9370   5
  -4   3   7 88.0419 55.1128   2
  -4   3   7-61.8105 112.280   1
  -4  -3   8 1981.50 200.369   5
  -4   3   8 1675.47 283.884   1
  -4  -3   8 2130.64 275.136   3
  -4  -3   9 1491.66 236.251   3
  -4  -3   9 1191.58 142.907   5
  -4   3   9 1063.01 239.248   1
  -4   3  10 5488.31 535.476   1
  -4  -3  10 6042.73 474.235   3
  -4  -3  11 528.868 165.019   3
  -4   3  11 178.807 89.3623   1
  -4   3  12 11014.4 839.295   4
  -4  -3  12 10456.4 647.102   3
  -4  -3  13 2431.01 322.333   1
  -4   3  13 2504.21 410.411   4
  -4  -3  13 2820.61 340.957   3
  -4  -3  14 5052.32 469.280   1
  -4   3  14 4481.07 555.131   4
  -4  -3  14 4978.38 458.181   3
  -4  -3  15 497.941 173.448   3
  -4  -3  15 28.5391 111.914   1
  -4   3  15 395.159 205.135   4
  -4  -3  16 1718.38 294.753   3
  -4   3  16 1250.49 310.401   4
  -4  -3  16 1331.48 273.409   1
  -4  -3  17 1217.43 262.033   3
  -4   3  17 811.232 283.458   4
  -4  -3  17 914.914 215.613   1
  -4  -3  18 339.180 123.865   1
  -4  -3  18 596.802 210.838   3
  -4   3  18 290.377 166.331   4
  -4  -3  19-36.9559 121.126   1
  -4   3  19 383.305 235.126   4
  -4   3  20 1106.97 341.813   4
  -4  -4 -19 2704.42 358.915   6
  -4  -4 -18 1290.27 266.916   6
   4  -4 -17 2556.35 341.202   5
  -4  -4 -17 2632.21 344.679   6
  -4   4 -17 2367.13 371.344   6
  -4  -4 -16 2996.21 354.304   6
  -4   4 -16 2728.28 396.740   6
   4  -4 -16 3258.76 377.237   5
  -4  -4 -15 2262.47 318.190   6
  -4   4 -15 2305.81 359.207   6
   4  -4 -15 2732.79 351.717   5
  -4  -4 -14 3313.08 366.245   6
  -4   4 -14 2654.19 374.288   6
   4  -4 -14 2983.62 368.420   5
   4  -4 -13 1377.44 264.503   5
  -4  -4 -13 1248.25 225.265   6
  -4   4 -13 740.501 217.038   6
  -4  -4 -12 4958.98 436.534   6
  -4   4 -12 4458.11 477.767   6
   4  -4 -12 4886.72 467.543   5
  -4  -4 -11 3519.10 374.343   6
  -4   4 -11 3044.82 384.759   6
   4  -4 -11 3871.31 415.651   5
  -4  -4 -10 5583.89 456.008   6
  -4   4 -10 5784.33 512.566   6
   4  -4 -10 6944.92 558.529   5
  -4  -4  -9 2585.76 317.086   6
  -4   4  -9 2176.55 316.304   6
   4  -4  -9 2679.36 343.974   5
  -4  -4  -8 8752.37 567.465   6
  -4   4  -8 7709.01 591.932   6
   4  -4  -8 9259.45 634.419   5
  -4  -4  -7 7394.82 533.199   6
  -4   4  -7 8191.15 587.778   6
   4  -4  -7 8302.23 603.268   5
  -4  -4  -6 5973.63 473.239   6
  -4   4  -6 4940.46 458.518   6
  -4  -4  -5 3859.58 375.920   6
  -4   4  -5 3724.15 380.943   6
   4  -4  -5 4387.23 438.199   5
  -4  -4  -4 9562.44 596.093   6
  -4   4  -4 8983.28 591.591   6
   4  -4  -4 10166.2 656.385   5
  -4  -4  -3 7408.18 533.571   6
  -4   4  -3 6693.96 508.121   6
   4  -4  -3 7764.05 575.807   5
  -4  -4  -2 7211.35 524.162   6
  -4   4  -2 6832.51 498.400   6
   4  -4  -2 7313.80 558.459   5
  -4  -4  -1 2328.24 307.021   5
  -4  -4  -1 2536.40 319.270   6
  -4   4  -1 2624.67 297.728   6
   4  -4  -1 2672.28 337.793   5
  -4  -4   0 6767.19 500.770   5
  -4   4   0 7016.65 481.291   6
   4  -4   0 6919.67 544.054   5
  -4  -4   1 2971.84 329.727   5
  -4   4   1 3608.26 326.648   6
   4  -4   1 3479.75 397.404   5
  -4  -4   2 6831.40 493.291   5
  -4   4   2 7438.20 462.879   6
   4  -4   2 7221.17 550.645   5
  -4  -4   3 6635.56 482.693   5
  -4   4   3 7533.67 448.580   6
   4  -4   3 6749.22 534.630   5
  -4  -4   4 9410.54 654.240   3
  -4  -4   4 10895.3 610.463   5
  -4   4   4 11465.0 517.844   6
   4  -4   4 10679.8 679.431   5
  -4  -4   5 5178.84 492.435   3
  -4  -4   5 5351.29 418.698   5
  -4   4   5 5855.53 338.925   6
   4  -4   5 4851.92 458.075   5
  -4  -4   6 7234.59 574.995   3
  -4  -4   6 6934.59 464.485   5
   4  -4   6 6945.09 547.513   5
  -4  -4   7 7274.24 598.978   3
  -4  -4   7 7955.16 488.374   5
   4  -4   7 8043.31 591.146   5
  -4  -4   8 9774.65 512.230   5
   4  -4   8 9731.49 656.831   5
  -4  -4   8 10704.6 712.621   3
  -4  -4   9 4776.97 491.020   3
  -4  -4  10 8218.78 625.798   3
  -4  -4  11 2712.97 362.260   3
  -4  -4  12 5539.49 535.756   3
  -4  -4  13 2599.61 379.247   3
  -4   4  14 3168.52 516.582   4
  -4  -4  14 4563.33 493.818   3
  -4  -4  15 2697.73 384.522   3
  -4  -4  15 1946.07 324.196   1
  -4   4  15 2291.57 439.391   4
  -4  -4  16 3247.11 409.978   1
  -4   4  16 3524.98 541.640   4
  -4  -4  16 4114.28 491.573   3
  -4  -4  17 3115.84 410.171   1
  -4   4  17 3082.31 533.942   4
  -4  -4  17 4346.87 514.613   3
   4  -5 -17 580.288 210.500   5
  -4   5 -17 414.817 299.721   2
   4  -5 -16 719.286 196.258   5
  -4  -5 -16 1298.56 262.341   6
  -4   5 -16 1376.27 352.608   2
   4  -5 -15 225.057 137.940   5
  -4  -5 -15 496.567 145.340   6
  -4   5 -15 190.114 175.335   2
   4  -5 -14 1156.30 258.693   5
  -4  -5 -14 1049.15 279.630   5
  -4  -5 -14 1061.24 232.103   6
  -4   5 -14 922.588 244.420   6
   4  -5 -13-85.0011 99.1971   5
  -4  -5 -13-144.472 100.153   5
  -4  -5 -13 237.233 139.939   6
  -4   5 -13 115.271 123.345   6
   4  -5 -12 199.686 114.514   5
  -4  -5 -12 438.810 194.388   5
  -4  -5 -12 433.114 163.710   6
  -4   5 -12 345.905 147.091   6
   4  -5 -11 269.934 151.360   5
  -4  -5 -11 432.280 172.051   5
  -4   5 -11 303.791 134.338   6
   4  -5 -10 86.2839 92.1412   5
  -4  -5 -10 453.021 196.256   5
  -4  -5 -10 352.173 163.425   6
  -4   5 -10 183.949 123.295   6
   4  -5  -9 285.002 130.204   5
  -4  -5  -9 473.596 189.607   5
  -4  -5  -9 526.235 172.521   6
  -4   5  -9 184.911 132.322   6
  -4  -5  -8 3463.56 436.103   5
   4  -5  -8 2639.05 402.195   5
  -4  -5  -8 3380.08 392.348   6
  -4   5  -8 3224.26 398.051   6
   4  -5  -7 1046.01 247.784   5
  -4  -5  -7 1347.54 276.736   5
  -4  -5  -7 1499.97 281.267   6
  -4  -5  -6 3875.76 452.211   5
  -4  -5  -6 3986.74 419.649   6
   4  -5  -6 3922.55 482.206   5
   4  -5  -5 618.705 199.313   5
  -4  -5  -5 626.909 193.894   5
  -4  -5  -5 823.329 203.751   6
  -4  -5  -4 1485.73 283.852   5
  -4  -5  -4 1962.64 305.130   6
   4  -5  -4 2473.20 375.617   5
   4  -5  -3 877.299 243.145   5
  -4  -5  -3 742.067 210.105   5
   4  -5  -2 1742.88 320.531   5
  -4  -5  -2 1560.58 277.493   5
   4  -5  -1 16.3258 121.021   5
  -4  -5  -1 145.794 103.212   5
   4  -5   0-96.4068 109.532   5
  -4  -5   0-101.516 114.456   5
   4  -5   1 262.798 136.069   5
  -4  -5   1 241.370 115.700   5
   4  -5   2 1006.77 259.579   5
  -4  -5   2 1461.86 256.710   5
   4  -5   3 1149.09 259.495   5
  -4  -5   3 1307.20 242.229   5
   4  -5   4 2351.82 361.720   5
  -4  -5   4 2203.11 304.901   5
   4  -5   5 796.718 224.810   5
  -4  -5   5 691.709 236.694   3
  -4  -5   5 989.068 201.632   5
  -4  -5   6 4393.30 405.595   5
  -4  -5   6 3220.76 443.731   3
   4  -5   6 4165.10 481.570   5
   4  -5   7 1883.30 343.064   5
  -4  -5   7 1986.27 345.649   3
  -4  -5   7 2043.53 268.253   5
  -4  -5   8 3769.42 494.183   3
   4  -5   8 3681.34 463.707   5
   4  -5   9 77.4567 110.222   5
  -4  -5   9 350.035 162.562   3
   4  -5  10 77.2088 98.8363   5
  -4  -5  10 516.764 197.003   3
  -4  -5  11 659.534 225.855   3
  -4  -5  12 1300.71 330.697   3
  -4  -5  13 199.639 124.538   3
  -4  -5  14 829.346 266.094   3
   4  -6 -12 156.224 141.473   5
   4  -6 -11 2851.77 459.974   5
  -4   6 -11 1404.96 328.848   6
   4  -6 -10 2940.85 461.021   5
  -4  -6 -10 3209.29 419.828   6
  -4   6 -10 2289.00 377.330   6
   4  -6  -9 1552.15 334.808   5
  -4  -6  -9 1428.43 329.566   5
   4  -6  -8 159.101 156.698   5
  -4  -6  -8 209.803 170.350   5
   4  -6  -7 2105.48 410.738   5
  -4  -6  -7 2210.43 386.909   5
   4  -6  -6 1203.90 297.481   5
  -4  -6  -6 1645.88 322.376   5
   4  -6  -5 1233.58 302.144   5
  -4  -6  -5 1891.58 343.882   5
   4  -6  -4 205.668 150.556   5
  -4  -6  -4 743.077 234.086   5
  -4  -6  -3 5482.18 559.513   5
   4  -6  -3 5711.05 626.063   5
  -4  -6  -2 6222.06 602.896   5
   4  -6  -2 6495.33 662.362   5
  -4  -6  -1 4339.23 494.553   5
   4  -6  -1 5008.18 587.589   5
   4  -6   0 72.1708 148.672   5
  -4  -6   0 205.164 146.274   5
  -4  -6   1 5872.98 562.219   5
   4  -6   1 5865.29 626.914   5
  -4  -6   2 6937.46 595.383   5
   4  -6   2 6350.65 670.417   5
  -4  -6   3 4902.36 498.956   5
   4  -6   3 5476.73 607.329   5
   4  -6   4 473.187 204.715   5
  -4  -6   4 547.241 183.335   5
   4  -6   5 2313.70 400.531   5
  -4  -6   5 1998.23 307.574   5
   4  -6   6 1724.27 354.604   5
  -4  -6   6 1668.06 365.006   3
   4  -6   7 1805.08 374.380   5
  -4  -6   7 1579.91 366.279   3
   4  -6   8 220.044 160.198   5
  -4  -6   8 323.235 247.477   3
   4  -6   9 2348.93 429.314   5
   4  -6  10 2857.93 488.329   5
  -4  -7  -1 765.585 237.428   5
  -4  -7   0-68.6642 111.649   5
  -4  -7   1 832.834 240.732   5
  -4  -7   2 332.389 141.921   5
  -5   0 -20 60.2513 135.124   6
  -5   0 -19 5982.58 521.596   6
  -5   0 -18-42.1091 84.8493   6
  -5   0 -17 5595.88 495.556   6
  -5   0 -16 58.3268 83.7121   6
  -5   0 -15 2807.07 332.655   6
  -5   0 -14-17.1826 81.2972   6
  -5   0 -13 438.686 151.159   6
  -5   0 -12 47.2610 73.4360   6
  -5   0 -11 625.983 155.817   6
  -5   0 -10 107.867 88.0925   6
  -5   0  -9 7930.31 487.110   6
   5   0  -9 7679.73 305.987   6
  -5   0  -8 12.0824 71.0396   6
   5   0  -8-26.2978 29.5033   6
  -5   0  -7 13658.9 616.652   6
   5   0  -7 13666.4 453.983   6
  -5   0  -6 59.3531 75.3360   6
   5   0  -6 34.4575 41.9877   6
  -5   0  -5 18767.8 704.011   6
   5   0  -5 18819.4 589.997   6
  -5   0  -4-79.1922 59.0302   6
   5   0  -4 27.5929 40.9480   6
  -5   0  -3 5829.04 374.520   6
   5   0  -3 5711.86 330.554   6
  -5   0  -2-39.9967 53.7929   6
   5   0  -2 7.76615 44.3883   6
  -5   0  -1 568.841 111.985   4
  -5   0  -1 691.648 132.262   6
  -5   0   0-11.8393 51.7604   4
  -5   0   0-59.9753 63.4479   6
  -5   0   1 544.788 118.385   4
  -5   0   1 629.484 124.532   6
  -5   0   2-25.5979 43.3348   6
  -5   0   2-22.6992 69.9143   4
  -5   0   3 6034.69 411.721   1
  -5   0   3 6906.10 456.733   4
  -5   0   3 6407.89 359.081   6
  -5   0   4 61.2161 67.5319   1
  -5   0   4 26.3935 56.8543   6
  -5   0   4-58.0469 71.0689   4
  -5   0   5 19886.0 795.005   1
  -5   0   5 21411.0 668.186   6
  -5   0   5 22912.4 920.460   4
  -5   0   5 19942.8 675.182   5
  -5   0   6-22.3893 51.1513   5
  -5   0   6 11.7163 55.3044   6
  -5   0   6 61.4987 81.0151   4
  -5   0   6 44.9227 82.1286   1
  -5   0   7 15908.5 733.862   1
  -5   0   7 17517.1 850.354   4
  -5   0   8 13.7313 69.0441   1
  -5   0   9 9201.84 587.556   1
  -5   0  10-3.40465 91.7282   1
  -5   0  11 747.756 183.092   1
  -5   0  12 55.4699 79.9877   1
  -5   0  13-78.8608 134.667   1
  -5   0  14-42.7791 100.995   1
  -5   0  15 3298.30 422.778   1
  -5   0  16 71.7222 92.6029   1
  -5   0  17 7413.63 691.200   1
  -5   0  18-119.609 124.650   1
  -5   0  19 9645.65 841.843   1
  -5   0  20 139.630 264.153   1
  -5   0  21 5755.29 693.005   1
  -5   0  22-139.637 145.575   1
  -5  -1 -20 1339.94 271.141   6
  -5  -1 -19 210.283 146.172   6
  -5   1 -19 161.600 98.3826   6
  -5  -1 -18 1832.07 293.732   6
  -5   1 -18 1730.08 283.005   6
  -5  -1 -17 575.659 168.588   6
  -5   1 -17 579.422 198.640   6
  -5  -1 -16 1789.18 275.692   6
  -5   1 -16 1984.74 308.784   6
  -5  -1 -15 751.981 185.864   6
  -5   1 -15 693.389 187.667   6
  -5  -1 -14 3582.22 369.598   6
  -5   1 -14 4368.14 424.418   6
  -5   1 -13 769.693 106.724   1
  -5  -1 -13 1099.13 205.034   6
  -5   1 -13 1406.90 242.689   6
  -5  -1 -12 5137.18 430.037   6
  -5   1 -12 5342.81 448.178   6
  -5  -1 -11 1985.48 256.139   6
  -5   1 -11 2178.42 276.494   6
  -5  -1 -10 4250.47 366.573   6
  -5   1 -10 4092.15 373.050   6
  -5   1  -9 2411.89 213.054   1
  -5  -1  -9 2510.29 273.757   6
  -5   1  -9 2598.18 296.239   6
  -5  -1  -9 1507.90 110.300   3
  -5   1  -8 2964.87 236.816   1
  -5  -1  -8 3214.96 306.560   6
  -5   1  -8 3670.13 332.067   6
  -5  -1  -7 570.067 75.3245   3
  -5   1  -7 716.481 130.186   1
  -5  -1  -7 765.780 152.241   6
   5   1  -7 743.184 118.406   6
  -5   1  -7 969.759 176.566   6
  -5   1  -6 3293.04 259.716   1
  -5  -1  -6 2993.72 295.000   6
  -5   1  -6 3651.93 310.677   6
  -5  -1  -6 2318.80 153.862   3
  -5  -1  -5 831.528 95.3227   3
  -5   1  -5 1035.36 148.218   1
  -5  -1  -5 1067.23 179.175   6
  -5   1  -5 1118.13 164.699   6
  -5   1  -4 4838.93 318.473   1
  -5  -1  -4 4211.85 335.365   6
  -5   1  -4 4403.31 327.834   6
  -5  -1  -4 3834.40 214.521   3
   5  -1  -4 4240.07 273.295   3
  -5   1  -3 3979.63 298.164   1
  -5  -1  -3 4040.30 331.752   6
  -5   1  -3 3550.88 284.297   6
  -5  -1  -3 4395.32 238.302   3
   5  -1  -3 3819.72 251.075   3
   5  -1  -2 7021.30 330.301   3
  -5   1  -2 7075.12 404.803   1
  -5  -1  -2 7558.84 443.921   6
  -5   1  -2 6439.51 375.121   6
  -5   1  -2 6440.14 389.021   4
  -5  -1  -2 7984.37 337.739   3
   5  -1  -1 1508.41 143.660   3
  -5   1  -1 1805.64 210.037   1
  -5  -1  -1 2290.30 244.227   6
  -5   1  -1 1851.79 190.774   6
  -5   1  -1 1727.50 206.305   4
  -5  -1  -1 2031.27 175.616   3
  -5  -1   0 7815.85 442.783   6
  -5   1   0 7283.93 431.367   1
  -5   1   0 7371.66 374.457   6
  -5   1   0 7460.76 448.313   4
  -5  -1   0 8049.78 368.475   3
  -5  -1   1 2739.49 261.410   6
  -5   1   1 2160.40 204.375   6
  -5   1   1 2216.07 249.153   1
  -5   1   1 2260.72 254.709   4
  -5  -1   1 2529.95 212.030   3
  -5  -1   2 7149.75 417.643   6
  -5   1   2 6677.15 344.288   6
  -5   1   2 7068.36 442.926   1
  -5   1   2 6359.65 446.564   4
  -5  -1   2 6783.87 361.275   3
  -5  -1   3 5309.20 358.923   6
  -5   1   3 5529.53 302.268   6
  -5   1   3 5138.25 395.219   1
  -5   1   3 5923.83 443.626   4
  -5  -1   3 5508.09 330.306   3
  -5  -1   4 3971.91 315.490   6
  -5   1   4 4060.61 251.807   6
  -5   1   4 3990.45 349.128   1
  -5   1   4 3755.27 367.425   4
  -5  -1   4 4569.72 312.160   3
  -5  -1   4 3437.43 261.878   5
  -5   1   5 1524.14 149.272   6
  -5   1   5 1796.43 241.208   1
  -5   1   5 1777.66 260.847   4
  -5  -1   5 1625.12 202.131   6
  -5  -1   5 1821.39 202.131   3
  -5  -1   5 1503.81 164.505   5
  -5  -1   6 3541.50 302.654   6
  -5   1   6 3643.33 222.789   6
  -5   1   6 4022.34 405.681   4
  -5   1   6 3639.14 347.775   1
  -5  -1   6 3933.94 301.799   3
  -5  -1   7 1025.18 174.607   3
  -5   1   7 664.612 160.733   1
  -5  -1   7 915.423 180.595   1
  -5   1   7 942.841 203.501   4
  -5  -1   8 4137.65 379.399   1
  -5   1   8 4671.78 463.143   4
  -5   1   8 4274.81 402.674   1
  -5  -1   8 3751.06 316.921   3
  -5  -1   9 2651.14 319.391   1
  -5   1   9 2971.87 380.939   4
  -5   1   9 2580.29 332.243   1
  -5  -1  10 4968.99 437.284   1
  -5   1  10 5413.51 527.959   4
  -5   1  10 5421.19 481.907   1
  -5  -1  11 2401.67 314.700   1
  -5   1  11 2344.44 360.944   4
  -5   1  11 2151.14 317.227   1
  -5  -1  12 7049.48 555.569   1
  -5   1  12 7610.24 663.203   4
  -5   1  12 7069.09 593.335   1
  -5   1  13 1775.12 340.216   4
  -5   1  13 2117.39 332.524   1
  -5  -1  13 1951.28 299.860   1
  -5   1  14 4863.45 516.041   1
  -5   1  14 5745.84 610.081   4
  -5  -1  14 4988.78 496.433   1
  -5   1  15 1848.90 336.525   1
  -5  -1  15 1434.72 277.853   1
  -5   1  15 1535.88 336.814   4
  -5   1  16 1997.62 357.866   1
  -5  -1  16 2648.69 388.134   1
  -5   1  16 1762.03 356.490   4
  -5  -1  17 1205.32 281.291   1
  -5   1  17 1056.13 277.688   1
  -5  -1  18 1590.70 332.730   1
  -5   1  18 2236.43 403.302   1
  -5   1  19-123.993 146.529   1
  -5  -1  19-82.2879 136.640   1
  -5   1  20 1759.03 376.720   1
  -5  -1  20 1779.24 365.237   1
  -5  -1  21 1395.18 342.566   1
  -5   1  21 1406.88 366.964   1
  -5  -1  22 2332.02 461.798   1
  -5  -2 -19 443.184 145.695   6
  -5   2 -19 273.159 158.478   6
  -5  -2 -18 631.174 170.656   6
  -5   2 -18 240.052 132.773   6
  -5  -2 -17 600.577 169.459   6
  -5   2 -17 450.816 178.237   6
  -5  -2 -16 1360.03 256.885   6
  -5   2 -16 1216.60 242.341   6
  -5  -2 -15 1360.15 249.745   6
  -5   2 -15 1522.16 289.468   6
  -5  -2 -14 3317.06 362.146   6
  -5   2 -14 3342.18 394.111   6
  -5  -2 -13 2579.39 314.188   6
  -5   2 -13 2594.55 356.203   6
   5  -2 -13 2484.99 230.385   5
  -5  -2 -12 4007.55 381.413   6
  -5   2 -12 3459.18 402.437   6
   5  -2 -12 4034.29 298.759   5
  -5  -2 -11 4013.61 380.507   6
  -5   2 -11 4533.08 434.809   6
   5  -2 -11 4157.30 301.333   5
  -5  -2 -10 2866.94 326.046   6
  -5   2 -10 3515.60 374.009   6
  -5   2 -10 2828.98 225.513   1
   5  -2 -10 2787.78 251.384   5
  -5  -2  -9 1862.28 260.721   6
  -5   2  -9 2162.22 292.642   6
  -5   2  -9 1935.73 187.129   1
   5  -2  -9 2020.67 216.203   5
  -5   2  -8 1280.39 155.671   1
  -5  -2  -8 1294.97 208.588   6
  -5   2  -8 1340.03 225.962   6
   5  -2  -8 1459.32 185.406   5
   5  -2  -7 1157.69 169.811   5
  -5   2  -7 1328.32 157.936   1
  -5  -2  -7 1325.52 210.988   6
  -5   2  -7 1425.23 222.450   6
   5  -2  -6 1081.62 170.637   5
  -5   2  -6 862.779 133.518   1
  -5  -2  -6 936.267 181.641   6
  -5   2  -6 771.613 169.508   6
   5  -2  -5 883.086 156.895   5
  -5   2  -5 933.017 145.264   1
  -5  -2  -5 879.196 177.438   6
  -5   2  -5 1004.34 175.521   6
  -5  -2  -4 1467.69 175.728   3
  -5  -2  -4 1839.99 244.983   6
  -5   2  -4 1768.24 218.157   6
  -5   2  -4 1848.58 203.460   1
  -5  -2  -3 2069.42 208.983   3
  -5  -2  -3 2776.44 296.812   6
  -5   2  -3 2434.71 259.059   6
  -5   2  -3 2409.92 237.176   1
   5  -2  -3 2357.67 197.874   3
  -5  -2  -2 3823.25 289.331   3
  -5  -2  -2 4926.90 386.388   6
  -5   2  -2 4515.86 324.676   6
   5   2  -2 4879.45 373.047   4
  -5   2  -2 4439.46 333.280   1
   5  -2  -2 4445.35 260.329   3
  -5  -2  -1 4515.83 374.938   6
  -5   2  -1 4365.60 304.613   6
  -5   2  -1 4386.53 336.271   1
   5  -2  -1 4269.29 240.867   3
  -5  -2  -1 4315.90 306.569   3
  -5  -2   0 5960.35 425.951   6
  -5   2   0 5032.54 316.330   6
  -5   2   0 5467.57 389.904   1
   5  -2   0 4906.13 244.540   3
  -5  -2   0 5448.53 351.462   3
  -5  -2   1 4561.48 368.503   6
  -5   2   1 4256.41 277.861   6
  -5   2   1 4412.44 357.514   1
   5  -2   1 3733.42 194.804   3
  -5  -2   1 4832.11 324.471   3
  -5  -2   2 4425.95 367.825   6
  -5   2   2 4154.70 261.685   6
  -5   2   2 4603.05 374.005   1
  -5  -2   2 4587.87 324.841   3
  -5  -2   3 3203.41 314.369   6
  -5   2   3 2904.44 209.242   6
  -5   2   3 3117.78 321.673   1
  -5  -2   3 3251.50 282.885   3
  -5  -2   4 1940.87 256.112   6
  -5   2   4 2132.63 169.920   6
  -5   2   4 1785.63 247.216   1
  -5  -2   4 2173.54 239.575   3
  -5  -2   5 1131.71 178.843   3
  -5   2   5 805.601 99.7232   6
  -5   2   5 1128.09 207.743   1
  -5  -2   6 1158.79 181.057   3
  -5   2   6 1044.56 100.237   6
  -5   2   6 1004.49 218.812   4
  -5   2   6 1236.02 222.519   1
  -5  -2   7 1138.13 183.470   3
  -5   2   7 1079.93 239.034   4
  -5   2   7 1349.36 239.785   1
  -5  -2   8 1627.17 220.903   3
  -5   2   8 1520.97 277.462   4
  -5   2   8 1898.11 291.817   1
  -5   2   9 2451.96 342.964   1
  -5   2   9 2566.66 371.694   4
  -5  -2   9 2433.40 281.655   3
  -5   2  10 3981.66 442.059   1
  -5   2  10 3577.91 445.385   4
  -5  -2  10 3622.74 353.952   3
  -5   2  11 4413.06 475.156   1
  -5  -2  11 4454.81 432.914   1
  -5   2  11 4164.64 496.056   4
  -5  -2  11 4642.01 403.261   3
  -5   2  12 4350.63 491.316   1
  -5  -2  12 4081.46 439.352   1
  -5   2  12 4303.17 520.321   4
  -5  -2  12 4233.93 392.656   3
  -5   2  13 3439.42 455.672   1
  -5  -2  13 3261.68 391.283   1
  -5   2  13 3413.25 487.246   4
  -5  -2  13 4076.47 399.296   3
  -5   2  14 3249.18 451.682   1
  -5  -2  14 3543.77 420.978   1
  -5   2  14 3608.36 499.043   4
  -5   2  15 1691.00 346.568   1
  -5   2  15 1633.36 349.710   4
  -5  -2  15 1677.62 306.491   1
  -5  -2  16 1615.46 320.746   1
  -5   2  16 1989.85 382.013   1
  -5   2  16 2015.92 408.667   4
  -5   2  17 446.384 218.449   1
  -5  -2  17 488.030 181.764   1
  -5   2  17 691.140 276.759   4
  -5  -2  18 352.546 133.480   1
  -5   2  18 460.495 188.828   1
  -5   2  18 566.120 225.925   4
  -5   2  19 181.268 140.123   1
  -5  -2  19 614.927 226.856   1
  -5   2  19 837.082 335.946   4
  -5  -2  20 1028.82 283.861   1
  -5  -2  21 1587.09 363.829   1
  -5  -3 -17 3330.33 395.783   6
  -5   3 -17 3708.19 458.935   6
  -5  -3 -16 61.2983 90.7385   6
  -5   3 -16 470.678 209.459   6
  -5  -3 -15 1547.36 266.590   6
  -5   3 -15 1882.91 343.345   6
   5  -3 -14 135.576 83.2490   5
  -5  -3 -14 180.206 113.338   6
  -5   3 -14 173.492 158.396   6
   5  -3 -13 468.208 118.096   5
  -5  -3 -13 240.679 112.558   6
  -5   3 -13 517.394 186.437   6
   5  -3 -12 172.221 66.7869   5
  -5  -3 -12 107.891 103.358   6
  -5   3 -12 200.559 133.376   6
   5  -3 -11 279.806 93.5506   5
  -5  -3 -11 304.342 116.788   6
  -5   3 -11 336.892 140.293   6
   5  -3 -10 67.5661 70.1998   5
  -5  -3 -10 104.074 93.9845   6
  -5  -3  -9 3432.82 359.861   6
  -5   3  -9 3781.35 418.587   6
   5  -3  -9 3690.14 342.153   5
   5  -3  -8 745.597 158.512   5
  -5   3  -8 927.775 192.712   1
  -5  -3  -8 766.667 181.485   6
  -5   3  -8 789.726 209.233   6
  -5  -3  -7 6098.37 477.810   6
  -5   3  -7 6123.62 516.418   6
   5  -3  -7 6372.69 460.247   5
   5  -3  -6 857.449 182.010   5
  -5  -3  -6 604.829 163.039   6
  -5   3  -6 1105.69 217.860   6
  -5   3  -6 733.112 171.157   1
  -5   3  -5 8550.82 530.858   1
  -5  -3  -5 7965.80 531.972   6
  -5   3  -5 8202.84 552.536   6
   5  -3  -5 7550.38 501.819   5
   5  -3  -4 766.630 172.880   5
  -5  -3  -4 647.321 170.114   6
  -5   3  -4 504.372 153.031   1
  -5   3  -4 572.019 157.796   6
  -5   3  -3 4195.52 376.843   1
  -5  -3  -3 4307.35 400.355   6
  -5   3  -3 4046.04 373.246   6
   5  -3  -3 3868.43 367.048   5
   5  -3  -2 310.728 122.489   5
  -5   3  -2 150.258 107.880   1
  -5  -3  -2 265.928 128.092   6
  -5   3  -2 491.470 142.495   6
   5  -3  -1 467.740 129.110   5
  -5  -3  -1 416.098 124.956   3
  -5   3  -1 620.771 156.351   1
  -5  -3  -1 529.339 135.046   6
  -5   3  -1 788.953 154.578   6
   5  -3   0 58.4193 82.9003   5
  -5  -3   0 33.9848 106.175   3
  -5   3   0-87.3069 77.4760   1
  -5  -3   0-17.1035 88.6661   6
  -5   3   0-11.7765 57.2631   6
   5  -3   1 1055.28 210.769   5
  -5  -3   1 1131.04 208.635   3
  -5   3   1 731.793 174.899   1
  -5  -3   1 990.872 190.076   6
  -5   3   1 1023.99 155.597   6
  -5  -3   2 308.763 113.965   3
  -5  -3   2 478.458 150.848   6
  -5   3   2 185.678 115.559   1
  -5   3   2 469.603 103.617   6
  -5   3   3 3590.64 376.552   1
  -5  -3   3 3977.75 388.948   6
  -5   3   3 3872.33 254.992   6
  -5  -3   3 4094.48 392.038   3
  -5  -3   4 523.520 160.702   3
  -5   3   4 623.934 97.3363   6
  -5   3   4 437.466 151.185   1
  -5   3   5 8288.02 604.503   1
  -5  -3   5 8517.59 554.479   3
  -5   3   6 902.735 215.657   1
  -5  -3   6 1287.67 224.773   3
  -5  -3   7 6740.92 415.919   5
  -5   3   7 6718.76 576.112   1
  -5  -3   7 6566.84 494.057   3
  -5  -3   8 1132.67 219.055   3
  -5   3   8 630.151 176.090   1
  -5   3   9 3745.50 449.395   1
  -5  -3   9 4088.99 405.472   3
  -5  -3  10 194.282 115.921   3
  -5   3  10 69.8547 94.4784   1
  -5   3  10 177.412 99.5718   4
  -5   3  11 479.793 163.664   1
  -5  -3  11 230.230 110.387   3
  -5   3  11 409.611 181.818   4
  -5  -3  12 172.430 129.543   3
  -5   3  12-60.4078 109.160   1
  -5   3  12 222.475 147.871   4
  -5  -3  13 519.386 166.264   3
  -5   3  13 355.946 128.845   1
  -5  -3  13 168.954 142.384   1
  -5   3  13 408.563 184.394   4
  -5  -3  14 122.891 134.287   3
  -5   3  14 67.0694 170.844   1
  -5  -3  14-10.3433 86.4154   1
  -5   3  14 217.292 132.960   4
  -5  -3  15 2370.48 352.243   3
  -5  -3  15 2066.47 339.760   1
  -5   3  15 2107.15 405.517   4
  -5  -3  16 350.010 200.534   3
  -5   3  16 577.658 256.038   4
  -5  -3  16 8.84435 99.6059   1
  -5  -3  17 4413.30 532.579   1
  -5   3  17 4279.41 619.647   4
  -5  -3  17 5310.83 533.887   3
  -5  -3  18 685.190 217.139   1
  -5  -3  19 3341.84 480.321   1
  -5  -4 -15 530.621 190.255   6
  -5   4 -15 371.019 192.647   6
   5  -4 -14 2194.21 307.018   5
  -5  -4 -14 2057.06 314.273   6
  -5   4 -14 1794.36 331.486   6
   5  -4 -13 163.811 107.030   5
  -5  -4 -13 360.524 136.863   6
  -5   4 -13 199.634 107.517   6
   5  -4 -12 2256.11 312.361   5
  -5  -4 -12 2750.26 338.970   6
  -5   4 -12 2535.79 403.304   6
   5  -4 -11 76.7917 93.2026   5
  -5  -4 -11 293.013 119.985   6
  -5   4 -11 405.463 171.282   6
   5  -4 -10 2115.01 306.472   5
  -5  -4 -10 2467.85 324.971   6
  -5   4 -10 1878.21 339.324   6
   5  -4  -9 728.041 179.992   5
  -5  -4  -9 785.946 191.051   6
  -5   4  -9 1089.30 284.750   6
   5  -4  -8 786.386 180.280   5
  -5  -4  -8 993.996 212.818   6
  -5   4  -8 1119.68 239.431   6
   5  -4  -7 130.003 78.6417   5
  -5  -4  -7 267.447 144.167   6
  -5   4  -7 146.459 115.820   6
   5  -4  -6 1757.49 286.776   5
  -5  -4  -6 2391.51 324.040   6
  -5   4  -6 2282.15 336.865   6
   5  -4  -5 615.620 174.826   5
  -5  -4  -5 545.536 182.164   6
  -5   4  -5 1000.05 230.442   6
   5  -4  -4 1564.33 281.188   5
  -5  -4  -4 1367.63 254.773   6
  -5   4  -4 1580.70 280.702   6
   5  -4  -3 1613.42 289.853   5
  -5  -4  -3 1667.71 272.567   6
  -5   4  -3 1404.25 261.611   6
  -5  -4  -2 3887.82 411.121   6
  -5   4  -2 4562.15 441.928   6
   5  -4  -2 4329.10 459.288   5
   5  -4  -1 312.006 159.658   5
  -5  -4  -1 333.233 120.913   6
  -5   4  -1 379.310 128.938   6
  -5  -4   0 5421.83 493.207   6
  -5   4   0 5546.43 457.237   6
   5  -4   0 5564.50 508.190   5
   5  -4   1 471.144 186.137   5
  -5  -4   1 254.621 132.630   3
  -5  -4   1 611.093 167.639   5
  -5   4   1 651.625 167.623   6
  -5  -4   2 3946.18 457.229   3
  -5  -4   2 3573.09 375.978   5
  -5   4   2 4886.59 373.660   6
   5  -4   2 4670.81 471.169   5
   5  -4   3 1554.30 296.502   5
  -5  -4   3 1493.74 288.142   3
  -5  -4   3 925.513 193.757   5
   5  -4   4 1235.67 254.811   5
  -5  -4   4 1062.90 230.414   3
  -5  -4   4 1392.98 226.529   5
   5  -4   5 605.064 195.043   5
  -5  -4   5 692.424 208.276   3
  -5  -4   5 592.344 145.952   5
  -5  -4   6 2183.56 272.487   5
  -5  -4   6 2187.08 338.862   3
  -5  -4   7 176.649 132.364   3
  -5  -4   8 1132.65 268.832   3
  -5  -4   9 948.055 239.937   3
  -5  -4  10 3023.43 410.031   3
  -5  -4  11 767.190 239.678   3
  -5   4  12 3151.69 518.399   4
  -5  -4  12 3166.09 430.799   3
  -5  -4  13 240.642 144.028   3
  -5   4  13 146.276 153.976   4
  -5  -4  14 2993.45 430.761   3
  -5  -4  14 2283.14 372.742   1
  -5   4  14 2006.19 425.179   4
  -5  -4  15 924.177 251.810   3
  -5  -4  15 698.828 200.955   1
  -5  -4  16 833.519 257.170   1
  -5  -4  17 602.035 218.684   1
   5  -5 -14 920.516 247.621   5
   5  -5 -13 1836.55 335.699   5
   5  -5 -12 92.5919 109.312   5
  -5   5 -12 439.542 175.089   6
   5  -5 -11 1774.77 327.969   5
  -5  -5 -11 2099.13 368.161   5
  -5  -5 -11 1908.63 323.969   6
  -5   5 -11 1711.21 361.060   6
   5  -5 -10 715.032 214.603   5
  -5  -5 -10 815.257 233.112   5
  -5  -5 -10 1058.19 248.842   6
  -5   5 -10 789.010 229.702   6
   5  -5  -9 646.806 205.113   5
  -5  -5  -9 724.454 234.402   5
  -5  -5  -9 769.643 192.823   6
  -5   5  -9 882.649 260.821   6
   5  -5  -8 332.205 162.155   5
  -5  -5  -8 271.305 154.087   5
  -5  -5  -8 13.8003 102.533   6
  -5   5  -8 269.714 159.390   6
  -5  -5  -7 662.554 189.362   5
  -5  -5  -7 452.027 178.900   6
  -5   5  -7 452.626 185.430   6
   5  -5  -6 6.55418 102.449   5
  -5  -5  -6 67.3239 96.7065   5
  -5  -5  -6-99.2723 153.449   6
  -5   5  -6 7.41131 99.0154   6
   5  -5  -5-77.5835 155.209   5
  -5  -5  -5 141.371 130.025   5
  -5  -5  -5 69.2409 120.912   6
  -5   5  -5 29.2745 97.1655   6
   5  -5  -4-143.804 131.169   5
  -5  -5  -4 60.5813 96.8506   5
  -5  -5  -4 172.221 145.133   6
  -5   5  -4 163.290 112.060   6
   5  -5  -3 1714.12 333.918   5
  -5  -5  -3 1666.70 287.962   5
  -5   5  -3 2057.99 329.410   6
   5  -5  -2 1135.61 261.361   5
  -5  -5  -2 1238.82 248.836   5
  -5   5  -2 1572.02 304.615   6
  -5  -5  -1 2498.53 369.643   5
   5  -5  -1 2853.49 422.365   5
  -5   5  -1 3618.39 453.492   6
   5  -5   0 1008.56 274.948   5
  -5  -5   0 625.281 186.624   5
   5  -5   1 2514.73 413.916   5
  -5  -5   1 2364.74 338.378   5
   5  -5   2 983.700 262.628   5
  -5  -5   2 774.540 204.910   3
  -5  -5   2 1038.66 227.671   5
   5  -5   3 2515.53 398.197   5
  -5  -5   3 1633.63 322.624   3
  -5  -5   3 2330.20 329.966   5
   5  -5   4 180.478 168.203   5
  -5  -5   4 140.907 180.068   3
  -5  -5   4 221.414 118.624   5
   5  -5   5 110.731 129.663   5
  -5  -5   5-137.452 195.436   3
   5  -5   6 96.8250 112.733   5
  -5  -5   6-2.86393 181.389   3
   5  -5   7 296.362 170.966   5
  -5  -5   7 689.960 250.685   3
  -5  -5   8 257.353 164.426   3
  -5  -5   9 1046.73 296.325   3
  -5  -5  10 1456.41 351.937   3
  -5  -5  11 2751.29 455.737   3
  -5   6  -8 258.611 115.060   6
  -5   6  -7 986.721 240.055   6
  -5   6  -6 98.1122 134.086   6
  -5  -6  -5 933.143 253.938   5
  -5   6  -5 574.661 221.752   6
  -5  -6  -4 521.565 205.288   5
  -5   6  -4 450.885 217.059   6
  -5  -6  -3 718.863 211.701   5
  -5  -6  -2-123.491 145.211   5
  -5  -6  -1 88.0131 119.374   5
  -5  -6   0 215.631 138.799   5
  -5  -6   1 373.023 169.541   5
  -5  -6   2 588.456 194.192   5
  -5  -6   3 511.727 231.949   3
  -6   0 -17 183.781 152.175   6
  -6   0 -16 2746.98 363.958   6
  -6   0 -15-100.084 115.457   6
  -6   0 -14 3493.50 395.574   6
  -6   0 -13 109.627 111.183   6
  -6   0 -12 9459.88 621.428   6
  -6   0 -11 25.8247 98.4467   6
  -6   0 -10 2988.58 329.590   6
  -6   0  -9-4.92867 79.2251   6
  -6   0  -8 1848.57 258.612   6
  -6   0  -7-95.8850 96.3929   6
  -6   0  -6 661.554 140.784   6
  -6   0  -5 45.8025 61.4256   6
  -6   0  -4 1904.35 229.424   6
  -6   0  -3-48.6373 63.5623   6
  -6   0  -2 9014.92 508.430   6
  -6   0  -1 70.7133 93.4534   6
  -6   0   0 13565.3 675.465   1
  -6   0   0 13745.7 615.755   6
  -6   0   1-57.2214 62.7605   1
  -6   0   1 88.7449 76.0209   6
  -6   0   2 8604.65 539.603   1
  -6   0   2 8900.38 479.420   6
  -6   0   3 82.4691 93.3466   6
  -6   0   3-8.14275 72.6010   1
  -6   0   4 1751.20 263.872   1
  -6   0   4 2134.94 228.359   6
  -6   0   5 8.44743 53.2751   6
  -6   0   5 3.88409 85.3636   1
  -6   0   6 1069.15 158.035   6
  -6   0   6 1124.61 209.409   1
  -6   0   7-104.324 102.064   1
  -6   0   8 1933.40 297.926   1
  -6   0   9 51.1269 82.9876   1
  -6   0  10 4770.95 473.283   1
  -6   0  11 85.6783 107.578   1
  -6   0  12 12607.8 830.332   1
  -6   0  13-30.6098 92.2455   1
  -6   0  14 5104.49 558.702   1
  -6   0  15 251.405 162.885   1
  -6   0  16 3339.10 474.531   1
  -6   0  17 152.583 143.743   1
  -6   0  18 1366.14 349.690   1
  -6  -1 -16 4550.01 471.012   6
  -6   1 -16 5027.33 496.507   6
  -6  -1 -15 1738.50 301.394   6
  -6   1 -15 2034.26 308.826   6
  -6  -1 -14 1316.55 247.613   6
  -6   1 -14 1568.52 270.343   6
  -6  -1 -13 3673.19 398.408   6
  -6   1 -13 4021.36 415.972   6
  -6  -1 -12 4339.06 429.716   6
  -6   1 -12 4749.42 453.494   6
  -6   1 -11 1290.50 173.632   1
  -6  -1 -11 1468.87 247.080   6
  -6   1 -11 1908.47 290.215   6
  -6   1 -10 2028.54 212.677   1
  -6   1 -10 2164.29 292.581   6
  -6  -1 -10 2135.47 283.000   6
  -6   1  -9 8186.91 443.280   1
  -6  -1  -9 9467.41 586.508   6
  -6   1  -9 8284.64 558.967   6
  -6   1  -8 9911.92 497.996   1
  -6  -1  -8 10237.9 605.059   6
  -6   1  -8 10027.9 593.706   6
  -6   1  -7 7100.65 432.822   1
  -6  -1  -7 7895.30 526.792   6
  -6   1  -7 8173.17 520.001   6
  -6   1  -6 1600.16 209.787   1
  -6  -1  -6 1589.81 245.418   6
  -6   1  -6 1773.76 241.941   6
  -6   1  -5 7251.78 448.656   1
  -6  -1  -5 8086.16 521.038   6
  -6   1  -5 6761.69 454.662   6
  -6   1  -5 6390.58 360.588   4
  -6   1  -4 9502.38 519.989   1
  -6  -1  -4 9637.92 560.586   6
  -6   1  -4 8415.89 488.611   6
  -6   1  -4 8650.37 444.029   4
  -6   1  -3 9478.51 530.809   1
  -6  -1  -3 9534.11 551.057   6
  -6   1  -3 8748.49 483.612   6
  -6   1  -3 7929.47 450.637   4
  -6  -1  -3 9283.85 378.951   3
  -6  -1  -2 3728.22 344.822   6
  -6   1  -2 3521.19 324.785   1
  -6   1  -2 3230.02 282.494   6
  -6   1  -2 3519.35 311.270   4
  -6  -1  -2 3700.41 247.853   3
  -6  -1  -1 4243.11 358.481   6
  -6   1  -1 3966.10 316.140   6
  -6   1  -1 4063.33 355.705   1
  -6   1  -1 3641.95 337.209   4
  -6  -1  -1 4521.51 282.193   3
  -6  -1   0 6529.00 446.717   6
  -6   1   0 5833.30 377.356   6
  -6   1   0 6595.96 459.853   1
  -6   1   0 6065.64 442.539   4
  -6  -1   0 7323.18 376.185   3
  -6  -1   1 3179.51 317.016   6
  -6   1   1 2772.94 256.735   6
  -6   1   1 3257.85 331.682   1
  -6   1   1 2464.75 297.758   4
  -6  -1   1 2972.25 260.882   3
  -6  -1   2 3509.86 321.115   6
  -6   1   2 3059.51 264.398   6
  -6   1   2 2763.45 319.144   1
  -6   1   2 2703.27 318.338   4
  -6  -1   2 3341.08 278.463   3
  -6  -1   3 10883.4 580.431   6
  -6   1   3 10879.1 486.892   6
  -6   1   3 11058.3 639.917   1
  -6   1   3 10949.5 663.568   4
  -6  -1   4 11442.4 595.269   6
  -6   1   4 11519.0 491.329   6
  -6   1   4 11488.3 700.552   4
  -6   1   4 10797.2 641.567   1
  -6  -1   5 6198.87 437.382   6
  -6   1   5 6058.89 345.327   6
  -6   1   5 6087.44 521.004   4
  -6   1   5 6482.48 505.723   1
  -6   1   6 1694.55 272.509   1
  -6  -1   6 1848.09 273.569   1
  -6  -1   6 1619.22 218.744   6
  -6   1   6 1871.50 304.123   4
  -6  -1   7 10435.3 654.582   1
  -6   1   7 10547.0 736.127   4
  -6   1   7 10479.0 685.433   1
  -6  -1   8 11267.3 695.531   1
  -6   1   8 12438.6 820.590   4
  -6   1   8 12960.6 771.994   1
  -6  -1   9 7769.01 592.969   1
  -6   1   9 8674.76 700.631   4
  -6   1   9 9274.30 673.365   1
  -6  -1  10 3129.09 387.597   1
  -6   1  10 3022.01 431.282   4
  -6   1  10 3554.04 422.774   1
  -6  -1  11 3600.42 426.322   1
  -6   1  11 3417.56 466.051   4
  -6   1  11 3052.98 408.011   1
  -6  -1  12 5866.38 557.617   1
  -6   1  12 6130.92 638.199   4
  -6   1  12 5712.91 573.231   1
  -6   1  13 3813.45 519.128   4
  -6  -1  13 3532.62 444.446   1
  -6   1  13 3638.33 481.649   1
  -6  -1  14 1124.03 245.322   1
  -6   1  14 1644.43 340.796   1
  -6   1  15 4307.83 543.958   1
  -6  -1  15 3512.95 461.537   1
  -6   1  16 6691.28 697.683   1
  -6  -1  16 6258.04 633.681   1
  -6   1  17 5419.29 664.458   1
  -6  -1  17 5904.04 636.188   1
  -6  -1  18-72.0891 125.402   1
  -6   2 -16 1067.61 242.312   6
  -6  -2 -15 1817.74 306.075   6
  -6   2 -15 2240.22 355.168   6
  -6  -2 -14 1232.25 257.339   6
  -6   2 -14 1157.87 262.000   6
  -6  -2 -13 33.8913 90.8662   6
  -6   2 -13 208.204 132.804   6
  -6  -2 -12 364.452 150.253   6
  -6   2 -12 372.854 138.983   6
  -6  -2 -11 2474.15 336.135   6
  -6   2 -11 2188.84 326.680   6
  -6  -2 -10 1032.17 218.021   6
  -6   2 -10 1115.42 227.878   6
  -6   2  -9 984.975 157.982   1
  -6  -2  -9 1064.64 219.814   6
  -6   2  -9 1333.61 242.376   6
  -6  -2  -8 2327.87 313.209   6
  -6   2  -8 2224.93 305.979   6
  -6   2  -8 2098.58 222.726   1
  -6  -2  -7 5180.89 445.152   6
  -6   2  -7 5020.89 437.026   6
  -6   2  -7 4881.20 353.074   1
  -6  -2  -6 2997.00 340.876   6
  -6   2  -6 2996.80 320.323   6
  -6   2  -6 3270.01 290.523   1
  -6  -2  -5 1499.17 175.415   3
  -6  -2  -5 2162.40 281.132   6
  -6   2  -5 2080.75 237.375   1
  -6   2  -5 1845.81 246.341   6
  -6  -2  -4 2926.36 332.069   6
  -6   2  -4 2595.62 289.343   6
  -6   2  -4 2870.66 287.473   1
  -6  -2  -4 1905.07 209.505   3
  -6  -2  -3 3302.86 350.484   6
  -6   2  -3 2775.79 275.419   6
  -6   2  -3 3240.62 315.380   1
  -6  -2  -3 2155.76 224.779   3
  -6  -2  -2 1907.53 272.935   6
  -6   2  -2 2049.47 233.781   6
  -6   2  -2 1838.41 244.856   1
  -6  -2  -2 1630.55 193.690   3
  -6  -2  -1 804.476 149.095   3
  -6   2  -1 579.590 147.820   1
  -6  -2  -1 704.285 162.177   6
  -6   2  -1 659.209 135.179   6
  -6  -2   0 357.158 110.919   3
  -6   2   0 335.258 122.926   1
  -6  -2   0 496.714 154.026   6
  -6   2   0 436.914 109.017   6
  -6  -2   1 736.424 144.185   3
  -6   2   1 861.001 190.638   1
  -6  -2   1 896.427 192.925   6
  -6   2   1 765.185 142.328   6
  -6   2   1 734.521 176.326   4
  -6   2   2 1645.73 264.034   1
  -6  -2   2 1727.61 256.955   6
  -6   2   2 1415.60 170.499   6
  -6   2   2 1455.06 253.343   4
  -6  -2   2 1819.87 220.432   3
  -6  -2   3 3547.23 362.658   6
  -6   2   3 3632.78 262.755   6
  -6   2   3 3212.34 377.614   4
  -6   2   3 3547.32 388.003   1
  -6  -2   3 3384.23 319.221   3
  -6  -2   4 2528.86 301.979   6
  -6   2   4 2287.69 328.995   4
  -6   2   4 3038.91 358.147   1
  -6  -2   4 2743.81 285.576   3
  -6   2   5 2065.00 322.263   4
  -6  -2   5 2604.19 286.983   3
  -6   2   5 2538.99 337.450   1
  -6   2   6 3530.23 430.951   4
  -6  -2   6 3671.85 348.409   3
  -6   2   6 3734.41 427.760   1
  -6   2   7 4396.68 496.304   4
  -6  -2   7 5432.74 434.839   3
  -6   2   7 5801.18 527.177   1
  -6   2   8 2335.27 369.231   4
  -6  -2   8 2982.86 327.361   3
  -6   2   8 2917.23 393.554   1
  -6  -2   9 1249.66 223.479   3
  -6  -2   9 1247.73 245.034   1
  -6   2   9 904.229 241.193   4
  -6   2   9 1406.40 289.540   1
  -6   2  10 2031.36 343.836   1
  -6  -2  10 1639.78 270.605   3
  -6  -2  10 1529.53 289.460   1
  -6   2  10 2058.78 363.082   4
  -6   2  11 2660.14 400.223   1
  -6  -2  11 1898.04 327.771   1
  -6   2  11 2110.46 384.695   4
  -6  -2  11 2486.00 314.947   3
  -6   2  12 643.281 209.684   1
  -6   2  12 608.917 218.336   4
  -6  -2  12 547.034 203.340   1
  -6   2  13 408.772 172.513   1
  -6   2  13 346.960 194.674   4
  -6  -2  13 336.377 177.748   1
  -6   2  14 1412.80 346.458   4
  -6   2  14 948.871 277.018   1
  -6  -2  14 1123.64 253.066   1
  -6   2  15 2705.73 483.060   4
  -6  -2  15 2645.12 403.915   1
  -6   2  15 3234.40 499.966   1
  -6  -2  16 1692.50 343.823   1
  -6   2  16 1984.66 416.400   4
  -6  -2  17 301.706 177.964   1
  -6   3 -14 1103.63 267.535   6
  -6  -3 -13 1126.61 247.621   6
  -6   3 -13 1469.68 289.327   6
  -6  -3 -12 7964.73 602.411   6
  -6   3 -12 9130.72 708.402   6
  -6   3 -11 3347.33 434.062   6
  -6  -3 -11 2393.20 332.742   6
   6  -3 -11 2386.14 276.381   5
   6  -3 -10 810.126 171.571   5
  -6  -3 -10 1016.24 242.164   6
  -6   3 -10 818.980 199.690   6
  -6  -3  -9 2972.22 353.521   6
  -6   3  -9 2614.86 351.503   6
   6  -3  -9 2799.45 300.967   5
  -6  -3  -8 3363.51 384.582   6
  -6   3  -8 2889.95 390.650   6
  -6  -3  -7 3210.65 377.789   6
  -6   3  -7 2961.29 374.041   6
  -6  -3  -6 180.489 81.8116   3
  -6   3  -6 259.031 109.939   1
  -6   3  -6 177.049 93.7821   6
  -6  -3  -5 2648.55 302.633   3
  -6   3  -5 2976.69 338.385   1
  -6  -3  -5 3478.10 384.924   6
  -6   3  -5 3164.27 351.371   6
  -6  -3  -4 4292.57 390.267   3
  -6   3  -4 4637.59 421.505   1
  -6  -3  -4 4969.08 456.479   6
  -6   3  -4 5339.61 442.204   6
  -6  -3  -3 7078.35 505.045   3
  -6   3  -3 8293.41 551.818   1
  -6  -3  -3 8013.75 582.104   6
  -6   3  -3 9012.59 568.396   6
  -6   3  -2 685.193 173.737   1
  -6  -3  -2 568.607 163.398   3
  -6  -3  -2 643.757 177.273   6
  -6   3  -2 798.025 175.848   6
  -6   3  -1 7855.20 555.438   1
  -6  -3  -1 8825.91 617.087   6
  -6   3  -1 7670.07 473.405   6
  -6   3   0 17806.0 858.737   1
  -6  -3   0 19137.4 921.658   6
  -6   3   0 19060.9 720.812   6
  -6  -3   0 16790.5 811.392   3
  -6   3   1 9071.89 614.623   1
  -6  -3   1 9007.00 637.623   6
  -6   3   1 8900.44 462.469   6
  -6  -3   1 8329.48 561.752   3
  -6  -3   2 1055.88 223.970   3
  -6   3   2 469.318 151.478   1
  -6  -3   2 705.596 192.290   6
  -6   3   3 6977.58 563.018   1
  -6  -3   3 7866.37 589.303   6
  -6  -3   3 8108.13 551.746   3
  -6   3   4 5140.68 494.043   1
  -6  -3   4 5833.53 473.394   3
  -6   3   5 4050.72 445.344   1
  -6  -3   5 4168.32 412.018   3
  -6  -3   6 601.337 180.606   3
  -6   3   6 248.342 144.490   1
  -6   3   6 302.473 167.593   4
  -6   3   7 2917.51 405.900   1
  -6   3   7 2595.79 410.358   4
  -6  -3   7 2778.21 340.092   3
  -6   3   8 2847.67 433.914   4
  -6  -3   8 3037.80 367.281   3
  -6   3   8 2735.90 399.872   1
  -6   3   9 3393.52 456.252   1
  -6   3   9 2678.27 425.459   4
  -6  -3   9 3650.67 411.413   3
  -6  -3  10 1023.55 242.513   3
  -6   3  10 872.685 270.059   1
  -6   3  10 717.712 221.935   4
  -6  -3  11 2767.03 367.503   3
  -6   3  11 2283.31 400.057   1
  -6   3  11 2431.23 432.458   4
  -6  -3  12 10012.6 784.053   1
  -6   3  12 10625.6 875.417   1
  -6   3  12 9044.86 841.672   4
  -6  -3  12 10518.9 718.949   3
  -6  -3  13 2373.44 355.292   3
  -6   3  13 1636.97 351.407   1
  -6  -3  13 2097.46 363.094   1
  -6   3  13 2247.98 435.749   4
  -6  -3  14 1401.32 291.811   3
  -6  -3  14 1268.88 308.871   1
  -6   3  14 1076.91 310.360   4
  -6  -3  15 3677.13 508.673   1
  -6  -3  16 2779.56 448.186   1
   6  -4 -12-110.052 88.1685   5
  -6   4 -12 198.792 176.425   6
   6  -4 -11 639.029 191.263   5
  -6   4 -11 657.500 247.367   6
   6  -4 -10 1000.80 225.262   5
  -6  -4 -10 1248.14 262.474   6
  -6   4 -10 1439.91 312.285   6
  -6  -4  -9 2323.28 346.298   6
  -6   4  -9 3001.49 430.404   6
   6  -4  -9 2533.19 348.171   5
   6  -4  -8 410.286 143.616   5
  -6  -4  -8 389.121 161.033   6
  -6   4  -8 721.451 212.836   6
   6  -4  -7 893.457 217.609   5
  -6  -4  -7 913.716 231.008   6
  -6   4  -7 1460.04 324.409   6
   6  -4  -6 155.006 132.745   5
  -6  -4  -6-72.0427 122.432   6
  -6   4  -6 233.428 141.645   6
  -6  -4  -5 3150.73 395.424   6
  -6   4  -5 3669.56 457.975   6
   6  -4  -5 3196.13 405.060   5
   6  -4  -4 930.012 230.665   5
  -6  -4  -4 630.889 190.316   6
  -6   4  -4 794.646 209.480   6
   6  -4  -3 1878.35 317.379   5
  -6  -4  -3 1011.39 260.240   3
  -6  -4  -3 1347.51 270.333   6
  -6   4  -3 1902.28 299.637   6
  -6  -4  -2 219.683 163.572   3
  -6  -4  -2 561.238 182.443   6
  -6   4  -2 756.426 182.812   6
   6  -4  -1 2126.21 336.621   5
  -6  -4  -1 1846.64 335.810   3
  -6  -4  -1 2037.57 315.166   6
  -6  -4   0-139.448 123.729   3
  -6  -4   0 40.1197 120.338   6
  -6  -4   1 1771.56 332.618   3
  -6  -4   2 613.112 207.216   3
  -6   4   2 534.288 186.279   1
  -6  -4   3 1526.00 316.420   3
  -6   4   3 1628.41 311.741   1
  -6  -4   3 1597.28 261.199   5
  -6  -4   4 713.125 241.202   3
  -6  -4   5 3236.70 448.124   3
  -6  -4   6 132.702 130.940   3
  -6  -4   7 1183.65 269.160   3
  -6  -4   8 743.631 258.588   3
  -6  -4   9 3203.49 447.622   3
  -6   4   9 2154.24 431.574   4
  -6  -4  10 1597.55 318.247   3
  -6   4  10 1048.00 303.549   4
  -6  -4  11 857.419 259.897   3
  -6   4  11 669.904 243.888   4
  -6  -4  13 831.101 267.231   1
   6  -5 -11 376.703 165.963   5
   6  -5 -10 5489.77 588.721   5
   6  -5  -9 621.587 209.812   5
  -6   5  -9 1258.44 367.491   6
   6  -5  -8-71.1434 93.6620   5
  -6   5  -8 651.016 267.344   6
   6  -5  -7 556.010 202.867   5
  -6  -5  -7 153.857 115.159   5
  -6   5  -6 12591.5 948.858   6
   6  -5  -6 11806.0 875.885   5
   6  -5  -5 1010.95 277.554   5
  -6  -5  -5 1039.06 280.756   5
   6  -5  -4 512.805 205.043   5
  -6  -5  -4 469.361 170.996   5
   6  -5  -3 1136.88 281.822   5
  -6  -5  -3 636.663 200.513   5
  -6  -5  -3 839.127 249.416   6
  -6  -5  -2 5972.21 703.785   3
  -6  -5  -2 4900.27 519.529   5
   6  -5  -2 6560.96 659.530   5
  -6  -5  -1 101.812 156.809   3
  -6  -5  -1 189.469 155.499   5
   6  -5   0 1972.21 383.265   5
  -6  -5   0 1039.73 317.489   3
  -6  -5   0 1610.52 296.035   5
   6  -5   1 359.262 183.068   5
  -6  -5   1 5.09246 275.807   3
  -6  -5   1 90.1331 105.362   5
  -6  -5   2 6170.71 738.289   3
   6  -5   2 6936.97 687.426   5
  -6  -5   3 760.905 309.505   3
  -6  -5   4 458.004 238.280   3
  -6  -5   5 1230.64 352.688   3
  -6  -5   6 11615.5 995.069   3
  -6  -5   7 1141.61 358.439   3
  -7   0 -13 736.917 202.857   6
  -7   0 -12 59.9313 101.684   6
  -7   0 -11 621.886 181.011   6
  -7   0 -10 42.1956 83.0076   6
  -7   0  -9 2911.99 350.838   6
  -7   0  -8 22.2788 82.1153   6
  -7   0  -7 4583.78 424.821   6
  -7   0  -6-69.3502 87.1437   6
  -7   0  -5 6025.02 464.288   6
  -7   0  -4 110.784 104.283   1
  -7   0  -4-62.4040 100.665   6
  -7   0  -3 3064.81 369.581   1
  -7   0  -3 3124.31 341.221   6
  -7   0  -2-29.2985 90.8981   1
  -7   0  -2 81.3012 98.0741   6
  -7   0  -1 836.333 199.287   1
  -7   0  -1 1124.70 204.244   6
  -7   0   0-22.1830 85.1760   1
  -7   0   0 28.9627 73.6030   6
  -7   0   1 850.113 177.502   6
  -7   0   1 1157.36 240.884   1
  -7   0   2 102.374 93.3405   6
  -7   0   2-99.3891 120.978   1
  -7   0   3 3727.76 343.241   6
  -7   0   3 3462.47 399.585   1
  -7   0   4 5.89048 67.1859   6
  -7   0   4 30.6209 83.7092   1
  -7   0   5 6893.67 575.479   1
  -7   0   6 31.1672 104.051   1
  -7   0   7 4947.26 499.736   1
  -7   0   8-103.962 110.960   1
  -7   0   9 3653.84 442.495   1
  -7   0  10 199.734 133.641   1
  -7   0  11 334.681 168.194   1
  -7   0  12-121.626 98.7887   1
  -7   1 -13 772.475 204.763   6
  -7  -1 -12 2961.02 378.907   6
  -7   1 -12 2918.93 391.180   6
  -7  -1 -11 752.803 195.776   6
  -7   1 -11 1030.98 230.280   6
  -7  -1 -10 1734.10 303.311   6
  -7   1 -10 1930.43 308.282   6
  -7  -1  -9 584.587 182.768   6
  -7   1  -9 839.200 191.122   6
  -7  -1  -8 1171.09 241.950   6
  -7   1  -8 1213.71 230.828   6
  -7   1  -8 1058.12 197.235   1
  -7  -1  -7 203.570 140.101   6
  -7   1  -7 399.900 138.080   6
  -7   1  -7 288.049 108.398   1
  -7  -1  -6 1015.71 210.655   6
  -7   1  -6 1469.37 241.484   6
  -7   1  -6 863.184 179.583   1
  -7  -1  -5-39.2026 120.994   6
  -7   1  -5 110.551 85.4984   6
  -7   1  -5 160.106 111.710   1
  -7  -1  -4 1752.17 269.228   6
  -7   1  -4 1460.24 224.827   6
  -7   1  -4 1593.40 254.296   1
  -7  -1  -3 1140.62 211.923   6
  -7   1  -3 997.241 179.868   6
  -7   1  -3 1013.38 211.848   1
  -7  -1  -2 3674.51 376.004   6
  -7   1  -2 3910.28 354.073   6
  -7   1  -2 3717.40 400.709   1
  -7  -1  -1 1013.28 214.371   6
  -7   1  -1 732.542 160.349   6
  -7   1  -1 852.229 197.427   1
  -7  -1   0 4331.30 400.909   6
  -7   1   0 4541.60 369.112   6
  -7   1   0 4303.66 405.606   4
  -7   1   0 4505.70 437.245   1
  -7  -1   1 1112.58 204.888   6
  -7   1   1 966.442 182.074   6
  -7   1   1 810.100 174.932   4
  -7   1   1 991.169 215.560   1
  -7  -1   2 4138.96 387.237   6
  -7   1   2 4360.42 343.841   6
  -7   1   2 4341.19 432.721   4
  -7   1   2 3862.89 410.544   1
  -7   1   3 1651.34 277.976   1
  -7  -1   3 1095.86 246.122   1
  -7  -1   3 1268.77 214.880   6
  -7   1   3 1523.42 264.342   4
  -7   1   4 1278.06 247.831   1
  -7  -1   4 1337.49 265.444   1
  -7  -1   4 1796.23 269.609   6
  -7   1   4 1593.37 277.868   4
  -7   1   5 132.677 104.738   1
  -7  -1   5 313.072 132.132   1
  -7  -1   5 246.231 95.8526   6
  -7   1   5 477.933 178.534   4
  -7   1   6 1032.23 234.663   1
  -7  -1   6 804.695 218.866   1
  -7   1   6 1458.53 298.852   4
  -7   1   7 375.025 168.552   1
  -7   1   7 104.164 120.088   4
  -7  -1   7 283.425 141.006   1
  -7   1   8 1926.54 321.575   1
  -7   1   8 1338.69 292.087   4
  -7  -1   8 1444.25 306.509   1
  -7   1   9 866.801 232.804   1
  -7   1   9 1046.19 271.431   4
  -7  -1   9 676.526 224.284   1
  -7   1  10 2140.01 376.629   1
  -7  -1  10 2033.73 334.844   1
  -7   1  11 957.739 276.202   1
  -7  -1  11 853.376 222.720   1
  -7  -1  12 4359.50 535.580   1
  -7   1  12 4338.57 544.076   1
  -7   2 -12 1758.04 327.322   6
  -7  -2 -11 2561.36 353.667   6
  -7   2 -11 2607.35 363.966   6
  -7  -2 -10 1558.44 275.674   6
  -7   2 -10 1333.32 274.883   6
  -7  -2  -9 1494.14 271.568   6
  -7   2  -9 1497.74 285.146   6
  -7  -2  -8 735.933 212.383   6
  -7   2  -8 497.534 162.745   6
  -7  -2  -7 652.976 181.319   6
  -7   2  -7 587.401 148.354   6
  -7   2  -6 773.431 168.721   1
  -7  -2  -6 503.004 154.178   6
  -7   2  -6 535.568 152.217   6
  -7   2  -5 383.446 129.833   1
  -7  -2  -5 376.217 143.997   6
  -7   2  -5 510.869 139.102   6
  -7   2  -4 1036.65 199.745   1
  -7  -2  -4 1373.31 255.741   6
  -7   2  -4 1228.13 212.301   6
  -7   2  -3 1428.86 248.587   1
  -7  -2  -3 1475.12 265.318   6
  -7   2  -3 1280.91 216.731   6
  -7   2  -2 2225.28 267.510   6
  -7  -2  -2 2302.79 328.641   6
  -7   2  -2 2705.29 333.811   1
  -7   2  -1 2018.36 294.849   1
  -7  -2  -1 2378.60 320.737   6
  -7   2  -1 1853.72 232.360   6
  -7   2  -1 1660.19 271.496   4
  -7  -2   0 2686.27 342.504   6
  -7   2   0 1936.62 291.432   4
  -7   2   0 2516.39 343.450   1
  -7  -2   1 2235.09 316.127   6
  -7   2   1 1827.88 288.359   4
  -7  -2   2 2223.65 316.346   6
  -7   2   2 1631.14 286.253   4
  -7  -2   2 2052.98 259.347   3
  -7   2   2 2469.56 348.436   1
  -7   2   3 2361.75 342.760   1
  -7  -2   3 1860.53 287.550   6
  -7   2   3 1870.58 310.105   4
  -7  -2   3 2509.22 294.508   3
  -7  -2   4 1259.74 231.583   3
  -7  -2   4 975.860 213.554   6
  -7   2   4 1261.77 269.365   1
  -7   2   4 1110.21 255.055   4
  -7   2   5 599.510 203.566   1
  -7   2   5 405.528 167.368   4
  -7  -2   6 563.426 166.315   3
  -7   2   6 293.381 127.128   4
  -7   2   6 552.122 196.312   1
  -7  -2   7 461.850 159.573   1
  -7   2   7 581.755 208.589   4
  -7   2   7 756.974 226.146   1
  -7  -2   8 707.948 236.804   1
  -7   2   8 1024.63 282.853   4
  -7   2   8 974.119 260.692   1
  -7  -2   9 1230.13 288.304   1
  -7   2   9 937.001 249.654   4
  -7   2   9 1284.39 306.152   1
  -7   2  10 2458.26 412.189   1
  -7  -2  10 1564.63 328.064   1
  -7   2  10 1878.66 382.765   4
  -7   2  11 2378.10 438.605   4
  -7  -2  11 2225.03 381.857   1
  -7   2  12 2603.97 453.076   4
  -7   3 -11 253.975 173.181   6
  -7   3 -10 126.050 126.609   6
  -7   3  -9 1696.65 316.214   6
  -7  -3  -8 455.955 183.475   6
  -7   3  -8 411.173 174.799   6
  -7  -3  -7 3530.55 424.606   6
  -7   3  -7 3778.76 437.325   6
  -7  -3  -6 779.005 197.832   6
  -7   3  -6 334.580 160.575   6
  -7  -3  -5 4392.60 478.495   6
  -7   3  -5 4226.46 435.905   6
  -7  -3  -4 60.1384 129.609   6
  -7   3  -4 546.243 184.813   6
  -7   3  -3 1193.60 234.770   1
  -7  -3  -3 1924.60 305.429   6
  -7   3  -3 1953.75 277.459   6
  -7   3  -2 202.026 106.657   1
  -7  -3  -2 213.858 152.113   6
  -7   3  -1 102.293 87.1193   1
  -7  -3  -1 203.005 131.100   6
  -7   3   0 40.0961 75.3757   1
  -7  -3   0-68.4713 124.984   6
  -7  -3   1 385.540 153.911   3
  -7   3   1 293.502 132.855   1
  -7  -3   1 467.488 156.102   6
  -7   3   1 344.547 132.576   4
  -7  -3   2 457.162 177.574   3
  -7   3   2 197.917 141.933   1
  -7  -3   2 183.826 136.957   6
  -7   3   2 310.539 159.233   4
  -7  -3   3 1748.36 279.631   3
  -7   3   3 1325.08 290.595   1
  -7   3   3 1128.76 263.739   4
  -7  -3   4 330.846 149.467   3
  -7   3   4 293.492 142.593   1
  -7   3   4 282.438 153.418   4
  -7   3   5 4053.41 504.952   1
  -7   3   5 3382.16 469.753   4
  -7  -3   5 5030.43 470.491   3
  -7  -3   6 602.364 208.602   3
  -7   3   6 513.891 191.087   1
  -7   3   6 686.130 240.163   4
  -7   3   7 4068.34 517.979   1
  -7   3   7 3299.44 494.743   4
  -7  -3   7 4509.84 462.121   3
  -7  -3   8 213.935 148.525   3
  -7   3   8 431.434 186.150   4
  -7   3   8 772.818 252.629   1
  -7  -3   9 2502.51 384.766   3
  -7   3   9 2447.13 433.162   4
  -7  -3  10 489.080 198.672   3
  -7   3  10 192.951 134.260   4
  -7  -3  11 82.4182 109.446   3
  -7   4  -9 820.828 307.192   6
  -7   4  -8 1240.05 354.621   6
  -7   4  -7 129.270 138.372   6
  -7  -4  -2 1781.60 340.585   6
  -7  -4  -1 376.308 183.169   6
  -7   4   0 1223.46 268.512   1
  -7  -4   0 2050.27 351.601   6
  -7   4   1 240.662 86.3662   1
  -7  -4   1 640.927 216.859   3
  -7  -4   2 1052.23 264.425   3
  -7   4   2 1501.60 304.999   1
  -7  -4   3 406.211 181.389   3
  -7   4   3 576.307 233.017   1
  -7  -4   4 1400.71 322.431   3
  -7   4   4 841.567 249.026   1
  -7  -4   5 465.956 218.324   3
  -7   4   5-15.5203 128.192   1
  -7   4   5 336.373 167.549   4
  -7   4   6 1232.48 352.239   1
  -7  -4   6 1586.59 354.013   3
  -7   4   6 1485.80 359.346   4
  -7  -4   7 135.526 187.460   3
  -7   4   7 38.9559 115.254   4
  -7  -4   8 992.916 274.208   3
  -8   0  -8 3609.98 422.930   1
  -8   0  -8 5075.74 491.362   6
  -8   0  -7 4.02259 85.9118   1
  -8   0  -7-64.4511 107.344   6
  -8   0  -6 871.707 206.771   1
  -8   0  -6 1363.67 250.924   6
  -8   0  -5-71.8076 96.7048   1
  -8   0  -5 438.559 175.751   6
  -8   0  -4 8154.58 619.153   1
  -8   0  -4 8198.85 592.527   6
  -8   0  -3 124.873 107.332   6
  -8   0  -3 67.2105 98.9523   1
  -8   0  -2 394.770 132.218   6
  -8   0  -2 209.797 133.627   1
  -8   0  -1 228.385 144.953   6
  -8   0  -1 184.333 135.384   1
  -8   0   0 26504.3 1180.08   1
  -8   0   1 157.629 142.979   1
  -8   0   2 245.815 122.533   1
  -8   0   3 141.861 127.495   1
  -8   0   4 11273.8 797.561   1
  -8   1  -8 309.421 121.580   6
  -8  -1  -7 2015.09 317.472   6
  -8   1  -7 2053.10 315.325   6
  -8  -1  -6 343.951 139.882   6
  -8   1  -6 409.823 142.354   6
  -8   1  -6 308.046 136.944   1
  -8  -1  -5 1678.28 290.189   6
  -8   1  -5 1596.87 275.623   6
  -8   1  -5 2003.52 320.092   1
  -8  -1  -4 1148.67 234.503   6
  -8   1  -4 1169.10 233.305   6
  -8   1  -4 963.890 213.382   1
  -8  -1  -3 1564.22 272.757   6
  -8   1  -3 1576.50 262.013   6
  -8   1  -3 1615.28 289.484   1
  -8   1  -2 331.449 132.067   1
  -8  -1  -2 567.802 175.043   6
  -8   1  -1 868.591 217.919   1
  -8  -1  -1 405.072 169.819   1
  -8  -1  -1 918.646 208.324   6
  -8   1   0 202.157 127.022   1
  -8  -1   0 380.421 173.159   1
  -8  -1   0 181.356 127.666   6
  -8   1   1 894.191 209.101   1
  -8  -1   1 955.427 240.298   1
  -8  -1   1 647.639 158.335   6
  -8   1   2 233.823 129.501   1
  -8  -1   2 305.007 169.941   1
  -8   1   3 1938.38 341.818   1
  -8  -1   3 1988.33 337.472   1
  -8   1   4 1064.58 264.484   1
  -8   1   5 2306.17 384.807   1
  -8   2  -8 662.301 215.297   6
  -8   2  -7 3797.81 421.403   6
  -8   2  -6 3246.17 391.093   6
  -8  -2  -5 5008.72 499.280   6
  -8  -2  -4 213.717 168.128   6
  -8  -2  -3 3903.08 447.760   6
  -8   2  -3 5033.53 500.703   1
  -8   2  -2 1844.32 311.605   1
  -8  -2  -2 1580.08 272.838   6
  -8  -2  -1 2814.06 369.257   6
  -8   2  -1 3166.20 411.959   1
  -8   2   0 646.600 199.118   1
  -8  -2   0 221.544 156.285   6
  -8  -2   1 2070.32 316.296   6
  -8   2   1 2849.33 404.753   1
  -8  -2   2 1041.70 238.857   6
  -8   2   2 1880.16 347.983   1
  -8   2   3 6313.08 626.611   1
  -8   2   6 2464.91 419.295   4
  -8   2   7 5368.34 619.609   4
  -8   2   8 1156.16 304.541   4
  -8   2   9 5700.63 672.195   4
  -8   3   0 3058.86 428.705   1
  -8   3   1 285.214 153.431   1
  -8  -3   1 538.686 235.479   6
  -8   3   2 1938.08 373.722   1
   0   0   0    0.00    0.00   0
;
_shelx_hkl_checksum              88091
_olex2_submission_special_instructions 'No special instructions were received'
_oxdiff_exptl_absorpt_empirical_details
;
Empirical correction (ABSPACK) includes:
- Absorption correction using spherical harmonics
- Frame scaling
;
_oxdiff_exptl_absorpt_empirical_full_max 2.433
_oxdiff_exptl_absorpt_empirical_full_min 0.571
loop_
_space_group_symop_operation_xyz
'x, y, z'
'-x+1/2, -y, z+1/2'
'x+1/2, -y, z+1/2'
'-x, y, z'
loop_
_atom_site_label
_atom_site_type_symbol
_atom_site_fract_x
_atom_site_fract_y
_atom_site_fract_z
_atom_site_U_iso_or_equiv
_atom_site_adp_type
_atom_site_occupancy
_atom_site_site_symmetry_order
_atom_site_calc_flag
_atom_site_refinement_flags_posn
_atom_site_refinement_flags_adp
_atom_site_refinement_flags_occupancy
_atom_site_disorder_assembly
_atom_site_disorder_group
U1 U 0.500000 0.18418(19) 0.60654(6) 0.0208(3) Uani 1 2 d S T P . .
Se1 Se 0.000000 -0.1404(6) 0.52735(14) 0.0231(6) Uani 1 2 d S T P . .
Se2 Se 1.000000 0.5064(5) 0.68971(14) 0.0215(6) Uani 1 2 d S T P . .
Cu1 Cu -0.2501(3) 0.6093(4) 0.36166(13) 0.0128(5) Uani 1 1 d . . . . .
Cu2 Cu 0.000000 0.1138(5) 0.35406(18) 0.0118(6) Uani 1 2 d S T P . .
Cu3 Cu -0.500000 0.1044(5) 0.35643(18) 0.0114(5) Uani 1 2 d S T P . .
O1 O 0.500000 0.453(6) 0.5571(13) 0.048(7) Uani 1 2 d S T P . .
O2 O 0.500000 -0.086(5) 0.6556(11) 0.038(6) Uani 1 2 d S T P . .
O3 O 0.218(3) 0.060(4) 0.5346(9) 0.037(4) Uani 1 1 d . . . . .
O4 O 0.000000 -0.200(3) 0.4420(10) 0.013(3) Uani 1 2 d S T P . .
O5 O 0.778(3) 0.310(3) 0.6820(9) 0.033(4) Uani 1 1 d . . . . .
O6 O 1.000000 0.555(4) 0.7746(10) 0.021(4) Uani 1 2 d S T P . .
O7 O -0.254(2) 0.279(3) 0.4027(7) 0.014(3) Uani 1 1 d D . . . .
H7 H -0.24(4) 0.28(5) 0.4495(19) 0.021 Uiso 1 1 d D U . . .
O8 O -0.500000 0.725(4) 0.4136(9) 0.014(3) Uani 1 2 d DS T P . .
H8 H -0.500000 0.63(5) 0.457(8) 0.021 Uiso 1 2 d DS U P . .
O9 O 0.000000 0.491(3) 0.3083(9) 0.013(3) Uani 1 2 d DS T P . .
H9 H 0.06(3) 0.56(6) 0.264(10) 0.020 Uiso 0.5 1 d D U P . .
O10 O -0.2481(16) -0.069(2) 0.3121(7) 0.013(2) Uani 1 1 d D . . . .
H10 H -0.27(4) -0.09(4) 0.266(3) 0.019 Uiso 1 1 d D U . . .
loop_
_atom_site_aniso_label
_atom_site_aniso_U_11
_atom_site_aniso_U_22
_atom_site_aniso_U_33
_atom_site_aniso_U_23
_atom_site_aniso_U_13
_atom_site_aniso_U_12
U1 0.0154(4) 0.0336(5) 0.0134(4) -0.0052(4) 0.000 0.000
Se1 0.0209(13) 0.0335(17) 0.0150(13) 0.0025(11) 0.000 0.000
Se2 0.0201(11) 0.0293(16) 0.0150(12) 0.0024(10) 0.000 0.000
Cu1 0.0074(9) 0.0088(10) 0.0222(11) 0.0002(9) 0.0016(8) 0.0009(7)
Cu2 0.0060(11) 0.0093(13) 0.0201(14) -0.0013(12) 0.000 0.000
Cu3 0.0056(11) 0.0088(13) 0.0198(14) -0.0024(12) 0.000 0.000
O1 0.057(16) 0.058(18) 0.029(12) 0.002(12) 0.000 0.000
O2 0.063(16) 0.032(13) 0.019(11) 0.013(9) 0.000 0.000
O3 0.033(7) 0.055(12) 0.023(8) -0.012(8) -0.005(6) -0.007(8)
O4 0.012(8) 0.005(8) 0.021(10) -0.002(6) 0.000 0.000
O5 0.031(8) 0.039(11) 0.029(9) -0.006(7) -0.007(7) -0.006(7)
O6 0.012(8) 0.029(11) 0.021(9) -0.012(8) 0.000 0.000
O7 0.009(6) 0.013(7) 0.019(7) -0.001(5) 0.003(4) -0.002(5)
O8 0.007(8) 0.019(10) 0.016(8) -0.003(7) 0.000 0.000
O9 0.009(7) 0.019(9) 0.012(8) -0.001(6) 0.000 0.000
O10 0.005(5) 0.017(7) 0.017(6) 0.002(5) -0.003(5) -0.001(4)
loop_
_atom_type_symbol
_atom_type_description
_atom_type_scat_dispersion_real
_atom_type_scat_dispersion_imag
_atom_type_scat_source
Cu Cu 0.3201 1.2651 'International Tables Vol C Tables 4.2.6.8 and 6.1.1.4'
H H 0.0000 0.0000 'International Tables Vol C Tables 4.2.6.8 and 6.1.1.4'
O O 0.0106 0.0060 'International Tables Vol C Tables 4.2.6.8 and 6.1.1.4'
Se Se -0.0929 2.2259 'International Tables Vol C Tables 4.2.6.8 and 6.1.1.4'
U U -9.6767 9.6646 'International Tables Vol C Tables 4.2.6.8 and 6.1.1.4'
loop_
_exptl_crystal_face_index_h
_exptl_crystal_face_index_k
_exptl_crystal_face_index_l
_exptl_crystal_face_perp_dist
-3 1 25 0.0213
-8 0 1 0.0487
8 0 5 0.0396
-2 5 19 0.0250
1 7 -11 0.0187
2 -4 -21 0.0323
-1 -7 10 0.0219
loop_
_geom_angle_atom_site_label_1
_geom_angle_atom_site_label_2
_geom_angle_atom_site_label_3
_geom_angle
_geom_angle_site_symmetry_1
_geom_angle_site_symmetry_3
O1 U1 O2 179.6(14) . .
O1 U1 O3 86.3(8) . .
O1 U1 O3 86.3(8) . 4_655
O1 U1 O5 94.3(8) . .
O1 U1 O5 94.3(8) . 4_655
O2 U1 O3 93.5(8) . 4_655
O2 U1 O3 93.5(8) . .
O2 U1 O5 86.0(7) . 4_655
O2 U1 O5 86.0(7) . .
O3 U1 O3 95.2(8) 4_655 .
O3 U1 O5 86.3(6) 4_655 .
O3 U1 O5 178.4(6) . .
O3 U1 O5 178.4(6) 4_655 4_655
O3 U1 O5 86.3(6) . 4_655
O5 U1 O5 92.1(9) 4_655 .
O3 Se1 O3 98.0(13) . 4
O4 Se1 O3 102.1(7) . .
O4 Se1 O3 102.1(7) . 4
O5 Se2 O5 100.2(12) . 4_755
O6 Se2 O5 100.9(8) . .
O6 Se2 O5 100.9(8) . 4_755
O4 Cu1 Cu1 51.3(3) 1_565 4
O4 Cu1 O6 175.4(6) 1_565 2_564
O6 Cu1 Cu1 128.1(3) 2_564 4
O7 Cu1 Cu1 90.7(4) . 4
O7 Cu1 O4 99.5(6) . 1_565
O7 Cu1 O6 84.9(6) . 2_564
O7 Cu1 O10 175.2(6) . 1_565
O8 Cu1 Cu1 141.6(4) . 4
O8 Cu1 O4 90.3(5) . 1_565
O8 Cu1 O6 90.2(6) . 2_564
O8 Cu1 O7 95.6(7) . .
O8 Cu1 O9 179.3(6) . .
O8 Cu1 O10 87.1(7) . 1_565
O9 Cu1 Cu1 39.1(4) . 4
O9 Cu1 O4 90.4(5) . 1_565
O9 Cu1 O6 89.1(5) . 2_564
O9 Cu1 O7 84.3(7) . .
O9 Cu1 O10 93.0(6) . 1_565
O10 Cu1 Cu1 89.7(3) 1_565 4
O10 Cu1 O4 84.4(5) 1_565 1_565
O10 Cu1 O6 91.1(6) 1_565 2_564
O7 Cu2 O4 90.6(5) . .
O7 Cu2 O4 90.6(5) 4 .
O7 Cu2 O7 98.5(8) . 4
O7 Cu2 O9 75.7(5) . .
O7 Cu2 O9 75.7(5) 4 .
O9 Cu2 O4 158.7(6) . .
O10 Cu2 O4 84.8(5) . .
O10 Cu2 O4 84.8(5) 4 .
O10 Cu2 O7 81.7(5) 4 4
O10 Cu2 O7 81.7(5) . .
O10 Cu2 O7 175.4(6) . 4
O10 Cu2 O7 175.4(6) 4 .
O10 Cu2 O9 108.8(5) 4 .
O10 Cu2 O9 108.8(5) . .
O10 Cu2 O10 97.6(7) . 4
Cu3 Cu3 Cu2 0(10) 4_455 1_455
Cu3 Cu3 O7 0(10) 4_455 4_455
Cu3 Cu3 O7 0(10) 4_455 .
Cu3 Cu3 O8 0(10) 4_455 1_545
Cu3 Cu3 O10 0(10) 4_455 4_455
Cu3 Cu3 O10 0(10) 4_455 .
O7 Cu3 Cu2 138.0(4) . 1_455
O7 Cu3 Cu2 41.7(4) 4_455 1_455
O7 Cu3 O7 96.3(8) . 4_455
O7 Cu3 O8 103.5(5) 4_455 1_545
O7 Cu3 O8 103.5(5) . 1_545
O7 Cu3 O10 178.5(6) 4_455 .
O7 Cu3 O10 82.3(5) 4_455 4_455
O7 Cu3 O10 178.5(6) . 4_455
O7 Cu3 O10 82.3(5) . .
O8 Cu3 Cu2 91.30(8) 1_545 1_455
O10 Cu3 Cu2 139.7(4) . 1_455
O10 Cu3 Cu2 40.7(4) 4_455 1_455
O10 Cu3 O8 76.3(5) . 1_545
O10 Cu3 O8 76.3(5) 4_455 1_545
O10 Cu3 O10 99.0(7) . 4_455
Se1 O3 U1 143.4(11) . .
Se1 O4 Cu1 135.9(5) . 4_545
Se1 O4 Cu1 135.9(5) . 1_545
Se1 O4 Cu2 122.2(9) . .
Cu1 O4 Cu1 77.3(6) 1_545 4_545
Cu1 O4 Cu2 82.9(5) 4_545 .
Cu1 O4 Cu2 82.9(5) 1_545 .
Se2 O5 U1 143.1(10) . .
Se2 O6 Cu1 128.0(7) . 2_565
Se2 O6 Cu1 128.0(7) . 3_665
Cu1 O6 Cu1 76.3(6) 3_665 2_565
Cu1 O7 H7 112(10) . .
Cu2 O7 Cu1 103.4(6) . .
Cu2 O7 H7 115(10) . .
Cu3 O7 Cu1 106.7(6) 4_455 .
Cu3 O7 Cu1 106.7(6) . .
Cu3 O7 Cu2 97.4(6) 4_455 .
Cu3 O7 Cu2 97.4(6) . .
Cu3 O7 Cu3 0.0(2) 4_455 .
Cu3 O7 H7 120(10) 4_455 .
Cu3 O7 H7 120(10) . .
Cu1 O8 Cu1 103.2(9) 4_455 .
Cu1 O8 Cu3 93.5(7) . 1_565
Cu1 O8 Cu3 93.5(7) 4_455 1_565
Cu1 O8 H8 105(10) 4_455 .
Cu1 O8 H8 105(10) . .
Cu3 O8 H8 149(10) 1_565 .
Cu1 O9 Cu1 101.8(9) . 4
Cu1 O9 Cu2 96.5(6) . .
Cu1 O9 Cu2 96.5(6) 4 .
Cu1 O9 H9 91(10) 4 .
Cu1 O9 H9 128(10) . .
Cu2 O9 H9 133(10) . .
Cu1 O10 H10 111(10) 1_545 .
Cu2 O10 Cu1 105.8(6) . 1_545
Cu2 O10 Cu3 98.4(6) . .
Cu2 O10 Cu3 98.4(6) . 4_455
Cu2 O10 H10 126(10) . .
Cu3 O10 Cu1 103.1(6) . 1_545
Cu3 O10 Cu1 103.1(6) 4_455 1_545
Cu3 O10 Cu3 0.00(18) 4_455 .
Cu3 O10 H10 110(10) 4_455 .
Cu3 O10 H10 110(10) . .
loop_
_geom_bond_atom_site_label_1
_geom_bond_atom_site_label_2
_geom_bond_distance
_geom_bond_site_symmetry_2
U1 O1 1.77(3) .
U1 O2 1.78(2) .
U1 O3 2.286(16) 4_655
U1 O3 2.286(16) .
U1 O5 2.313(16) 4_655
U1 O5 2.313(16) .
Se1 O3 1.723(18) .
Se1 O3 1.723(18) 4
Se1 O4 1.667(19) .
Se2 O5 1.726(16) .
Se2 O5 1.726(16) 4_755
Se2 O6 1.646(19) .
Cu1 Cu1 2.990(3) 4
Cu1 O4 2.393(15) 1_565
Cu1 O6 2.419(18) 2_564
Cu1 O7 2.007(14) .
Cu1 O8 1.907(12) .
Cu1 O9 1.926(12) .
Cu1 O10 2.035(14) 1_565
Cu2 O4 2.430(19) .
Cu2 O7 2.006(14) .
Cu2 O7 2.006(14) 4
Cu2 O9 2.283(19) .
Cu2 O10 1.971(12) .
Cu2 O10 1.971(12) 4
Cu3 Cu3 0.000(9) 4_455
Cu3 O7 1.973(14) .
Cu3 O7 1.973(14) 4_455
Cu3 O8 2.39(2) 1_545
Cu3 O10 1.980(12) .
Cu3 O10 1.980(12) 4_455
O7 H7 0.90(3) .
O8 H8 0.98(3) .
O9 H9 1.00(3) .
O10 H10 0.90(3) .
loop_
_geom_torsion_atom_site_label_1
_geom_torsion_atom_site_label_2
_geom_torsion_atom_site_label_3
_geom_torsion_atom_site_label_4
_geom_torsion
_geom_torsion_site_symmetry_1
_geom_torsion_site_symmetry_2
_geom_torsion_site_symmetry_3
_geom_torsion_site_symmetry_4
O3 Se1 O3 U1 109.8(16) 4 . . .
O3 Se1 O4 Cu1 65.7(14) . . . 4_545
O3 Se1 O4 Cu1 166.7(12) 4 . . 4_545
O3 Se1 O4 Cu1 -166.7(12) . . . 1_545
O3 Se1 O4 Cu1 -65.7(14) 4 . . 1_545
O3 Se1 O4 Cu2 50.5(7) 4 . . .
O3 Se1 O4 Cu2 -50.5(7) . . . .
O4 Se1 O3 U1 -145.9(15) . . . .
O5 Se2 O5 U1 -106.0(15) 4_755 . . .
O5 Se2 O6 Cu1 -0.2(13) . . . 2_565
O5 Se2 O6 Cu1 0.2(13) 4_755 . . 3_665
O5 Se2 O6 Cu1 -103.0(11) 4_755 . . 2_565
O5 Se2 O6 Cu1 103.0(11) . . . 3_665
O6 Se2 O5 U1 150.6(15) . . . .
loop_
_exptl_oxdiff_crystal_face_indexfrac_h
_exptl_oxdiff_crystal_face_indexfrac_k
_exptl_oxdiff_crystal_face_indexfrac_l
_exptl_oxdiff_crystal_face_x
_exptl_oxdiff_crystal_face_y
_exptl_oxdiff_crystal_face_z
-2.6320 1.2167 25.1936 -0.0104 -0.0042 0.9999
-8.4076 0.1667 0.5799 -0.9197 0.2163 0.3277
8.2525 0.1046 5.1923 0.9666 -0.2289 -0.1150
-2.1224 5.1811 18.9871 0.1177 0.5188 0.8467
0.8673 7.0849 -11.0871 0.2241 0.9358 -0.2721
2.3067 -4.3550 -21.0966 -0.0902 -0.4047 -0.9100
-0.7693 -7.2103 10.1697 -0.2262 -0.9456 0.2339
