#------------------------------------------------------------------------------
#$Date: 2022-03-31 01:15:30 +0300 (Thu, 31 Mar 2022) $
#$Revision: 274136 $
#$URL: file:///home/coder/svn-repositories/cod/cif/1/56/67/1566721.cif $
#------------------------------------------------------------------------------
#
# This file is available in the Crystallography Open Database (COD),
# http://www.crystallography.net/
#
# All data on this site have been placed in the public domain by the
# contributors.
#
data_1566721
loop_
_publ_author_name
'Su, Chang-Yuan'
'Yao, Yefeng'
'Zhang, Zhixu'
'Wang, Ying'
'Chen, Ming'
'Huang, Pei-Zhi'
'Zhang, Yi'
'Qiao, Wencheng'
'Fu, Da-Wei'
_publ_section_title
;
 The construction of a two-dimensional organic-inorganic hybrid double
 perovskite ferroelastic with high Tc and narrow band gap
;
_journal_name_full               'Chemical Science'
_journal_paper_doi               10.1039/D1SC07045B
_journal_year                    2022
_chemical_formula_sum            'C20 Ag Bi Br8 N8'
_chemical_formula_weight         1308.41
_space_group_crystal_system      orthorhombic
_space_group_IT_number           65
_space_group_name_Hall           '-C 2 2'
_space_group_name_H-M_alt        'C m m m'
_audit_creation_method           SHELXL-2018/3
_audit_update_record
;
2021-10-14 deposited with the CCDC.	2022-03-25 downloaded from the CCDC.
;
_cell_angle_alpha                90
_cell_angle_beta                 90
_cell_angle_gamma                90
_cell_formula_units_Z            2
_cell_length_a                   8.774(10)
_cell_length_b                   27.47(3)
_cell_length_c                   8.771(9)
_cell_measurement_reflns_used    2256
_cell_measurement_temperature    375(2)
_cell_measurement_theta_max      17.70
_cell_measurement_theta_min      2.46
_cell_volume                     2114(4)
_computing_structure_refinement  'SHELXL-2018/3 (Sheldrick, 2018)'
_computing_structure_solution    'SHELXT 2018/2 (Sheldrick, 2018)'
_diffrn_ambient_temperature      375(2)
_diffrn_measured_fraction_theta_full 0.992
_diffrn_measured_fraction_theta_max 0.992
_diffrn_measurement_device_type  'Bruker APEX-II CCD'
_diffrn_measurement_method       '\f and \w scans'
_diffrn_radiation_type           MoK\a
_diffrn_radiation_wavelength     0.71073
_diffrn_reflns_av_R_equivalents  0.1204
_diffrn_reflns_av_unetI/netI     0.0620
_diffrn_reflns_Laue_measured_fraction_full 0.992
_diffrn_reflns_Laue_measured_fraction_max 0.992
_diffrn_reflns_limit_h_max       8
_diffrn_reflns_limit_h_min       -8
_diffrn_reflns_limit_k_max       26
_diffrn_reflns_limit_k_min       -26
_diffrn_reflns_limit_l_max       8
_diffrn_reflns_limit_l_min       -8
_diffrn_reflns_number            10541
_diffrn_reflns_point_group_measured_fraction_full 0.992
_diffrn_reflns_point_group_measured_fraction_max 0.992
_diffrn_reflns_theta_full        20.247
_diffrn_reflns_theta_max         20.247
_diffrn_reflns_theta_min         2.322
_exptl_absorpt_coefficient_mu    12.201
_exptl_crystal_colour            yellow
_exptl_crystal_density_diffrn    2.056
_exptl_crystal_description       block
_exptl_crystal_F_000             1172
_refine_diff_density_max         1.836
_refine_diff_density_min         -1.875
_refine_diff_density_rms         0.246
_refine_ls_extinction_method     none
_refine_ls_goodness_of_fit_ref   1.244
_refine_ls_hydrogen_treatment    undef
_refine_ls_matrix_type           full
_refine_ls_number_parameters     59
_refine_ls_number_reflns         616
_refine_ls_number_restraints     180
_refine_ls_restrained_S_all      1.082
_refine_ls_R_factor_all          0.1205
_refine_ls_R_factor_gt           0.1110
_refine_ls_shift/su_max          0.011
_refine_ls_shift/su_mean         0.003
_refine_ls_structure_factor_coef Fsqd
_refine_ls_weighting_details
'w=1/[\s^2^(Fo^2^)+(0.0724P)^2^+280.4476P] where P=(Fo^2^+2Fc^2^)/3'
_refine_ls_weighting_scheme      calc
_refine_ls_wR_factor_gt          0.3167
_refine_ls_wR_factor_ref         0.3235
_reflns_Friedel_coverage         0.000
_reflns_number_gt                568
_reflns_number_total             616
_reflns_threshold_expression     'I > 2\s(I)'
_cod_data_source_file            d1sc07045b3.cif
_cod_data_source_block           mo_SCY_AgBiBr_375K_0m_a
_cod_database_code               1566721
_shelx_shelxl_version_number     2018/3
_shelx_space_group_comment
;
The symmetry employed for this shelxl refinement is uniquely defined
by the following loop, which should always be used as a source of
symmetry information in preference to the above space-group names.
They are only intended as comments.
;
_shelx_res_file
;
TITL mo_SCY_AgBiBr_375K_0m_a.res in Cmmm
    mo_SCY_AgBiBr_375K_0m_a.res
    created by SHELXL-2018/3 at 09:24:28 on 14-Oct-2021
CELL  0.71073   8.7740  27.4656   8.7711   90.000   90.000   90.000
ZERR   2.000   0.0102   0.0278   0.0093    0.000    0.000    0.000
LATT 7
SYMM -X, -Y, Z
SYMM -X, Y, -Z
SYMM X, -Y, -Z
SFAC C  Ag Bi Br N
UNIT 40 2 2 16 16
L.S. 77
ACTA
BOND
FMAP 2
PLAN 10
LIST 6
simu 0.01 0.02 38 $c $n
eadp n1 c1
eadp n2 c4
EQIV $1 1-x, y, z.
eqiv $2 x, y, 1-z.
dfix 1.755 0.001 c6 c6_$2
dfix 1.755 0.001 c3 c3_$1
dfix 1.5 0.001 n1 c1 c1 c2 c2 c3 n2 c4 c4 c5 c5 c6
dfix 2.65 0.001 c1 c3 c4 c6
dfix 2.5 0.001 n2 c5  n1 c2
BIND Ag1  Br3
FREE N1   C3
FREE C3   Bi1
TEMP 101.850
WGHT    0.072400  280.447601
FVAR       0.20526
AG1   2    0.000000    0.500000    0.000000    10.12500    0.19364    0.13570 =
         0.20991    0.00000    0.00000    0.00000
BI1   3    0.500000    0.500000    0.500000    10.12500    0.09346    0.06543 =
         0.07626    0.00000    0.00000    0.00000
BR1   4    0.000000    0.592421    0.000000    10.25000    0.21508    0.12516 =
         0.22887    0.00000    0.00000    0.00000
BR2   4    0.500000    0.602515    0.500000    10.25000    0.29268    0.10246 =
         0.31648    0.00000    0.00000    0.00000
BR3   4    0.269841    0.500000    0.267786    10.50000    0.20758    0.27485 =
         0.20159    0.00000   -0.12280    0.00000
C1    1    0.500000    0.596748    1.000000    10.25000    0.48954    0.30961 =
         0.57388    0.00000    0.00000    0.00000
C2    1    0.500000    0.651361    1.000000    10.25000    0.48955    0.30958 =
         0.57378    0.00000    0.00000    0.00000
C3    1    0.600011    0.681976    0.899766    10.75000    0.48954    0.30948 =
         0.57384   -0.00018   -0.00003   -0.00013
N1    5    0.342503    0.575507    1.000000    10.50000    0.48954    0.30961 =
         0.57388    0.00000    0.00000    0.00000
C4    1    0.000000    0.595678    0.500000    10.25000    0.48964    0.30964 =
         0.57386    0.00000    0.00000    0.00000
C5    1    0.000000    0.650292    0.500000    10.25000    0.48957    0.30958 =
         0.57382    0.00000    0.00000    0.00000
C6    1    0.100206    0.680906    0.600044    10.75000    0.48960    0.30938 =
         0.57379   -0.00016   -0.00007   -0.00002
N2    5    0.000000    0.574438    0.657550    10.50000    0.48964    0.30964 =
         0.57386    0.00000    0.00000    0.00000
HKLF 4




REM  mo_SCY_AgBiBr_375K_0m_a.res in Cmmm
REM wR2 = 0.323498, GooF = S = 1.24418, Restrained GooF = 1.08163 for all data
REM R1 = 0.110977 for 568 Fo > 4sig(Fo) and 0.120504 for all 616 data
REM 59 parameters refined using 180 restraints

END

WGHT      0.0721    280.1125

REM Highest difference peak  1.836,  deepest hole -1.875,  1-sigma level  0.246
Q1    1   0.0000  0.6923  0.0000  10.25000  0.05    1.84
Q2    1   0.5000  0.6682  1.0000  10.25000  0.05    1.67
Q3    1   0.0000  0.6668  0.5000  10.25000  0.05    1.53
Q4    1   0.7140  0.6132  0.3138  11.00000  0.05    0.90
Q5    1   0.0000  0.5000  0.6862  10.25000  0.05    0.79
Q6    1   0.5000  0.6094  1.0000  10.25000  0.05    0.76
Q7    1   0.0000  0.5500 -0.0446  10.50000  0.05    0.74
Q8    1   0.1684  0.7025  0.5000  10.50000  0.05    0.71
Q9    1   0.2870  0.5000  0.9798  10.50000  0.05    0.70
Q10   1   0.5000  0.7004  0.8401  10.50000  0.05    0.66
;
_shelx_res_checksum              87951
_shelx_hkl_file
;
   2   0   0 2943.16  421.10
   2   0   0 3157.05  420.92
   4   0   0 2840.38  412.38
   4   0   0 3030.79  411.98
   4   0   0 2983.77  411.65
   4   0   0 3051.48  411.26
   6   0   0  178.22   32.97
  -6   0   0  150.36   33.70
   6   0   0  260.67   42.48
   6   0   0  169.31   35.45
   6   0   0  229.62   36.83
   6   0   0  160.12   33.99
   8   0   0  138.17   37.04
   8   0   0   88.62   32.48
   8   0   0   11.58   26.05
   8   0   0   37.67   25.81
   8   0   0   -0.41   22.27
  -1  -1   0  276.83   39.13
  -1  -1   0  287.69   39.35
   1  -1   0  294.54   39.19
  -1  -1   0  287.91   39.38
   1   1   0  286.69   39.36
  -1   1   0  252.43   39.16
   1   1   0  295.56   39.37
   1   1   0  283.80   39.14
   1  -1   0  269.15   38.98
   1  -1   0  276.82   39.20
   3  -1   0  151.40   20.97
   3  -1   0  137.57   21.82
  -3  -1   0  103.13   22.14
   3   1   0  158.06   21.61
   3   1   0  153.81   21.13
   3   1   0  127.23   22.01
  -5   1   0  190.54   31.56
   5  -1   0  162.43   32.08
   5  -1   0  193.49   31.56
   5   1   0  161.18   33.65
   5   1   0  160.52   31.58
   5   1   0  211.25   33.14
   5   1   0  205.76   30.64
   5   1   0  192.23   29.64
  -5  -1   0  192.80   31.99
   5  -1   0  201.71   36.17
   5  -1   0  135.19   30.66
   5  -1   0  204.50   29.38
   7   1   0    9.48   21.84
   7   1   0   88.11   28.24
   7  -1   0    8.50   21.86
   7  -1   0   28.80   18.67
   7   1   0   19.20   18.86
   7  -1   0    7.99   16.72
  -7   1   0    3.93   18.08
   7  -1   0   34.55   23.05
  -7  -1   0   16.36   17.66
   7   1   0  -19.25   19.51
   7  -1   0   30.79   22.10
   7   1   0  -12.26   15.88
  -2   2   0  116.88   16.92
   2   2   0   89.02   16.95
   2  -2   0  111.35   17.26
  -2  -2   0  106.29   17.14
   2  -2   0  121.33   16.82
  -2   2   0  103.24   17.19
  -2   2   0  115.32   17.46
   2  -2   0  114.55   17.52
   2   2   0  123.37   17.75
  -2  -2   0  122.70   17.93
  -2  -2   0  123.38   18.13
   2   2   0  122.83   18.24
  -4  -2   0 2185.44  289.63
   4  -2   0 2056.75  289.11
   4   2   0 2101.39  288.93
   4  -2   0 2138.45  288.48
   4   2   0 2123.54  288.62
  -4   2   0 2047.47  289.18
   4   2   0 2099.86  289.41
   4   2   0 1931.12  289.62
  -6   2   0   73.93   20.61
   6  -2   0   75.30   22.11
   6  -2   0   63.61   21.95
   6   2   0   94.73   24.72
   6  -2   0   56.62   18.21
   6   2   0   43.37   17.94
  -6  -2   0   86.39   21.48
   6  -2   0   77.40   21.52
   6   2   0   81.57   21.74
   6  -2   0  120.86   29.39
   6   2   0   60.39   20.77
   6   2   0   52.39   21.37
   8   2   0   42.96   30.39
   8   2   0   17.89   19.36
   8   2   0   52.66   28.00
   8   2   0   61.65   31.91
   8  -2   0   21.50   19.86
   8  -2   0   22.80   26.93
   8   2   0   47.64   25.79
   8  -2   0   15.04   20.79
   8  -2   0   26.44   26.34
   8  -2   0   57.82   28.38
  -1   3   0  187.70   27.03
  -1  -3   0  186.22   27.46
   1  -3   0  197.17   27.10
   1   3   0  189.53   27.46
  -1  -3   0  197.43   27.26
  -1  -3   0  186.80   27.58
   1  -3   0  201.10   26.90
   1   3   0  195.84   27.15
   1  -3   0  196.99   27.08
   1  -3   0  185.73   27.27
   1   3   0  187.10   27.44
   3   3   0  309.27   48.27
  -3   3   0  343.28   46.89
   3   3   0  337.82   47.32
  -3   3   0  291.74   47.36
   3  -3   0  355.10   47.56
  -3  -3   0  311.33   48.13
   3  -3   0  314.98   47.80
   3  -3   0  380.54   46.99
   5   3   0  243.58   39.12
   5   3   0  251.65   35.69
   5   3   0  262.01   36.09
   5  -3   0  147.54   35.65
   5  -3   0  235.77   36.75
   5  -3   0  196.89   37.46
   5  -3   0  249.76   35.21
   5   3   0  248.97   38.01
  -5   3   0  241.25   36.81
  -5  -3   0  190.81   36.90
   5   3   0  280.69   37.84
   5  -3   0  197.16   37.65
   7  -3   0   20.05   19.39
   7  -3   0   25.11   21.03
   7  -3   0   22.00   17.40
   7   3   0    9.24   16.82
   7  -3   0   13.11   21.55
  -7   3   0   18.49   17.61
   7  -3   0   39.36   23.60
   7   3   0   15.90   17.85
   7   3   0   11.90   22.94
   7   3   0    9.85   24.08
   7   3   0   32.91   20.30
   0  -4   0 1004.85  152.52
   0   4   0 1205.12  152.90
  -2  -4   0  961.11  131.79
   2   4   0  927.94  131.51
  -2  -4   0  925.09  131.53
   2  -4   0  974.73  131.09
  -2  -4   0  908.91  131.16
   2  -4   0  980.37  130.76
   2  -4   0  932.69  131.05
   2   4   0  923.08  131.06
   2   4   0  965.56  131.60
  -4   4   0  660.79   91.29
   4  -4   0  666.02   90.91
   4   4   0  646.57   92.63
   4   4   0  689.69   92.92
  -4   4   0  650.19   91.77
  -4  -4   0  558.76   92.13
  -4   4   0  617.33   91.62
   4   4   0  705.26   91.66
  -4   4   0  655.86   90.95
   4  -4   0  634.49   91.61
   4  -4   0  657.38   92.13
   6  -4   0   11.91   17.61
   6  -4   0   27.53   18.01
   6  -4   0   49.49   16.27
   6   4   0   52.69   21.42
   6   4   0   23.42   20.01
   6   4   0   31.24   14.56
  -6   4   0   24.69   15.61
  -6  -4   0   18.85   15.83
   6  -4   0   14.96   15.61
   6   4   0   15.44   16.56
  -6   4   0   18.22   13.47
   6  -4   0   39.75   20.73
   6   4   0   53.62   18.21
  -8   4   0   13.71   21.44
   8   4   0   22.47   28.51
   8   4   0   59.32   30.86
   8   4   0   52.13   24.34
   8  -4   0   39.08   26.18
   8   4   0   21.98   21.02
   8   4   0   31.92   27.03
   8  -4   0   54.91   27.40
   8  -4   0   32.08   20.19
   8  -4   0   27.05   26.60
   8  -4   0   29.30   23.98
   1   5   0  299.25   41.64
  -1   5   0  301.08   41.16
  -1   5   0  285.87   40.93
   1  -5   0  301.84   41.20
  -1   5   0  295.03   40.88
   1  -5   0  287.79   41.05
   1   5   0  286.05   41.54
  -1  -5   0  302.80   42.05
   1  -5   0  295.60   40.90
  -1   5   0  268.03   41.49
   1  -5   0  278.76   41.59
  -1  -5   0  294.96   41.48
   1   5   0  321.63   41.33
   3   5   0   36.31   12.08
  -3  -5   0   83.96   13.17
   3  -5   0   46.46   11.98
   3   5   0   63.43   14.03
  -3  -5   0   58.69   12.96
  -3   5   0   52.52   11.65
  -3   5   0   68.46   11.35
   3  -5   0   78.51   11.36
   3  -5   0   54.20   11.75
   3   5   0   64.71   12.31
  -3  -5   0   69.84   13.91
  -5  -5   0  186.47   36.41
   5   5   0  236.35   35.29
   5   5   0  215.88   37.07
  -5   5   0  202.90   35.28
   5   5   0  279.62   38.90
   5  -5   0  239.30   34.33
  -5   5   0  227.52   35.88
   5  -5   0  247.41   36.25
   5  -5   0  181.82   36.14
   7   5   0   82.73   26.52
   7  -5   0   18.88   20.95
   7  -5   0   17.67   19.90
   7  -5   0   38.75   21.08
   7   5   0   12.87   17.81
   7   5   0   24.25   26.10
  -7   5   0   40.67   18.88
   7   5   0    1.94   22.16
   7   5   0    7.27   20.27
  -7   5   0   27.40   18.21
   7  -5   0   22.84   16.27
   7  -5   0   16.75   18.80
   0  -6   0 2655.33  380.36
   0   6   0 2849.06  380.11
   2  -6   0  572.83   76.67
  -2   6   0  515.61   76.70
  -2   6   0  572.34   76.70
   2   6   0  550.40   76.65
   2  -6   0  568.35   76.66
   2   6   0  547.69   77.23
  -2   6   0  510.98   76.41
   2   6   0  537.53   77.24
  -2   6   0  560.46   76.26
   2  -6   0  534.87   76.99
   2  -6   0  573.48   76.27
  -2  -6   0  564.78   77.85
  -2  -6   0  512.85   76.94
   4  -6   0  546.45   80.23
   4   6   0  573.17   81.72
  -4   6   0  516.12   80.03
  -4  -6   0  605.25   80.64
  -4  -6   0  581.75   81.39
   4   6   0  568.74   81.38
  -4  -6   0  519.19   81.61
   4  -6   0  575.84   80.74
   4  -6   0  561.85   79.46
  -4   6   0  581.57   80.20
   4   6   0  596.59   80.32
   6  -6   0   66.54   16.79
   6   6   0   94.61   26.83
  -6   6   0   62.32   18.71
   6   6   0   56.15   23.89
   6   6   0   99.65   21.05
   6   6   0   70.78   21.61
   6   6   0   37.41   21.56
   6  -6   0   77.62   20.34
  -6   6   0   50.59   18.40
   6  -6   0   46.40   19.06
   8   6   0   30.17   30.58
   8   6   0   15.38   21.45
   8  -6   0   33.11   26.12
  -8   6   0   33.38   22.62
   8   6   0   58.62   23.39
   8   6   0  -40.86   28.22
   8  -6   0   41.08   29.61
   8  -6   0   30.27   33.41
   8   6   0   90.38   33.65
   8  -6   0   24.17   21.02
   8  -6   0   17.68   25.18
   1  -7   0  859.81  111.19
   1   7   0  752.57  111.15
  -1  -7   0  786.56  111.98
  -1  -7   0  786.11  111.30
  -1   7   0  760.07  110.53
  -1   7   0  848.32  111.02
  -3   7   0  106.95   18.98
   3   7   0  119.65   20.23
  -3  -7   0  124.57   22.67
   3  -7   0  112.33   19.78
  -3   7   0  105.07   17.93
   3  -7   0  121.26   17.85
  -3  -7   0  105.72   19.82
  -3   7   0   95.50   18.32
   3   7   0  129.31   19.31
   3   7   0  101.94   20.03
   3  -7   0  108.86   18.81
   3  -7   0  113.40   19.40
  -3   7   0  131.42   19.51
   5   7   0  304.68   44.33
   5  -7   0  311.36   43.45
   5   7   0  228.09   45.69
  -5   7   0  312.13   45.35
   5  -7   0  358.72   46.35
  -5   7   0  287.01   44.20
   5   7   0  307.62   47.62
  -5   7   0  188.22   46.79
   5  -7   0  307.12   44.69
   7  -7   0   48.15   23.03
   7   7   0   -4.15   25.05
   7  -7   0   18.32   20.10
   7  -7   0   39.41   20.98
   7   7   0    9.15   18.87
   7   7   0    9.60   20.03
   7  -7   0   46.27   16.91
  -7   7   0   52.65   19.32
  -7   7   0   29.65   18.49
   7  -7   0   42.47   21.26
   7   7   0   28.21   25.67
   7   7   0   26.84   18.27
   0  -8   0 3325.64  482.50
   0   8   0 3652.67  482.06
  -2  -8   0  160.31   23.50
  -2   8   0   97.19   18.10
   2   8   0   93.67   17.74
   2  -8   0   99.12   16.77
   2  -8   0  104.42   16.68
  -2  -8   0  119.26   19.93
  -2   8   0   94.91   16.49
  -2   8   0   79.80   15.94
   2  -8   0  100.48   15.74
   2  -8   0  129.41   18.64
   2   8   0   99.22   18.21
   2   8   0  125.66   17.44
  -2   8   0   92.76   15.59
  -4   8   0 1087.07  146.70
  -4  -8   0 1045.97  147.29
  -4   8   0 1027.65  146.47
   4   8   0 1029.02  147.73
   4   8   0 1124.70  148.17
  -4   8   0 1012.48  147.14
   4   8   0 1039.61  146.65
   4  -8   0 1159.01  147.14
   4  -8   0  992.67  146.59
  -4   8   0  915.64  147.47
  -4  -8   0 1153.73  149.06
   4  -8   0 1020.44  145.92
  -6   8   0   54.58   18.52
  -6   8   0   49.53   18.03
   6   8   0   69.60   20.07
   6   8   0   75.85   23.79
   6  -8   0   69.67   20.12
   6  -8   0   81.68   20.36
   6   8   0   62.74   24.56
   6  -8   0   43.26   15.90
   8   8   0    3.92   32.94
   8   8   0   25.34   27.90
  -8   8   0   33.28   25.61
   8  -8   0   24.75   23.93
   8  -8   0   -6.39   25.04
   8   8   0   31.70   24.67
   8   8   0   53.41   23.01
   8   8   0   19.79   29.96
   8  -8   0   13.55   17.65
   8  -8   0   31.21   24.21
   8  -8   0   -9.34   24.37
  -1   9   0  838.43  106.88
   1  -9   0  801.32  107.06
  -1   9   0  713.64  106.57
  -1  -9   0  797.23  108.27
  -1  -9   0  770.18  107.78
  -1   9   0  808.36  107.32
   1  -9   0  796.32  107.63
   1   9   0  696.55  107.26
   1  -9   0  768.90  107.09
  -1  -9   0  704.70  108.58
   3  -9   0  119.65   17.01
   3  -9   0   90.73   18.38
  -3  -9   0  107.00   21.19
  -3   9   0   84.22   17.79
   3   9   0   95.59   17.91
   3  -9   0  125.19   18.89
   3   9   0  108.30   19.24
   3   9   0  128.67   21.10
  -3   9   0   97.98   18.13
   3  -9   0   97.89   17.99
  -3   9   0   85.46   16.69
  -3   9   0  103.72   17.61
  -3  -9   0  129.91   25.98
   5   9   0  209.31   35.71
   5   9   0  217.96   37.54
   5   9   0  233.70   33.27
  -5   9   0  176.36   32.50
   5  -9   0  178.38   31.38
   5  -9   0  221.50   34.63
  -5   9   0  235.54   34.76
  -5  -9   0  258.61   34.85
  -5  -9   0  207.61   40.97
   5  -9   0  139.54   32.59
   7   9   0   14.17   17.99
   7  -9   0  -12.88   18.19
   7  -9   0   28.42   15.79
  -7   9   0   30.71   18.00
   7   9   0   25.16   22.10
   7   9   0    8.27   25.57
   7   9   0   -8.37   26.49
  -7   9   0   10.10   18.01
   7   9   0   35.43   23.94
   7  -9   0   -1.45   20.77
   0  10   0 9999.00 1306.31
   0 -10   0 8948.19 1306.93
   2  10   0 1251.03  166.06
  -2  10   0 1175.73  165.50
   2 -10   0 1241.02  166.00
  -2 -10   0 1233.33  168.14
   2 -10   0 1176.47  165.63
   2 -10   0 1126.84  166.12
   2  10   0 1264.89  166.84
  -2  10   0 1228.58  165.56
  -2  10   0 1242.91  166.05
   2 -10   0 1119.40  166.81
   2  10   0 1125.33  166.43
  -2 -10   0 1177.37  166.86
  -2  10   0 1187.23  166.52
   4  10   0 1240.37  162.82
  -4  10   0 1157.73  160.71
   4 -10   0 1054.00  160.54
  -4 -10   0 1231.32  162.54
   4  10   0 1101.39  161.25
  -4 -10   0 1128.74  164.01
  -4  10   0 1108.60  160.95
   4 -10   0 1261.41  161.80
   4 -10   0 1181.58  161.93
   4 -10   0 1030.86  161.20
  -4  10   0 1182.75  161.53
   4  10   0 1248.35  162.72
  -4  10   0 1138.56  161.57
   6 -10   0  104.85   24.14
   6  10   0   95.49   23.18
   6  10   0   99.00   28.42
   6 -10   0   98.73   23.58
   6 -10   0   42.06   18.43
  -6  10   0   89.94   23.32
  -6  10   0   94.12   21.57
   6  10   0  129.23   27.69
   1  11   0  143.38   20.39
  -1  11   0  120.83   20.24
   1  11   0  111.41   20.32
   1 -11   0  179.72   24.26
   1 -11   0  115.14   20.78
  -1 -11   0  190.32   30.24
  -1 -11   0  135.38   22.10
   1 -11   0  127.35   19.98
   1 -11   0  117.93   20.42
  -1  11   0   85.64   18.50
  -1  11   0  136.97   19.16
  -3  11   0   41.46   12.04
   3  11   0   50.95   14.29
   3 -11   0   56.79   12.34
   3  11   0   62.66   12.90
  -3 -11   0   62.60   18.21
  -3 -11   0   67.77   17.22
  -3  11   0   56.02   10.98
   3 -11   0   53.68   10.87
  -3  11   0   43.68   10.70
   3 -11   0   38.08   11.73
  -3  11   0   61.05   14.41
   3 -11   0   55.75   14.13
   3  11   0   49.92   15.09
   5 -11   0   44.86   13.58
   5  11   0   40.43   14.70
   5  11   0   24.43   18.58
  -5 -11   0   46.70   17.24
   5 -11   0   37.04   14.61
   5 -11   0   41.55   16.03
  -5  11   0   43.93   12.98
  -5  11   0   39.14   13.31
   5  11   0   31.39   20.07
  -5 -11   0   39.26   19.54
  -5  11   0   33.24   15.80
  -5  11   0   18.31   13.55
   7 -11   0    8.79   13.60
   7 -11   0   -0.69   20.24
   7  11   0   24.34   16.35
   7  11   0   17.73   26.27
   7 -11   0   -1.11   18.23
  -7  11   0   14.86   20.26
   7  11   0    8.47   19.34
  -7  11   0   15.45   16.75
   0 -12   0 4007.19  587.02
   0  12   0 4466.22  586.01
  -2  12   0  591.37   78.04
  -2 -12   0  517.53   80.10
   2  12   0  508.69   79.13
  -2  12   0  623.56   78.86
   2 -12   0  504.49   78.77
   2  12   0  566.60   79.46
  -2  12   0  552.70   79.81
   2  12   0  560.92   78.55
  -2  12   0  544.27   77.79
   2 -12   0  551.46   80.51
   2 -12   0  527.09   78.13
  -2 -12   0  613.80   82.28
   2 -12   0  583.05   78.75
   4  12   0  651.63   95.39
  -4  12   0  645.75   94.62
   4 -12   0  637.58   94.53
   4 -12   0  773.13   96.18
   4  12   0  702.51   97.42
   4 -12   0  579.37   95.25
  -4  12   0  701.46   96.31
  -4  12   0  670.25   94.78
  -4 -12   0  668.37   99.59
   4 -12   0  699.34   96.93
   4  12   0  709.89   97.03
  -4 -12   0  690.25   97.34
  -4  12   0  653.57   95.64
   6  12   0   91.98   26.87
  -6  12   0   95.22   23.90
   6  12   0   78.76   20.34
  -6  12   0   64.49   17.50
   6 -12   0   64.21   21.17
  -6  12   0   47.57   18.04
   6 -12   0   45.48   17.02
   6  12   0   42.86   20.60
   6 -12   0   79.23   22.93
  -6  12   0   85.40   22.17
  -1  13   0   52.76   12.45
   1  13   0   30.18    8.99
   1 -13   0   31.30   11.90
   1 -13   0   22.97   13.52
   1  13   0   25.51    8.76
  -1  13   0    8.83   12.81
  -1 -13   0   17.00   13.19
   1 -13   0   20.67    9.78
  -1 -13   0   20.31   11.73
   1  13   0   27.62   10.15
   1 -13   0   45.33   11.70
  -1  13   0   25.37    8.70
  -1  13   0   13.60    6.75
  -1 -13   0   20.98   15.94
   1  13   0   21.70    9.49
  -3  13   0  154.30   26.57
   3  13   0  129.58   22.82
   3 -13   0  151.85   23.83
  -3 -13   0  147.22   27.28
  -3  13   0  153.15   21.89
   3 -13   0  121.08   25.09
  -3 -13   0  107.00   27.81
   3 -13   0  130.73   21.87
   3 -13   0  140.57   23.40
   3  13   0  124.55   24.67
  -3  13   0  155.82   23.25
  -3  13   0  123.64   21.61
   3  13   0  118.50   24.59
  -5  13   0   37.89   12.56
   5 -13   0   16.14   11.37
   5  13   0   18.08   12.53
   5  13   0    8.06   19.37
  -5  13   0   35.95   15.45
   5  13   0   19.72   14.52
  -5  13   0   28.05   14.51
   5 -13   0    6.78   13.49
   5 -13   0   -0.46   13.21
  -5  13   0    8.86   11.45
  -5 -13   0   24.09   17.33
  -5 -13   0  -20.61   21.04
   7  13   0  -14.12   26.05
  -7  13   0   19.39   20.31
  -7  13   0    1.31   15.55
   7 -13   0   27.01   16.27
   7 -13   0   11.66   20.32
   7  13   0   15.28   18.01
   7 -13   0   21.18   23.64
   7  13   0  -13.21   23.22
   0  14   0  368.57   55.03
   0 -14   0  353.96   55.11
   0 -14   0  307.21   52.31
   0  14   0  363.65   50.54
   0  14   0  383.48   51.65
   0 -14   0  303.52   53.42
   0  14   0  363.62   50.26
   2  14   0   17.10   11.21
  -2  14   0   14.08    6.77
   2 -14   0   10.03    8.64
   2 -14   0   22.56    8.33
  -2 -14   0   26.34   15.96
  -2 -14   0   13.68   10.62
  -2 -14   0   19.39   19.21
   2  14   0   -7.25   11.92
  -2  14   0   16.20    8.06
   2  14   0    0.31    9.90
   2 -14   0    8.03   13.33
   2 -14   0   18.76    9.58
  -2  14   0   19.70    9.70
  -2  14   0   10.41   12.36
  -4 -14   0  150.83   38.27
   4  14   0  180.89   25.94
  -4  14   0  147.51   24.23
  -4  14   0  182.81   30.15
  -4 -14   0  149.12   30.32
   4 -14   0  118.81   26.99
  -4  14   0  157.61   24.45
   4 -14   0  142.16   26.49
   4  14   0  116.47   26.86
  -4  14   0  163.86   26.34
   4 -14   0  166.22   26.40
   4 -14   0  126.92   24.48
   4  14   0  142.46   29.46
  -6  14   0    9.78   13.64
   6 -14   0   20.63   12.20
   6 -14   0   37.53   18.12
   6  14   0   23.51   23.81
  -6  14   0   -5.23   17.06
   6 -14   0    5.28   16.92
   6  14   0   17.27   16.54
   6  14   0   16.95   14.22
  -6  14   0   18.68   13.25
  -6 -14   0   27.09   21.20
  -6 -14   0  101.54   37.62
  -6  14   0   31.54   19.00
  -1  15   0   85.77   17.71
   1 -15   0   81.21   18.40
   1 -15   0   67.48   20.57
   1  15   0   89.66   15.82
   1  15   0   75.56   17.05
  -1 -15   0  114.85   29.34
  -1 -15   0  101.28   23.79
   1 -15   0  112.00   19.96
   1 -15   0   57.05   19.70
  -1  15   0   85.72   14.15
   1  15   0   81.29   15.74
   1  15   0   84.45   17.00
  -1 -15   0   61.42   15.80
  -1  15   0   88.48   16.00
  -1  15   0   77.38   19.17
  -3 -15   0   68.45   22.50
   3  15   0   53.96   15.50
   3 -15   0   63.41   13.78
  -3  15   0   43.11   13.48
  -3  15   0   44.09   14.73
  -3  15   0   41.29   10.22
   3  15   0   42.12   15.96
  -3 -15   0   60.80   25.45
   3 -15   0   19.13   15.99
   3 -15   0   34.44   10.73
   3  15   0   43.52   12.93
  -3  15   0   29.28   10.79
   3 -15   0   33.66   11.53
   5 -15   0   26.12   15.95
   5 -15   0   38.11   16.14
  -5 -15   0   25.83   31.41
   5 -15   0   30.97   12.71
   5 -15   0   24.68   16.99
  -5  15   0   19.87   13.39
   5  15   0   48.49   22.69
   5  15   0    6.69   14.18
  -5  15   0   22.24   16.32
  -5 -15   0   25.82   21.25
   5  15   0   43.15   14.26
  -5  15   0   31.45   12.75
  -5  15   0   40.61   18.65
   7  15   0   31.68   16.72
  -7  15   0    4.06   22.51
   7 -15   0    3.29   20.12
  -7  15   0   30.91   16.70
   7  15   0   21.77   27.55
   7  15   0    3.94   19.23
   7 -15   0   -1.13   13.59
   7 -15   0    9.79   20.58
  -7  15   0   23.37   23.16
   0 -16   0  257.82   35.53
   0  16   0  142.06   25.30
   0  16   0  159.55   26.45
   0  16   0  150.65   24.54
   0 -16   0  289.11   41.94
   0 -16   0  194.77   31.57
   0  16   0  132.00   24.64
   2 -16   0   24.91   12.04
   2  16   0   21.44   11.36
   2 -16   0   21.26   16.56
  -2  16   0   21.54    7.81
  -2  16   0   25.26   14.66
   2  16   0   19.88   12.23
  -2  16   0    9.09   11.06
  -2 -16   0   -6.95   15.42
  -2 -16   0   24.92   12.83
   2 -16   0   35.62   11.06
  -2 -16   0   -0.37   20.88
   2 -16   0   22.95   11.82
  -2  16   0   15.31    8.93
  -4  16   0   77.68   14.43
   4  16   0   78.08   18.13
  -4 -16   0   64.44   22.86
   4 -16   0   94.79   18.36
   4 -16   0   42.09   17.00
   4  16   0   70.44   21.14
   4 -16   0   36.85   13.86
  -4  16   0   72.52   15.81
  -4  16   0   73.45   18.22
  -4  16   0   78.45   19.69
   4 -16   0   25.18   19.75
   4  16   0   86.27   21.02
  -4 -16   0   91.62   29.89
  -6 -16   0   41.84   32.91
   6  16   0   43.96   25.54
  -6  16   0   28.01   19.51
  -6 -16   0   24.39   20.56
   6  16   0   22.68   15.17
   6 -16   0   29.67   18.80
   6 -16   0   11.92   13.37
  -6  16   0   41.48   21.08
   6  16   0   21.27   17.89
  -6  16   0   39.43   15.00
  -6  16   0   11.70   13.72
   6 -16   0   17.46   18.49
   1  17   0  280.82   40.18
   1 -17   0  231.13   44.07
   1  17   0  271.01   38.40
   1 -17   0  224.42   41.63
   1 -17   0  256.29   41.15
   1  17   0  264.02   39.35
   1 -17   0  297.52   43.38
  -1  17   0  250.85   38.28
  -1 -17   0  265.48   42.08
   1  17   0  244.40   38.06
  -1 -17   0  255.76   45.67
  -1 -17   0  306.84   51.78
  -1  17   0  255.57   44.48
  -1  17   0  251.85   37.28
  -1  17   0  240.42   40.00
  -3  17   0  116.72   20.80
  -3  17   0  102.34   23.07
   3  17   0   96.36   21.31
  -3  17   0  116.29   17.41
  -3  17   0   79.62   17.90
   3  17   0  104.47   19.21
  -3 -17   0   77.42   19.52
   3  17   0  123.75   23.79
   3 -17   0  135.90   22.22
   3 -17   0   93.38   19.29
  -3 -17   0   92.61   27.16
  -3 -17   0   81.68   32.50
   3 -17   0   75.91   20.37
   3 -17   0   88.40   24.51
  -5 -17   0   78.55   27.86
  -5  17   0   48.98   17.93
   5 -17   0   59.28   18.91
   5  17   0   64.29   23.59
  -5  17   0   36.73   14.60
  -5  17   0   70.84   14.50
   5 -17   0   24.89   19.04
  -5 -17   0   61.29   40.12
   5 -17   0   31.02   16.69
   5  17   0   60.92   16.17
   5 -17   0   32.75   14.28
   5  17   0   34.72   18.16
  -5  17   0   68.12   20.25
   0  18   0  470.04   61.13
   0 -18   0  402.77   66.58
   0  18   0  409.11   59.29
   0 -18   0  370.25   62.53
   0  18   0  432.98   59.35
   0  18   0  412.70   58.82
   0 -18   0  358.69   62.87
   2 -18   0  107.69   29.92
   2 -18   0  156.37   30.67
  -2  18   0  131.48   23.48
  -2  18   0  187.06   28.16
  -2 -18   0  141.65   28.47
  -2  18   0  167.19   26.05
   2 -18   0  181.18   28.60
  -2 -18   0  156.26   39.06
  -2 -18   0  137.67   33.70
  -2  18   0  139.95   29.14
   2  18   0  174.08   28.39
   2 -18   0  217.87   30.50
   2  18   0  164.95   26.84
   4 -18   0  117.83   29.77
   4  18   0  120.35   27.08
   4 -18   0   74.40   24.61
   4  18   0  199.00   30.81
   4 -18   0   81.51   22.58
  -4  18   0  167.63   22.00
  -4  18   0  122.12   23.59
   4  18   0  118.85   24.37
   4 -18   0  185.41   27.95
  -4  18   0  166.78   27.32
  -4 -18   0  158.07   43.73
  -4 -18   0   99.55   30.87
  -4  18   0  146.65   28.89
   6 -18   0   28.37   14.10
  -6 -18   0  -30.32   22.81
   6  18   0   37.37   17.56
  -6  18   0   60.97   22.93
  -6  18   0    4.91   14.76
   6 -18   0   46.88   19.72
  -6  18   0   43.53   21.54
  -6 -18   0    9.95   43.30
   6  18   0   38.49   26.60
   6 -18   0   39.51   20.90
   6  18   0   56.12   25.03
   1  19   0  206.79   35.89
   1  19   0  224.66   34.30
   1 -19   0  260.52   42.81
  -1 -19   0  217.56   48.78
  -1  19   0  220.72   36.68
  -1  19   0  211.11   34.54
   1  19   0  244.32   35.04
  -1 -19   0  203.07   38.88
  -1  19   0  194.38   33.17
   1 -19   0  302.06   43.61
   1 -19   0  297.74   44.09
  -1 -19   0  299.43   44.96
  -1  19   0  327.93   45.14
  -1  19   0  221.17   33.87
   1  19   0  199.06   35.47
  -3 -19   0   57.21   29.10
   3 -19   0   95.60   19.30
   3  19   0  112.17   23.23
   3 -19   0   94.68   26.28
  -3  19   0   88.32   20.32
   3 -19   0  123.94   22.28
  -3  19   0  120.22   16.93
   3  19   0   86.60   22.23
  -3 -19   0   80.30   20.96
  -3 -19   0   79.61   37.52
  -3  19   0   64.51   17.11
  -3  19   0   69.61   22.11
   3 -19   0   45.99   18.43
   3  19   0   99.69   19.50
   5  19   0   22.20   18.47
   5 -19   0   34.06   17.08
  -5  19   0   40.45   21.06
   5  19   0   34.07   21.89
  -5  19   0    4.87   17.73
   5 -19   0   11.15   11.79
   5 -19   0   40.62   18.19
  -5 -19   0   99.65   44.98
   5  19   0   21.78   14.00
   5 -19   0    1.56   20.83
  -5 -19   0   30.81   29.03
  -5  19   0    9.67   13.03
   0 -20   0  516.23   81.16
   0  20   0  596.46   77.04
   0 -20   0  420.26   84.69
   0  20   0  537.60   79.00
   0  20   0  544.09   77.35
   0 -20   0  548.76   82.31
   0  20   0  554.01   77.64
  -2 -20   0  277.32   45.08
   2 -20   0  294.05   46.65
   2 -20   0  278.73   50.86
   2 -20   0  294.25   43.06
  -2 -20   0  364.47   52.35
   2 -20   0  291.29   45.48
  -2 -20   0  330.80   58.89
   2  20   0  244.24   41.09
   2  20   0  232.79   40.62
  -2  20   0  254.54   42.47
  -2  20   0  329.51   48.47
   2  20   0  236.32   42.55
  -2  20   0  259.72   40.53
   2  20   0  267.54   43.22
  -4 -20   0  124.85   42.29
  -4 -20   0   48.50   18.45
  -4  20   0   92.31   19.15
   4 -20   0  146.23   24.81
   4  20   0  108.48   24.57
   4  20   0  172.90   27.58
   4 -20   0   67.06   27.72
  -4  20   0  153.01   25.85
   4 -20   0   77.25   19.19
   4  20   0   96.29   20.44
   4 -20   0   90.34   23.12
  -4 -20   0   93.64   31.33
  -4  20   0   75.12   21.26
   1 -21   0   -5.72   21.72
   1  21   0   37.53   11.71
   1  21   0   23.56   11.23
  -1  21   0   44.04   22.91
   1 -21   0   43.80   18.91
   1  21   0   22.80   13.65
   1  21   0   13.06   12.47
  -1  21   0   34.76   12.33
   1 -21   0   97.99   28.12
  -1  21   0   31.30   15.61
  -1  21   0   24.67    9.87
  -1 -21   0   51.14   16.68
  -1  21   0   20.59    9.02
   1 -21   0   39.16   21.61
  -1 -21   0   24.57   31.21
  -1 -21   0   46.47   22.67
   3  21   0    6.02   11.54
  -3 -21   0    7.51   25.62
   3 -21   0   23.78   17.26
  -3  21   0    0.97   10.07
   3 -21   0   31.73   14.09
   3  21   0    9.32   16.45
   3 -21   0   15.18   20.55
  -3 -21   0    8.31   38.76
  -3 -21   0   17.00   15.15
  -3  21   0  -19.86   12.76
   3 -21   0    5.72   15.43
  -3  21   0    8.82   18.18
   5 -21   0   11.72   18.25
  -5  21   0    2.55   16.26
  -5 -21   0  -53.86   44.00
   5  21   0    1.20   18.64
   5 -21   0  -44.34   22.14
  -5  21   0   -7.03   19.28
  -5 -21   0   -2.65   26.05
   5  21   0    6.25   21.88
  -5  21   0   -6.17   11.67
   5  21   0   -4.14   12.75
   5 -21   0    6.47   12.87
   5 -21   0   17.84   17.70
   0  22   0  256.38   44.83
   0 -22   0  316.93   52.42
   0  22   0  292.88   44.33
   0 -22   0  463.24   58.75
   0  22   0  307.86   47.25
   0 -22   0  499.95   67.71
   0  22   0  294.60   45.17
   2  22   0  146.04   26.56
  -2 -22   0  122.03   45.27
  -2 -22   0  182.16   38.26
   2 -22   0  199.66   37.05
   2 -22   0  154.64   30.84
   2  22   0  212.03   30.41
   2  22   0  141.23   27.52
  -2  22   0  125.95   28.61
  -2  22   0  157.24   26.93
  -2 -22   0  119.14   29.92
   2  22   0  172.14   31.78
   2 -22   0  176.53   36.93
  -2  22   0  149.63   32.37
   2 -22   0  147.92   32.14
   4  22   0   12.15   14.55
  -4  22   0   40.80   21.73
   4 -22   0   23.48   26.30
   4  22   0   79.72   22.54
  -4  22   0   68.95   15.52
  -4  22   0   22.77   18.19
   4  22   0   43.47   19.99
  -4 -22   0   71.61   49.44
  -4 -22   0   27.77   29.67
   4 -22   0   58.00   20.16
   4 -22   0   54.34   20.98
   4 -22   0   50.18   16.36
   1  23   0   14.31   10.16
   1  23   0    6.63   12.38
   1 -23   0   31.37   20.65
  -1  23   0  -11.65   13.00
   1 -23   0   39.99   19.49
  -1 -23   0    4.25   33.08
   1  23   0   10.32   10.52
  -1 -23   0   28.08   17.06
   1  23   0    5.91   13.59
   1 -23   0   36.56   30.72
  -1  23   0  -18.01   10.08
  -1 -23   0   32.26   22.22
  -3 -23   0   28.29   16.13
  -3  23   0   19.46   20.06
   3  23   0    5.18   17.78
   3  23   0   19.24   13.09
  -3  23   0   26.73   15.04
   3 -23   0   22.07   19.29
  -3  23   0   -0.73   10.12
  -3 -23   0    7.19   24.17
   3 -23   0   22.55   22.66
  -3 -23   0  -75.65   39.15
   3 -23   0   16.92   14.03
   3 -23   0   -4.38   23.61
   0  24   0   86.81   16.43
   0  24   0   49.35   16.13
   0 -24   0   68.01   22.90
   0  24   0   83.67   21.92
   0 -24   0   80.93   27.40
   0 -24   0   22.50   34.19
   0  24   0   67.60   14.57
   2  24   0   20.22   12.43
   2 -24   0   58.08   30.63
   2  24   0   32.86   16.46
  -2  24   0   36.78   24.17
  -2  24   0   84.24   20.01
  -2 -24   0   60.21   42.21
   2 -24   0   70.14   21.43
  -2  24   0   27.59   13.99
   2  24   0   43.35   14.30
  -2 -24   0   55.33   19.23
   2  24   0   68.25   19.17
  -2 -24   0   52.35   27.29
   2 -24   0   56.96   24.99
   2 -24   0   53.29   24.81
  -1  25   0  -13.52   15.34
   1 -25   0   28.96   20.59
   1  25   0   27.08   16.26
   1  25   0    2.39   13.64
  -1 -25   0   17.06   17.00
   1  25   0    8.46   10.73
  -1 -25   0   18.72   23.76
   1  25   0   -5.57   10.06
   1 -25   0   -7.37   31.75
  -1  25   0   -9.45   10.44
   1 -25   0    3.29   17.47
  -1 -25   0   -0.16   41.01
  -3 -25   0   38.62   15.53
  -3  25   0    5.38   20.94
   3 -25   0  -14.78   24.91
   0  26   0   18.01   10.58
   0  26   0   -3.84   14.52
   0 -26   0   64.71   23.73
   0  26   0   11.33   11.71
   0 -26   0   -3.70   36.45
   0  26   0   27.71   10.96
   0 -26   0   28.87   18.28
   0   0   1  338.96   46.41
   0   0  -1  325.18   46.21
   0   0  -1  331.65   46.39
   0   0   1  336.51   46.22
   2   0   1   44.15    9.77
  -2   0  -1   47.45   10.97
   2   0  -1   49.99   10.54
  -2   0   1   60.37   11.42
   2   0   1   54.50    9.75
   2   0  -1   49.58    9.95
  -2   0  -1   85.00   11.08
  -2   0   1   71.35   10.54
   2   0   1   54.99   10.37
  -2   0  -1   53.93   10.67
   4   0  -1  177.65   30.32
   4   0  -1  222.46   32.23
   4   0   1  229.20   32.61
  -4   0  -1  186.34   31.79
   4   0  -1  190.41   33.17
   4   0   1  187.09   31.49
   4   0   1  191.24   30.00
   6   0   1   18.21   15.96
   6   0  -1   21.91   16.50
  -6   0  -1   18.95   15.89
   6   0  -1   11.88   18.68
   6   0  -1   18.33   19.89
   6   0   1   -1.15   14.16
   6   0  -1   26.97   15.49
   6   0   1    3.89   13.55
   6   0  -1   35.46   17.99
   6   0   1   12.51   17.44
   6   0   1    9.35   18.04
   8   0   1   21.21   22.95
   8   0   1   -1.65   24.64
   8   0   1   -4.39   24.71
   8   0   1   45.35   30.10
   8   0  -1    5.06   26.98
   8   0  -1   23.58   21.85
   8   0  -1    6.95   23.83
   8   0  -1   33.93   22.89
  -8   0  -1   29.26   23.02
   8   0  -1   19.43   32.22
   8   0   1   34.58   22.55
  -1   1   1 2710.78  380.88
   1  -1   1 2666.17  381.02
   1   1  -1 2951.13  381.37
  -1  -1  -1 2698.75  380.99
   1   1   1 2663.02  380.94
  -1  -1   1 2863.90  381.31
  -1   1  -1 2742.37  381.10
   1  -1  -1 2816.80  380.99
   3   1  -1 2514.17  334.74
  -3  -1  -1 2422.15  334.36
   3   1  -1 2432.76  334.61
   3   1  -1 2464.98  333.99
  -3  -1  -1 2365.06  333.76
   3  -1   1 2373.22  334.17
  -3  -1   1 2286.16  333.84
  -3  -1   1 2430.18  334.53
   3   1   1 2365.19  334.24
  -3   1  -1 2496.07  334.44
   3  -1  -1 2525.98  334.53
   3  -1  -1 2363.51  333.83
  -3   1  -1 2381.40  333.79
   5  -1   1  459.55   60.91
  -5  -1  -1  366.99   59.72
   5  -1   1  359.27   58.08
   5   1  -1  431.56   58.99
   5   1  -1  401.54   60.27
   5  -1   1  419.86   59.77
   5   1  -1  382.61   61.09
   5  -1  -1  441.35   60.59
   5   1   1  375.68   60.36
   5   1   1  372.36   59.02
   5  -1  -1  406.46   59.52
   5  -1  -1  421.64   58.25
   5  -1  -1  396.52   58.66
   5   1   1  406.18   58.33
   5   1   1  395.19   59.76
   5  -1  -1  366.42   60.34
  -5   1  -1  404.15   59.94
   5   1   1  436.24   60.70
  -7  -1  -1   84.06   27.27
   7  -1   1  154.67   31.45
   7  -1   1   30.40   23.51
   7   1  -1   98.04   26.25
   7   1  -1  173.67   33.92
   7   1  -1  132.34   32.42
   7  -1   1  109.85   29.02
   7   1  -1   58.62   23.44
   7  -1   1  143.07   31.46
   7   1  -1  116.09   30.97
   7  -1   1   72.30   24.34
  -7   1  -1   73.31   25.05
   7  -1  -1  141.32   31.60
   7   1   1   77.05   24.93
   7   1   1  132.73   30.28
   7   1   1  148.09   34.19
   7  -1  -1  101.19   25.78
   7  -1  -1  109.38   27.28
   7   1   1  124.96   31.07
   7  -1  -1  100.83   32.65
   7   1   1  110.01   29.11
   7  -1  -1   98.10   29.43
   0  -2  -1  228.29   33.91
   0   2  -1  232.21   34.72
   0   2  -1  270.26   34.77
   0   2   1  226.21   33.82
   0  -2  -1  226.21   33.84
   0  -2   1  256.01   34.72
   0   2  -1  262.49   34.39
   0  -2   1  271.55   34.96
   0   2   1  239.24   33.92
   0  -2   1  273.48   34.43
   2  -2   1  183.53   28.75
   2   2  -1  170.88   28.87
   2   2  -1  208.32   28.40
  -2  -2  -1  183.26   28.03
   2  -2   1  202.49   28.63
  -2  -2  -1  188.75   28.59
   2  -2   1  238.08   28.24
  -2  -2  -1  195.75   28.94
   2   2   1  195.36   28.60
  -2   2  -1  242.76   28.97
  -2   2  -1  171.67   28.64
   2  -2  -1  202.70   27.96
  -2  -2   1  200.98   28.52
  -2   2  -1  227.72   28.31
   2   2   1  171.40   28.58
   2  -2  -1  172.55   28.27
  -2   2  -1  222.89   28.48
  -2  -2   1  160.29   28.90
   2   2   1  180.83   28.01
   4  -2   1  286.45   39.73
   4  -2   1  263.70   37.60
   4   2  -1  285.57   38.36
   4   2  -1  212.24   39.16
   4   2  -1  235.42   40.90
  -4  -2  -1  280.55   39.61
   4  -2   1  244.57   38.82
   4   2   1  240.82   38.29
  -4   2  -1  263.40   37.71
  -4  -2   1  250.91   39.33
   4  -2  -1  263.27   39.74
  -4   2  -1  273.45   39.41
   4   2   1  284.80   39.57
   4  -2  -1  253.15   37.36
  -4  -2   1  250.92   37.94
   4   2   1  218.18   39.28
   4  -2  -1  245.54   37.70
   4   2   1  237.23   37.55
   4  -2  -1  260.55   38.41
   4   2   1  232.86   39.05
  -4   2  -1  290.11   39.04
   4  -2  -1  230.19   38.75
   6   2  -1   17.92   16.83
  -6  -2  -1   33.89   16.81
   6  -2   1   45.60   19.16
   6  -2   1   53.38   18.08
   6   2  -1   30.63   16.79
   6   2  -1   55.48   22.71
   6  -2   1   36.09   14.36
   6   2  -1   19.25   18.00
   6   2  -1   51.22   16.24
   6  -2  -1   20.93   14.92
   6  -2  -1   40.05   19.73
   6   2   1   26.00   16.60
   6  -2  -1   29.10   15.92
   6   2   1   23.03   18.02
   6  -2  -1   20.86   20.27
  -6   2  -1   43.46   16.56
   6  -2  -1   35.92   16.76
   6   2   1   35.66   14.61
   6   2   1   49.18   19.21
   6   2   1   13.90   16.54
   8   2  -1   28.46   21.59
   8  -2   1    9.47   24.25
   8   2  -1   14.25   28.47
   8   2  -1  -39.52   26.74
   8  -2   1   23.95   24.99
  -8  -2  -1   39.22   23.99
   8  -2   1   11.50   24.40
   8  -2   1   42.06   24.34
   8  -2   1   25.47   18.44
   8   2  -1   10.29   26.99
   8   2  -1    6.78   19.22
   8   2   1   22.86   23.25
   8   2   1    7.93   25.68
   8  -2  -1    6.92   21.12
   8  -2  -1    9.92   22.38
   8  -2  -1   15.42   29.05
  -8   2  -1   22.19   22.15
   8   2   1    8.81   18.75
   8   2   1   26.35   20.65
   8  -2  -1    7.97   24.67
   8  -2  -1   25.56   26.56
   8   2   1   13.62   28.06
   1   3  -1 2821.30  359.52
   1  -3   1 2501.23  358.95
  -1   3  -1 2569.24  359.02
  -1  -3   1 2655.99  359.56
   1  -3  -1 2547.50  358.47
   1   3   1 2529.36  358.73
   3  -3   1  672.45   93.52
   3   3  -1  665.78   94.64
  -3  -3  -1  666.43   94.55
   3  -3   1  683.72   94.14
   3   3  -1  674.96   93.91
   3   3  -1  661.63   95.16
   3  -3   1  702.43   94.33
   3   3   1  652.33   94.35
   3   3   1  681.31   94.28
  -3   3  -1  628.63   93.74
  -3   3  -1  710.47   93.71
  -3  -3   1  642.53   93.89
   3   3   1  630.64   93.79
  -3   3  -1  667.38   94.26
   3  -3  -1  673.26   94.15
   3  -3  -1  672.16   93.81
   3  -3  -1  679.36   93.28
   3   3   1  656.43   94.59
  -3   3  -1  713.39   94.41
  -3  -3   1  661.81   94.75
   3   3   1  643.92   93.52
   3  -3  -1  689.63   94.26
   3  -3  -1  681.51   93.64
  -5  -3  -1  193.24   33.33
   5  -3   1  190.27   33.41
   5   3  -1  192.44   31.44
   5  -3   1  215.11   30.93
   5   3  -1  188.36   35.60
   5  -3   1  202.87   32.92
   5   3  -1  162.93   34.13
  -5   3  -1  186.63   30.97
   5  -3  -1  219.33   34.61
   5  -3  -1  205.11   30.78
   5  -3  -1  212.25   33.32
   5  -3  -1  185.22   32.75
   5   3   1  151.48   33.30
   5   3   1  222.73   31.25
   5  -3  -1  232.48   31.68
  -5   3  -1  206.50   32.96
  -5   3  -1  134.33   31.53
   5   3   1  242.18   35.05
   5   3   1  176.74   32.36
   5   3   1  190.50   36.04
   7  -3   1   59.96   21.39
   7   3  -1   78.58   25.36
   7  -3   1   98.91   34.87
   7  -3   1  113.82   27.25
   7  -3   1  118.28   27.43
   7   3  -1  122.24   25.01
   7  -3   1   76.15   27.27
   7   3  -1   81.96   32.96
  -7  -3  -1  104.55   27.42
   7   3  -1   65.00   31.26
   7   3  -1   92.34   27.12
   7  -3  -1   82.62   28.42
   7  -3  -1  129.43   33.38
   7  -3  -1   82.77   22.10
  -7   3  -1   88.97   25.18
   7   3   1   84.48   22.97
  -7   3  -1   58.93   22.87
   7  -3  -1  105.66   26.00
   7   3   1   59.40   25.11
   7   3   1  104.87   30.31
   7   3   1   40.73   21.31
   7   3   1  115.79   28.76
   7  -3  -1  100.22   28.40
   0   4  -1  181.42   27.69
   0  -4   1  164.24   28.01
   0   4  -1  198.15   27.73
   0  -4   1  192.07   27.72
   0  -4   1  187.57   27.34
   0   4  -1  195.21   27.85
   0  -4   1  204.23   27.96
   0   4  -1  194.86   27.22
  -2  -4  -1  200.23   29.59
   2   4  -1  206.71   29.24
   2  -4   1  245.58   29.79
   2  -4   1  243.17   28.94
  -2   4   1  165.42   28.47
   2  -4   1  233.03   29.50
   2  -4   1  202.06   29.51
   2   4  -1  184.74   29.97
   2  -4  -1  173.80   28.55
  -2   4  -1  183.71   29.24
  -2   4  -1  259.61   29.19
   2   4   1  208.79   28.99
  -2   4  -1  227.91   29.59
   2  -4  -1  184.29   28.25
   2   4   1  188.79   29.48
   2   4   1  175.94   29.25
   2  -4  -1  179.61   28.81
  -2  -4   1  219.00   29.71
   2   4   1  189.91   28.71
   2   4   1  192.90   29.39
  -2  -4   1  204.39   30.64
   4   4  -1  209.75   35.36
   4   4  -1  214.18   32.33
  -4  -4  -1  202.06   33.56
  -4   4   1  221.75   31.79
   4  -4   1  187.61   32.51
   4  -4   1  211.01   31.56
   4  -4   1  256.62   33.95
   4   4  -1  195.48   33.49
  -4   4  -1  202.12   31.80
  -4  -4   1  205.00   34.17
   4   4   1  213.81   33.51
  -4   4  -1  205.43   32.81
   4   4   1  205.26   31.79
   4  -4  -1  168.77   33.10
  -4  -4   1  198.28   32.50
   4  -4  -1  215.49   32.42
  -4   4  -1  195.37   33.02
   4   4   1  224.77   33.97
   4  -4  -1  205.46   31.22
   4  -4  -1  241.44   32.19
  -4   4  -1  180.22   33.10
   4  -4  -1  214.83   33.06
   4   4   1  211.31   32.42
   4   4   1  227.19   33.77
   6  -4   1   59.44   19.38
   6  -4   1   34.63   18.89
   6   4  -1   37.19   17.34
   6   4  -1   40.14   15.92
  -6  -4  -1   48.64   19.88
   6  -4   1   33.28   15.06
   6   4  -1   30.02   22.68
   6   4   1   23.88   18.24
   6   4   1   12.71   14.54
  -6   4  -1   38.26   15.28
   6   4   1   37.42   17.54
  -6   4  -1   34.87   16.81
   6  -4  -1   56.18   20.82
   6   4   1   47.38   22.43
   6  -4  -1   27.85   18.81
   6   4   1   21.82   18.80
   6  -4  -1   28.13   14.29
   6  -4  -1   45.93   18.05
   6  -4  -1   37.74   17.21
   8  -4   1   40.03   24.94
  -8  -4  -1   39.31   23.91
   8  -4   1   12.03   23.48
   8   4  -1   43.72   22.19
  -8   4   1    9.36   23.64
   8   4  -1  -12.72   28.46
   8   4  -1   11.73   29.07
   8  -4   1    2.19   18.20
   8   4  -1   55.29   26.72
   8   4  -1    1.17   20.40
   8  -4   1   17.79   25.60
   8  -4   1   -3.53   26.31
   8  -4  -1   20.82   27.06
   8  -4  -1   34.59   22.22
   8   4   1   25.77   20.66
   8   4   1    9.92   23.41
   8  -4  -1   13.55   25.21
  -8   4  -1   18.15   21.67
   8  -4  -1   37.84   21.81
   8   4   1   -1.07   20.09
   8   4   1    4.19   28.16
   8   4   1   -1.95   25.44
   8  -4  -1   18.00   30.15
  -8   4  -1   14.20   25.02
   1   5  -1   56.20   10.82
   1  -5   1   48.93    9.93
  -1  -5  -1   40.04    9.37
   1  -5   1   59.14   10.79
  -1   5   1   40.90    8.67
   1  -5   1   51.07   10.03
  -1  -5  -1   41.83    8.71
   1  -5   1   58.41    9.63
   1   5  -1   51.19   11.76
  -1  -5  -1   37.82    8.78
   1  -5  -1   59.58    9.47
  -1  -5   1   55.60   10.84
  -1   5  -1   65.33    9.73
   1   5   1   47.94    8.62
  -1   5  -1   65.62   10.82
  -1   5  -1   47.62   10.14
   1   5   1   56.89    8.95
   1   5   1   50.37    9.55
  -1   5  -1   47.14    9.56
  -1  -5   1   44.38   12.68
  -1  -5   1   61.38   12.09
   3   5  -1  163.32   26.44
  -3   5   1  152.34   24.63
   3   5  -1  158.09   25.26
   3  -5   1  186.12   24.79
   3   5  -1  157.35   28.44
   3  -5   1  159.72   26.06
   3  -5   1  177.39   25.69
  -3  -5  -1  163.22   26.44
   3  -5  -1  156.55   24.12
   3   5   1  180.32   26.42
  -3  -5   1  173.76   26.07
   3  -5  -1  157.25   25.44
  -3   5  -1  170.21   26.14
  -3   5  -1  144.18   25.62
   3   5   1  158.38   25.86
  -3   5  -1  165.27   24.84
   3   5   1  162.03   24.74
  -3  -5   1  163.03   27.40
   3   5   1  169.21   25.20
  -3   5  -1  168.51   25.96
   3  -5  -1  161.12   24.91
   3   5   1  154.81   26.08
   5  -5   1   48.78   16.26
  -5   5   1   52.53   13.33
   5   5  -1   60.33   18.49
   5   5  -1   26.21   18.56
   5  -5   1   29.76   15.60
   5   5  -1   73.91   16.28
   5  -5   1   72.54   14.37
  -5  -5  -1   54.26   15.98
   5  -5  -1   53.68   14.84
   5   5   1   81.54   20.25
  -5  -5   1   57.29   16.63
   5   5   1   42.23   13.41
  -5   5  -1   24.06   13.81
   5  -5  -1   58.40   15.87
   5   5   1   69.82   16.72
  -5  -5   1   58.87   14.82
  -5   5  -1   61.73   14.97
   5  -5  -1   64.77   14.40
  -5   5  -1   37.99   15.63
   5   5   1   33.26   15.26
  -5   5  -1   41.70   16.56
   5   5   1   53.35   17.88
   5  -5  -1   38.08   14.98
   5  -5  -1   44.26   16.68
   7   5  -1   23.64   21.16
   7  -5   1   -3.27   22.22
   7  -5   1   53.80   22.04
  -7  -5  -1   60.88   22.89
   7  -5   1   52.29   18.10
   7   5  -1   66.18   23.01
  -7   5   1   33.71   18.01
   7   5  -1   48.79   28.51
   7   5  -1   46.43   29.84
   7   5  -1   50.76   19.69
   7   5   1   18.60   22.21
  -7   5  -1   35.30   18.65
   7   5   1   31.58   20.42
   7  -5  -1   56.01   24.41
  -7   5  -1   27.14   19.20
   7  -5  -1   32.32   17.15
   7  -5  -1   85.25   24.88
   7   5   1   60.18   24.75
   7  -5  -1   17.69   17.30
   7  -5  -1   60.97   23.58
   7   5   1   33.00   18.23
   7   5   1   59.30   27.89
   0   6  -1  584.47   76.57
   0   6  -1  538.17   77.07
   0  -6   1  523.51   77.44
   0  -6   1  543.39   76.76
   0  -6  -1  558.83   76.00
   0  -6   1  469.87   77.18
   0   6   1  589.34   75.95
   2   6  -1  170.66   25.83
   2  -6   1  199.32   26.89
   2  -6   1  201.84   26.14
  -2   6   1  154.44   25.31
  -2   6   1  147.79   24.37
  -2   6   1  166.27   24.83
   2   6  -1  180.27   26.62
  -2  -6  -1  156.83   26.15
   2  -6   1  183.26   25.27
   2  -6   1  164.87   26.00
  -2   6  -1  202.98   26.30
   2  -6  -1  167.38   24.97
  -2  -6   1  164.12   27.89
  -2   6  -1  162.70   25.75
  -2  -6   1  194.57   26.83
   2   6   1  147.37   25.83
  -2   6  -1  189.67   26.77
   2  -6  -1  175.64   25.60
   2  -6  -1  169.34   24.50
  -2   6  -1  212.68   25.45
   2   6   1  179.10   25.37
   2   6   1  151.62   25.77
   2  -6  -1  162.25   24.81
   4   6  -1  290.54   42.39
   4  -6   1  261.71   41.55
   4  -6   1  344.40   43.83
  -4   6   1  319.66   42.19
  -4  -6  -1  307.27   43.82
   4   6  -1  299.26   46.06
   4   6  -1  257.68   43.66
   4  -6   1  265.08   42.84
   4   6   1  263.48   43.73
   4  -6  -1  314.43   43.15
   4   6   1  303.74   42.08
   4   6   1  253.44   43.32
  -4   6  -1  253.43   42.81
  -4  -6   1  281.18   44.92
   4   6   1  293.76   42.18
  -4   6  -1  252.54   41.75
   4   6   1  338.03   43.89
  -4  -6   1  264.30   42.99
  -4   6  -1  208.73   42.92
  -4   6  -1  251.10   43.00
   4  -6  -1  310.33   42.27
   4  -6  -1  320.38   41.40
   6   6  -1   44.31   24.68
  -6  -6  -1   42.25   20.51
   6  -6   1   56.65   19.01
   6   6  -1   35.63   16.49
   6  -6   1   41.01   14.37
  -6   6   1   35.39   15.66
   6  -6   1   51.76   17.73
   6   6  -1   96.90   23.68
  -6   6  -1   41.78   16.20
   6  -6  -1    6.63   16.16
   6  -6  -1   43.83   19.39
   6   6   1   22.53   19.36
   6   6   1   65.45   23.11
   6   6   1   52.75   20.86
   6  -6  -1   32.72   19.81
  -6   6  -1   48.12   18.30
   6   6   1   21.82   17.38
   6  -6  -1   33.49   18.25
  -6   6  -1   39.95   16.90
  -6   6  -1   38.67   17.57
   6  -6  -1   34.56   14.72
   6   6   1   33.63   17.57
   8  -6   1   23.52   30.65
   8   6  -1   -8.43   21.42
   8   6  -1    6.61   20.16
   8  -6   1    0.80   22.49
   8   6  -1   16.47   31.39
  -8   6   1    7.00   22.39
   8  -6   1   44.77   26.24
   8  -6   1   39.03   18.78
   8  -6   1   39.64   23.79
   8   6  -1   37.38   33.12
  -8  -6  -1   11.15   21.29
   8   6  -1   17.79   25.13
   8  -6  -1   30.65   18.72
   8   6   1   -1.71   23.87
  -8   6  -1   43.97   26.55
   8  -6  -1   30.36   22.97
   8  -6  -1   36.87   25.26
  -8   6  -1   26.59   21.94
   8   6   1   18.02   27.98
   8  -6  -1    2.85   25.71
   8   6   1   22.63   21.72
   8   6   1   40.92   34.02
   8   6   1    9.32   23.41
   8  -6  -1   51.10   27.31
  -1   7   1  632.76   86.46
   1  -7   1  584.28   86.61
   1   7  -1  621.74   87.09
  -1  -7  -1  591.13   85.99
   1  -7   1  654.80   86.71
   1  -7   1  621.21   86.13
  -1  -7  -1  605.81   85.94
   1   7  -1  680.23   86.61
  -1  -7  -1  624.06   86.45
   1  -7   1  596.21   86.89
  -1   7   1  624.11   85.41
  -1   7  -1  635.77   86.13
  -1  -7   1  584.12   86.96
   1   7   1  628.86   86.15
   1  -7  -1  655.87   85.44
   1   7   1  605.03   85.73
   1  -7  -1  655.88   85.68
  -1  -7   1  599.43   88.01
  -1   7  -1  574.90   86.81
   1   7   1  604.88   85.72
  -1   7  -1  595.71   86.29
  -1   7  -1  639.94   86.71
  -1  -7   1  567.64   86.93
   3  -7   1  379.03   53.25
   3   7  -1  388.65   53.65
   3  -7   1  416.45   52.09
   3  -7   1  378.03   53.15
  -3   7   1  379.39   52.03
   3  -7   1  414.91   52.99
   3   7  -1  382.20   54.88
  -3   7   1  335.30   51.30
  -3  -7  -1  372.82   53.46
   3   7  -1  344.32   52.37
  -3   7   1  337.52   51.90
  -3   7  -1  379.09   52.78
  -3  -7   1  326.10   53.28
  -3   7  -1  342.64   53.02
  -3  -7   1  387.38   55.07
   3  -7  -1  362.93   51.40
   3   7   1  364.20   52.23
   3   7   1  357.73   53.08
   3  -7  -1  353.50   51.95
  -3   7  -1  342.47   52.02
   3   7   1  338.40   52.93
  -3   7  -1  369.89   52.99
   3  -7  -1  364.90   52.18
   5   7  -1   79.68   25.04
   5  -7   1   91.59   21.48
  -5   7   1  144.80   22.27
   5  -7   1  109.20   22.28
  -5  -7  -1   78.74   22.64
   5  -7   1   85.20   19.65
   5   7  -1  110.79   25.16
   5   7  -1   91.13   20.17
  -5  -7   1  127.80   23.68
   5  -7  -1   80.76   23.50
   5  -7  -1  125.84   20.24
   5  -7  -1   88.72   20.90
   5  -7  -1   68.32   19.82
  -5   7  -1  109.15   19.89
  -5   7  -1   86.90   21.07
   5   7   1  101.00   21.14
   5  -7  -1  101.42   21.46
   5   7   1   74.48   21.80
  -5   7  -1  103.90   23.62
   5   7   1  136.24   24.70
  -5  -7   1  101.95   26.05
   5   7   1   91.21   21.92
   5   7   1   99.31   19.83
  -5   7  -1   82.51   20.11
   7  -7   1   59.44   23.61
  -7  -7  -1   54.23   23.10
   7  -7   1   29.92   16.11
   7   7  -1   72.26   31.14
  -7   7   1   54.94   21.06
   7  -7   1   77.08   24.56
   7   7  -1   37.19   23.33
   7   7  -1   29.44   17.86
   7   7   1   25.27   19.31
   7   7   1   38.40   19.62
   7  -7  -1   62.42   23.47
   7   7   1   51.17   25.24
   7  -7  -1   32.51   22.96
  -7   7  -1   69.47   22.29
  -7   7  -1   63.38   21.50
   7   7   1   48.31   23.91
   7  -7  -1   25.51   18.06
   7  -7  -1   51.01   22.91
   7  -7  -1   65.32   22.58
   7   7   1   65.05   27.76
   0  -8  -1  962.51  135.58
   0   8  -1 1025.43  136.55
   0   8   1 1059.91  135.40
   0   8  -1  969.78  135.75
   0  -8   1  898.75  136.06
   0  -8   1  916.85  136.99
  -2  -8  -1  223.32   35.71
   2  -8   1  271.16   35.81
  -2   8   1  217.30   35.18
   2   8  -1  254.16   35.48
   2  -8   1  250.92   35.86
   2   8  -1  271.59   36.61
  -2   8   1  223.38   34.39
   2  -8   1  257.96   34.89
  -2  -8  -1  228.55   36.29
   2  -8   1  251.75   36.83
  -2  -8  -1  231.82   35.36
  -2   8   1  239.48   33.99
  -2  -8   1  235.11   38.48
   2  -8  -1  207.78   35.68
  -2   8  -1  234.87   34.86
  -2   8  -1  263.81   35.83
   2  -8  -1  243.61   34.05
   2  -8  -1  253.21   34.52
  -2   8  -1  227.71   35.31
  -2  -8   1  270.53   36.91
   2  -8  -1  245.64   34.42
   2   8   1  235.79   35.48
  -2   8  -1  240.36   36.59
   4  -8   1  346.53   46.65
  -4   8   1  353.25   45.41
   4   8  -1  273.38   48.83
   4  -8   1  273.02   45.55
   4  -8   1  283.81   44.62
   4   8  -1  314.55   45.48
   4   8  -1  258.24   46.77
  -4  -8  -1  314.46   47.22
   4   8   1  312.36   46.70
  -4   8  -1  217.45   45.68
  -4   8  -1  277.89   46.60
  -4  -8   1  347.41   49.49
   4  -8  -1  329.86   45.98
   4   8   1  317.43   46.70
   4   8   1  322.38   45.38
  -4  -8   1  341.23   47.03
   4  -8  -1  362.86   45.37
  -4   8  -1  314.37   45.93
  -4   8  -1  263.99   44.78
   6   8  -1   40.51   24.92
  -6  -8  -1   29.44   20.24
   6   8  -1   33.47   15.63
   6   8  -1   46.32   19.64
   6  -8   1   37.69   18.24
   6  -8   1   42.78   17.77
  -6   8   1   53.42   15.68
   6  -8   1   38.35   14.80
   6  -8  -1   46.39   18.59
  -6   8  -1   59.47   17.75
   6   8   1   29.58   21.08
  -6   8  -1   34.98   19.59
  -6   8  -1   42.99   16.82
   6  -8  -1   32.88   16.74
  -6  -8   1   46.17   20.90
  -6   8  -1   11.56   15.24
   6   8   1   10.01   20.29
   6  -8  -1   32.37   14.26
   6   8   1   37.06   15.83
  -6  -8   1   46.63   15.85
   6   8   1   32.39   16.13
   6  -8  -1   10.26   17.49
   6   8   1   16.94   18.26
   6  -8  -1   47.24   18.95
   8   8  -1    3.16   24.20
  -8   8   1   11.36   21.71
   8  -8   1   11.10   23.16
   8  -8   1    9.86   17.33
   8   8  -1    5.38   32.18
   8   8  -1    2.57   33.13
   8  -8   1   17.74   25.43
   8   8  -1   29.88   19.23
   8   8  -1  -22.36   22.66
   8   8   1   15.07   28.31
   8   8   1  -10.57   20.93
   8   8   1   14.99   28.28
   8  -8  -1   67.59   28.48
   8  -8  -1   27.29   25.04
   8  -8  -1    7.60   16.62
   8   8   1   15.66   20.04
  -8   8  -1   24.05   25.50
   8  -8  -1   30.19   35.37
   8   8   1   -2.77   27.55
  -8   8  -1   18.95   20.95
  -1   9   1 2943.12  388.39
   1  -9   1 2713.09  389.65
  -1  -9  -1 2852.32  389.47
   1   9  -1 2838.98  389.98
   1  -9  -1 3043.90  389.01
  -1  -9   1 2578.68  390.73
  -1  -9   1 2551.47  389.72
  -1   9  -1 2961.20  390.68
   1   9   1 2817.59  388.96
   3  -9   1 1554.11  199.71
  -3   9   1 1402.41  198.30
   3  -9   1 1462.32  198.87
  -3   9   1 1427.87  198.80
   3  -9   1 1392.91  199.48
  -3  -9  -1 1432.40  199.56
   3   9  -1 1505.84  200.41
   3  -9   1 1429.54  199.97
  -3   9   1 1348.82  198.89
   3   9  -1 1520.75  200.88
   3   9  -1 1485.07  199.42
  -3  -9  -1 1395.71  199.93
  -3  -9  -1 1429.16  200.58
   3  -9  -1 1380.24  199.20
  -3  -9   1 1496.58  200.38
  -3   9  -1 1403.79  199.56
  -3   9  -1 1393.72  198.94
   3  -9  -1 1368.77  198.72
   3  -9  -1 1556.61  198.96
   3   9   1 1412.68  199.03
  -3   9  -1 1399.41  199.58
   3   9   1 1459.47  199.55
   3  -9  -1 1364.40  198.30
  -3   9  -1 1434.01  199.28
  -3  -9   1 1464.34  201.79
   3   9   1 1431.93  199.88
  -5  -9  -1  288.22   47.76
   5  -9   1  261.91   45.62
   5   9  -1  308.44   47.70
   5  -9   1  260.24   43.91
   5  -9   1  310.40   47.03
  -5   9   1  312.13   45.49
   5   9  -1  275.92   49.94
   5   9  -1  278.29   44.90
  -5   9  -1  284.16   44.43
   5   9   1  331.50   47.26
   5   9   1  294.90   45.22
   5  -9  -1  281.98   45.02
  -5   9  -1  328.34   46.22
  -5  -9   1  281.61   46.96
  -5   9  -1  311.55   47.03
   5   9   1  342.56   48.27
   5   9   1  314.87   47.67
   5   9   1  314.67   45.14
  -5  -9   1  315.53   50.32
   5  -9  -1  320.99   46.22
   5  -9  -1  259.84   43.52
  -5   9  -1  251.87   46.08
   7   9  -1   78.12   32.14
  -7  -9  -1   60.53   24.91
  -7   9   1   77.10   21.90
   7   9  -1   95.21   24.49
   7  -9   1   57.51   23.20
   7  -9   1  111.61   26.57
   7   9  -1   74.68   27.81
   7  -9   1   51.84   19.45
  -7   9  -1   84.44   23.84
   7  -9  -1   68.87   24.93
   7   9   1   55.63   21.82
   7  -9  -1   76.83   23.69
   7   9   1  115.83   30.54
   7   9   1   75.53   24.93
   7   9   1   49.45   30.11
  -7   9  -1   72.03   25.00
   7   9   1   70.65   25.01
   7  -9  -1  112.20   30.35
   7  -9  -1   53.29   18.38
  -7   9  -1   32.42   19.46
  -7   9  -1   49.27   20.97
   7  -9  -1   51.71   24.28
   0 -10  -1  454.53   65.27
   0  10   1  522.30   65.44
   0 -10  -1  528.91   66.88
   0 -10   1  424.95   68.41
   0  10  -1  433.34   65.48
   0  10  -1  443.91   66.29
   0 -10   1  417.00   66.24
   0 -10  -1  465.11   66.10
   0 -10   1  428.55   67.50
   0  10  -1  383.95   67.34
   0  10  -1  472.30   66.02
   0  10   1  524.84   64.88
  -2 -10  -1  138.53   22.19
   2 -10   1  134.67   20.05
  -2  10   1  102.01   18.46
  -2  10   1   80.25   16.12
  -2 -10  -1  127.92   20.04
  -2  10   1   78.84   16.83
   2 -10   1  115.64   17.82
   2 -10   1  109.82   18.92
   2  10  -1  140.95   20.21
   2  10  -1  123.27   21.35
  -2 -10  -1  148.28   20.60
   2 -10  -1  115.46   16.96
   2  10   1  118.82   18.84
  -2  10  -1  143.33   22.00
   2 -10  -1   77.68   18.33
  -2  10  -1  123.23   18.97
  -2 -10   1  225.16   32.44
  -2 -10   1  140.25   24.56
   2 -10  -1   93.76   16.29
   2 -10  -1   86.85   16.93
  -2 -10   1  121.64   20.63
  -4 -10  -1  157.72   26.36
  -4  10   1  146.19   23.90
   4  10  -1   98.13   23.90
  -4  10   1  171.60   22.68
   4 -10   1   93.85   23.60
   4 -10   1  137.88   23.20
  -4  10   1  152.83   20.78
   4  10  -1   93.13   21.93
   4 -10   1  123.60   25.01
   4 -10   1  134.53   24.11
   4  10  -1  130.47   28.68
   4  10   1  165.37   27.88
  -4  10  -1  105.88   22.22
  -4 -10   1  155.56   26.69
   4 -10  -1  157.74   22.58
  -4  10  -1   88.95   23.67
  -4  10  -1  102.18   22.74
   4 -10  -1  138.17   20.75
   4  10   1  139.70   24.95
  -4  10  -1   75.27   21.79
  -4 -10   1  156.27   27.86
   4  10   1  143.20   23.70
   4 -10  -1  116.06   22.16
   6  10  -1   18.39   25.08
  -6  10   1   15.47   14.22
  -6 -10  -1   19.70   18.44
   6 -10   1    9.66   16.68
   6  10  -1   13.50   14.25
   6 -10   1   16.79   17.14
   6 -10   1    4.70   12.41
   6  10  -1    4.27   16.72
  -6  10  -1   14.43   16.07
  -6  10  -1   41.81   20.92
   6  10   1   20.40   20.32
   6  10   1    5.77   15.69
   6 -10  -1   22.57   12.53
   6  10   1  -11.19   18.40
   6  10   1    2.91   13.72
  -6  10  -1   -8.51   13.92
  -6 -10   1    1.30   17.50
   6  10   1   -3.26   17.54
   6 -10  -1    5.30   17.50
  -6  10  -1   31.42   16.40
  -6 -10   1   50.88   25.51
   6 -10  -1   21.81   17.19
   6 -10  -1   23.95   18.31
   6 -10  -1   -2.05   14.16
  -1 -11  -1 1702.29  252.03
  -1  11   1 1970.17  251.67
   1  11  -1 1813.86  253.17
   1  11  -1 1939.30  252.41
  -1 -11  -1 1762.47  252.95
   1 -11   1 1782.29  253.20
  -1 -11  -1 1836.18  252.23
   1 -11   1 1854.55  252.41
   1 -11  -1 1862.37  251.90
   1  11   1 1817.57  252.14
  -1 -11   1 1772.11  254.73
   1 -11  -1 1822.84  252.48
  -1 -11   1 1700.26  253.26
  -3 -11  -1 1225.45  170.50
   3 -11   1 1141.59  169.88
   3  11  -1 1368.12  171.59
   3 -11   1 1359.22  170.21
  -3  11   1 1161.94  169.47
   3 -11   1 1236.89  170.88
   3  11  -1 1294.72  170.95
   3 -11   1 1117.48  169.07
  -3  11   1 1238.77  169.07
  -3 -11  -1 1214.55  171.40
   3  11  -1 1258.59  169.80
  -3 -11  -1 1243.14  170.19
  -3  11   1 1231.85  168.52
  -3 -11   1 1188.69  171.11
  -3  11  -1 1190.62  169.48
   3  11   1 1212.56  169.30
   3 -11  -1 1255.83  169.12
  -3 -11   1 1325.20  173.45
   3 -11  -1 1127.02  169.88
   3  11   1 1242.35  169.91
   3  11   1 1137.44  170.06
   3 -11  -1 1201.25  168.57
   3 -11  -1 1106.60  168.98
  -3  11  -1 1223.29  170.35
   5 -11   1  196.85   36.68
   5  11  -1  218.02   37.51
   5 -11   1  261.36   37.68
  -5  11   1  267.58   35.88
   5  11  -1  214.82   34.63
   5  11  -1  231.71   41.87
  -5 -11  -1  237.35   38.25
   5 -11   1  142.96   33.03
   5 -11  -1  201.85   32.54
  -5  11  -1  224.25   35.11
  -5  11  -1  202.54   37.40
  -5 -11   1  188.51   37.23
  -5 -11   1  229.68   41.38
   5  11   1  222.79   34.55
  -5  11  -1  174.31   34.23
  -5  11  -1  170.27   36.63
   5 -11  -1  239.67   36.22
   5  11   1  184.68   37.06
   5 -11  -1  208.18   34.24
   5  11   1  240.64   38.86
   7 -11   1   37.83   22.58
   7  11  -1   46.56   26.47
   7 -11   1   66.47   24.82
   7 -11   1   38.35   17.59
  -7  11   1   55.32   19.70
   7  11  -1   62.18   20.99
   7  11  -1   84.49   32.56
   7 -11  -1   24.25   20.13
  -7  11  -1   57.44   23.75
   7 -11  -1   33.92   23.72
   7 -11  -1   53.33   22.61
  -7  11  -1   36.71   19.59
   7  11   1   32.15   25.69
  -7  11  -1   51.12   18.96
  -7  11  -1   52.61   21.11
   7  11   1   56.67   26.26
   7  11   1   36.15   23.66
   7  11   1   42.52   18.92
   7 -11  -1   32.10   22.54
   7  11   1   64.67   33.64
   7 -11  -1   37.06   16.03
   0 -12  -1   42.32   15.22
   0 -12   1   58.48   19.01
   0 -12  -1   51.85   13.80
   0 -12   1   66.91   17.58
   0  12  -1   54.17   12.40
   0  12  -1   75.96   14.05
   0  12   1   60.41   12.35
   0  12  -1   38.39   16.19
   0 -12   1   45.06   15.18
   0  12   1   65.61   11.23
   0 -12  -1   43.67   12.72
   0  12  -1   69.22   15.42
  -2  12   1  153.80   21.31
   2 -12   1  122.20   23.54
  -2 -12  -1  137.02   23.95
   2  12  -1  157.47   24.00
  -2 -12  -1  168.38   27.32
   2 -12   1  133.70   23.48
  -2  12   1  138.64   24.05
   2  12  -1  100.45   24.22
   2 -12   1  141.30   22.02
   2 -12   1  117.89   23.85
  -2 -12  -1  179.14   25.40
  -2  12   1  145.61   20.45
  -2  12  -1  146.97   24.24
  -2 -12   1  141.96   27.87
  -2  12  -1  118.39   22.25
   2 -12  -1  168.21   21.65
  -2 -12   1   85.40   28.11
   2  12   1  156.55   23.49
   2  12   1  133.74   21.79
   2 -12  -1  125.18   24.11
   2 -12  -1  118.76   21.55
  -2 -12   1  128.81   24.81
   2 -12  -1  154.13   20.88
   2  12   1  116.17   22.66
   4 -12   1   57.99   14.33
   4 -12   1   36.17   15.35
   4 -12   1   36.82   15.64
  -4 -12  -1   69.18   18.79
  -4 -12  -1   72.59   18.89
  -4  12   1  107.13   14.49
   4 -12   1   58.63   16.32
  -4  12   1  120.69   17.35
   4  12  -1   63.99   21.83
   4  12  -1   50.30   14.62
   4  12  -1   50.76   17.01
  -4 -12  -1   61.72   16.75
  -4  12   1   77.11   15.84
   4  12   1   73.66   18.47
   4 -12  -1   59.36   12.99
   4 -12  -1   73.46   15.64
   4  12   1   53.48   14.11
  -4 -12   1   89.56   21.74
  -4  12  -1   81.28   18.66
  -4  12  -1   65.71   15.68
   4 -12  -1   33.25   13.38
  -4 -12   1   80.48   26.13
   4 -12  -1   57.69   14.53
   4  12   1   45.53   15.66
   6  12  -1    9.26   25.19
   6 -12   1   17.67   17.29
  -6  12   1   20.23   16.38
   6  12  -1   24.64   15.01
   6 -12   1   28.85   17.76
   6 -12   1   17.71   13.35
   6  12  -1   -2.92   16.02
   6  12   1    0.72   17.45
  -6  12  -1   44.76   20.14
   6 -12  -1    6.23   15.93
   6 -12  -1   26.43   16.88
  -6  12  -1    5.80   18.54
   6 -12  -1   23.41   12.00
  -6 -12   1    8.16   24.50
   6  12   1   22.45   23.94
   6  12   1    5.59   20.56
   6  12   1   23.12   16.22
  -6 -12   1   -1.69   18.25
  -6  12  -1   13.18   14.41
   6  12   1   29.43   20.03
  -6  12  -1   14.22   15.41
   1 -13   1  457.44   70.50
  -1  13   1  456.52   67.60
   1  13  -1  485.47   69.43
  -1  13   1  502.66   70.64
   1 -13   1  524.41   71.90
   1 -13   1  501.94   69.42
   1 -13   1  427.24   70.22
   1  13  -1  493.91   68.78
  -1 -13  -1  523.11   70.60
  -1 -13  -1  439.88   69.22
   1  13  -1  497.26   70.07
  -1 -13  -1  438.59   70.51
  -1  13   1  506.22   68.28
  -1  13  -1  498.50   68.70
   1 -13  -1  461.69   70.99
   1  13   1  458.72   67.76
  -1 -13   1  459.23   70.67
  -1 -13   1  468.69   71.04
   1 -13  -1  451.82   69.74
  -1 -13   1  455.06   72.94
  -1  13  -1  522.28   71.58
   1 -13  -1  502.12   68.87
   1  13   1  497.92   69.03
   1  13   1  506.33   67.86
   1 -13  -1  485.35   68.28
   1  13   1  514.42   68.20
   3  13  -1  257.76   41.14
  -3  13   1  242.01   42.01
   3 -13   1  267.35   40.51
  -3  13   1  239.48   39.17
  -3 -13  -1  268.23   42.39
   3 -13   1  346.67   42.98
  -3 -13  -1  265.99   45.23
   3 -13   1  290.34   42.04
  -3 -13  -1  275.78   42.67
   3  13  -1  356.52   46.26
   3  13  -1  260.88   43.00
   3 -13   1  261.53   44.47
  -3  13   1  277.20   40.19
  -3  13  -1  292.58   44.11
   3  13   1  292.91   41.58
   3 -13  -1  258.89   43.24
   3  13   1  264.40   42.05
   3 -13  -1  231.80   40.03
   3 -13  -1  252.24   39.43
  -3 -13   1  391.85   50.32
  -3 -13   1  295.40   49.25
   3  13   1  304.15   43.60
   3 -13  -1  323.55   40.77
  -3  13  -1  253.52   40.71
   5  13  -1   70.22   22.01
   5 -13   1   52.55   18.82
  -5  13   1   77.74   19.34
   5  13  -1   86.64   25.85
  -5  13   1   93.80   19.76
  -5  13   1   84.71   16.16
   5  13  -1   86.33   19.72
   5 -13   1   39.27   15.67
   5 -13   1  104.32   21.89
  -5  13  -1   62.10   17.97
   5  13   1   90.38   23.41
   5 -13  -1   70.95   16.19
   5  13   1  101.65   19.44
  -5  13  -1   70.55   20.37
   5  13   1   69.03   22.42
   5 -13  -1   63.77   18.11
  -5 -13   1   79.26   24.41
   5 -13  -1   90.50   19.42
  -5 -13   1   78.46   33.37
   7  13  -1   80.50   24.73
   7  13  -1   36.22   17.83
   7  13  -1   32.29   30.67
   7 -13   1   32.51   22.58
   7 -13   1   20.67   23.27
  -7  13   1   21.93   18.29
   7 -13   1   13.27   14.18
  -7  13  -1   19.87   21.43
  -7 -13   1   47.99   41.71
  -7  13  -1   13.39   17.97
   7 -13  -1   38.97   39.63
   7  13   1    4.48   24.52
   7 -13  -1    4.09   14.52
   7 -13  -1    7.94   21.91
   7  13   1   37.06   19.11
   7 -13  -1   38.26   28.63
   7  13   1   55.80   25.18
  -7 -13   1   59.73   26.57
   7  13   1   72.99   27.99
  -7  13  -1    6.59   16.04
   7 -13  -1   19.68   20.66
   7  13   1   70.19   32.65
  -7  13  -1   17.59   21.66
   0  14  -1   35.31   11.54
   0  14  -1   29.23   17.77
   0  14   1   31.23   10.08
   0 -14  -1   45.85   13.33
   0 -14  -1   29.17   15.31
   0 -14   1   44.91   18.71
   0 -14   1   33.25   13.15
   0 -14   1   75.21   18.03
   0 -14  -1   35.76   13.43
   0  14   1   35.67    9.61
  -2  14   1  114.28   16.30
   2 -14   1   77.06   18.18
  -2  14   1   98.21   14.82
  -2 -14  -1  119.14   24.16
   2  14  -1   78.40   18.74
  -2 -14  -1  117.32   21.62
  -2  14   1   88.04   19.68
   2 -14   1  101.62   19.40
   2 -14   1   79.67   16.78
   2  14  -1   86.98   18.10
   2 -14   1   77.33   18.40
  -2  14  -1   90.11   17.63
  -2 -14   1   79.54   23.57
   2 -14  -1   56.06   15.43
   2 -14  -1  126.70   16.47
   2  14   1   80.61   16.79
  -2  14  -1  122.95   19.99
   2  14   1  117.80   17.41
   2 -14  -1  114.23   16.89
  -2  14  -1  111.99   20.61
  -2 -14   1   91.82   29.46
  -2 -14   1   53.14   16.28
   2 -14  -1   98.90   21.96
   2  14   1   86.33   18.33
  -2  14  -1   90.09   16.83
   4 -14   1   65.93   16.61
   4 -14   1   14.24   14.08
   4 -14   1   30.12   11.98
   4  14  -1   25.11   20.49
  -4 -14  -1   45.17   17.06
  -4  14   1   62.33   14.33
   4  14  -1   50.60   14.68
  -4  14   1   84.22   12.96
  -4 -14  -1   53.22   20.63
   4 -14   1   17.95   16.29
  -4  14   1   67.62   14.81
   4  14  -1   44.76   16.66
   4 -14  -1   47.20   13.84
   4  14   1   51.61   17.15
  -4  14  -1   46.47   17.08
  -4  14  -1   40.18   15.84
  -4 -14   1   60.61   22.51
   4 -14  -1   50.41   16.62
   4 -14  -1   35.43   10.96
  -4 -14   1   42.67   25.42
  -4  14  -1   35.94   13.61
   4  14   1   71.47   18.11
   4  14   1   60.21   14.76
  -4  14  -1   27.12   16.42
   4 -14  -1   48.27   13.28
   6  14  -1   13.44   18.46
   6  14  -1    6.03   26.87
   6 -14   1   13.50   12.75
   6 -14   1   20.77   18.13
   6 -14   1   29.19   17.58
  -6  14   1   17.74   17.95
   6  14  -1   21.12   14.72
   6 -14  -1   -6.40   16.05
   6  14   1   17.90   17.20
  -6 -14   1   11.30   36.08
  -6  14  -1   23.47   16.42
   6 -14  -1   10.92   11.94
  -6 -14   1   18.88   25.50
   6  14   1  -25.28   20.20
  -6  14  -1   31.92   18.80
   6 -14  -1   31.61   16.39
   6  14   1   14.71   13.79
  -1  15   1  111.51   18.20
  -1 -15  -1  116.10   23.21
   1 -15   1   97.34   23.40
   1  15  -1  107.13   22.93
   1  15  -1  179.49   22.40
   1 -15   1   79.47   22.25
   1 -15   1   69.49   21.35
   1  15  -1   98.76   19.46
  -1  15   1  100.78   21.48
  -1  15   1  110.64   16.67
   1 -15   1  147.85   22.56
  -1 -15  -1   99.96   26.33
  -1  15  -1  109.95   18.61
  -1 -15   1  126.92   26.12
  -1  15  -1   66.09   23.49
  -1 -15   1   75.27   21.12
   1  15   1   92.02   16.48
   1 -15  -1  110.59   23.15
  -1  15  -1   67.15   21.10
   1 -15  -1   92.84   21.70
   1  15   1  106.23   20.11
  -1  15  -1  113.26   23.59
   1 -15  -1  106.32   18.93
   1  15   1  146.85   19.91
   1 -15  -1  160.77   22.62
  -1 -15   1   50.60   24.70
   1  15   1   93.94   16.94
  -3  15   1   90.38   14.87
   3 -15   1   98.12   21.48
  -3 -15  -1  105.75   28.09
  -3 -15  -1  112.42   22.30
  -3  15   1   86.87   18.87
   3  15  -1  112.98   22.57
   3 -15   1  104.80   20.61
   3  15  -1  111.27   23.94
   3 -15   1   60.62   15.61
  -3  15   1   92.17   16.31
   3 -15   1   44.97   17.24
   3  15  -1   84.06   17.84
  -3  15  -1   83.08   18.63
  -3  15  -1   77.08   19.47
   3 -15  -1   51.73   13.96
  -3  15  -1   77.59   16.05
  -3 -15   1  115.98   21.65
   3 -15  -1   54.18   15.43
   3 -15  -1   74.78   20.59
   3 -15  -1   96.67   16.49
  -3  15  -1   72.73   16.35
   3  15   1   75.42   18.53
  -3 -15   1   57.62   25.25
  -3 -15   1   50.89   28.05
  -5  15   1   43.22   12.15
   5  15  -1   28.78   24.12
  -5  15   1   25.69   14.09
   5 -15   1   17.48   16.73
   5 -15   1   11.23   15.09
   5  15  -1   36.65   14.06
  -5  15   1   62.27   17.29
   5 -15   1   29.47   12.08
   5 -15   1   30.33   16.84
   5  15  -1   44.32   15.48
   5 -15  -1   38.45   11.61
   5 -15  -1   64.03   16.01
  -5  15  -1   35.94   15.38
  -5 -15   1   34.38   31.42
   5  15   1   55.32   20.46
   5  15   1   35.47   13.53
  -5  15  -1   46.27   19.78
  -5  15  -1   19.36   18.38
  -5  15  -1    5.79   13.93
   5 -15  -1   17.26   14.41
  -5 -15   1   17.99   21.34
   5  15   1    3.35   15.77
  -7  15   1   36.13   22.57
   7 -15   1   28.57   22.37
  -7  15  -1   23.91   23.48
   0  16   1  179.15   29.36
   0 -16  -1  262.15   39.28
   0 -16   1  157.93   33.55
   0 -16   1  221.84   39.30
   0 -16   1  211.77   35.39
   0 -16  -1  207.23   33.25
   0  16  -1  183.12   29.87
   0  16   1  165.26   27.92
   2  16  -1  107.29   22.79
  -2 -16  -1  102.47   23.92
   2 -16   1  167.09   23.88
   2  16  -1  124.41   24.48
   2 -16   1  129.03   25.45
  -2  16   1   91.73   23.00
  -2  16   1   84.96   19.13
  -2 -16  -1  121.63   29.91
   2 -16   1   96.36   22.33
  -2 -16  -1  102.14   25.54
   2  16  -1  153.61   23.38
  -2  16   1  105.88   18.52
   2 -16   1  132.25   24.79
   2  16  -1  121.76   21.43
   2  16   1  128.98   20.91
   2 -16  -1  102.16   26.42
   2  16   1  114.84   20.18
  -2  16  -1  187.15   28.77
   2  16   1  123.26   20.65
  -2  16  -1  113.03   20.29
  -2  16  -1   93.81   20.16
   2  16   1  126.23   22.59
   2 -16  -1  129.70   20.97
  -2  16  -1  115.68   22.83
  -2 -16   1  118.67   33.48
  -2 -16   1  150.61   31.65
  -2 -16   1   83.19   20.85
   2 -16  -1  108.60   20.51
   2 -16  -1   97.25   21.73
  -4  16   1   98.25   15.79
  -4  16   1  121.08   20.85
  -4  16   1  108.73   19.04
   4  16  -1  110.18   24.98
   4 -16   1   42.24   18.03
  -4 -16  -1   84.76   22.48
   4 -16   1   95.00   20.55
   4 -16   1   55.81   15.87
   4  16  -1   84.74   22.53
  -4 -16  -1   66.87   27.93
   4  16  -1   73.29   18.17
   4 -16   1   27.21   20.12
  -4 -16   1   58.05   34.12
   4  16   1   62.08   20.15
  -4  16  -1   94.07   18.22
  -4  16  -1   42.13   16.05
  -4  16  -1   63.15   19.29
   4 -16  -1   68.65   20.31
   4 -16  -1   69.65   15.32
  -4  16  -1   77.55   21.98
   4  16   1   88.26   18.14
   4  16   1  107.87   21.54
  -4 -16   1   74.05   26.72
   4 -16  -1   78.10   17.71
   4 -16  -1   84.39   17.88
   6 -16   1   10.49   19.84
   6  16  -1    8.98   14.82
   6  16  -1   24.93   18.64
   6 -16   1   32.91   20.12
   6  16  -1   -0.93   26.84
   6 -16   1   18.14   14.96
  -6  16   1   30.80   18.24
   6 -16  -1    5.86   11.99
  -6 -16   1  -22.80   39.92
  -6  16  -1   15.63   16.38
   6 -16  -1   10.78   17.42
   6  16   1    6.17   21.75
  -6 -16   1   13.01   25.70
  -6  16  -1    3.03   16.28
   6  16   1   22.55   13.78
   6  16   1   10.78   18.15
  -6  16  -1   38.64   22.32
   6 -16  -1   -6.83   16.95
  -6  16  -1   21.96   20.11
  -1  17   1  190.07   27.34
  -1  17   1  130.24   23.22
   1 -17   1  187.39   32.60
   1 -17   1  132.95   30.99
  -1 -17  -1  171.67   32.23
   1  17  -1  149.91   26.21
  -1 -17  -1  190.95   30.08
   1  17  -1  127.29   26.34
  -1  17   1  175.17   31.01
   1 -17   1  138.22   30.70
   1 -17   1  108.16   27.24
   1  17  -1  142.16   25.12
  -1 -17  -1  190.88   36.49
   1 -17  -1  176.16   28.17
   1  17   1  175.72   25.54
  -1  17  -1  169.40   32.83
   1  17   1  166.27   27.37
  -1  17  -1  174.65   29.73
  -1 -17   1  161.26   31.86
  -1  17  -1  139.38   25.88
   1  17   1  117.06   23.12
  -1 -17   1  106.48   26.81
  -1  17  -1  185.07   26.11
  -1 -17   1  105.11   36.19
   1 -17  -1  208.21   32.97
   1  17   1  116.33   22.84
   1 -17  -1  201.79   32.39
   1 -17  -1  272.44   31.43
   3 -17   1   71.12   17.81
   3 -17   1   92.68   24.93
   3 -17   1   58.46   19.63
   3 -17   1  151.00   24.38
  -3  17   1   87.42   16.10
   3  17  -1  119.38   25.38
  -3  17   1  102.23   18.05
  -3 -17  -1   52.56   26.64
  -3 -17  -1   71.64   22.32
  -3  17   1  109.42   21.30
   3  17  -1   95.07   19.09
   3  17  -1   98.43   20.90
   3  17   1   61.74   22.60
  -3  17  -1   78.49   18.19
   3 -17  -1   67.82   16.58
  -3 -17   1   76.01   19.74
   3 -17  -1   83.80   19.00
   3  17   1  117.45   20.50
  -3  17  -1   76.22   18.13
  -3 -17   1   73.13   29.53
   3 -17  -1   81.10   23.31
  -3  17  -1   87.34   21.15
  -3 -17   1  151.55   42.54
   3 -17  -1  120.70   19.35
  -3  17  -1  107.06   24.68
   5  17  -1   34.34   20.09
  -5  17   1   44.54   16.01
   5 -17   1    4.29   17.57
   5 -17   1   -2.86   19.22
   5 -17   1   21.54   18.16
   5  17  -1   52.26   25.25
   5  17  -1   19.90   15.01
  -5  17   1   44.27   16.66
  -5 -17  -1   -0.27   33.73
  -5  17   1   37.44   12.65
   5 -17   1   20.66   13.01
  -5 -17  -1   26.14   21.39
   5 -17  -1   58.66   16.83
   5 -17  -1   20.36   11.19
  -5  17  -1   16.61   17.02
  -5  17  -1   59.88   21.57
   5  17   1   15.28   13.24
  -5 -17   1   21.86   25.54
   5  17   1   25.39   19.62
   5 -17  -1   24.22   14.51
  -5 -17   1   40.65   38.84
   5  17   1   45.21   17.67
  -5  17  -1   43.44   15.79
  -5  17  -1   16.52   13.86
   5 -17  -1   43.07   17.86
   0 -18  -1  341.30   54.57
   0  18  -1  349.06   59.69
   0  18   1  383.66   53.21
   0 -18   1  538.33   65.06
   0  18  -1  338.61   53.17
   0 -18   1  314.30   60.23
   0 -18  -1  332.12   57.61
   0 -18   1  361.58   61.06
   0  18   1  357.25   51.84
   0 -18  -1  392.97   56.73
  -2  18   1  205.74   32.81
  -2  18   1  142.58   26.50
  -2 -18  -1  189.56   34.12
  -2 -18  -1  199.30   40.61
   2  18  -1  119.16   27.53
   2 -18   1  176.92   32.89
   2 -18   1  216.18   34.51
  -2  18   1  166.48   28.09
   2 -18   1  216.19   34.64
   2 -18   1  269.83   34.28
  -2 -18  -1  215.91   36.21
   2  18  -1  188.25   30.10
   2  18  -1  114.86   29.02
   2  18  -1  227.41   33.70
  -2  18  -1  268.24   37.51
   2 -18  -1  165.68   29.92
  -2  18  -1  219.32   31.49
  -2  18  -1  269.90   35.53
   2 -18  -1  194.70   29.44
   2  18   1  179.34   28.06
   2  18   1  170.61   27.81
   2 -18  -1  128.25   32.14
   2 -18  -1  147.32   31.23
   2  18   1  178.15   30.26
  -2  18  -1  142.12   28.57
  -2 -18   1  155.08   36.80
  -2 -18   1  171.14   32.28
  -2 -18   1  190.31   43.16
   2  18   1  174.64   28.70
   4  18  -1   64.33   22.65
   4 -18   1   56.79   25.77
   4  18  -1  131.85   27.22
   4  18  -1   75.90   19.44
   4 -18   1  132.69   24.86
  -4 -18  -1   65.26   31.99
  -4  18   1  113.55   17.92
   4 -18   1   50.62   20.23
  -4  18   1   90.23   20.29
  -4  18   1  110.17   22.56
   4 -18   1   56.25   17.75
  -4 -18  -1   80.20   25.38
   4 -18  -1  103.66   20.28
  -4  18  -1   88.38   23.24
  -4 -18   1   70.60   31.54
   4 -18  -1   51.35   16.23
   4 -18  -1   72.19   19.04
  -4  18  -1  106.63   19.68
   4  18   1  104.29   20.30
  -4 -18   1   74.15   39.65
  -4  18  -1  103.29   23.11
   4 -18  -1   78.81   23.74
  -4  18  -1   80.88   19.49
  -4 -18   1   88.80   23.62
   4  18   1  117.67   22.54
   4  18   1  119.89   24.88
   6  18  -1   24.46   29.07
   6 -18   1    4.09   20.21
   6  18  -1   -1.42   16.62
   6 -18   1   11.65   12.72
  -6  18   1    7.69   18.34
   6 -18   1  -28.81   17.63
  -6  18   1   26.82   19.61
   6  18  -1   56.30   24.88
  -6  18   1   18.16   13.00
  -6 -18   1   -6.64   30.79
  -6  18  -1   11.81   21.09
  -6  18  -1   15.66   16.03
   6  18   1   10.05   17.12
   6 -18  -1   27.03   18.05
   6 -18  -1   13.31   16.10
   6 -18  -1    6.29   11.13
  -6  18  -1    2.92   13.54
  -6 -18   1   31.19   49.28
   6  18   1   24.23   14.93
  -6  18  -1   30.90   20.63
   6  18   1   20.31   22.23
  -1 -19  -1  436.56   69.38
   1 -19   1  499.50   72.70
  -1  19   1  490.30   66.90
   1  19  -1  439.68   66.93
   1 -19   1  456.46   69.22
  -1 -19  -1  534.54   75.16
   1 -19   1  432.69   71.19
  -1 -19  -1  323.53   71.95
   1 -19   1  515.53   72.89
  -1  19   1  480.06   65.69
   1 -19  -1  470.78   68.21
  -1  19  -1  451.62   66.44
  -1 -19   1  460.47   70.37
   1 -19  -1  441.52   71.06
   1 -19  -1  338.40   68.17
  -1 -19   1  393.77   76.01
   1  19   1  493.28   65.17
  -1  19  -1  545.85   69.26
  -1 -19   1  455.97   71.21
   1 -19  -1  445.15   71.54
   1  19   1  450.64   65.82
   1  19   1  492.75   64.89
   1  19   1  475.42   67.36
  -1  19  -1  458.27   72.31
  -1  19  -1  492.19   67.04
   3  19  -1  168.21   34.79
  -3  19   1  201.62   33.22
  -3 -19  -1  207.46   40.03
  -3 -19  -1  148.06   44.72
   3  19  -1  215.26   35.97
   3  19  -1  271.06   40.48
  -3  19   1  245.26   39.12
  -3  19   1  193.45   31.65
  -3 -19  -1  203.82   42.15
   3 -19   1  175.36   37.79
   3 -19   1  267.62   39.79
   3 -19   1  209.33   40.50
   3 -19   1  193.24   35.61
   3  19   1  203.62   33.31
  -3 -19   1  231.03   56.06
  -3 -19   1  225.43   47.45
  -3  19  -1  228.20   33.98
   3  19   1  242.08   36.06
   3 -19  -1  235.44   35.36
   3 -19  -1  199.56   33.40
   3 -19  -1  197.91   39.97
  -3 -19   1  201.08   37.49
   3  19   1  204.26   36.13
  -3  19  -1  213.76   33.87
  -3  19  -1  211.44   36.83
   3 -19  -1  181.17   34.66
  -3  19  -1  241.46   41.76
  -5  19   1   33.92   13.02
   5 -19   1   37.10   20.74
   5  19  -1   76.72   27.00
  -5  19   1   51.62   17.99
   5 -19   1   14.58   14.15
   5 -19   1   48.54   21.06
   5 -19   1   -5.29   21.51
   5  19  -1   44.60   18.99
  -5 -19  -1   39.93   25.81
   5  19  -1   32.81   15.63
  -5 -19  -1   -7.27   38.05
  -5  19   1   38.94   17.73
  -5  19  -1   51.77   17.12
  -5 -19   1   16.84   29.72
  -5 -19   1   23.40   14.68
   5  19   1   39.01   15.21
  -5  19  -1   48.38   18.92
   5 -19  -1   49.39   17.27
   5  19   1   56.84   20.41
  -5 -19   1   91.25   47.38
   5 -19  -1   30.41   16.20
   5 -19  -1   16.79   20.60
   5  19   1   45.60   21.22
  -5  19  -1   33.51   14.53
  -5  19  -1   41.09   22.43
   5 -19  -1   14.50   11.77
   0 -20   1  172.50   42.35
   0  20  -1  233.59   41.93
   0  20  -1  199.72   30.64
   0 -20  -1  177.75   34.23
   0 -20   1  125.85   33.33
   0 -20  -1  160.72   38.90
   0 -20   1  136.05   33.79
   0  20  -1  135.88   27.78
   0  20  -1  155.05   31.46
   0  20   1  193.59   30.42
   0  20   1  188.45   28.25
   0 -20  -1  192.72   34.61
   2  20  -1   60.93   15.84
  -2 -20  -1   39.67   22.66
   2  20  -1   46.45   16.27
   2 -20   1   57.35   17.85
  -2  20   1   44.21   19.98
   2 -20   1   39.28   20.34
  -2  20   1   53.87   12.51
  -2 -20  -1   36.96   27.20
   2 -20   1   62.56   23.31
  -2  20   1   41.60   14.14
   2 -20   1   48.93   23.47
   2  20  -1   50.92   13.86
  -2 -20  -1   48.41   18.25
   2  20  -1   67.07   20.50
   2  20   1   61.98   15.08
   2  20   1   57.07   14.52
  -2  20  -1   75.57   19.98
  -2  20  -1   43.97   15.45
  -2  20  -1   59.91   24.27
  -2 -20   1   36.40   23.39
  -2  20  -1   34.34   13.69
  -2 -20   1   43.11   32.32
   2 -20  -1   72.53   18.13
   2 -20  -1   54.00   21.06
   2  20   1   64.85   13.28
  -2 -20   1   54.08   17.48
   2  20   1   47.87   16.71
   2 -20  -1   25.67   20.72
   2 -20  -1   61.40   17.77
  -4  20   1   27.52   15.24
  -4 -20  -1   -1.75   20.16
  -4  20   1   17.92   10.62
  -4 -20  -1   45.17   38.86
   4  20  -1   22.17   14.38
   4 -20   1   36.71   18.14
   4 -20   1    6.73   22.41
   4  20  -1   36.04   20.45
   4 -20   1   41.24   19.73
   4  20  -1   21.68   21.21
  -4  20   1   26.80   17.06
   4 -20   1   27.12   14.50
  -4 -20   1  -35.90   46.29
   4 -20  -1   19.06   21.42
  -4  20  -1   11.20   21.20
   4 -20  -1   37.59   15.70
  -4  20  -1   20.98   17.18
  -4 -20   1   22.49   31.37
   4 -20  -1   28.94   12.11
  -4  20  -1    8.58   12.89
  -4  20  -1   30.20   14.17
  -4 -20   1   21.56   13.15
   4 -20  -1   12.80   13.39
   4  20   1   27.34   17.03
   1 -21   1  569.44   72.51
  -1 -21  -1  463.20   76.87
   1 -21   1  346.39   71.66
   1 -21   1  490.85   72.62
  -1  21   1  457.49   64.78
   1  21  -1  488.46   66.65
  -1 -21  -1  317.54   66.91
   1 -21   1  474.74   68.33
  -1 -21  -1  415.79   67.85
  -1  21   1  415.34   63.20
   1  21  -1  441.65   65.06
   1  21   1  441.40   62.22
  -1  21  -1  471.10   64.76
  -1  21  -1  486.84   71.82
   1 -21  -1  354.12   69.51
   1  21   1  466.32   65.10
   1 -21  -1  419.99   66.04
   1 -21  -1  417.68   70.14
  -1  21  -1  446.30   66.84
   1  21   1  397.06   63.31
   1 -21  -1  487.20   71.46
  -1 -21   1  452.30   68.66
  -1 -21   1  630.45   90.41
   1  21   1  474.53   62.12
  -1 -21   1  393.21   69.83
  -1  21  -1  411.82   63.97
  -3 -21  -1  163.51   39.04
   3 -21   1  198.53   43.42
   3 -21   1  261.38   40.18
  -3 -21  -1  181.23   51.10
  -3  21   1  218.11   33.67
   3  21  -1  156.36   35.52
   3  21  -1  137.21   36.90
   3 -21   1  303.28   43.46
   3  21  -1  315.12   42.67
   3 -21   1  216.61   42.83
  -3 -21  -1  218.00   44.86
  -3  21   1  239.02   42.41
  -3  21   1  219.50   35.56
   3  21  -1  249.13   38.36
  -3  21  -1  272.66   36.08
  -3  21  -1  233.77   40.77
  -3  21  -1  235.06   40.66
  -3 -21   1  269.11   58.56
  -3 -21   1  214.09   38.67
   3  21   1  266.20   37.85
   3 -21  -1  267.34   39.42
   3 -21  -1  227.60   39.45
   3 -21  -1  245.67   36.27
   3  21   1  263.67   36.53
   3 -21  -1  144.11   39.87
  -3 -21   1  242.05   46.90
  -3  21  -1  211.29   36.02
   3  21   1  215.12   38.62
   3  21   1  224.90   35.65
  -5  21   1   48.45   19.00
  -5 -21  -1   48.49   41.13
  -5  21   1   63.49   21.98
   5 -21   1   45.07   21.88
  -5  21   1   27.38   13.78
   5  21  -1   49.03   26.67
  -5 -21  -1    4.05   23.61
   5 -21   1   29.30   14.75
   5  21  -1   45.12   23.35
   5 -21   1  -19.66   23.55
   5  21  -1   42.02   18.01
   5 -21   1   63.78   23.06
   5 -21  -1   50.06   18.80
   5  21   1   24.73   15.56
  -5  21  -1   46.15   22.72
  -5 -21   1   55.53   58.57
   5 -21  -1    4.19   22.62
   5  21   1   19.75   20.61
   5 -21  -1    6.82   11.59
  -5 -21   1   44.77   34.35
  -5  21  -1   52.25   16.57
  -5  21  -1   37.97   14.98
  -5  21  -1   26.69   19.47
   5  21   1   78.11   22.98
   5 -21  -1   13.39   15.78
   0  22  -1   -8.14   10.36
   0 -22   1   13.11   18.94
   0  22  -1   -8.66   10.02
   0  22   1   17.44   11.61
   0 -22  -1    4.15   25.65
   0  22   1   -2.08    8.62
   0 -22   1   33.10   32.16
   0 -22  -1   26.35   15.16
   0 -22  -1    0.70   16.48
   0  22  -1   14.69   14.74
   0 -22   1   16.46   18.56
   2 -22   1    7.29   22.01
   2  22  -1    3.59   10.08
  -2  22   1   -4.67    8.47
  -2  22   1    0.35   19.02
  -2 -22  -1  -10.13   27.98
  -2  22   1    1.91   11.46
  -2 -22  -1  -31.77   17.51
   2 -22   1    8.22   22.14
   2  22  -1    3.08   13.60
   2 -22   1   -1.00   14.13
   2  22  -1   11.53   11.41
   2  22  -1   12.07   17.37
  -2 -22  -1   40.14   13.97
   2 -22   1   -5.40   20.18
   2 -22  -1   21.53   14.68
  -2  22  -1   -4.23   12.57
   2 -22  -1   46.81   23.36
  -2  22  -1    9.30   16.53
  -2 -22   1   11.51   14.63
   2  22   1   12.94   11.99
   2  22   1   12.74    9.83
  -2  22  -1    4.42   10.58
   2  22   1    8.78   10.08
  -2 -22   1  -16.59   34.20
   2 -22  -1   18.32   20.00
  -2 -22   1   -3.88   22.09
   2 -22  -1    6.91   16.41
  -2  22  -1    5.72   19.09
   2  22   1    4.70   12.63
   4 -22   1   -4.84   19.27
  -4  22   1    5.71   17.28
   4  22  -1   -0.70   11.71
  -4  22   1    7.42   13.29
  -4  22   1    4.32    9.35
  -4 -22  -1   33.64   18.97
   4 -22   1  -34.68   22.67
  -4 -22  -1  -14.87   20.52
   4 -22   1    1.90   18.75
  -4 -22  -1   20.10   37.09
   4 -22   1   -7.06   13.77
   4  22  -1   12.64   14.72
   4  22  -1   -1.37   22.08
  -4  22  -1   17.60   21.98
   4 -22  -1   -2.49   11.39
  -4 -22   1  -20.21   30.15
   4 -22  -1   17.98   16.15
   4  22   1  -13.10   17.02
  -4  22  -1  -24.56   12.37
  -4  22  -1   14.44   13.01
   4 -22  -1   10.56   14.82
  -4 -22   1  -38.59   47.95
  -4  22  -1   27.95   18.92
   4 -22  -1  -29.22   21.25
  -1 -23  -1  115.50   24.73
   1  23  -1  135.15   25.58
  -1 -23  -1   87.12   38.09
   1 -23   1  159.44   32.13
  -1  23   1  146.00   24.62
  -1  23   1  109.18   20.48
  -1 -23  -1  124.62   29.68
   1 -23   1  167.51   33.77
   1  23  -1  111.84   22.50
   1  23  -1   84.74   24.10
   1 -23   1  118.69   40.76
   1 -23  -1  185.92   30.53
   1  23   1   86.04   19.70
  -1  23  -1  103.81   22.13
  -1  23  -1   70.37   29.17
  -1 -23   1   77.16   28.50
  -1  23  -1  100.63   25.34
   1 -23  -1   88.57   27.31
   1 -23  -1  141.90   34.61
  -1 -23   1   96.88   41.65
   1  23   1   99.34   22.55
  -1 -23   1  113.18   29.09
  -1  23  -1   91.31   20.61
   3 -23   1   56.14   25.60
   3  23  -1   35.68   17.03
  -3 -23  -1   24.07   25.57
   3 -23   1   48.32   27.28
  -3 -23  -1   81.25   40.37
   3 -23   1   67.38   24.70
  -3 -23  -1   42.69   16.23
   3  23  -1   28.75   13.83
   3  23  -1   84.28   18.34
   3 -23   1   80.84   20.40
  -3  23   1   29.73   12.41
   3  23  -1   97.47   23.72
  -3  23   1   83.33   24.10
  -3  23   1   36.88   15.39
   3  23   1   67.91   19.61
   3 -23  -1   52.65   26.99
  -3  23  -1   49.32   21.86
  -3  23  -1   43.08   23.14
   3  23   1   46.76   14.61
   3  23   1   83.16   19.12
  -3  23  -1   42.46   16.39
  -3  23  -1   77.43   16.13
   3  23   1   46.66   16.11
   3 -23  -1   56.40   16.88
  -3 -23   1   87.02   36.28
   3 -23  -1   44.66   19.50
  -3 -23   1   41.84   50.19
   3 -23  -1   78.78   21.55
   0 -24   1   15.56   18.89
   0 -24   1   29.46   34.24
   0 -24  -1   40.50   20.06
   0  24  -1   -2.75   14.45
   0  24   1    2.80   13.18
   0 -24  -1   30.13   28.49
   0  24   1   -2.95    9.36
   0  24  -1    0.25   11.01
   0  24  -1  -10.17   10.88
   0 -24   1   24.53   21.75
   0 -24  -1    8.63   17.65
   0  24  -1   31.13   17.31
  -2  24   1  -11.40   12.45
   2 -24   1  -30.55   22.45
  -2  24   1  -11.15    8.73
   2  24  -1   -7.80   17.15
  -2 -24  -1   11.47   19.92
  -2 -24  -1   35.99   37.36
   2 -24   1   13.63   25.90
   2 -24   1   49.47   19.37
   2 -24   1    0.14   22.77
   2  24  -1    2.04   11.33
  -2 -24  -1   33.16   16.25
  -2 -24   1   30.59   26.16
   2 -24  -1   78.36   26.88
  -2  24  -1  -15.23   16.25
  -2  24  -1  -10.43   11.22
   2  24   1   21.30   10.87
   2  24   1  -15.64   14.44
  -2 -24   1   29.87   16.62
  -2  24  -1  -15.88   20.91
  -2 -24   1    2.93   45.81
   2 -24  -1   23.74   15.20
   2  24   1    8.36   11.70
   2 -24  -1    1.03   18.43
   2  24   1    1.36    9.43
   2 -24  -1    6.49   23.41
  -2  24  -1    0.59   11.28
   1  25  -1   15.67   12.03
  -1 -25  -1   40.99   16.67
   1  25  -1   18.92   13.13
  -1  25   1   12.06   10.53
  -1 -25  -1   -3.96   34.12
   1 -25   1   16.29   19.69
   1  25  -1   -7.32   15.50
   1 -25   1   -9.71   32.90
   1  25  -1   18.06   16.98
  -1  25   1   22.00   14.43
  -1 -25  -1   21.92   20.55
   1 -25   1   41.03   23.07
   1 -25  -1   23.96   16.67
   1  25   1   13.23   14.16
  -1 -25   1    6.97   22.68
   1 -25  -1   12.75   28.07
  -1  25  -1    1.22   11.69
  -1 -25   1   11.74   39.62
   1  25   1    8.20   10.38
  -1  25  -1   14.10   24.20
   1 -25  -1   32.29   21.11
  -1  25  -1   12.79   12.46
  -1  25  -1    5.13   17.97
  -1 -25   1   15.84   15.21
   0  26  -1    2.09   17.10
   0  26   1   -3.63    9.74
   0  26   1    0.29   13.92
   0 -26  -1   12.86   32.55
   0 -26   1   39.54   39.88
   0  26  -1    8.16   15.29
   0 -26  -1   12.17   18.95
   0  26  -1   10.68   12.58
   0 -26   1   37.16   24.09
   0  26  -1   10.37   12.74
   0 -26   1   24.09   21.33
   0 -26  -1   42.04   18.35
   0   0   2 3381.31  461.14
   0   0  -2 3303.74  461.09
  -2   0  -2 8461.48 1235.18
   2   0   2 8862.24 1235.06
   2   0  -2 9432.21 1235.58
  -2   0   2 9102.80 1235.23
  -4   0   2  378.22   62.38
  -4   0  -2  432.23   64.21
   4   0  -2  447.48   62.91
   4   0   2  402.96   63.52
   4   0   2  478.45   64.11
   4   0   2  403.48   62.45
   4   0  -2  480.75   64.32
   4   0  -2  452.84   65.47
  -4   0  -2  452.01   62.83
  -4   0  -2  467.80   64.32
  -4   0   2  439.10   63.67
   6   0  -2  365.13   56.27
  -6   0  -2  316.00   51.68
   6   0  -2  339.17   50.37
   6   0   2  355.36   53.53
   6   0   2  306.53   51.86
   6   0   2  308.31   49.60
   6   0  -2  310.11   52.66
  -8   0  -2   13.44   21.61
   8   0  -2  -20.46   28.23
   8   0   2    6.51   22.56
   8   0  -2   25.35   19.62
   8   0   2   58.14   26.76
   8   0  -2   33.26   21.99
   8   0  -2   29.88   30.53
   8   0   2   10.04   25.15
   8   0   2   19.17   27.93
   8   0  -2   40.66   28.38
   8   0   2   21.61   20.76
  -1  -1  -2  111.69   19.55
  -1  -1  -2  131.40   19.28
  -1   1   2  132.57   19.99
  -1   1   2  138.89   19.40
   1  -1   2  157.67   19.29
   1  -1   2  142.40   19.74
   1   1  -2  135.44   19.86
  -1  -1  -2  134.32   19.84
   1  -1   2  116.66   20.12
   1   1  -2  115.82   19.86
   1   1  -2  117.83   20.40
  -1  -1   2  113.26   19.94
   1   1   2  120.82   19.61
  -1  -1   2  151.03   19.32
   1   1   2  115.97   18.97
   1  -1  -2   99.83   19.83
  -1   1  -2  160.02   20.02
  -1   1  -2  164.63   19.59
  -1   1  -2  153.89   20.18
   1   1   2  117.67   19.45
  -1  -1   2  126.87   21.14
   1  -1  -2  119.74   19.32
  -1   1  -2  119.75   20.03
  -3   1   2  400.31   60.50
  -3   1   2  412.83   59.86
   3   1  -2  427.62   60.40
   3  -1   2  426.21   61.08
   3   1  -2  401.96   61.30
  -3  -1  -2  384.35   60.15
  -3  -1  -2  413.11   61.01
   3  -1   2  465.64   60.92
   3  -1   2  493.88   60.21
  -3  -1  -2  423.65   61.08
  -3   1  -2  515.35   60.64
   3   1   2  364.20   60.59
   3   1   2  467.89   61.11
  -3  -1   2  404.08   60.18
   3   1   2  355.63   59.84
   3  -1  -2  465.39   60.29
  -3  -1   2  435.80   61.15
  -3   1  -2  407.02   60.93
   3  -1  -2  419.60   61.07
  -5  -1  -2   21.61   13.54
   5  -1   2   23.27   15.02
   5   1  -2   20.14   13.55
   5  -1   2   29.36   12.89
   5   1  -2    0.30   18.02
   5  -1   2   15.67   14.29
   5   1  -2   23.27   15.68
   5   1   2   22.42   13.67
   5   1   2    4.26   13.31
   5  -1  -2   -6.43   15.55
  -5  -1   2   20.07   10.81
  -5   1  -2    3.68   12.15
   5  -1  -2   -1.69   13.00
  -5  -1   2   14.87   11.90
   5   1   2    7.60   10.88
  -5   1  -2   26.23   12.24
   5  -1  -2   14.72   12.44
  -5   1  -2   16.05   12.82
  -7  -1  -2   26.14   19.70
   7  -1   2   62.95   25.50
   7   1  -2   57.62   28.94
   7   1  -2   40.91   19.81
   7   1  -2   29.99   18.88
   7  -1   2   16.63   20.81
   7  -1   2   49.79   20.09
   7   1  -2   81.93   29.34
   7   1  -2  -13.23   23.67
   7  -1  -2    9.15   17.30
   7  -1  -2   86.35   26.54
   7  -1  -2   62.54   27.47
   7  -1  -2   12.73   23.62
   7   1   2   22.08   20.19
   7   1   2   17.25   19.89
   7   1   2   35.28   18.21
   7   1   2   73.56   23.32
  -7   1  -2   58.14   21.64
   7  -1  -2   51.01   20.52
   7   1   2   24.74   21.98
   0   2   2  136.45   17.68
   0  -2   2  123.08   18.50
   0  -2  -2  134.75   18.08
   0   2  -2  127.95   19.00
   0  -2   2  123.11   18.35
   0  -2   2  131.98   19.11
   0   2   2  117.13   17.96
   0  -2  -2  126.83   17.70
   0   2  -2  105.33   18.88
   0   2  -2  115.49   18.29
   0   2  -2  101.84   19.34
  -2  -2  -2 5006.31  704.59
  -2   2   2 4999.48  704.23
   2   2  -2 5516.88  705.35
   2  -2   2 4967.73  704.54
   2  -2  -2 5239.62  704.65
   2   2   2 4835.41  704.36
  -2  -2   2 5213.96  705.11
   4  -2   2  167.82   28.83
  -4  -2  -2  154.95   27.85
  -4  -2  -2  153.39   28.16
   4  -2   2  156.70   27.34
   4   2  -2  166.46   27.84
   4   2  -2  160.84   31.73
   4  -2   2  147.78   26.37
   4   2  -2  207.23   31.58
  -4  -2  -2  171.17   26.33
   4  -2  -2  167.25   27.72
   4   2   2  152.82   27.96
  -4   2  -2  126.40   27.37
   4  -2  -2  176.41   30.54
   4  -2  -2  163.50   27.08
   4   2   2  158.84   26.69
  -4  -2   2  191.91   31.19
   4   2   2  169.54   28.30
  -4   2  -2  182.14   27.62
  -4  -2   2  188.11   28.09
  -4   2  -2  156.61   28.13
   6  -2   2  223.62   36.40
   6  -2   2  202.15   31.86
   6  -2   2  282.10   36.78
   6   2  -2  186.25   34.31
   6   2  -2  204.67   39.75
  -6  -2  -2  152.84   32.40
   6   2  -2  163.67   31.05
   6  -2  -2  152.80   33.98
   6   2   2  234.60   35.83
   6   2   2  175.46   30.40
   6  -2  -2  214.00   36.50
   6  -2  -2  212.75   32.57
  -6   2  -2  150.54   30.77
   6   2   2   76.31   30.63
  -6   2  -2  187.59   33.66
   6   2   2  116.45   33.72
   6   2   2  156.56   32.63
   6  -2  -2  217.16   32.87
   6  -2  -2  164.21   35.80
  -6   2  -2  156.41   32.00
   8  -2   2   -0.69   18.17
   8  -2   2   31.22   24.14
   8   2  -2   25.05   20.98
   8  -2   2  -23.06   22.56
   8   2  -2   -0.28   23.32
  -8  -2  -2  -16.08   21.45
   8   2  -2    5.97   30.73
   8  -2   2    2.16   25.80
   8  -2   2    3.44   24.84
   8   2  -2    2.34   24.65
   8   2  -2   -5.35   32.72
   8  -2  -2    4.13   18.01
  -8   2  -2    7.76   21.03
  -8   2  -2   -7.60   17.54
   8   2   2   40.99   27.57
   8  -2  -2  -14.13   27.65
   8  -2  -2   43.07   30.85
   8   2   2   14.04   21.37
   8   2   2   -4.80   22.91
   8  -2  -2  -40.35   28.05
   8  -2  -2   28.41   22.28
   8   2   2   38.52   28.48
   8   2   2   -1.34   23.95
   1  -3   2  232.53   38.62
  -1   3   2  300.05   37.35
  -1   3   2  219.02   37.49
   1   3  -2  242.70   38.99
  -1  -3  -2  242.59   37.92
  -1  -3  -2  246.20   37.89
  -1  -3  -2  263.53   37.63
   1  -3   2  319.87   38.52
   1   3  -2  307.19   38.71
   1  -3   2  275.64   37.89
   1   3  -2  210.45   38.91
   1  -3   2  275.82   38.43
  -1   3  -2  323.37   38.80
   1  -3  -2  252.02   37.82
   1   3   2  246.94   37.70
  -1  -3   2  246.92   39.80
  -1  -3   2  307.92   39.04
   1  -3  -2  277.53   37.50
   1   3   2  256.17   37.47
  -1  -3   2  285.61   38.43
  -1   3  -2  314.06   38.18
  -1   3  -2  246.82   38.70
  -1   3  -2  288.73   38.73
   1   3   2  258.66   37.83
   3   3  -2  459.77   64.91
  -3  -3  -2  468.44   65.57
  -3   3   2  422.62   64.50
   3  -3   2  509.94   65.33
   3  -3   2  456.22   65.43
  -3  -3  -2  356.74   64.95
  -3   3   2  435.56   63.94
   3   3  -2  454.38   65.90
  -3  -3  -2  390.25   64.28
   3  -3   2  554.23   64.61
  -3  -3   2  459.47   65.05
   3  -3  -2  481.97   64.40
  -3   3  -2  541.58   65.83
  -3   3  -2  576.59   65.02
   3   3   2  486.44   65.30
   3   3   2  408.59   64.18
  -3  -3   2  460.60   66.10
  -3   3  -2  396.54   65.09
   3  -3  -2  463.21   65.12
   3   3   2  394.62   64.87
   5  -3   2   37.49   15.18
   5  -3   2   48.21   15.47
   5   3  -2   14.64   19.44
   5   3  -2   33.46   14.75
  -5  -3  -2   33.68   15.05
   5  -3   2   51.61   13.72
   5   3  -2   68.95   14.51
   5  -3  -2   47.21   13.13
   5  -3  -2   35.14   13.94
  -5   3  -2   37.84   17.82
   5  -3  -2   51.61   15.90
  -5  -3   2   58.98   15.58
   5   3   2   33.61   14.98
   5   3   2   46.57   13.75
  -5   3  -2   64.20   18.43
   5   3   2   40.26   16.55
   5  -3  -2   30.71   14.95
   5  -3  -2   15.96   16.68
  -5  -3   2   54.27   17.89
  -5   3  -2   69.65   16.61
  -5   3  -2   50.77   15.04
   7  -3   2   53.42   24.45
   7  -3   2   50.65   24.02
   7   3  -2   35.27   30.59
   7   3  -2   44.51   19.15
   7   3  -2   82.55   24.09
  -7  -3  -2   64.02   23.37
   7  -3   2   46.87   19.57
   7  -3  -2   -4.62   20.64
   7   3   2   59.71   20.53
   7  -3  -2   33.74   19.05
   7  -3  -2   44.74   24.94
   7   3   2   57.46   23.54
   7   3   2   42.71   27.68
   7   3   2   51.06   23.35
  -7   3  -2   55.44   23.06
   7  -3  -2   13.84   24.17
   7   3   2   76.85   27.98
   7  -3  -2   54.80   20.24
  -7   3  -2   29.70   16.58
   0   4  -2  924.63  142.83
   0   4   2 1029.55  141.55
   0  -4  -2 1117.70  141.60
   0   4  -2 1061.87  142.43
   0   4  -2 1077.22  143.10
   0  -4   2  947.42  142.92
   0  -4   2  994.68  142.37
  -2   4   2 1127.01  156.34
   2  -4   2 1162.92  157.52
  -2  -4  -2 1115.48  157.28
  -2   4   2 1103.54  156.61
   2  -4   2 1129.66  156.89
  -2  -4  -2 1104.25  157.21
   2  -4   2 1150.08  157.47
  -2  -4  -2 1126.60  156.75
   2  -4   2 1104.09  157.28
   2   4  -2 1157.72  158.29
   2   4  -2 1207.13  157.54
  -2  -4   2 1107.75  157.26
   2  -4  -2 1149.87  156.59
   2   4   2 1107.27  156.66
  -2  -4   2 1164.95  158.54
   2   4   2 1110.93  157.13
   2  -4  -2 1144.81  157.02
  -2  -4   2 1179.74  157.64
  -2   4  -2 1125.03  157.04
   2   4   2 1152.88  157.02
  -2   4  -2 1092.38  157.48
  -2   4  -2 1107.27  157.65
  -2   4  -2 1123.88  157.35
   4   4  -2    3.55   10.83
   4   4  -2    3.42   16.06
   4   4  -2   14.09   10.11
   4  -4   2   18.54   11.73
   4  -4   2   24.40   10.86
  -4  -4  -2   12.45   10.83
   4  -4   2   11.48    9.19
   4  -4  -2   -5.16   11.66
  -4   4  -2    3.79   10.59
  -4  -4   2   32.18   12.56
   4  -4  -2   20.07   11.18
  -4  -4   2   16.31   11.88
   4  -4  -2    0.08   10.06
  -4   4  -2   -0.11    9.38
   4   4   2    9.13   10.77
  -4   4  -2   15.40   10.51
   4   4   2   18.69    9.62
   4  -4  -2   13.76    9.62
   4   4   2   16.76   11.24
  -4   4  -2   41.36   11.36
   4  -4  -2   17.82   10.04
   6   4  -2   99.39   26.65
   6   4  -2  125.28   24.65
   6  -4   2  122.54   25.58
   6   4  -2  105.84   32.17
   6  -4   2  110.58   25.73
  -6  -4  -2   90.81   25.30
   6  -4   2  121.24   23.03
  -6   4  -2  117.83   28.47
  -6   4  -2  114.24   26.52
   6   4   2   69.10   25.86
   6  -4  -2  137.87   28.60
   6  -4  -2   68.60   21.66
   6   4   2  113.80   28.29
  -6  -4   2   61.25   22.01
   6   4   2  125.66   32.08
   6  -4  -2  124.10   27.31
  -6   4  -2  129.74   26.79
  -6   4  -2  198.97   28.66
   6  -4  -2  140.92   30.07
  -6  -4   2   93.63   25.48
   6   4   2  119.47   25.68
   6   4   2  116.33   23.99
   6  -4  -2  129.87   25.14
   8   4  -2   10.81   34.51
  -8   4   2  -11.14   20.60
   8   4  -2  -28.32   22.18
   8  -4   2   16.82   19.46
   8  -4   2   32.03   26.23
   8  -4   2   31.90   27.23
   8   4  -2    8.00   31.98
   8   4  -2   25.91   19.76
   8   4  -2    1.09   27.16
   8   4   2   -3.01   27.06
   8  -4  -2  -24.78   26.08
   8   4   2   14.07   29.03
  -8   4  -2   -2.49   23.44
   8  -4  -2   30.35   29.62
   8   4   2    4.16   24.89
   8  -4  -2   14.91   21.61
   8  -4  -2  -22.02   17.21
   8   4   2   -3.10   19.80
   8   4   2   30.01   22.13
   8  -4  -2   30.98   28.80
  -8   4  -2   38.24   21.96
   1  -5   2  129.81   19.76
   1  -5   2  150.57   21.16
  -1  -5  -2  121.81   19.46
   1   5  -2  115.60   21.39
   1  -5   2  130.42   20.59
   1   5  -2  152.19   20.70
   1   5  -2  131.13   22.81
  -1  -5  -2  118.07   19.44
   1  -5   2  111.27   21.17
  -1  -5   2  153.81   21.30
  -1   5  -2  120.24   20.90
   1   5   2  119.79   18.99
  -1  -5   2  168.21   26.00
  -1   5  -2  132.92   21.74
   1   5   2  121.54   18.95
   1   5   2  123.64   19.40
  -1   5  -2  134.13   21.27
  -1  -5   2  214.00   25.60
  -1   5  -2  149.03   20.17
   3  -5   2  378.56   59.53
  -3  -5  -2  416.46   59.99
  -3   5   2  413.32   57.99
   3   5  -2  407.58   60.33
   3   5  -2  396.75   59.38
   3  -5   2  449.46   60.09
   3  -5   2  388.74   58.72
  -3   5  -2  393.14   59.08
   3  -5  -2  437.09   58.55
  -3   5  -2  408.11   59.70
   3  -5  -2  461.60   58.76
  -3  -5   2  354.64   61.00
  -3   5  -2  409.38   60.24
   3   5   2  426.66   59.59
  -3  -5   2  420.02   59.95
   3   5   2  428.82   58.66
   3  -5  -2  422.00   58.07
  -3   5  -2  362.50   59.71
   3   5   2  450.20   59.59
   3  -5  -2  417.68   59.21
   5  -5   2   32.65   13.96
   5   5  -2  -11.20   20.06
  -5  -5  -2   23.67   15.52
   5  -5   2   39.11   12.03
   5   5  -2   12.94   12.84
   5  -5   2   52.55   16.65
   5   5  -2   27.43   17.27
  -5   5   2   22.75   10.83
   5   5   2   16.49   13.32
  -5   5  -2   23.93   14.70
   5   5   2   11.69   15.37
   5  -5  -2   14.62   14.45
   5   5   2   -3.61   11.52
   5   5   2   17.60   12.19
  -5   5  -2   13.50   13.60
  -5   5  -2   35.43   16.03
   5  -5  -2   10.32   12.01
   5  -5  -2   11.11   14.75
  -5  -5   2   24.07   14.01
  -5   5  -2   19.56   13.96
   5  -5  -2   24.97   13.93
  -5  -5   2   25.10   16.16
   5  -5  -2   20.37   13.87
   5   5   2    6.83   14.82
   7   5  -2   37.61   22.93
  -7   5   2   58.66   21.19
   7  -5   2   69.43   26.45
   7  -5   2   72.05   24.39
   7   5  -2   60.81   32.50
  -7  -5  -2   57.30   23.67
   7  -5   2   45.05   19.54
   7   5  -2   49.36   19.43
   7  -5  -2   47.02   22.73
  -7   5  -2   59.11   22.59
   7   5   2   18.19   23.23
   7  -5  -2   50.60   25.07
   7   5   2   95.86   28.34
   7   5   2   28.15   20.68
   7   5   2   69.40   23.73
   7  -5  -2   39.92   26.28
  -7   5  -2   50.57   21.51
  -7   5  -2   46.21   19.15
   7   5   2   30.27   19.69
   7  -5  -2   32.27   24.04
  -7   5  -2   43.69   19.06
   7  -5  -2   32.34   18.36
   0   6  -2  612.56   81.22
   0   6  -2  610.41   82.02
   0  -6   2  571.49   81.30
   0  -6   2  564.42   82.12
   0  -6   2  617.45   81.63
   0   6  -2  523.45   81.69
   0   6  -2  544.42   81.77
   2  -6   2  879.60  123.62
  -2  -6  -2  889.32  123.28
   2  -6   2  966.94  123.84
  -2   6   2  836.01  122.27
   2   6  -2  912.42  124.58
   2  -6   2  847.06  122.87
   2  -6   2  833.20  123.48
   2   6  -2  933.18  123.61
  -2  -6   2  831.25  125.01
   2  -6  -2  889.39  122.60
   2  -6  -2  877.96  122.24
   2  -6  -2  865.28  122.23
  -2  -6   2  897.31  124.04
  -2   6  -2  949.97  123.20
   2  -6  -2  882.55  122.21
   2   6   2  904.14  122.85
  -2   6  -2  854.41  123.64
   2   6   2  859.89  123.05
  -2   6  -2  872.26  123.58
  -2  -6   2  928.74  123.74
  -2   6  -2  921.88  123.87
   2   6   2  832.81  122.52
  -4   6   2   41.28    9.09
   4  -6   2   13.99   11.63
  -4  -6  -2   35.87   12.92
   4  -6   2   19.71   10.03
   4  -6   2   20.78   12.41
   4   6  -2   27.07   11.64
   4   6  -2   30.56   10.86
   4  -6  -2   37.81   10.10
   4   6   2   22.59   11.75
   4  -6  -2   20.16   12.29
  -4   6  -2   11.96   11.33
  -4  -6   2   38.72   15.07
  -4   6  -2   14.73   11.46
  -4   6  -2   21.53   11.91
   4  -6  -2   26.48   11.18
   4   6   2   18.31   11.52
  -4  -6   2   22.99   16.88
   4  -6  -2   44.08   12.09
   4   6   2    4.42   12.47
   4   6   2   37.76   11.92
   4  -6  -2   33.92   10.84
   4   6   2   37.62   10.47
  -4   6  -2    7.48   13.69
  -6  -6  -2  130.78   27.14
   6   6  -2   96.37   32.15
   6   6  -2   91.70   27.78
   6   6  -2  164.32   26.81
   6  -6   2  133.93   26.72
  -6   6   2  199.73   27.07
   6  -6   2  144.91   30.51
   6  -6   2  120.28   25.02
   6  -6  -2  120.97   26.96
  -6  -6   2  122.97   28.76
  -6  -6   2  108.26   25.58
   6   6   2  112.39   27.15
   6   6   2  115.68   26.71
   6   6   2   78.71   27.20
   6   6   2  112.66   23.31
   6  -6  -2  142.73   25.63
   6  -6  -2  116.27   24.42
   6  -6  -2  156.88   32.71
  -6   6  -2   64.93   23.16
  -6   6  -2  125.58   25.29
   6   6   2   80.43   25.24
   6  -6  -2  110.38   27.33
  -6   6  -2  153.57   28.02
  -6   6  -2   76.59   25.57
   8   6  -2  103.79   29.82
   8  -6   2    1.70   28.51
   8  -6   2  -13.74   23.35
   8   6  -2   -2.42   19.23
  -8   6   2    0.77   20.93
   8   6  -2   28.77   35.78
   8  -6   2    4.06   20.10
   8   6   2   -2.16   20.36
   8   6   2   -3.49   26.82
  -8   6  -2   13.26   24.32
   8  -6  -2   65.75   28.79
   8   6   2   38.14   23.79
  -8   6  -2   15.37   21.80
   8   6   2   22.62   26.28
   8  -6  -2   -5.34   17.24
   8  -6  -2   53.14   28.23
   8   6   2   37.48   32.50
   1  -7   2  299.99   43.72
   1  -7   2  301.11   44.99
   1   7  -2  335.65   45.58
   1  -7   2  259.83   44.26
   1   7  -2  333.55   44.36
   1   7  -2  325.26   46.56
   1  -7   2  262.68   44.53
  -1  -7  -2  303.06   43.18
  -1   7  -2  285.06   44.60
   1   7   2  293.22   42.49
   1   7   2  365.63   43.37
  -1  -7   2  280.96   44.80
  -1  -7   2  279.71   45.09
  -1   7  -2  299.51   44.74
  -1   7  -2  253.26   45.06
   1  -7  -2  338.03   44.15
  -1   7  -2  302.59   43.81
  -1  -7   2  273.34   46.98
   1   7   2  323.39   43.44
   1   7   2  345.31   43.01
  -3  -7  -2  665.84   95.05
   3  -7   2  604.29   94.96
  -3   7   2  699.55   93.41
   3   7  -2  705.64   95.93
   3  -7   2  721.86   95.22
   3  -7   2  628.70   93.96
   3  -7   2  636.67   94.83
   3   7  -2  738.37   94.91
   3   7   2  657.67   94.39
  -3  -7   2  665.14   95.49
  -3  -7   2  666.68   97.16
   3  -7  -2  717.22   93.66
  -3   7  -2  661.79   94.29
   3  -7  -2  669.87   94.09
   3   7   2  721.10   94.78
   3   7   2  683.48   93.84
   3   7   2  736.41   94.28
   3  -7  -2  636.81   94.00
  -3   7  -2  642.26   94.87
   3  -7  -2  677.60   93.19
  -3   7  -2  625.27   94.97
   3  -7  -2  698.84   93.51
   3   7   2  665.50   94.96
  -3   7  -2  562.91   94.88
   5   7  -2   36.09   14.14
   5  -7   2   70.70   17.84
   5   7  -2   33.45   23.69
   5  -7   2   45.02   16.10
   5   7  -2   29.33   15.54
  -5  -7  -2   43.25   16.76
   5  -7   2   28.50   13.24
  -5   7   2   55.86   13.21
   5   7   2   56.85   17.74
   5  -7  -2   31.33   15.71
  -5   7  -2   62.30   19.96
   5  -7  -2   51.93   17.57
  -5   7  -2   74.93   17.65
   5   7   2   59.57   16.48
   5   7   2   60.13   20.33
  -5   7  -2   29.66   15.75
   5   7   2   47.96   15.12
   5  -7  -2   51.70   14.56
  -5  -7   2   56.13   19.12
  -5  -7   2   22.96   16.03
  -5   7  -2   26.75   15.83
   5  -7  -2   34.22   14.48
   5  -7  -2   49.81   17.07
   5   7   2   53.72   17.00
   7   7  -2   -3.27   29.59
   7  -7   2   56.55   23.14
   7   7  -2   42.62   18.92
   7   7  -2   59.49   24.57
   7  -7   2   50.71   18.90
   7  -7   2   96.33   25.96
  -7  -7  -2   16.46   25.24
  -7   7   2   57.52   20.09
   7   7   2   62.63   21.89
   7   7   2   11.47   17.83
   7   7   2  101.96   28.28
   7  -7  -2   50.14   19.91
   7  -7  -2   29.14   21.46
   7  -7  -2   38.26   18.78
  -7   7  -2   39.03   23.92
  -7  -7   2   68.56   30.79
  -7   7  -2   31.15   18.82
  -7   7  -2   57.39   20.46
   7   7   2   44.59   23.57
  -7   7  -2   23.88   19.49
   7  -7  -2   87.23   27.25
  -7  -7   2   21.91   18.90
   7   7   2   11.92   20.04
   7  -7  -2   43.68   23.14
   0  -8   2  101.20   20.27
   0   8  -2  146.76   23.22
   0   8  -2  128.54   20.40
   0   8  -2  110.72   21.04
   0  -8   2  105.85   21.84
   0   8  -2  140.61   22.05
   0  -8   2   96.52   19.11
   2   8  -2 2417.42  321.01
   2  -8   2 2322.05  321.12
  -2  -8  -2 2382.27  320.66
   2   8  -2 2265.09  321.82
   2   8   2 2288.63  320.60
  -2   8  -2 2303.39  320.93
  -2  -8   2 2274.12  321.56
  -2   8  -2 2406.58  320.59
  -2   8  -2 2278.14  321.26
  -2  -8   2 2458.61  323.17
   2   8   2 2125.02  320.29
   4  -8   2  123.83   24.24
   4   8  -2  192.68   31.46
  -4   8   2  138.68   23.72
   4   8  -2  157.86   27.24
   4  -8   2  137.86   26.86
   4  -8   2  133.35   26.77
  -4  -8  -2  156.87   27.46
   4  -8  -2  152.86   26.02
   4   8   2  191.20   27.53
   4  -8  -2  137.95   22.89
  -4   8  -2  147.19   26.28
   4   8   2  177.16   28.56
   4  -8  -2  152.15   23.68
  -4   8  -2  137.75   26.01
  -4  -8   2  127.80   29.98
  -4   8  -2  128.39   26.01
   4  -8  -2  150.77   24.09
   4   8   2  168.69   25.74
  -4  -8   2  132.87   28.63
   4  -8  -2  161.10   25.63
   4   8   2  161.73   28.83
  -4   8  -2  133.60   28.80
   4   8   2  118.54   24.69
   6  -8   2  162.91   30.22
   6   8  -2   88.04   28.69
   6   8  -2  159.23   28.16
   6   8  -2  128.22   37.14
  -6   8   2  131.97   23.22
   6  -8   2  100.99   23.80
   6  -8   2  142.53   29.02
  -6  -8  -2  158.46   30.08
   6  -8  -2  103.92   25.99
   6   8   2   95.36   25.29
   6  -8  -2  136.83   24.19
  -6   8  -2   83.71   27.23
  -6   8  -2  124.95   26.10
   6  -8  -2  180.29   31.03
   6   8   2  111.68   24.54
   6   8   2  115.06   28.98
   6   8   2  135.91   27.85
  -6   8  -2  108.78   25.13
   6   8   2   66.65   26.02
   6  -8  -2   85.50   26.26
   6  -8  -2  124.21   25.24
  -6   8  -2  120.18   26.83
  -6  -8   2  111.69   37.61
  -6  -8   2  148.28   29.30
   1  -9   2  160.21   29.01
   1  -9   2  158.90   26.62
   1   9  -2  205.35   27.37
   1   9  -2  181.50   28.80
  -1  -9  -2  178.58   26.08
   1  -9   2  166.74   27.92
   1   9  -2  167.18   31.55
   1  -9   2  161.62   28.73
  -1  -9   2  241.07   31.39
  -1  -9   2  205.24   33.45
   1   9   2  178.79   25.53
  -1   9  -2  158.03   29.53
  -1  -9   2  143.58   28.49
  -1   9  -2  190.64   28.38
  -1   9  -2  192.24   28.36
   1   9   2  176.46   26.20
  -1   9  -2  185.38   27.08
   1  -9  -2  167.93   28.23
   3  -9   2  503.40   72.08
  -3   9   2  496.01   71.57
   3   9  -2  471.98   73.98
   3  -9   2  436.82   73.57
   3   9  -2  529.34   72.91
   3  -9   2  551.54   73.64
  -3  -9  -2  476.80   73.01
   3  -9   2  457.13   72.95
  -3  -9   2  495.09   73.29
   3  -9  -2  540.67   71.31
   3   9   2  518.53   72.73
  -3   9  -2  482.93   72.94
  -3   9  -2  459.01   73.43
   3  -9  -2  549.40   70.92
  -3   9  -2  483.96   72.28
   3  -9  -2  506.04   71.87
  -3  -9   2  455.90   76.46
   3  -9  -2  568.03   71.94
   3   9   2  550.13   71.86
   3  -9  -2  517.80   71.41
   3  -9  -2  479.55   71.60
   3   9   2  538.86   72.53
  -3   9  -2  573.72   75.46
  -3  -9   2  495.72   74.24
   5  -9   2   22.32   15.13
   5   9  -2   12.49   22.93
   5  -9   2    7.82   12.34
  -5   9   2   34.73   11.50
  -5  -9  -2   37.72   16.70
   5   9  -2   33.24   15.69
   5   9  -2   10.77   15.24
   5  -9   2   29.74   16.29
  -5   9  -2    7.36   14.17
  -5   9  -2   30.66   16.07
  -5  -9   2   10.26   17.46
   5   9   2   33.52   13.56
  -5   9  -2   15.35   15.78
   5   9   2   14.92   14.23
  -5  -9   2   33.05   21.69
   5  -9  -2   18.78   11.77
   5   9   2   26.41   16.76
  -5   9  -2   18.35   14.11
   5  -9  -2   60.23   15.41
   5  -9  -2   30.95   14.73
   5  -9  -2   17.53   11.30
   5  -9  -2   26.43   14.44
   5   9   2   24.25   17.01
   5   9   2   34.84   17.21
   7   9  -2   68.99   25.68
   7  -9   2   39.62   22.77
   7   9  -2  -16.61   31.57
  -7   9   2   42.24   18.87
   7  -9   2   48.15   22.45
   7   9  -2   30.57   18.14
   7  -9   2    7.22   15.35
   7   9   2   17.27   22.83
   7  -9  -2   35.29   23.67
  -7   9  -2   18.80   24.94
   7  -9  -2   15.83   22.09
   7   9   2   25.77   18.07
   7  -9  -2   36.92   19.37
  -7   9  -2   22.32   18.82
  -7  -9   2    6.05   16.66
  -7  -9   2   26.64   26.94
  -7   9  -2   15.09   20.07
   7   9   2   24.55   20.38
  -7   9  -2   18.68   18.35
   7  -9  -2   -3.90   20.26
   7   9   2    6.65   16.81
   7   9   2   37.42   23.12
   7  -9  -2   25.01   15.23
   0 -10  -2 1148.23  167.85
   0 -10   2 1126.25  168.22
   0  10  -2 1210.26  168.75
   0 -10   2 1199.35  169.78
   0  10  -2 1279.27  167.89
   0  10  -2 1266.17  168.49
   2 -10   2 2889.61  396.76
   2 -10   2 2729.96  397.48
   2  10  -2 2828.78  398.16
   2  10  -2 2971.27  397.26
  -2 -10  -2 2982.46  396.93
   2  10   2 2999.95  396.91
  -2  10  -2 3123.86  396.98
  -2  10  -2 3044.92  397.84
  -2 -10   2 2487.12  397.83
  -2 -10   2 2575.10  399.33
   4  10  -2  245.11   42.79
  -4  10   2  269.19   39.62
  -4 -10  -2  270.44   42.21
   4 -10   2  246.20   41.36
   4 -10   2  220.02   42.21
   4 -10   2  242.17   39.70
   4 -10   2  304.47   42.85
   4  10  -2  246.28   40.77
   4  10  -2  320.15   47.63
   4 -10  -2  249.19   39.09
  -4 -10   2  296.12   45.87
  -4  10  -2  226.59   40.14
  -4 -10   2  307.36   50.28
   4  10   2  281.19   41.58
   4  10   2  256.10   39.86
   4  10   2  270.50   41.55
   4  10   2  326.64   42.39
   4 -10  -2  286.79   40.22
  -4  10  -2  272.54   41.39
   4 -10  -2  255.85   39.25
  -4  10  -2  266.58   42.68
   4 -10  -2  274.19   40.37
  -4  10  -2  239.56   42.25
   4  10   2  225.18   39.42
   4 -10  -2  273.29   38.25
   6  10  -2  163.33   30.57
   6  10  -2  132.33   40.14
   6 -10   2  143.30   29.61
  -6 -10  -2  184.43   33.32
   6  10  -2  160.95   34.30
   6 -10   2  108.98   25.50
   6 -10   2  133.44   30.32
  -6  10   2  173.11   26.42
  -6  10  -2  101.69   27.17
  -6 -10   2  138.01   32.77
  -6  10  -2  129.40   27.96
   6 -10  -2  124.67   24.72
  -6  10  -2  132.48   31.07
  -6  10  -2  115.35   27.96
   6  10   2  160.09   33.19
   6 -10  -2  146.12   30.28
   6 -10  -2  106.45   25.66
   6 -10  -2  165.79   29.29
   6  10   2  127.36   27.67
  -6 -10   2  141.35   42.20
   6 -10  -2  159.07   29.46
   6  10   2  103.53   27.70
   6  10   2  122.11   32.18
   6  10   2  193.34   31.70
   1 -11   2  154.45   23.88
   1  11  -2   69.99   18.07
   1 -11   2   87.17   19.87
   1 -11   2  106.08   22.74
  -1 -11  -2  114.32   18.36
   1  11  -2  166.63   27.44
   1  11  -2  111.38   18.48
   1 -11   2  121.27   19.77
   1  11  -2  108.92   20.90
  -1  11  -2  106.42   20.16
  -1 -11   2   86.65   19.50
   1  11   2  107.99   18.18
  -1 -11   2  135.57   23.86
  -1  11  -2  131.43   19.90
   1 -11  -2   98.97   20.51
   1  11   2   98.77   16.85
  -1  11  -2   89.75   20.46
  -1  11  -2  158.62   23.74
  -1 -11   2  129.15   27.13
   3 -11   2   93.17   19.33
  -3 -11  -2  106.45   20.11
  -3  11   2  110.53   18.31
   3 -11   2   85.13   17.55
   3  11  -2  102.19   24.40
   3 -11   2  118.16   21.98
   3 -11   2   93.28   20.51
   3  11  -2  116.45   21.65
  -3 -11   2  133.18   26.54
   3 -11  -2   94.85   17.01
  -3 -11   2   92.75   18.84
  -3  11  -2   90.74   20.08
  -3  11  -2   84.55   19.94
   3 -11  -2   97.16   15.94
  -3  11  -2   81.90   18.29
   3  11   2  127.56   19.86
  -3  11  -2  144.12   23.85
   3 -11  -2  102.92   18.83
  -3 -11   2  156.47   33.01
   3 -11  -2  105.83   17.62
   5 -11   2   11.04   11.14
   5  11  -2   11.12   13.63
   5 -11   2   31.71   15.24
   5  11  -2  -24.14   22.86
   5  11  -2   -0.72   15.15
  -5 -11  -2   11.05   16.76
   5 -11   2    7.83   15.52
  -5  11   2    5.67   11.65
  -5 -11   2   -6.53   18.34
   5  11   2   -7.43   12.55
   5 -11  -2    6.37    9.27
   5 -11  -2   -3.68   12.74
  -5  11  -2    8.39   13.48
   5 -11  -2    1.01   13.33
  -5  11  -2   -3.46   14.89
   5 -11  -2    7.68   12.55
  -5 -11   2   -5.51   20.58
   5 -11  -2    8.69   12.56
   5  11   2   21.86   16.21
  -5  11  -2    0.30   13.35
  -5  11  -2   -4.63   16.54
   5  11   2    0.12   15.27
   5  11   2    0.11   17.32
   5  11   2    4.13   12.28
   7  11  -2   33.53   20.15
   7  11  -2  -27.98   32.97
   7 -11   2   24.14   21.89
  -7  11   2   28.26   18.31
   7 -11   2   -0.13   15.71
   7 -11   2    6.44   23.82
   7  11  -2   26.93   25.10
   7 -11  -2   13.92   14.63
   7  11   2   -4.86   21.40
   7 -11  -2   16.46   20.20
   7  11   2   32.84   17.73
  -7  11  -2   10.59   25.14
  -7  11  -2   10.77   19.12
  -7 -11   2   35.35   23.07
  -7  11  -2   32.40   20.21
   7  11   2   -9.82   24.33
   7  11   2   -4.45   18.20
  -7  11  -2   11.24   17.70
  -7 -11   2   -2.18   32.89
   7 -11  -2   10.84   21.76
   7  11   2   20.01   22.61
   0 -12  -2  563.42   85.08
   0  12   2  637.96   84.55
   0  12   2  606.08   84.94
   0  12  -2  642.13   86.18
   0  12  -2  598.75   88.81
   0 -12   2  565.44   87.03
   0 -12   2  647.78   87.99
   0 -12   2  607.20   89.04
   0  12  -2  640.95   86.90
   0  12  -2  700.21   87.68
   0 -12  -2  582.18   84.64
   0 -12  -2  582.88   84.60
   0 -12  -2  569.14   86.65
  -2 -12  -2 1579.23  225.10
   2 -12   2 1614.20  226.06
   2  12  -2 1526.42  225.22
   2  12  -2 1530.54  226.32
   2 -12   2 1772.40  226.76
   2 -12   2 1801.50  226.39
   2 -12   2 1574.32  225.02
  -2  12  -2 1742.13  226.38
  -2  12  -2 1804.43  226.56
   2 -12  -2 1622.44  223.56
   2  12   2 1675.56  224.14
   2  12   2 1532.78  224.26
  -2 -12   2 1401.46  226.58
   2  12   2 1629.51  225.03
  -2 -12   2 1655.56  226.39
  -2 -12   2 1453.97  228.60
  -2  12  -2 1590.63  225.31
   2 -12  -2 1402.26  225.39
  -2  12  -2 1824.66  225.34
  -4 -12  -2  194.72   34.38
   4  12  -2  275.79   41.59
  -4  12   2  200.07   31.56
   4 -12   2  182.08   35.28
   4  12  -2  216.98   33.98
   4 -12   2  144.92   31.19
   4  12  -2  157.74   34.76
   4 -12   2  235.16   35.67
   4 -12   2  148.73   33.56
   4  12   2  230.34   34.11
  -4  12  -2  148.63   33.77
   4  12   2  174.25   30.95
   4 -12  -2  194.78   30.25
  -4  12  -2  193.59   36.07
   4  12   2  189.36   31.09
  -4  12  -2  199.51   32.89
   4 -12  -2  225.49   31.52
   4  12   2  212.31   33.46
  -4 -12   2  219.48   39.48
  -4 -12   2  268.49   45.63
  -4  12  -2  165.25   31.94
   4  12   2  204.46   33.37
   4 -12  -2  203.94   29.02
   6 -12   2  104.25   25.41
   6  12  -2   97.81   23.48
   6 -12   2   51.39   18.35
   6  12  -2   98.85   35.26
  -6  12   2  138.59   21.42
   6 -12   2   48.07   21.66
  -6 -12  -2   94.27   26.36
   6  12  -2  108.39   29.38
   6  12   2   77.74   25.54
   6 -12  -2   93.87   25.08
   6 -12  -2   65.61   17.38
   6  12   2   95.10   24.79
   6  12   2   62.77   20.16
   6 -12  -2   70.38   20.78
   6  12   2   65.37   20.91
  -6  12  -2   92.39   24.61
  -6  12  -2   55.60   20.69
  -6 -12   2   75.05   27.88
   6 -12  -2   83.08   22.50
  -6  12  -2   73.03   27.28
  -6 -12   2   79.21   32.69
   6  12   2   69.57   24.44
  -6  12  -2   57.74   20.49
   6 -12  -2   77.46   21.07
   1  13  -2   83.19   24.10
  -1 -13  -2  153.57   24.64
   1  13  -2  134.62   25.42
   1  13  -2  195.00   32.90
   1 -13   2  165.43   25.41
   1  13  -2  128.96   24.26
   1 -13   2  145.82   28.95
   1 -13   2  187.32   29.85
  -1 -13  -2  132.54   23.35
  -1 -13  -2  163.95   23.15
   1 -13   2  110.70   24.96
  -1 -13   2  173.42   36.42
  -1 -13   2  125.31   26.28
  -1  13  -2  200.33   29.44
  -1 -13   2  201.05   32.55
   1 -13  -2  136.55   25.94
   1 -13  -2  150.85   20.99
  -1  13  -2  212.67   27.18
   1  13   2  107.38   22.69
  -1  13  -2  149.26   25.24
  -1  13  -2  181.55   29.08
   1  13   2  136.71   22.00
   3 -13   2   44.46   14.96
   3 -13   2   31.78   11.74
  -3 -13  -2   37.51   14.48
   3  13  -2   20.90   15.11
  -3  13   2   19.70   11.18
   3 -13   2   29.49   15.10
   3  13  -2   67.84   15.26
   3 -13   2   19.96   14.04
  -3 -13   2   19.12   20.15
  -3 -13   2   33.59   14.04
   3  13   2   27.12   11.88
   3 -13  -2   27.15    7.64
   3 -13  -2   29.20    8.49
  -3 -13   2   22.30   25.27
   3  13   2   45.32   11.22
   3 -13  -2   31.38    9.25
   3 -13  -2   12.25   12.17
  -3  13  -2   30.34   15.49
   3  13   2   33.88   11.53
  -3  13  -2   41.07   15.45
  -3  13  -2   15.88   12.11
  -3  13  -2   45.93   13.70
  -5 -13  -2   15.51   18.13
  -5  13   2   15.51   12.44
   5  13  -2   41.70   26.07
   5  13  -2   26.96   17.31
   5 -13   2    2.71   11.49
   5 -13   2   15.71   15.29
   5  13  -2   27.56   14.28
   5 -13   2   17.48   17.72
  -5  13  -2    6.89   14.10
   5 -13  -2    2.88    9.28
  -5  13  -2    8.21   15.24
   5  13   2    0.02   16.95
   5  13   2    2.40   12.86
   5 -13  -2   16.31   12.14
  -5  13  -2    1.43   11.59
  -5  13  -2   37.50   19.35
   5  13   2    3.82   12.36
   5  13   2   12.80   16.28
   5  13   2   14.31   15.84
   5 -13  -2   16.14   13.38
  -5 -13   2   33.03   32.91
   5 -13  -2   26.36   12.66
  -5 -13   2  -17.65   22.84
   5 -13  -2   38.71   15.75
   7  13  -2    5.69   25.55
   7 -13   2   12.45   21.50
   7 -13   2    2.46   14.43
   7 -13   2    0.54   22.34
   7  13  -2    2.95   34.25
  -7 -13  -2   24.55   23.71
   7  13  -2   16.45   19.24
  -7  13   2   35.62   18.91
   7  13   2    6.13   18.75
  -7  13  -2   -1.80   18.01
   7  13   2   -0.60   20.34
  -7  13  -2  -21.03   23.53
   7 -13  -2   10.38   13.47
   7  13   2   13.64   22.35
   7 -13  -2    1.95   19.21
  -7  13  -2    5.41   19.87
  -7 -13   2   42.30   27.57
   7 -13  -2   -3.93   19.73
   7  13   2   22.61   16.70
  -7  13  -2    4.81   17.51
  -7 -13   2  -67.74   33.29
   7  13   2    2.62   23.74
   0 -14  -2   18.99    8.56
   0 -14  -2   21.29    9.86
   0 -14  -2   25.36    9.29
   0  14  -2    3.78   13.64
   0  14  -2    5.72   11.08
   0  14   2   34.77    7.50
   0 -14   2   27.55   15.79
   0  14  -2   26.91   10.62
   0 -14   2   11.22   12.95
   0 -14   2   19.22   13.99
   0  14   2   29.85    9.52
   0 -14  -2   22.67   11.27
   0  14  -2   13.87    9.81
   2 -14   2  243.85   41.21
  -2 -14  -2  242.94   36.95
  -2  14   2  261.48   38.54
   2 -14   2  270.92   40.23
   2 -14   2  230.50   38.48
  -2 -14  -2  252.37   39.01
   2  14  -2  186.89   36.32
   2 -14   2  238.15   36.89
  -2 -14  -2  223.82   37.16
   2  14  -2  217.67   38.62
   2 -14  -2  248.73   34.69
   2  14   2  255.37   36.89
  -2 -14   2  205.38   41.50
   2  14   2  238.79   35.51
  -2 -14   2  184.88   45.57
  -2  14  -2  275.93   37.92
  -2  14  -2  253.19   37.29
  -2 -14   2  224.17   39.31
  -2  14  -2  270.26   39.60
   2 -14  -2  204.17   39.90
   2  14   2  247.74   35.25
  -2  14  -2  261.53   41.59
  -4  14   2   38.24   13.12
   4 -14   2   28.57   11.76
   4  14  -2   26.47   14.83
   4 -14   2   17.97   13.90
   4 -14   2   27.74   15.52
   4  14  -2   10.78   22.49
   4 -14   2   23.26   15.91
  -4 -14  -2   76.46   18.80
   4  14  -2   26.96   17.74
  -4  14  -2   25.21   17.21
  -4 -14   2   30.40   21.90
   4  14   2   13.14   13.92
  -4 -14   2   55.24   30.52
   4 -14  -2   54.51   14.41
   4  14   2   16.60   13.96
   4 -14  -2   34.19    8.63
  -4  14  -2   17.17   14.35
  -4  14  -2   19.97   13.47
  -4  14  -2   14.36   11.84
   4  14   2   27.58   12.29
  -4 -14   2   21.35   12.50
   4 -14  -2   30.19   10.93
   4 -14  -2   48.02   12.04
   6 -14   2   -1.59   19.05
   6  14  -2   70.58   32.04
   6 -14   2   22.23   13.95
  -6 -14  -2   20.44   21.24
  -6  14   2   37.45   16.30
   6  14  -2   24.60   18.44
   6 -14   2   19.72   20.92
   6  14  -2   48.01   23.89
   6  14   2   26.35   16.71
   6  14   2   30.68   20.32
   6  14   2   47.94   20.63
  -6 -14   2   35.03   39.95
   6 -14  -2   51.50   17.51
   6 -14  -2   25.67   12.32
  -6  14  -2   36.35   24.17
   6  14   2   34.84   21.88
   6  14   2   21.48   15.02
  -6  14  -2   17.46   17.10
  -6  14  -2   17.94   20.80
   6 -14  -2   27.60   17.61
  -6 -14   2   22.01   26.62
  -6  14  -2   18.20   16.88
  -1 -15  -2   56.19   14.99
   1 -15   2   62.53   18.27
   1 -15   2  143.41   23.62
   1 -15   2   83.65   17.01
   1 -15   2   52.74   21.34
  -1 -15  -2   69.77   17.93
   1  15  -2   65.05   18.64
   1  15  -2   83.09   23.91
   1  15  -2   60.57   15.97
   1  15  -2   58.20   15.59
  -1 -15  -2   63.22   16.78
  -1 -15  -2   79.03   16.29
   1 -15  -2   65.18   12.68
  -1  15  -2   58.81   15.81
  -1 -15   2  106.72   20.75
  -1 -15   2   66.04   25.19
  -1  15  -2   84.38   21.28
  -1  15  -2   59.56   14.58
  -1  15  -2   41.98   15.92
   1 -15  -2   56.73   17.13
  -1 -15   2   58.59   19.97
   1  15   2   71.59   14.61
   1  15   2   78.95   13.63
  -3  15   2   77.61   16.75
   3 -15   2   51.93   19.78
   3  15  -2   60.24   17.48
   3  15  -2   51.73   18.74
   3 -15   2   54.51   17.04
   3 -15   2   47.95   18.71
  -3 -15  -2   85.54   19.49
   3 -15   2   39.38   14.73
  -3  15   2  100.64   14.80
   3  15   2  118.79   19.18
  -3  15  -2   88.75   20.20
  -3 -15   2  181.99   43.19
  -3  15  -2   56.04   19.13
  -3 -15   2   56.48   17.61
  -3 -15   2  102.29   29.18
  -3  15  -2   67.99   16.98
   3 -15  -2   46.00   18.27
   3  15   2   71.43   15.10
   3 -15  -2   79.96   14.14
  -3  15  -2   36.54   16.23
   3  15   2   81.68   16.06
   5 -15   2  -14.52   15.28
  -5  15   2   13.77   13.23
  -5 -15  -2   44.29   20.22
   5 -15   2   44.67   20.54
   5 -15   2   12.13   17.17
   5 -15   2   21.99   14.14
   5  15  -2   48.11   28.56
   5  15  -2   37.75   14.51
   5  15  -2    3.73   17.12
   5 -15  -2   14.35    9.45
   5  15   2   12.25   16.85
   5 -15  -2    6.28   12.73
  -5  15  -2   32.91   20.23
  -5  15  -2    5.92   16.56
   5  15   2   11.18   12.75
  -5  15  -2    2.48   14.70
   5  15   2   -5.64   13.55
  -5 -15   2    3.75   34.10
  -5 -15   2   34.90   27.21
   5  15   2   15.85   17.07
   5  15   2    5.48   19.28
   5 -15  -2   22.28   13.86
  -5  15  -2   18.00   13.38
   0 -16  -2   43.19   14.29
   0 -16   2   46.46   19.24
   0 -16   2   19.65   14.08
   0  16  -2   17.88   16.05
   0  16  -2   25.62   13.60
   0  16  -2   25.27   12.51
   0  16   2   38.99    9.84
   0 -16  -2   41.37   14.60
   0  16  -2   25.41   11.22
   0 -16   2   34.28   21.45
   0 -16  -2   25.55   11.88
   0  16   2   48.25    9.60
   2 -16   2  118.33   26.31
   2  16  -2   94.51   24.04
  -2  16   2  112.65   22.15
  -2 -16  -2  116.62   26.15
   2 -16   2  100.94   20.49
   2  16  -2  102.52   21.62
   2 -16   2   57.91   20.41
   2  16  -2  134.04   22.76
  -2 -16  -2  120.78   22.20
  -2 -16  -2  123.57   21.93
   2 -16   2   93.38   24.66
  -2  16  -2   89.74   23.38
  -2  16  -2   76.79   19.55
  -2  16  -2  101.60   22.57
  -2 -16   2   58.51   20.27
   2 -16  -2  112.91   17.72
  -2 -16   2  105.56   33.52
   2  16   2  141.66   22.27
   2  16   2  136.24   17.66
   2  16   2  114.72   18.83
  -2  16  -2  125.35   21.59
   2 -16  -2   46.78   21.77
   2  16   2   91.41   17.32
  -2 -16   2  106.58   29.81
  -4  16   2   34.76   13.60
   4  16  -2   16.81   18.05
  -4 -16  -2   54.33   19.06
   4 -16   2   45.06   18.08
   4 -16   2    1.52   16.70
   4 -16   2   26.85   18.08
   4  16  -2   41.52   24.88
   4  16  -2   14.14   14.89
   4 -16   2   28.59   13.96
  -4  16  -2   20.44   16.77
  -4 -16   2   23.76   24.07
  -4  16  -2   15.77   12.75
   4 -16  -2   30.14   15.13
   4  16   2   32.68   15.11
   4 -16  -2   24.29   10.60
   4 -16  -2   29.63    8.97
  -4 -16   2   33.22   16.97
   4 -16  -2   34.86   12.26
  -4  16  -2   10.55   13.69
  -4  16  -2   46.09   20.08
  -4 -16   2   12.86   35.80
  -6  16   2   17.61   15.83
   6 -16   2   24.67   21.14
   6  16  -2   97.39   27.14
   6 -16   2    2.70   19.47
   6  16  -2   -1.55   31.02
   6 -16   2   18.51   13.33
  -6 -16  -2   35.57   22.50
   6  16  -2   48.65   18.38
  -6  16  -2   30.45   21.84
   6 -16  -2   10.66   11.11
   6  16   2    8.28   20.51
   6 -16  -2    2.27   15.64
   6 -16  -2    5.88   15.90
  -6 -16   2   -4.41   43.99
   6  16   2   -6.95   25.29
  -6  16  -2    7.63   14.67
   6  16   2    2.44   17.86
  -6 -16   2   -8.64   28.12
   6  16   2   29.46   14.61
   6  16   2   22.70   18.59
  -6  16  -2    0.92   16.14
  -6  16  -2  -10.31   19.21
  -1  17   2  183.38   29.51
   1  17  -2  176.99   32.23
   1 -17   2  177.25   38.07
   1  17  -2  261.89   35.22
  -1 -17  -2  270.12   38.36
   1 -17   2  183.38   34.78
   1 -17   2  157.72   34.41
  -1 -17  -2  292.38   35.38
  -1 -17  -2  194.50   33.98
   1 -17   2  279.85   42.67
   1  17  -2  208.11   32.42
  -1  17  -2  129.76   32.66
  -1 -17   2  300.97   43.85
  -1 -17   2  202.38   44.05
  -1  17  -2  176.33   32.48
  -1  17  -2  177.83   32.11
   1 -17  -2  173.31   30.82
  -1  17  -2  267.48   41.29
   1 -17  -2  227.01   36.91
   1  17   2  187.25   29.64
  -1 -17   2  192.22   38.56
   1  17   2  199.79   30.92
   3 -17   2  183.43   31.69
  -3 -17  -2  199.48   31.40
   3  17  -2  149.10   32.22
   3 -17   2  131.82   32.03
  -3  17   2  176.79   30.64
  -3 -17  -2  155.97   30.23
   3 -17   2   94.97   28.41
   3 -17   2  149.09   27.64
   3  17  -2  147.13   29.16
  -3  17   2  165.40   23.93
  -3 -17  -2  176.31   35.45
   3  17   2  176.56   26.48
  -3  17  -2  180.47   33.83
   3 -17  -2  205.89   32.37
  -3 -17   2  158.71   44.33
   3 -17  -2  152.95   26.29
  -3  17  -2  136.15   27.57
   3  17   2  173.15   29.25
  -3  17  -2  207.44   31.33
  -3 -17   2  140.38   38.03
   3 -17  -2  143.20   25.94
  -3  17  -2  197.08   33.78
  -3 -17   2  124.42   29.32
   3  17   2  164.98   27.35
   5  17  -2   27.63   15.50
   5 -17   2   60.49   22.34
   5  17  -2   47.27   28.94
   5 -17   2    1.87   19.92
   5  17  -2   12.20   18.23
  -5  17   2   35.77   16.55
  -5 -17  -2   19.32   19.32
   5 -17   2   35.87   16.57
   5 -17   2   -4.62   19.69
   5 -17  -2   35.77   14.94
   5 -17  -2   31.11   13.70
   5  17   2   26.46   18.09
   5 -17  -2   22.91   10.25
   5  17   2   28.23   14.19
  -5  17  -2   14.44   15.71
  -5  17  -2   38.30   21.97
  -5 -17   2   31.45   18.06
  -5 -17   2   34.97   27.92
   5 -17  -2   25.22   16.18
  -5  17  -2   28.12   16.42
   5  17   2   12.56   17.12
  -5 -17   2   83.34   40.77
  -5  17  -2   43.23   22.67
   0 -18  -2  220.82   35.96
   0  18  -2  253.14   38.01
   0 -18   2  188.23   35.40
   0  18   2  168.38   29.51
   0 -18   2  199.05   43.38
   0 -18  -2  184.68   34.39
   0  18   2  150.38   28.06
   0  18  -2  160.93   31.34
   0 -18   2  210.24   37.89
   0  18  -2  383.02   60.31
   0 -18  -2  234.28   33.24
   0  18  -2  224.34   33.98
   2 -18   2  295.66   46.94
  -2 -18  -2  292.89   49.42
  -2 -18  -2  319.77   45.58
   2  18  -2  246.95   40.73
   2 -18   2  294.00   48.22
   2  18  -2  301.40   43.72
   2 -18   2  290.67   42.98
   2 -18   2  259.52   45.21
   2  18  -2  279.48   42.68
  -2 -18  -2  202.93   43.57
  -2  18  -2  228.40   41.56
   2  18   2  269.61   38.54
   2  18   2  241.97   39.63
  -2 -18   2  327.28   61.45
  -2 -18   2  390.53   56.17
  -2  18  -2  259.72   44.64
  -2 -18   2  246.35   44.57
  -2  18  -2  259.50   42.20
   2 -18  -2  238.83   46.86
   2  18   2  267.80   38.35
   2  18   2  305.15   41.80
  -2  18  -2  275.49   48.66
   2 -18  -2  270.91   40.30
   4 -18   2   63.57   22.13
   4  18  -2   68.59   19.37
   4 -18   2   86.96   20.16
   4  18  -2   56.68   22.21
  -4  18   2   75.89   16.96
  -4  18   2   79.28   19.85
  -4  18   2  109.88   15.02
   4 -18   2   93.77   24.45
   4 -18   2   30.80   24.50
   4  18  -2  162.64   32.46
   4  18   2   95.30   21.59
  -4 -18   2   44.56   29.44
   4 -18  -2   46.99   15.12
   4 -18  -2   48.02   21.78
   4  18   2  103.19   18.49
  -4  18  -2   34.27   22.39
  -4 -18   2   46.87   18.37
  -4  18  -2   51.27   18.05
  -4  18  -2   80.91   19.77
   4  18   2   84.26   19.50
   4 -18  -2   45.45   13.97
  -4 -18   2  135.77   46.48
  -4  18  -2  110.56   26.60
   4 -18  -2  109.01   17.86
  -1 -19  -2  135.62   27.82
  -1  19   2  123.37   23.32
   1 -19   2  136.44   36.39
   1 -19   2  121.29   31.42
   1  19  -2  127.00   28.39
   1  19  -2  194.87   28.15
  -1  19   2  108.25   21.53
  -1 -19  -2  121.02   26.97
   1 -19   2  186.90   32.35
   1 -19   2  184.33   36.16
  -1 -19  -2  185.58   32.65
   1  19  -2  181.46   28.36
  -1  19  -2  144.44   26.57
  -1  19  -2  124.32   29.93
  -1  19  -2  196.16   33.66
   1  19   2  138.76   23.44
  -1 -19   2  147.49   31.74
  -1 -19   2  216.99   49.04
  -1 -19   2  182.35   37.32
   1 -19  -2  109.66   26.60
   1 -19  -2  159.25   30.93
  -1  19  -2  153.66   28.26
   1  19   2  173.88   26.65
   1 -19  -2  144.11   27.93
   3 -19   2   91.91   28.50
  -3  19   2  106.41   24.24
  -3 -19  -2  108.31   26.57
   3 -19   2  109.47   27.51
   3  19  -2  214.63   33.49
   3 -19   2  125.14   25.58
  -3 -19  -2  104.57   33.06
   3 -19   2  133.42   30.05
   3  19  -2   85.41   23.21
   3  19  -2   85.11   26.20
  -3 -19   2  116.68   41.82
   3 -19  -2   90.66   26.65
  -3 -19   2  102.90   26.09
  -3  19  -2  129.82   27.55
   3  19   2  122.79   22.06
   3 -19  -2  133.06   22.12
  -3 -19   2   93.35   31.75
   3  19   2  156.69   22.82
  -3  19  -2  108.50   22.88
   3  19   2  145.28   24.87
   5  19  -2   16.89   17.87
   5  19  -2   41.99   28.82
   5 -19   2    9.97   14.91
   5 -19   2   20.01   22.23
   5 -19   2   14.15   21.36
   5 -19   2  -10.02   24.48
  -5  19   2   29.98   17.60
   5  19  -2   17.09   15.08
   5 -19  -2   -2.41   12.04
   5 -19  -2   -6.18   17.61
   5  19   2   -4.50   17.02
  -5 -19   2   29.70   51.04
  -5  19  -2   19.54   16.31
  -5 -19   2    4.78   14.75
   5  19   2   43.20   18.77
   5 -19  -2   11.49    9.90
  -5  19  -2   29.43   22.51
   5 -19  -2   22.83   14.90
  -5 -19   2    6.89   32.17
   5  19   2   11.31   13.25
   0  20  -2  425.76   59.03
   0  20   2  294.41   45.07
   0 -20  -2  244.59   51.33
   0 -20   2  347.20   53.75
   0 -20   2  367.12   52.89
   0 -20   2  433.98   64.71
   0  20  -2  268.47   48.92
   0  20  -2  291.69   48.68
   0  20  -2  270.95   46.93
   0  20   2  322.02   46.35
   0 -20  -2  325.60   50.14
   0 -20  -2  350.29   51.53
  -2 -20  -2  207.65   43.95
   2  20  -2  248.72   42.64
   2 -20   2  350.28   54.39
  -2 -20  -2  266.03   44.89
   2  20  -2  228.41   40.40
   2  20  -2  273.14   42.41
   2 -20   2  394.70   52.79
   2 -20   2  299.37   43.91
   2 -20   2  315.65   49.72
  -2 -20  -2  281.54   51.03
  -2 -20   2  305.50   54.78
  -2 -20   2  384.70   65.54
  -2 -20   2  288.55   45.46
   2  20   2  235.57   39.58
   2  20   2  247.52   41.69
   2 -20  -2  224.05   47.26
   2 -20  -2  268.49   41.37
  -2  20  -2  224.91   41.62
  -2  20  -2  311.65   50.45
   4  20  -2   65.61   25.20
   4  20  -2   56.63   20.22
   4 -20   2   93.53   25.11
   4  20  -2  108.41   31.56
  -4  20   2   93.19   17.45
   4 -20   2  105.01   26.28
   4 -20   2   32.66   26.50
   4 -20   2   69.63   19.90
  -4  20   2   69.06   14.51
  -4  20   2   89.49   20.54
   4 -20  -2   65.02   15.33
  -4 -20   2   72.52   56.23
  -4 -20   2   57.38   18.94
   4 -20  -2   47.75   22.82
  -4  20  -2   96.12   27.11
  -4  20  -2   72.76   20.23
   4  20   2   94.91   20.29
   4 -20  -2   74.39   18.30
   4  20   2  122.61   24.49
   4  20   2   74.55   18.41
  -4 -20   2  107.48   36.05
   4 -20  -2   41.44   16.10
  -1 -21  -2   36.88   15.88
   1 -21   2   30.21   20.95
   1  21  -2   16.98   12.70
   1  21  -2   -0.22   11.31
  -1  21   2    4.79    9.68
   1  21  -2   11.09   15.89
  -1 -21  -2   -0.97   20.15
  -1 -21  -2    3.37   14.21
   1 -21   2   20.90   19.17
  -1  21   2    4.87    7.54
   1 -21   2   15.68   25.86
  -1  21  -2   13.75   13.13
   1 -21  -2   41.18   19.90
  -1  21  -2    3.55   12.70
   1  21   2    5.84   12.60
   1 -21  -2    4.17   18.61
  -1  21  -2   -2.94   15.85
   1  21   2    8.85    8.87
  -1  21  -2   26.77   22.87
  -1 -21   2   -4.79   36.38
   1 -21  -2   11.58   12.52
  -1 -21   2    0.30   22.72
  -1 -21   2   23.28   18.95
   3  21  -2   34.08   13.65
  -3  21   2   16.14   17.56
   3  21  -2   16.02   12.27
   3 -21   2   13.69   22.24
   3 -21   2   34.85   20.16
  -3 -21  -2   -4.36   14.52
   3 -21   2   -0.84   23.01
  -3 -21  -2    5.28   18.16
  -3 -21  -2   14.40   26.89
   3  21  -2   20.36   23.48
   3  21  -2    2.46   14.28
   3 -21   2   32.84   14.83
  -3 -21   2   59.77   30.70
   3  21   2    9.60   11.99
   3 -21  -2    9.09   21.63
  -3 -21   2   13.68   15.97
  -3  21  -2    0.58   21.01
   3  21   2   26.30   12.59
  -3 -21   2   39.92   41.79
   3  21   2   26.51   10.23
   3  21   2   15.98   16.64
   3 -21  -2   23.75   13.39
  -3  21  -2    2.61   12.83
   0 -22  -2  219.45   38.49
   0  22  -2  132.39   30.45
   0  22  -2  165.38   30.89
   0  22   2  169.59   29.20
   0 -22   2  243.22   42.91
   0 -22  -2  228.26   36.59
   0 -22  -2  158.70   32.42
   0 -22   2  242.13   39.71
   0  22  -2  205.95   35.58
   0 -22   2  232.99   51.39
   0  22   2  137.79   27.21
   2 -22   2   96.18   31.02
  -2 -22  -2   99.74   26.30
   2  22  -2   55.34   22.49
   2 -22   2  191.16   32.26
   2 -22   2  145.19   33.48
  -2  22   2  120.71   20.92
   2 -22   2  220.60   41.98
   2  22  -2  104.55   22.07
  -2 -22  -2  123.74   28.07
  -2 -22  -2  118.70   35.40
   2  22  -2  131.30   25.02
   2  22   2  136.05   22.60
  -2  22  -2  143.14   25.02
   2 -22  -2  148.62   26.69
   2  22   2  151.76   26.33
   2 -22  -2  115.72   26.71
  -2 -22   2  154.75   35.38
  -2 -22   2  105.17   42.67
  -2  22  -2  188.60   35.19
   2 -22  -2   68.27   28.11
   4  22  -2   43.13   21.24
   4 -22   2   61.78   24.14
   4 -22   2   18.39   21.58
  -4  22   2   70.98   15.98
   4  22  -2   70.99   29.30
   4  22  -2   -0.49   15.25
   4 -22   2   44.36   17.69
  -4  22   2   34.01   18.47
  -4  22   2   37.73   11.60
   4 -22   2   37.90   27.66
  -4  22  -2   43.96   24.63
   4  22   2   28.19   15.22
  -4  22  -2   43.74   17.55
  -4 -22   2   45.97   34.43
   4  22   2   42.78   20.45
   4 -22  -2   66.67   17.17
   4 -22  -2   47.84   17.35
  -4 -22   2    2.52   53.47
   4 -22  -2   35.54   12.65
   4  22   2   65.14   18.05
  -4  22  -2   32.18   24.20
  -4  22  -2    9.41   15.99
   4 -22  -2   36.76   25.07
   1 -23   2   22.65   26.07
  -1 -23  -2   25.06   15.25
  -1 -23  -2  -35.56   23.32
   1  23  -2    3.98   11.46
   1  23  -2  -10.94   13.95
  -1  23   2    1.92   10.89
  -1  23   2    2.62    7.98
   1  23  -2   13.04   13.52
   1 -23   2   27.84   18.83
   1 -23   2   19.90   18.33
  -1 -23  -2   -3.43   14.59
   1  23   2   -5.67    9.04
   1 -23  -2    2.34   12.30
   1 -23  -2   -6.94   20.19
  -1 -23   2   23.08   24.44
  -1  23  -2  -10.43   12.32
   1 -23  -2   25.80   19.08
  -1  23  -2   22.39   25.33
   1  23   2    2.64   11.65
  -1 -23   2   21.70   40.71
  -3 -23  -2  -36.55   16.24
   3  23  -2   -5.03   10.39
   3 -23   2   -9.08   25.27
   3  23  -2   -4.45   23.36
  -3 -23  -2   18.54   17.88
   3 -23   2  -21.28   23.20
   3 -23   2  -31.67   22.04
   3 -23   2   -0.42   16.87
   3  23  -2  -24.49   14.01
  -3 -23  -2  -25.74   30.71
   3  23  -2   14.92   13.56
   3  23   2    1.50    8.96
   3  23   2  -18.21   10.33
  -3 -23   2   -0.07   31.86
   3  23   2    0.60   11.74
  -3  23  -2  -18.60   18.26
   3 -23  -2  -21.69   20.67
   3 -23  -2   11.72   18.94
   3 -23  -2   13.24   15.20
  -3  23  -2  -14.25   13.05
  -3 -23   2    0.22   47.40
   3  23   2   -3.47   16.29
  -3  23  -2  -10.35   12.65
  -3  23  -2  -10.67   21.77
   0 -24   2   62.00   21.21
   0 -24   2   52.08   36.57
   0 -24  -2   32.96   17.84
   0  24  -2   40.64   18.10
   0  24   2   83.66   17.28
   0 -24  -2   78.43   21.42
   0 -24  -2   37.92   24.20
   0  24  -2   49.04   16.45
   0  24  -2   34.35   14.73
   0  24   2   50.53   13.00
   0 -24   2   88.95   25.42
  -2  24   2   28.64   11.92
   2 -24   2   53.96   30.08
  -2 -24  -2   33.43   20.97
   2  24  -2    8.41   14.17
   2 -24   2   35.28   25.77
   2  24  -2   26.37   14.50
   2  24  -2   20.00   17.02
  -2 -24  -2    0.83   30.02
   2  24  -2   33.13   22.72
   2 -24   2   52.13   20.37
   2 -24   2   38.97   28.34
  -2 -24  -2   49.59   14.73
   2 -24  -2   44.48   21.27
  -2 -24   2    5.77   29.62
   2 -24  -2   59.77   26.97
  -2  24  -2   11.89   23.64
  -2 -24   2   16.87   49.72
   2  24   2   41.22   12.43
  -2  24  -2   19.37   15.39
   2 -24  -2   27.65   18.95
   2  24   2   49.86   18.10
  -2  24  -2   32.39   20.09
  -2  24  -2   21.43   14.99
  -1  25   2   -3.03    7.97
  -1 -25  -2  -14.38   26.07
  -1 -25  -2   26.80   16.12
   1  25  -2    7.43   14.13
  -1  25   2    0.08   11.97
   1  25  -2    5.43   11.13
  -1 -25  -2   -9.59   14.90
   1 -25   2   28.20   25.76
   1 -25   2   36.83   34.63
   1  25  -2   -9.15   13.32
   1 -25   2   20.45   19.66
   1  25   2   10.40   13.95
   1 -25  -2  -21.56   21.64
  -1  25  -2  -27.05   24.20
   1  25   2   14.82    9.89
  -1 -25   2   14.29   47.22
   1 -25  -2   14.19   17.75
   1 -25  -2   -4.68   12.57
  -1  25  -2   -5.56   13.08
  -1 -25   2   25.82   24.63
   0   0  -3   -0.80    6.63
   0   0  -3   14.27    6.36
   0   0  -3   11.40    6.34
   0   0  -3    9.64    5.17
   0   0   3    7.93    5.76
   0   0   3   11.38    6.35
   2   0   3  381.59   54.32
  -2   0  -3  405.61   54.94
  -2   0  -3  405.43   53.97
  -2   0  -3  382.75   54.55
  -2   0   3  406.84   54.86
  -2   0  -3  355.14   53.86
   2   0   3  377.93   53.41
  -2   0   3  371.77   53.80
  -2   0   3  381.37   52.89
   2   0  -3  310.90   53.97
   2   0  -3  374.47   55.23
   2   0   3  372.64   54.11
  -4   0   3   10.76   11.09
   4   0  -3    6.30   14.24
  -4   0  -3    7.30   13.99
   4   0   3    1.93    9.45
  -4   0   3    0.12    9.21
   4   0   3   -3.87   10.83
  -4   0  -3   -1.18   11.78
   4   0   3    5.15   12.00
  -4   0  -3    3.75   11.27
   4   0  -3   -3.46   11.03
   6   0   3  112.46   25.35
   6   0   3  121.71   25.89
   6   0   3   91.30   22.12
   6   0  -3   88.11   23.19
  -6   0  -3   81.49   23.53
  -6   0  -3   79.05   24.21
   6   0  -3  131.34   33.92
  -6   0  -3  101.29   25.77
   6   0  -3  115.36   29.49
   8   0   3   10.58   25.15
  -1   1   3 2437.59  337.48
   1  -1   3 2370.69  337.03
  -1  -1  -3 2473.62  337.12
   1   1  -3 2415.39  337.83
   1   1  -3 2640.54  337.20
  -1   1   3 2450.73  336.84
  -1   1  -3 2418.01  337.31
   1   1   3 2417.38  336.85
  -1  -1   3 2355.91  337.94
   1  -1  -3 2532.13  337.43
  -1  -1   3 2305.86  337.11
   3  -1   3  679.00  105.49
   3   1  -3  822.56  107.87
   3  -1   3  792.52  106.60
  -3  -1  -3  791.51  107.02
  -3  -1  -3  811.87  106.09
   3   1  -3  830.99  106.53
  -3   1   3  766.34  105.56
  -3  -1  -3  697.60  106.50
  -3   1   3  709.20  106.22
   3  -1   3  745.29  106.34
  -3   1  -3  771.03  106.89
   3   1   3  751.56  106.36
   3   1   3  759.24  105.58
   3   1   3  777.21  106.33
  -3   1  -3  790.36  107.09
   3  -1  -3  815.23  106.23
  -3   1  -3  766.75  106.09
  -3  -1   3  737.72  106.85
  -3   1  -3  622.76  105.87
  -3  -1   3  724.85  105.87
   3  -1  -3  772.14  107.21
   5  -1   3  488.00   63.59
   5   1  -3  436.52   67.22
  -5  -1  -3  325.83   62.65
   5   1  -3  425.74   61.38
  -5  -1  -3  429.30   63.03
   5  -1   3  406.58   62.44
   5  -1   3  357.94   60.57
   5   1  -3  414.67   63.37
  -5   1   3  466.63   62.56
  -5  -1  -3  411.72   61.31
  -5   1   3  388.89   60.40
   5   1   3  404.33   60.74
   5   1   3  402.22   62.29
  -5   1  -3  431.49   63.04
  -5   1  -3  414.11   63.50
  -5  -1   3  366.29   60.59
   5  -1  -3  446.63   63.40
  -5   1  -3  421.92   61.56
  -5  -1   3  439.89   63.10
   5  -1  -3  431.71   66.28
   5  -1  -3  394.08   61.03
   5   1   3  486.64   63.68
   7   1  -3   30.88   30.21
   7  -1   3   16.99   17.98
   7   1  -3   10.50   24.93
   7   1  -3   28.76   18.31
   7  -1   3   42.01   22.62
   7  -1   3   44.85   24.03
  -7  -1  -3   44.83   21.65
   7  -1  -3   38.79   19.81
  -7   1  -3   26.37   18.78
   7   1   3   49.45   23.14
   7  -1  -3   47.93   30.57
   7   1   3   40.02   22.81
   7  -1  -3   28.06   17.81
   7   1   3   36.96   18.05
   7  -1  -3   20.94   24.13
   7  -1  -3   37.72   25.23
  -7   1  -3   36.84   22.25
   0  -2   3  473.43   71.57
   0   2  -3  554.88   72.11
   0   2  -3  506.15   72.26
   0  -2  -3  555.43   71.44
   0  -2  -3  475.00   71.76
   0  -2   3  512.99   72.69
   0   2  -3  515.07   72.73
   0   2   3  490.50   71.83
   0  -2   3  549.25   72.04
   0   2   3  527.99   71.40
   0  -2  -3  498.19   71.30
   2  -2   3  559.12   70.10
  -2   2   3  482.29   69.48
  -2  -2  -3  414.73   69.12
  -2  -2  -3  416.85   69.75
   2   2  -3  457.65   69.96
  -2  -2  -3  493.92   69.92
   2  -2   3  525.26   70.32
  -2   2   3  505.83   68.92
   2  -2   3  543.96   69.27
   2   2  -3  383.42   70.49
  -2   2  -3  464.79   70.35
  -2  -2   3  526.59   70.09
  -2   2  -3  602.62   69.84
  -2   2  -3  590.51   70.87
  -2  -2   3  539.15   71.44
   2   2   3  525.17   69.66
  -2  -2   3  572.64   69.31
   2   2   3  425.40   68.82
   2   2   3  429.25   69.37
   2  -2  -3  395.68   69.29
   4  -2   3   53.60   11.61
  -4  -2  -3   35.95   15.19
  -4   2   3   22.34   12.48
  -4  -2  -3   48.86   14.53
   4  -2   3   26.88   12.37
  -4   2   3   22.93   10.72
   4  -2   3   34.02   12.76
   4   2  -3   38.25   13.47
   4   2  -3   12.70   12.18
  -4  -2  -3   54.20   14.60
  -4  -2   3   48.20   13.52
   4   2   3   46.16   13.29
  -4  -2   3   36.04   16.46
  -4   2  -3   42.25   13.79
  -4   2  -3   39.48   16.36
   4   2   3   44.09   11.92
  -4   2  -3   46.00   12.20
   4   2   3   31.67   13.37
   4  -2  -3   30.94   14.01
  -4   2  -3   15.71   11.59
   4  -2  -3   26.08   12.07
   6   2  -3   72.55   24.88
  -6  -2  -3  110.13   26.98
   6  -2   3  121.55   26.73
   6  -2   3  129.65   27.41
   6  -2   3  129.96   24.89
   6   2  -3  112.99   23.52
   6   2  -3  100.30   34.56
   6  -2  -3   97.31   31.08
   6  -2  -3  130.38   27.08
   6   2   3  124.82   26.57
  -6  -2   3   87.66   27.28
  -6   2  -3   53.76   26.93
  -6   2  -3  101.94   25.42
   6   2   3  140.06   27.51
  -6   2  -3   87.84   26.48
   6  -2  -3  116.53   24.12
  -6  -2   3  104.33   23.04
  -6   2  -3  106.97   26.13
   6   2   3  134.84   23.35
  -1  -3  -3  749.15  101.47
  -1   3   3  810.93  101.64
   1  -3   3  718.37  101.88
  -1  -3  -3  760.24  100.99
   1   3  -3  680.34  102.59
   1   3  -3  760.39  101.95
   1  -3   3  654.19  101.30
  -1  -3  -3  741.18  101.55
  -1   3   3  791.66  101.04
   1   3  -3  682.73  102.24
   1  -3   3  729.25  102.34
   1  -3   3  705.12  101.20
   1   3   3  767.81  101.23
  -1   3  -3  709.31  101.79
  -1   3  -3  663.34  102.41
  -1   3  -3  672.60  102.06
  -1  -3   3  709.44  103.22
   1  -3  -3  775.14  101.35
  -1  -3   3  680.05  102.04
   1   3   3  717.73  100.74
  -1   3  -3  717.02  101.44
   1  -3  -3  756.55  100.84
   1   3   3  713.60  101.16
  -1  -3   3  721.50  101.21
  -3  -3  -3  288.22   39.14
  -3   3   3  261.42   37.64
   3   3  -3  270.25   38.66
   3  -3   3  266.35   39.16
  -3   3   3  256.95   36.79
  -3  -3  -3  285.35   37.95
  -3  -3  -3  236.99   38.56
   3  -3   3  246.06   37.34
   3  -3   3  225.87   38.51
   3   3  -3  280.86   40.58
  -3   3  -3  248.03   39.73
  -3  -3   3  254.17   38.45
  -3   3  -3  244.60   39.06
   3   3   3  274.56   38.55
   3  -3  -3  219.84   38.74
   3   3   3  273.72   37.38
   3  -3  -3  236.68   37.62
  -3  -3   3  229.07   37.48
  -3   3  -3  240.38   39.07
  -3   3  -3  225.10   38.00
   3   3   3  262.72   38.48
  -3  -3   3  283.53   40.49
  -5  -3  -3  287.44   45.17
   5   3  -3  287.37   43.41
   5  -3   3  283.27   45.28
   5  -3   3  294.01   42.56
   5  -3   3  294.14   44.74
  -5  -3   3  281.09   43.16
   5   3   3  243.48   42.41
  -5   3  -3  300.70   44.55
   5  -3  -3  329.86   45.35
  -5  -3   3  270.76   45.63
   5  -3  -3  274.99   42.68
   5   3   3  229.51   44.53
   5   3   3  274.53   44.59
   5  -3  -3  291.27   47.71
  -5   3  -3  258.88   43.36
  -5   3  -3  265.91   46.31
  -5   3  -3  255.12   44.97
  -7  -3  -3   29.25   21.59
   7  -3   3   14.14   21.34
   7  -3   3   19.93   16.21
   7   3  -3   42.37   21.65
   7  -3   3   35.38   22.56
   7   3  -3   23.72   18.40
   7   3  -3  -29.40   28.45
   7  -3  -3   24.98   18.26
   7  -3  -3   -7.21   25.20
   7   3   3   84.79   25.48
   7  -3  -3   12.94   25.64
  -7   3  -3   11.86   19.01
   7   3   3  -26.48   18.08
   7  -3  -3   43.75   22.53
  -7   3  -3   22.29   18.99
   7   3   3   19.67   22.91
  -7   3  -3   21.57   20.27
  -7   3  -3   28.72   25.91
   7   3   3   25.82   21.42
   7   3   3   46.73   19.65
   7  -3  -3   28.93   17.73
   0  -4   3  287.13   39.69
   0   4   3  276.64   38.81
   0   4  -3  292.09   39.75
   0   4  -3  260.20   40.69
   0   4  -3  271.86   40.65
   0  -4  -3  260.62   38.76
   0   4  -3  211.07   40.53
   0   4   3  271.98   38.33
   0  -4   3  306.46   39.91
   0  -4  -3  287.01   38.43
   0  -4   3  268.24   40.55
   2  -4   3  426.44   57.98
   2   4  -3  352.21   59.01
  -2  -4  -3  357.81   57.63
   2  -4   3  444.63   58.33
   2  -4   3  428.30   57.33
  -2  -4  -3  400.15   57.80
   2   4  -3  429.45   58.38
  -2   4   3  412.89   56.95
   2  -4   3  429.10   58.81
  -2  -4  -3  362.50   57.03
  -2   4   3  377.50   56.37
  -2   4  -3  456.16   58.59
   2   4   3  364.01   56.77
  -2   4  -3  374.03   58.50
   2  -4  -3  373.51   57.76
   2   4   3  434.82   57.36
  -2  -4   3  428.95   58.76
   2  -4  -3  328.95   56.93
  -2   4  -3  475.69   59.05
  -2  -4   3  364.75   59.88
   2   4   3  391.52   57.58
  -2  -4   3  440.46   57.88
  -2   4  -3  432.97   57.73
   4   4  -3   21.12   12.52
  -4  -4  -3   24.83   13.41
  -4  -4  -3   35.98   13.03
   4  -4   3   35.71   11.61
   4  -4   3   31.39   13.15
  -4  -4  -3   14.28   12.94
   4  -4   3   40.12   13.62
  -4   4   3   21.19    7.98
   4   4  -3   11.29   14.00
  -4   4  -3   28.74   12.82
   4   4   3   33.08   12.64
  -4   4  -3   55.56   14.01
   4  -4  -3   31.62   13.43
  -4  -4   3   19.54   15.49
   4   4   3   29.13   11.74
  -4  -4   3   46.90   15.03
  -4   4  -3   26.35   12.67
   4  -4  -3   41.04   11.56
  -4   4  -3   13.35   12.46
   4   4   3   62.40   15.06
  -6  -4  -3  130.34   28.80
   6  -4   3  176.50   29.91
  -6   4   3  131.19   23.08
   6   4  -3   77.86   27.46
   6   4  -3  114.83   34.90
   6   4  -3  125.68   26.24
   6  -4   3  125.06   25.08
   6  -4   3  117.21   28.40
  -6   4  -3  112.88   27.56
   6   4   3  187.18   32.02
   6  -4  -3  107.74   24.04
  -6   4  -3   72.08   25.19
   6   4   3   75.02   27.30
   6  -4  -3  106.88   24.73
  -6   4  -3  104.40   25.95
  -6   4  -3  101.22   28.39
  -6  -4   3  174.78   34.54
   6  -4  -3  154.83   31.92
   6   4   3  138.30   34.86
   6  -4  -3   87.66   27.94
   6   4   3   89.19   24.43
   6  -4  -3  108.90   28.16
   6   4   3  189.19   31.09
  -6  -4   3   87.21   25.36
   1   5  -3  166.94   30.99
   1  -5   3  191.28   29.63
   1  -5   3  181.98   30.55
   1  -5   3  181.11   32.06
   1   5  -3  153.66   32.35
  -1  -5  -3  223.37   29.11
  -1  -5  -3  191.16   29.51
   1  -5   3  203.17   30.74
   1   5  -3  174.04   30.31
  -1  -5  -3  233.40   29.80
   1   5   3  204.32   28.94
   1   5   3  229.07   29.35
  -1  -5   3  201.67   30.63
  -1   5  -3  182.24   31.63
  -1   5  -3  214.24   30.27
  -1  -5   3  204.16   33.33
   1   5   3  215.50   28.75
  -1   5  -3  187.10   31.89
  -1  -5   3  172.31   31.30
   1  -5  -3  210.91   28.67
  -1   5  -3  208.05   31.56
   3  -5   3   60.41   11.74
   3  -5   3   37.90   12.91
   3  -5   3   50.68   13.10
   3   5  -3   45.38   13.15
  -3  -5  -3   93.52   13.52
   3   5  -3   37.75   13.84
  -3  -5  -3   61.80   13.10
   3  -5  -3   48.99   11.55
  -3   5  -3   35.61   12.38
  -3  -5   3   30.72   10.88
  -3   5  -3   44.52   15.04
   3  -5  -3   35.86   12.93
  -3  -5   3   51.24   17.21
   3   5   3   58.83   12.33
  -3   5  -3   30.45   12.21
   3   5   3   45.68   11.81
  -3  -5   3   84.84   15.22
  -3   5  -3   49.40   13.11
   5   5  -3   85.18   26.90
   5   5  -3   98.22   22.97
   5  -5   3   99.22   21.02
   5  -5   3  150.44   26.15
  -5  -5  -3   99.04   23.72
   5  -5   3  122.94   23.86
  -5   5   3  158.39   21.68
  -5   5  -3   61.14   26.05
   5   5   3  142.94   25.82
   5  -5  -3  105.01   21.86
   5  -5  -3  120.64   25.12
   5   5   3  128.16   24.68
  -5  -5   3  106.58   24.15
  -5  -5   3  152.85   29.38
  -5   5  -3  128.13   24.41
  -5   5  -3  109.02   25.17
   5  -5  -3   87.22   26.33
   5  -5  -3   81.27   24.42
   5   5   3  112.95   21.86
   5  -5  -3   99.29   22.21
  -5   5  -3   95.67   23.88
   7   5  -3   33.92   18.99
   7  -5   3   38.58   22.53
   7  -5   3    2.05   17.88
   7   5  -3    5.39   32.92
   7  -5   3   14.26   22.22
   7   5  -3    7.50   21.09
  -7   5   3   15.27   18.18
  -7   5  -3   12.45   19.74
   7   5   3   24.77   24.33
   7  -5  -3    1.41   16.23
   7   5   3   14.83   21.59
   7   5   3   14.14   17.75
  -7   5  -3    3.45   21.58
  -7  -5   3   23.41   17.20
  -7   5  -3   20.03   22.64
   7   5   3   17.48   23.06
  -7   5  -3   16.59   18.20
  -7  -5   3   12.42   25.85
   7   5   3  -16.21   17.75
   7  -5  -3    8.39   21.74
   7  -5  -3    7.16   24.86
   7  -5  -3   11.70   23.30
   7  -5  -3    2.30   16.55
   0  -6  -3   70.59   10.63
   0  -6  -3   42.76   10.96
   0  -6   3   78.65   14.45
   0   6  -3   66.70   13.04
   0   6  -3   72.52   15.71
   0   6  -3   58.39   14.83
   0  -6   3   78.58   13.77
   0  -6  -3   74.38   11.43
   0   6  -3   38.48   12.69
   0   6   3   55.72   10.36
   0  -6   3   73.88   16.12
   0   6   3   69.51   10.12
   2  -6   3  488.42   77.33
  -2  -6  -3  546.02   77.78
   2  -6   3  602.43   79.16
  -2   6   3  589.71   76.61
   2  -6   3  551.63   78.46
   2   6  -3  508.28   79.46
   2   6  -3  568.25   78.50
   2   6   3  663.24   77.12
   2   6   3  523.82   77.05
   2   6   3  641.21   77.72
  -2   6  -3  528.36   78.81
  -2   6  -3  519.54   77.77
  -2   6  -3  517.81   78.81
  -2  -6   3  619.10   81.27
  -2  -6   3  489.62   78.11
  -2   6  -3  466.97   78.39
  -2  -6   3  512.38   79.07
  -4  -6  -3   38.13   14.27
   4  -6   3   18.15   14.24
   4  -6   3   26.64   12.26
   4   6  -3   32.18   16.90
   4   6  -3   32.11   13.54
  -4   6   3   21.34    7.74
   4  -6   3   39.08   15.08
   4   6   3   24.38   11.13
   4  -6  -3   33.71   10.98
  -4   6  -3   21.07   14.11
   4  -6  -3   23.19   13.32
  -4   6  -3    6.82   12.93
   4   6   3   18.52   13.08
   4  -6  -3   37.42   12.52
  -4   6  -3   17.13   11.64
  -4  -6   3    0.37   14.19
   4   6   3   18.79   13.26
  -4   6  -3   37.38   14.31
   4  -6  -3   28.88   10.69
  -4  -6   3   20.27   17.59
  -6   6   3  161.38   23.41
   6   6  -3  115.05   26.55
  -6  -6  -3  141.54   30.08
   6   6  -3   74.60   37.45
   6  -6   3  109.56   26.61
   6  -6   3  168.86   30.64
   6  -6   3   62.32   22.50
   6   6  -3   82.25   28.35
  -6   6  -3  121.69   27.02
   6   6   3  175.35   30.31
  -6  -6   3   73.33   26.02
  -6   6  -3  111.05   32.03
   6  -6  -3  104.18   25.06
   6   6   3  154.03   30.76
   6  -6  -3  134.29   28.91
   6  -6  -3  136.73   29.99
   6   6   3  131.07   25.50
  -6   6  -3   68.05   26.09
   6  -6  -3  127.96   25.50
   6   6   3  118.02   30.17
   6  -6  -3  120.62   29.49
  -6   6  -3   75.16   25.88
   6   6   3  100.30   26.27
  -6  -6   3  124.85   30.73
   1  -7   3  361.48   56.97
   1  -7   3  354.55   57.10
   1   7  -3  372.67   56.75
   1  -7   3  424.76   56.44
   1  -7   3  432.57   58.61
   1   7  -3  379.49   58.96
  -1  -7  -3  391.88   55.61
   1   7  -3  343.67   57.51
  -1   7  -3  410.12   58.27
   1   7   3  409.64   55.49
  -1   7  -3  461.20   58.07
   1   7   3  400.16   55.05
  -1  -7   3  351.94   59.31
  -1  -7   3  364.96   57.93
  -1   7  -3  401.04   56.56
  -1   7  -3  406.04   58.19
  -1  -7   3  402.52   57.21
  -3  -7  -3  145.75   20.47
   3   7  -3   63.56   21.08
   3  -7   3  156.90   20.69
   3  -7   3  101.41   18.72
   3   7  -3  102.57   20.31
   3  -7   3   88.93   17.95
   3  -7   3   78.78   16.20
  -3   7  -3   94.58   18.54
  -3  -7   3   61.83   16.97
  -3   7  -3   74.02   18.16
   3  -7  -3   71.49   17.75
   3   7   3  108.84   17.43
  -3   7  -3  110.23   19.73
  -3   7  -3   85.35   20.92
  -3  -7   3   97.05   20.52
   3  -7  -3   86.18   16.68
  -3  -7   3   90.62   22.42
  -5  -7  -3  155.11   31.04
   5  -7   3  173.60   28.30
   5  -7   3  180.72   30.85
   5  -7   3  151.63   30.65
  -5   7   3  151.95   26.12
   5   7  -3  150.37   33.02
   5   7  -3  178.62   30.97
   5   7   3  156.45   31.30
   5  -7  -3  139.10   27.47
  -5   7  -3  119.37   28.84
   5   7   3  177.27   34.70
  -5  -7   3  177.87   33.71
  -5   7  -3  136.12   30.43
   5   7   3   99.61   26.70
   5  -7  -3  146.91   30.65
  -5  -7   3  253.78   45.46
   5   7   3  189.20   31.15
   5  -7  -3  167.05   31.59
  -5   7  -3  149.06   32.57
   5  -7  -3  176.18   30.46
  -5   7  -3  231.11   33.06
   5   7   3  121.92   28.95
   5  -7  -3  140.52   26.88
   7  -7   3   10.78   21.27
   7   7  -3    5.17   18.31
   7   7  -3   16.20   23.61
   7  -7   3   47.49   25.36
   7  -7   3   25.86   19.04
   7   7  -3  -21.28   33.75
  -7   7   3   18.62   17.27
   7  -7  -3   19.35   17.99
   7   7   3   10.10   17.40
  -7  -7   3   11.53   19.84
  -7   7  -3   21.29   20.32
   7   7   3    1.77   19.54
  -7   7  -3    6.22   23.56
   7   7   3   19.08   25.54
  -7   7  -3   20.25   20.75
   7   7   3   19.45   21.93
  -7  -7   3   19.91   25.20
   7  -7  -3    2.06   21.45
  -7   7  -3   39.12   20.68
   7  -7  -3   -4.73   22.36
   7   7   3   10.73   22.52
   7  -7  -3    2.42   15.80
   7  -7  -3   55.98   25.80
   0  -8   3  186.56   27.00
   0   8  -3  178.48   25.44
   0  -8  -3  112.68   20.74
   0   8  -3  159.08   25.36
   0  -8   3  151.40   25.32
   0   8  -3  154.89   27.45
   0   8  -3  165.42   23.67
   0  -8   3  144.34   24.45
   2   8  -3  753.71  101.26
   2  -8   3  710.75  100.37
   2   8  -3  655.21  102.22
   2  -8   3  789.27  102.08
   2  -8   3  619.70  101.09
   2  -8   3  756.33  102.84
  -2  -8  -3  781.53  100.60
  -2  -8   3  622.76  103.95
  -2  -8   3  644.93  102.16
  -2   8  -3  706.66  100.77
  -2   8  -3  620.48  101.57
  -2   8  -3  670.84  101.73
   2   8   3  700.76   99.50
  -2   8  -3  699.37  101.70
   2   8   3  858.56  100.06
   2   8   3  849.97  100.86
  -2  -8   3  652.03  101.19
  -4  -8  -3   39.71   14.39
   4   8  -3   26.12   15.74
   4  -8   3   50.10   15.45
  -4   8   3   25.13    8.46
   4  -8   3   15.05   11.79
   4  -8   3   27.90   15.30
   4   8  -3   42.87   14.45
   4  -8  -3   46.44   14.17
   4   8   3   31.49   12.10
   4   8   3   29.61   14.74
  -4   8  -3   12.50   16.55
  -4  -8   3   19.79   15.98
  -4   8  -3   15.58   12.24
  -4  -8   3   41.33   20.59
  -4   8  -3   29.98   15.60
   4   8   3   50.94   14.81
  -4   8  -3   32.43   14.73
   4   8   3   54.11   14.39
   4  -8  -3   32.55   10.17
   4  -8  -3   23.84   13.53
   4   8   3   17.79   11.67
  -4  -8   3   26.56   10.98
   4  -8  -3   44.29   12.55
   4  -8  -3   32.07   11.20
  -6   8   3  112.84   19.62
   6  -8   3   72.96   20.60
   6  -8   3  113.98   27.32
   6   8  -3   88.24   27.26
  -6  -8  -3   66.78   24.28
   6   8  -3   78.77   22.37
   6   8  -3   61.79   35.76
   6  -8   3   47.08   23.99
  -6  -8   3  158.06   38.61
  -6   8  -3  107.60   29.07
  -6   8  -3  101.38   25.07
   6  -8  -3  122.79   25.37
   6  -8  -3   76.71   20.72
   6  -8  -3   77.44   21.55
  -6   8  -3   98.84   24.16
   6   8   3  132.40   28.84
   6   8   3   74.52   22.75
  -6   8  -3   65.04   22.87
   6  -8  -3   92.91   25.75
   6   8   3   83.60   22.92
  -6  -8   3   61.04   25.28
   6  -8  -3   97.37   24.75
   6   8   3  129.08   25.79
   6   8   3   89.89   27.78
   1   9  -3 1617.60  208.07
   1   9  -3 1433.18  208.16
   1   9  -3 1496.72  209.06
   1  -9   3 1528.76  208.17
   1  -9   3 1440.78  207.50
   1  -9   3 1579.68  208.78
   1  -9   3 1709.33  209.37
   1   9  -3 1526.42  209.61
  -1  -9  -3 1516.94  206.66
   1  -9  -3 1345.08  207.17
  -1  -9   3 1346.06  208.52
  -1   9  -3 1667.33  207.92
  -1   9  -3 1523.15  208.63
   1   9   3 1474.79  206.70
   1   9   3 1399.25  206.14
   1   9   3 1380.61  206.45
  -1  -9   3 1392.26  210.31
  -1   9  -3 1625.13  208.98
   1   9   3 1497.09  206.30
  -1   9  -3 1436.59  208.67
   3  -9   3  540.71   76.07
  -3  -9  -3  540.17   75.38
   3   9  -3  549.02   75.46
   3  -9   3  498.40   74.20
   3  -9   3  454.25   75.20
   3  -9   3  655.46   76.90
   3   9  -3  455.11   76.24
  -3   9   3  510.17   73.09
  -3   9  -3  557.02   76.40
   3  -9  -3  529.31   72.84
   3   9   3  535.03   74.02
  -3  -9   3  496.53   76.86
   3   9   3  607.87   74.28
   3   9   3  515.54   75.13
   3   9   3  506.95   73.55
  -3   9  -3  511.00   74.74
  -3  -9   3  461.04   75.05
  -3   9  -3  516.15   76.28
  -3   9  -3  469.65   75.55
  -3  -9   3  497.36   79.65
   3   9   3  525.71   74.62
   5  -9   3  281.02   44.44
   5  -9   3  385.84   49.56
  -5  -9  -3  301.27   47.34
   5  -9   3  334.99   47.32
   5   9  -3  298.09   48.35
  -5   9   3  295.49   43.01
   5   9  -3  270.57   45.31
   5  -9  -3  293.97   44.42
   5   9   3  244.63   46.87
   5  -9  -3  277.50   43.78
  -5  -9   3  274.22   50.21
  -5   9  -3  302.91   46.91
   5   9   3  266.80   47.26
  -5   9  -3  281.26   45.43
   5   9   3  332.42   46.94
  -5  -9   3  397.71   60.08
  -5   9  -3  328.65   48.58
   5   9   3  242.06   43.82
  -5   9  -3  215.82   48.28
   5  -9  -3  271.71   42.68
   5  -9  -3  283.74   46.61
   5  -9  -3  296.89   46.14
   5   9   3  243.82   44.67
   7   9  -3   20.85   19.79
  -7   9   3   35.38   16.74
   7  -9   3    0.89   25.18
   7   9  -3   -3.73   35.35
   7  -9   3   18.28   17.92
   7  -9   3   10.69   21.31
   7   9  -3   25.76   19.32
   7  -9  -3   18.18   15.96
  -7   9  -3   33.64   19.73
  -7   9  -3    2.67   20.13
   7  -9  -3   59.64   25.72
   7   9   3   19.56   25.78
  -7  -9   3   19.95   23.13
  -7   9  -3  -21.18   25.23
  -7   9  -3   21.73   20.72
   7   9   3    0.14   21.57
   7  -9  -3   17.62   22.43
   7   9   3   32.74   18.62
   7   9   3   -8.50   24.74
  -7  -9   3   56.53   30.13
   7   9   3   24.68   19.70
   0 -10   3   36.32   12.19
   0  10  -3   30.50   11.50
   0 -10   3   45.57   14.27
   0  10  -3   33.56   12.38
   0 -10   3   21.27   13.14
   0  10  -3   40.29   14.26
   0  10  -3   34.51   16.42
  -2 -10  -3  295.32   41.88
   2 -10   3  248.49   41.50
   2  10  -3  267.54   43.89
   2  10  -3  293.30   42.48
   2 -10   3  216.39   43.49
   2 -10   3  281.72   44.51
   2 -10   3  251.85   42.97
  -2  10  -3  244.97   43.53
   2  10   3  325.34   40.51
  -2  10  -3  226.69   42.10
   2  10   3  271.02   40.05
  -2  10  -3  272.27   45.63
   2  10   3  319.30   40.75
   2  10   3  349.68   41.71
   2 -10  -3  271.87   41.24
  -2 -10   3  388.38   51.34
  -2  10  -3  252.83   44.09
  -2 -10   3  275.06   43.59
  -2 -10   3  357.44   55.33
   2  10   3  291.17   41.81
   4 -10   3    8.90   14.25
   4  10  -3   25.48   17.86
  -4  10   3   11.12    7.73
   4 -10   3   12.68   10.92
   4  10  -3    9.91   12.11
   4 -10   3   29.85   15.04
  -4 -10  -3   17.20   14.52
   4 -10   3   12.61   14.40
  -4  10  -3    5.20   13.95
   4 -10  -3   12.54    8.30
   4  10   3   -2.49   11.88
   4  10   3   12.86   13.82
   4 -10  -3   14.71   10.47
   4 -10  -3   -3.87   11.14
  -4 -10   3    7.07   19.78
  -4 -10   3    7.84   12.07
  -4  10  -3    2.85   11.72
  -4  10  -3   15.82   13.50
   4  10   3    9.69   10.95
  -4  10  -3    5.67   15.02
   4  10   3    9.86   10.69
   4 -10  -3    8.80   11.52
   4 -10  -3   22.55   10.27
  -4 -10   3   32.92   26.19
   4  10   3   -4.78   11.51
   6  10  -3   59.24   35.73
  -6  10   3   75.62   15.63
   6 -10   3   47.18   23.53
   6  10  -3   36.26   22.27
   6 -10   3   61.23   19.67
   6  10  -3   68.99   21.60
   6 -10   3   55.63   22.29
  -6 -10  -3   40.68   21.64
  -6 -10   3   15.64   30.85
   6  10   3   18.98   16.06
  -6  10  -3   48.18   21.07
  -6  10  -3   55.72   21.48
  -6 -10   3   36.33   24.47
  -6  10  -3   34.70   24.35
   6  10   3   15.85   19.02
   6  10   3   86.84   22.99
   6 -10  -3   94.78   21.41
   6 -10  -3   48.26   16.78
  -6  10  -3   38.22   20.44
   6  10   3   72.54   22.27
   6  10   3   30.26   16.47
   6 -10  -3   39.82   20.58
   6 -10  -3   52.50   16.01
   6 -10  -3   49.93   20.97
  -1 -11  -3 1283.88  180.01
   1 -11   3 1370.65  182.03
   1  11  -3 1353.72  181.36
   1  11  -3 1191.00  181.60
   1 -11   3 1377.13  183.03
   1 -11   3 1295.54  181.24
   1  11  -3 1515.51  184.42
   1 -11   3 1272.37  182.42
  -1  11  -3 1484.56  181.56
  -1 -11   3 1420.78  182.35
  -1  11  -3 1495.50  182.61
   1 -11  -3 1143.06  181.03
   1  11   3 1232.45  179.52
   1  11   3 1160.58  179.72
  -1  11  -3 1421.31  182.82
   1  11   3 1225.51  179.98
   1  11   3 1135.52  179.35
  -1 -11   3 1196.47  182.42
  -1 -11   3 1297.63  184.89
   3 -11   3  370.93   57.92
  -3 -11  -3  401.78   56.41
   3  11  -3  347.30   55.83
   3  11  -3  339.65   57.30
   3 -11   3  334.75   55.11
   3 -11   3  351.60   56.69
   3 -11   3  426.00   58.65
  -3  11   3  374.60   54.29
  -3 -11   3  392.81   56.84
   3  11   3  394.51   54.79
   3  11   3  390.53   55.81
  -3  11  -3  362.24   57.19
   3  11   3  394.80   54.67
  -3  11  -3  391.78   58.89
   3  11   3  427.93   56.32
  -3 -11   3  359.49   63.94
   3 -11  -3  378.95   54.33
  -3  11  -3  402.23   58.07
   3  11   3  346.13   54.27
  -3 -11   3  378.33   60.92
  -3  11  -3  366.92   55.84
   5 -11   3  285.09   38.36
  -5  11   3  204.21   30.70
   5  11  -3  225.84   34.75
   5 -11   3  146.64   30.38
   5 -11   3  130.54   32.90
  -5 -11  -3  215.28   37.43
   5  11  -3  207.62   39.69
   5 -11  -3  188.32   29.19
   5  11   3  229.39   34.86
   5 -11  -3  182.99   32.86
   5  11   3  144.96   30.97
  -5 -11   3  180.77   33.19
  -5  11  -3  137.24   33.19
  -5  11  -3  258.33   37.69
   5 -11  -3  173.40   33.89
   5  11   3  243.31   37.29
   5  11   3  160.23   34.71
   5 -11  -3  167.21   30.75
  -5 -11   3  202.53   39.52
   5  11   3  186.23   32.14
  -5  11  -3  166.85   33.32
  -5 -11   3  187.99   42.93
   5 -11  -3  213.73   31.87
  -5  11  -3  178.61   38.21
   7  11  -3   -1.43   24.65
  -7 -11  -3   30.70   24.41
   7  11  -3  -39.69   35.01
   7 -11   3    2.60   17.96
  -7  11   3   33.18   16.83
   7 -11   3   31.86   26.89
   7  11  -3   37.29   20.35
   7 -11   3   34.11   24.30
   7  11   3   38.61   28.04
  -7  11  -3   17.36   23.98
   7 -11  -3   24.07   14.76
  -7  11  -3   32.91   22.55
  -7  11  -3   -9.54   18.80
   7  11   3    6.52   21.40
  -7  11  -3    0.94   29.57
  -7 -11   3    6.92   22.67
   7  11   3   25.81   20.48
   7  11   3   24.18   18.04
   7 -11  -3   31.43   21.63
   7 -11  -3   -1.92   21.40
  -7 -11   3   -2.73   33.70
   7  11   3   39.41   24.25
   0 -12   3  239.36   37.17
   0 -12   3  250.54   42.83
   0 -12   3  232.51   38.48
   0  12  -3  221.90   40.99
   0  12  -3  247.83   35.45
   0 -12  -3  242.29   35.56
   0  12  -3  188.14   36.34
   0 -12  -3  221.35   32.27
   0  12  -3  228.12   40.39
   2 -12   3   54.65   16.16
   2 -12   3   46.37   13.35
   2  12  -3   34.34   13.14
   2  12  -3   40.86   12.61
  -2 -12  -3   70.81   14.09
   2 -12   3   81.58   22.44
   2 -12   3   59.11   17.42
   2 -12  -3   32.45   13.69
   2  12   3   63.16   13.94
  -2 -12   3   34.67   13.76
  -2  12  -3   45.47   13.60
  -2 -12   3   38.03   19.41
  -2  12  -3   27.39   14.06
  -2  12  -3   26.53   15.35
  -2 -12   3   42.19   21.49
  -2  12  -3   70.27   19.69
   2  12   3   66.71    9.71
   2  12   3   58.03   11.70
   2  12   3   58.60   14.11
   2  12   3   67.88   12.64
   4 -12   3   19.50   16.89
   4  12  -3   21.57   14.79
   4 -12   3   18.53   13.34
   4 -12   3   22.36   16.29
   4  12  -3   10.59   15.69
  -4  12   3    9.45    9.55
  -4 -12  -3   14.73   14.07
   4 -12   3    6.00   10.15
  -4  12  -3   25.05   16.65
   4 -12  -3   23.00   11.34
  -4 -12   3   23.91   12.34
  -4  12  -3   -5.05   12.72
   4  12   3   17.80   12.17
   4  12   3   33.19   12.80
  -4 -12   3   45.09   27.33
   4  12   3   18.83   14.26
  -4 -12   3    8.81   21.53
  -4  12  -3   47.10   18.03
   4 -12  -3   26.28    8.72
  -4  12  -3   14.80   13.78
   6 -12   3   26.41   15.48
  -6  12   3   52.37   14.75
   6  12  -3   41.94   36.10
   6  12  -3   24.00   22.69
  -6 -12  -3   43.79   22.35
   6 -12   3   40.63   21.80
   6 -12   3   39.77   21.61
   6  12  -3   35.13   16.63
   6 -12  -3   44.09   15.94
  -6  12  -3   16.60   18.46
   6 -12  -3   24.72   18.20
   6  12   3   34.94   21.62
  -6 -12   3   20.25   25.02
   6 -12  -3   57.47   19.72
  -6  12  -3   39.56   20.02
  -6  12  -3   49.58   23.00
  -6 -12   3   74.37   37.61
   6 -12  -3   45.13   13.43
   6  12   3   31.93   17.41
   6  12   3   54.16   21.04
  -6  12  -3    5.24   21.44
   6 -12  -3   11.15   19.21
   6  12   3   21.77   17.89
   6  12   3   57.71   25.01
   1 -13   3  329.30   47.92
  -1 -13  -3  274.71   43.46
   1 -13   3  324.21   50.22
   1  13  -3  320.01   52.77
   1  13  -3  307.07   44.87
   1  13  -3  287.37   45.96
   1 -13   3  304.34   47.65
   1  13  -3  311.84   46.51
   1 -13   3  272.19   45.48
   1  13   3  269.64   43.12
  -1  13  -3  338.48   47.74
  -1 -13   3  295.61   52.19
  -1 -13   3  322.87   47.79
   1  13   3  280.49   42.36
  -1  13  -3  323.37   45.53
   1 -13  -3  266.81   46.16
  -1 -13   3  303.53   48.33
  -1  13  -3  297.86   49.58
  -1  13  -3  348.92   47.29
   1  13   3  303.22   42.56
   1  13   3  301.53   43.40
   3 -13   3   80.53   22.29
  -3  13   3  122.34   20.75
  -3 -13  -3  116.09   21.27
   3  13  -3   98.13   22.56
   3 -13   3   82.51   21.80
   3 -13   3   83.45   22.36
   3 -13   3   67.25   18.42
   3  13  -3   64.75   22.17
  -3  13  -3   93.34   23.94
   3  13   3  124.89   19.55
  -3  13  -3   79.87   21.05
  -3 -13   3   69.56   21.21
   3  13   3   98.28   20.93
  -3 -13   3   64.29   26.63
   3 -13  -3  137.61   21.46
   3  13   3  133.45   19.87
  -3 -13   3   93.18   30.37
   3  13   3  131.11   21.94
   3 -13  -3  117.85   17.62
  -3  13  -3   99.48   24.69
   3  13   3  133.25   19.27
  -3  13  -3   96.49   21.62
  -5 -13  -3  104.86   25.43
   5 -13   3  135.08   26.40
   5 -13   3   63.80   24.81
  -5  13   3   83.08   17.68
   5 -13   3   76.10   21.26
   5  13  -3   94.73   25.54
   5  13  -3  119.10   35.09
   5  13  -3  104.93   23.37
   5  13   3  100.50   23.77
   5 -13  -3   62.28   15.72
   5 -13  -3   63.28   20.92
  -5  13  -3   63.61   22.86
  -5  13  -3   89.27   27.29
   5  13   3   79.67   20.31
  -5  13  -3   73.19   22.21
  -5 -13   3   75.32   29.40
   5 -13  -3  103.44   19.65
   5  13   3   66.01   19.80
   5 -13  -3  104.96   21.23
   5 -13  -3  110.22   19.17
  -5 -13   3  121.00   37.21
  -5 -13   3   71.67   19.85
   5  13   3  111.71   26.66
   5  13   3  127.24   23.30
  -5  13  -3  109.64   26.73
   0 -14  -3  163.49   26.22
   0  14  -3  117.05   24.55
   0  14  -3  134.73   26.07
   0 -14   3  176.89   30.99
   0 -14  -3  124.82   21.69
   0  14  -3  180.34   33.57
   0 -14   3  229.56   31.37
   0 -14   3  177.59   34.44
   0  14  -3   99.16   26.10
   2 -14   3   23.03   13.20
   2  14  -3   29.96   11.88
   2  14  -3   41.93   15.91
   2 -14   3   61.77   19.14
   2 -14   3   30.58   12.20
   2 -14   3   43.82   21.53
  -2 -14  -3   50.22   13.59
   2  14   3   37.42   13.07
   2 -14  -3   29.80   15.37
   2  14   3   46.28   10.98
  -2 -14   3   38.38   14.40
  -2  14  -3   53.38   16.64
  -2  14  -3   40.83   15.68
  -2  14  -3   43.35   19.77
  -2 -14   3   32.92   22.14
   2  14   3   52.44   13.59
  -2  14  -3   41.74   19.03
   2  14   3   53.31   11.28
  -2 -14   3   72.93   30.95
   4  14  -3    3.44   15.04
   4 -14   3   39.30   17.78
   4 -14   3   14.61   15.53
   4 -14   3    1.81   16.72
   4 -14   3   16.98   11.70
  -4  14   3    3.20   10.39
   4  14  -3   11.94   13.07
  -4 -14  -3   19.80   16.50
   4  14   3  -13.35   13.86
  -4 -14   3   32.23   13.64
   4  14   3   19.79   11.44
  -4  14  -3   13.63   18.40
   4  14   3    0.86   12.24
   4 -14  -3   10.10   10.57
  -4  14  -3  -10.39   13.00
  -4 -14   3   64.52   32.42
  -4 -14   3   -1.18   20.27
   4  14   3   10.65   10.88
  -4  14  -3   15.19   14.38
  -4  14  -3   30.78   19.49
   4  14   3   29.61   13.54
   6  14  -3   21.10   23.89
   6 -14   3   50.71   24.94
   6 -14   3   -4.41   20.13
   6  14  -3   41.29   21.05
   6  14  -3    8.85   35.14
  -6  14   3   33.34   14.19
   6 -14   3   24.95   15.52
  -6 -14  -3   49.42   23.34
  -6  14  -3  -17.81   16.67
   6 -14  -3   41.57   18.69
   6 -14  -3   28.54   19.15
   6  14   3   46.22   17.45
   6  14   3   39.36   20.07
   6 -14  -3   38.43   16.15
  -6  14  -3   47.25   23.58
  -6  14  -3   10.21   18.79
   6  14   3    9.61   23.49
   6  14   3   33.28   18.78
  -6 -14   3   20.58   15.63
   6 -14  -3   10.12   10.76
   6 -14  -3   37.38   16.84
  -6 -14   3   46.58   39.63
  -6  14  -3   -9.33   21.18
  -6 -14   3   49.28   28.64
   6  14   3   40.82   21.35
   1 -15   3  136.87   39.36
  -1 -15  -3  118.13   21.92
   1  15  -3   83.83   21.95
   1 -15   3  129.78   31.86
   1  15  -3   94.85   24.57
   1  15  -3  125.16   24.55
   1  15  -3   81.86   28.13
   1 -15   3   81.87   23.37
  -1  15  -3   80.03   26.53
  -1  15  -3  172.45   31.89
   1  15   3  142.99   20.82
  -1 -15   3  138.08   27.91
  -1 -15   3  193.00   43.28
  -1  15  -3   99.49   24.24
   1  15   3  135.11   21.83
  -1 -15   3  208.99   36.87
   1  15   3  150.23   22.15
  -1  15  -3  145.74   26.68
   1 -15  -3  156.38   26.21
   1  15   3  179.25   21.00
   3 -15   3   59.61   16.83
   3 -15   3   50.07   20.98
  -3 -15  -3  115.42   19.26
   3  15  -3   53.08   19.95
   3 -15   3   57.94   19.53
   3 -15   3   27.06   19.09
   3  15  -3   33.30   15.38
   3  15   3   91.36   14.28
   3  15   3   68.40   17.60
  -3  15  -3   28.35   16.37
  -3  15  -3   50.53   21.33
   3  15   3   90.46   14.78
  -3 -15   3   36.64   22.90
   3  15   3  101.27   14.95
  -3  15  -3   56.44   18.37
  -3 -15   3   -4.92   26.49
  -3  15  -3   94.23   22.35
   3  15   3   91.69   17.72
  -3 -15   3   39.65   15.94
   5 -15   3   50.83   15.45
   5  15  -3   19.75   16.50
  -5  15   3   56.99   14.69
   5 -15   3   18.74   19.84
  -5 -15  -3   73.95   22.77
   5  15  -3   91.26   35.36
   5 -15   3   37.34   18.98
   5 -15   3   81.15   25.21
   5  15  -3   50.23   21.52
   5 -15  -3   38.70   11.02
  -5  15  -3   23.06   18.16
   5 -15  -3   58.50   16.41
   5  15   3   81.13   22.13
   5 -15  -3   62.53   15.25
  -5 -15   3   35.31   14.49
  -5  15  -3   23.81   22.43
  -5 -15   3   18.93   37.24
  -5 -15   3   36.36   27.29
   5 -15  -3   27.09   13.24
   5  15   3   51.49   16.02
   5 -15  -3   55.29   17.45
   5  15   3   43.97   17.31
   5  15   3   64.91   19.52
   5  15   3   24.62   18.37
  -5  15  -3   33.84   17.76
  -5  15  -3   70.93   23.58
   0  16  -3   73.70   19.51
   0 -16   3  189.36   40.49
   0 -16   3   61.70   19.86
   0 -16   3   64.17   23.24
   0 -16  -3   65.72   18.12
   0  16  -3   71.93   25.28
   0 -16  -3   81.36   15.12
   0  16  -3   87.95   20.02
   0  16  -3   87.73   23.36
   2 -16   3   97.38   28.26
   2  16  -3  138.80   25.81
  -2 -16  -3  161.17   25.94
   2  16  -3  135.59   25.87
   2 -16   3  117.18   24.83
   2  16  -3  143.60   28.67
   2 -16   3  151.62   30.51
  -2  16  -3  128.88   26.52
   2  16   3  127.81   21.94
   2  16   3  158.44   24.05
   2 -16  -3  112.06   27.25
  -2  16  -3  120.38   25.95
   2  16   3  174.59   23.78
  -2  16  -3  103.75   28.51
  -2 -16   3  136.95   43.65
   2  16   3  180.10   26.00
  -2 -16   3  179.92   37.10
  -2 -16   3  113.95   25.96
  -2  16  -3  151.58   32.36
   4  16  -3   22.41   16.23
   4 -16   3   49.39   22.20
   4 -16   3   24.53   14.16
   4  16  -3   26.05   15.62
  -4 -16  -3   61.16   20.00
  -4  16   3   13.07   12.24
   4 -16   3  -11.89   18.89
   4 -16   3   18.53   18.89
  -4  16  -3   28.73   20.31
   4  16   3   14.02   15.69
   4  16   3   25.44   13.73
  -4  16  -3   16.69   18.93
   4  16   3    1.73   11.44
   4 -16  -3   32.46   11.76
  -4  16  -3    2.59   14.49
  -4  16  -3   23.64   15.77
   4 -16  -3   23.09   14.05
  -4 -16   3   43.87   17.17
   4  16   3   35.00   16.47
  -4 -16   3   24.99   24.75
   4  16   3   28.43   13.00
  -4 -16   3    2.36   30.93
   6  16  -3    2.54   15.40
   6  16  -3   26.59   22.60
  -6 -16  -3   57.90   25.42
   6  16  -3   78.56   38.57
  -6  16   3   43.57   15.13
   6 -16   3   -2.81   16.37
   6 -16   3   21.83   23.16
   6 -16   3   -9.49   24.96
   6  16   3    7.36   19.08
   6  16   3   64.74   21.95
  -6  16  -3   16.40   23.60
   6 -16  -3   22.76   14.55
   6 -16  -3   51.44   20.12
  -6  16  -3    7.33   18.39
   6 -16  -3   26.32   15.66
   6 -16  -3   29.43   17.61
  -6  16  -3   22.52   20.27
  -6 -16   3  108.39   55.83
  -6 -16   3   30.21   18.48
   6  16   3   23.58   16.75
  -6 -16   3   47.48   33.45
  -6  16  -3   14.72   26.12
   6  16   3   15.06   23.02
   6 -16  -3   14.90   10.27
   6  16   3   11.24   13.70
   1  17  -3  100.64   23.34
   1 -17   3  150.04   28.42
   1 -17   3   81.05   25.54
   1 -17   3   81.90   30.40
   1  17  -3  112.82   25.35
   1  17  -3  115.01   24.37
   1  17  -3  136.20   34.95
  -1 -17  -3  102.28   22.53
  -1 -17  -3  132.69   22.52
   1 -17   3  138.37   33.68
  -1  17  -3  150.20   31.27
   1 -17  -3  104.74   24.12
  -1 -17   3   72.21   33.68
  -1  17  -3  128.11   26.40
  -1 -17   3  167.28   32.66
  -1 -17   3  132.24   25.65
   1  17   3  137.68   22.11
   1 -17  -3   82.94   19.14
  -1  17  -3  121.25   23.59
  -1  17  -3  156.59   32.55
   1  17   3  183.89   21.03
   3 -17   3    9.93   19.59
   3 -17   3   31.98   15.78
   3  17  -3   14.73   12.04
  -3 -17  -3   81.07   18.30
   3  17  -3   42.23   15.96
   3 -17   3   20.10   18.77
   3 -17   3   33.18   20.02
   3  17   3   51.12   15.79
  -3 -17   3   44.38   26.55
  -3  17  -3   36.12   16.88
   3  17   3   51.46   12.79
   3  17   3   60.95   11.30
   3 -17  -3   44.38   17.75
   3  17   3   67.95   16.52
   3 -17  -3   56.57   10.80
  -3 -17   3   27.09   33.71
   3  17   3   62.64   13.45
  -3  17  -3    9.37   18.13
  -3 -17   3   30.21   16.61
  -3  17  -3    8.91   14.55
  -3  17  -3   33.01   22.32
   5  17  -3   67.60   34.17
   5  17  -3   20.52   17.85
   5 -17   3   -1.85   19.77
   5 -17   3   44.25   25.04
  -5  17   3   43.75   15.19
   5  17  -3   27.71   22.57
  -5 -17  -3   60.31   22.71
   5 -17   3   21.40   16.88
   5 -17   3   43.20   23.35
   5 -17  -3   24.89   15.87
   5 -17  -3   21.91    9.11
  -5  17  -3   33.91   18.85
   5  17   3   58.27   18.71
   5  17   3   32.37   20.76
  -5 -17   3  -29.61   40.74
  -5 -17   3   30.61   29.85
  -5  17  -3    7.35   22.51
  -5  17  -3   12.38   22.99
  -5  17  -3   21.13   19.70
   5 -17  -3   42.62   15.32
   5  17   3   27.79   15.15
  -5 -17   3   36.80   13.69
   0 -18  -3  158.76   27.78
   0  18  -3  135.03   33.13
   0 -18   3  140.37   41.34
   0  18  -3   92.83   24.20
   0  18  -3  105.14   26.26
   0  18  -3  176.91   28.61
   0 -18   3  108.76   26.35
   0 -18   3  221.83   37.17
  -2 -18  -3  188.62   32.12
   2 -18   3  130.60   31.14
   2 -18   3  153.86   35.55
   2 -18   3  132.70   33.76
   2  18  -3  209.19   33.13
   2  18  -3  179.44   32.01
   2 -18   3  226.27   38.69
   2  18  -3  118.36   32.44
  -2  18  -3  212.76   34.07
   2  18   3  207.38   28.51
  -2 -18   3  195.34   42.60
   2  18   3  210.17   30.40
  -2  18  -3  213.84   39.26
  -2  18  -3  158.14   32.95
   2 -18  -3  168.15   34.39
  -2  18  -3  204.77   39.04
  -2 -18   3  141.65   32.08
   2 -18  -3  193.30   27.44
  -2 -18   3  213.36   52.23
   4 -18   3   27.43   16.44
   4 -18   3   50.99   23.63
   4  18  -3    5.59   12.89
  -4 -18  -3   46.53   20.61
  -4  18   3   33.08   14.70
   4 -18   3    0.38   20.75
   4 -18   3   35.66   21.77
   4  18  -3    1.43   16.60
   4 -18  -3    8.82   15.74
  -4  18  -3   -0.89   15.25
   4  18   3   46.37   13.41
  -4  18  -3   27.42   22.95
   4  18   3   41.06   17.86
   4 -18  -3   35.60   12.17
  -4  18  -3   28.22   23.81
  -4 -18   3   36.58   15.96
   4  18   3   51.82   15.09
  -4 -18   3   17.51   37.27
  -4 -18   3   -3.51   24.12
   4  18   3   24.80   12.89
  -4  18  -3   18.03   17.64
   4  18   3   22.03   17.18
   1  19  -3  236.74   40.43
   1  19  -3  206.60   39.54
  -1 -19  -3  225.66   41.20
   1  19  -3  343.78   52.96
   1 -19   3  396.79   50.58
   1  19  -3  235.30   41.04
  -1 -19  -3  207.09   39.39
   1 -19   3  261.36   46.71
   1 -19   3  351.16   57.67
   1  19   3  220.55   36.34
  -1  19  -3  234.57   43.08
  -1  19  -3  238.84   40.01
  -1 -19   3  254.03   46.43
  -1  19  -3  264.77   41.82
  -1 -19   3  299.87   54.97
  -1  19  -3  285.79   47.52
   1 -19  -3  249.84   43.50
   1  19   3  262.27   37.79
   3 -19   3  101.75   29.07
   3 -19   3   64.18   21.24
  -3 -19  -3  103.16   24.56
   3 -19   3  121.19   33.32
   3  19  -3   67.15   22.65
   3  19  -3  111.11   21.42
   3 -19   3   64.97   26.18
   3  19  -3   58.35   19.44
   3 -19  -3  111.54   17.53
   3 -19  -3   66.51   23.21
   3  19   3   87.14   18.43
   3  19   3   99.54   22.13
  -3  19  -3  113.73   28.83
  -3  19  -3   64.12   24.59
  -3 -19   3   94.03   22.18
  -3 -19   3   93.67   38.10
  -3  19  -3   84.96   22.39
  -3  19  -3  102.79   31.45
   3  19   3   97.56   15.88
  -3 -19   3   63.95   30.34
   3  19   3   92.88   20.64
   3  19   3   97.06   18.78
   3  19   3   92.40   16.13
  -5  19   3   54.08   16.78
   5 -19   3   37.51   16.38
   5 -19   3   56.91   25.09
   5  19  -3   48.48   16.81
   5  19  -3   48.70   34.72
   5 -19   3    1.26   28.38
   5 -19   3   60.65   27.73
   5  19  -3    9.44   17.10
  -5 -19  -3   50.95   24.09
   5 -19  -3   42.84   16.08
   5  19   3   73.63   24.76
   5  19   3   70.58   23.12
  -5 -19   3   -3.27   32.67
  -5  19  -3   18.54   18.80
   5  19   3   41.94   18.03
   5  19   3   26.99   15.60
  -5 -19   3   64.90   52.99
  -5 -19   3   39.82   14.66
  -5  19  -3   41.41   20.98
  -5  19  -3   30.90   26.28
   5  19   3   67.07   19.90
  -5  19  -3   38.59   25.58
   0  20  -3   41.11   15.67
   0 -20   3   61.42   22.02
   0 -20   3   37.48   19.88
   0  20  -3   37.24   26.79
   0  20  -3   20.84   16.70
   0 -20   3   47.93   30.79
   0 -20  -3   52.75   17.21
   0  20  -3   46.33   17.75
   2  20  -3   53.92   17.18
   2 -20   3   69.68   22.96
  -2 -20  -3   72.27   19.76
   2 -20   3   44.06   24.81
   2  20  -3   56.21   17.90
   2 -20   3   38.71   29.68
   2  20  -3   41.24   18.72
  -2 -20  -3   64.28   18.74
   2 -20   3   79.82   28.48
   2  20   3   87.57   15.55
   2 -20  -3   76.67   14.89
   2  20   3  106.50   19.72
  -2 -20   3   49.94   18.23
  -2  20  -3   42.98   19.09
   2 -20  -3   33.11   21.58
  -2  20  -3   95.05   29.75
  -2 -20   3   55.52   26.33
  -2  20  -3   47.41   24.76
  -2  20  -3   41.95   18.99
  -2 -20   3   43.62   38.02
   4  20  -3    7.16   13.78
   4 -20   3  -27.05   22.86
   4 -20   3  -14.52   13.43
  -4  20   3   16.61   15.20
   4 -20   3   -8.51   22.07
   4 -20   3   28.86   22.20
   4  20  -3    7.89   17.94
  -4 -20  -3   24.50   19.95
  -4  20  -3   22.99   24.97
   4  20   3   23.47   13.46
  -4  20  -3   -4.17   15.11
   4  20   3   12.54   12.05
  -4 -20   3  -11.27   29.56
   4  20   3   10.87   15.87
  -4 -20   3   -2.66   48.52
   4 -20  -3    5.01   11.53
  -4  20  -3   19.70   22.43
   4 -20  -3   -1.21   18.90
   4  20   3   -4.52   12.74
   4  20   3   -2.91   16.83
  -4  20  -3   -6.42   14.03
  -4 -20   3    4.83   14.61
  -1 -21  -3  232.45   42.93
   1 -21   3  441.52   63.43
   1 -21   3  346.46   51.25
   1 -21   3  284.77   48.73
   1  21  -3  213.96   39.99
   1  21  -3  212.60   41.70
   1  21  -3  244.39   42.88
   1 -21  -3  285.45   46.71
   1  21   3  250.78   39.93
   1  21   3  233.47   37.76
  -1  21  -3  258.91   41.87
  -1  21  -3  344.54   55.17
  -1 -21   3  333.74   47.76
  -1  21  -3  300.24   50.73
  -1 -21   3  285.18   55.50
  -1 -21   3  246.40   47.94
  -1  21  -3  231.91   43.06
   3  21  -3   57.62   20.21
   3 -21   3   88.40   29.30
   3  21  -3   48.33   23.28
   3 -21   3   87.71   28.41
   3  21  -3   91.43   20.02
   3 -21   3   72.74   22.98
   3 -21   3  165.46   34.60
   3 -21  -3  111.31   18.19
   3  21   3  115.29   23.70
  -3 -21   3   81.39   22.88
  -3  21  -3  119.05   31.09
  -3 -21   3   31.44   47.31
  -3 -21   3   60.01   32.16
  -3  21  -3   85.82   22.46
   3  21   3   63.66   21.60
  -3  21  -3   42.25   20.55
   3  21   3  100.36   18.81
  -3  21  -3   56.42   26.35
   3 -21  -3   67.53   24.27
   0  22  -3   -1.21   14.33
   0  22  -3   38.65   20.91
   0 -22   3   45.42   26.39
   0  22  -3  -19.14   25.99
   0 -22  -3   26.67   15.12
   0  22  -3    0.70   14.59
   0 -22   3  -37.20   35.88
   2  22  -3   22.99   16.06
   2 -22   3  -16.02   25.64
   2 -22   3   -4.38   25.37
   2 -22   3    9.87   16.11
   2  22  -3  -11.40   11.47
   2 -22   3  -22.13   18.05
   2  22  -3   10.93   12.62
  -2 -22  -3   14.04   14.98
  -2  22  -3  -21.05   17.20
  -2  22  -3  -26.61   14.00
   2 -22  -3    1.26   12.27
  -2 -22   3  -39.79   41.18
  -2  22  -3  -22.81   22.30
  -2 -22   3   18.91   14.93
   2  22   3   -1.66   10.18
  -2  22  -3  -22.63   21.12
  -2 -22   3    6.39   26.22
   2  22   3   -6.13   13.83
   2 -22  -3    7.43   21.50
  -1 -23  -3   71.83   18.52
   1 -23   3   95.06   27.91
   1  23  -3   34.22   21.67
   1  23  -3   68.67   20.01
   1 -23   3   52.75   37.74
   1  23  -3   61.74   19.83
  -1  23  -3   77.60   31.97
  -1 -23   3  107.56   29.43
  -1 -23   3  131.48   43.06
   1  23   3   72.49   14.76
  -1  23  -3   72.38   24.75
   1 -23  -3   96.09   24.80
  -1  23  -3   58.28   19.96
  -1  23  -3   60.50   20.13
   1  23   3   68.06   17.96
   3  23  -3    7.19   11.97
   3  23  -3   46.77   15.96
   3 -23   3   30.09   20.97
   3 -23   3  -13.37   25.29
   3  23  -3   20.15   15.59
   3 -23   3   11.51   30.03
  -3 -23  -3   36.38   19.43
   3 -23   3    1.88   25.33
   3  23   3   14.91   17.86
   3 -23  -3    6.04   22.04
  -3  23  -3   -5.01   16.60
  -3 -23   3   33.55   48.08
   3 -23  -3   38.11   14.94
  -3 -23   3   48.40   32.79
  -3  23  -3  -14.04   14.19
   3  23   3   10.02   11.93
  -3  23  -3   11.45   22.07
  -3  23  -3   23.27   27.36
   0  24  -3    5.66   14.19
   0 -24   3   12.07   35.96
   0 -24   3   20.67   21.01
   0  24  -3   -4.62   11.91
   0  24  -3    8.11   15.63
   0  24  -3   -1.29   27.04
   0 -24  -3   28.57   15.51
   2  24  -3    0.03   11.81
   2  24  -3    8.86   12.78
  -2 -24  -3   25.60   14.46
   2 -24   3  -23.50   21.24
   2 -24   3  -11.51   31.91
   2  24  -3   -4.53   14.81
   2 -24   3   34.23   34.96
   2 -24   3   32.68   21.43
  -2 -24   3   28.52   29.22
  -2  24  -3    5.03   27.23
   2  24   3   -1.40    9.99
  -2  24  -3  -17.79   19.27
   2  24   3  -17.48   14.36
   2 -24  -3  -36.02   14.63
   2 -24  -3   12.01   20.18
  -2 -24   3   76.32   48.05
  -2  24  -3  -20.44   12.87
  -2  24  -3  -11.79   15.25
   0   0  -4 3227.46  457.24
   0   0   4 3386.51  457.40
  -2   0  -4  428.29   63.81
  -2   0  -4  415.27   64.90
  -2   0   4  467.67   64.13
  -2   0   4  557.55   65.82
   2   0   4  411.20   63.07
   2   0  -4  449.72   65.31
  -2   0  -4  446.66   64.84
   2   0  -4  425.27   64.16
   2   0   4  444.42   64.04
   2   0   4  483.69   64.58
  -2   0  -4  406.50   64.05
   4   0  -4  810.80  111.49
   4   0   4  732.95  110.26
  -4   0   4  771.77  110.56
  -4   0   4  783.95  109.56
  -4   0  -4  835.64  111.40
   4   0  -4  735.50  113.05
   4   0   4  914.46  112.11
  -4   0   4  798.04  111.96
   4   0   4  838.10  111.66
  -4   0  -4  670.01  111.87
  -4   0  -4  705.67  111.08
  -4   0  -4  852.49  113.06
   6   0   4   81.41   20.59
   6   0  -4   75.84   26.35
  -6   0  -4  100.92   29.52
  -6   0   4   88.33   25.59
   6   0  -4   60.70   22.63
   6   0   4   72.57   22.60
   6   0  -4   93.90   34.04
  -6   0   4   87.16   20.51
  -6   0  -4   80.82   23.95
  -6   0  -4   76.73   25.16
   6   0   4   86.59   23.56
  -6   0  -4   42.22   20.32
  -1  -1  -4  168.62   35.92
   1   1  -4  181.18   36.02
   1  -1   4  263.27   36.63
   1   1  -4  269.08   36.43
   1  -1   4  239.52   35.42
   1   1  -4  251.96   35.04
  -1   1   4  236.43   36.75
  -1  -1  -4  190.49   35.14
   1  -1   4  244.05   34.36
  -1  -1  -4  235.67   35.84
  -1  -1  -4  216.44   34.56
  -1   1   4  220.26   35.01
  -1  -1   4  189.28   35.48
  -1  -1   4  230.61   37.63
  -1   1  -4  284.03   35.22
   1  -1  -4  178.93   34.67
  -1   1  -4  302.83   36.45
   1   1   4  219.64   34.91
   1   1   4  243.15   34.07
   1  -1  -4  245.05   34.46
   1  -1  -4  211.27   35.22
   1   1   4  286.49   36.15
  -1   1  -4  202.16   36.90
  -1   1  -4  281.86   36.64
  -1  -1   4  274.71   33.87
  -3  -1  -4   16.10   12.13
   3   1  -4   11.77   11.62
  -3   1   4   16.15   11.60
   3  -1   4   27.13   12.26
  -3  -1  -4   21.76   11.62
  -3   1   4   32.47   10.61
   3  -1   4   22.19   10.41
  -3  -1  -4   15.59   12.92
   3  -1   4   20.60   11.92
   3   1  -4   27.16   11.54
  -3   1  -4   18.00   11.44
   3   1   4   26.51   10.12
  -3  -1   4   15.60    7.21
  -3  -1   4   26.61   14.93
  -3   1  -4   33.53   11.88
  -3   1  -4   38.42   14.73
   3   1   4   12.60    8.88
   3   1   4   28.07   11.48
   3  -1  -4   19.54   11.64
  -3  -1   4   30.50   12.23
   3  -1  -4   10.03   10.41
  -3   1  -4   41.83   13.09
   5  -1   4  150.61   27.85
   5   1  -4  143.35   28.07
  -5   1   4  162.01   30.58
  -5  -1  -4  102.27   29.91
   5   1  -4  161.54   32.09
  -5   1   4  130.68   26.88
   5  -1   4  219.14   31.89
  -5  -1  -4  175.47   30.89
   5  -1   4  120.59   26.06
  -5  -1  -4  141.83   30.78
   5   1   4  155.81   29.79
  -5   1  -4  185.08   30.43
  -5  -1   4  155.23   28.70
  -5   1  -4  157.77   33.59
   5   1   4  122.36   26.25
  -5   1  -4  121.64   29.94
   5   1   4  170.96   29.86
  -5   1  -4  190.91   31.35
  -5  -1   4  149.96   32.03
   5  -1  -4  177.60   30.63
   5  -1  -4  153.41   31.94
   7  -1   4   52.49   22.09
   7   1  -4  -17.94   33.03
   7  -1   4    8.46   16.22
   7   1  -4   -8.13   17.11
   7   1  -4   19.17   23.60
   7  -1   4  -20.87   21.08
   7   1   4   12.09   21.79
   7   1   4    3.75   16.49
   7   1   4   -4.14   21.38
   7  -1  -4    8.44   23.85
   7  -1  -4   -6.44   18.31
  -7   1  -4    6.61   21.85
  -7   1  -4   -7.82   20.55
  -7   1  -4   27.84   20.93
  -7   1  -4   -6.97   27.27
   7  -1  -4  -31.56   28.90
   0  -2   4 2222.26  320.96
   0   2   4 2315.43  319.63
   0  -2   4 2317.45  320.16
   0   2   4 2273.26  320.23
   0   2  -4 2471.70  320.29
   0   2  -4 2351.96  321.06
   0  -2  -4 2250.27  320.13
  -2  -2  -4  157.01   24.92
   2  -2   4  166.70   26.95
  -2   2   4  189.24   25.86
   2   2  -4  153.18   26.75
   2  -2   4  141.16   25.43
   2  -2   4  130.59   23.73
  -2   2   4  141.68   25.53
  -2  -2  -4  139.12   25.89
   2   2  -4  147.49   29.22
  -2  -2  -4  164.01   26.43
  -2  -2   4  119.24   23.49
  -2   2  -4  157.34   26.54
  -2  -2   4  211.30   28.85
   2   2   4  169.55   24.94
   2  -2  -4  131.27   25.00
   2   2   4  134.71   23.63
  -2   2  -4  158.28   27.73
  -2  -2   4  200.96   30.90
  -2   2  -4  194.29   29.06
   2  -2  -4  155.84   25.63
  -2   2  -4  196.78   26.74
   2   2   4  163.99   25.54
   4  -2   4  514.50   67.45
   4   2  -4  417.86   68.29
  -4   2   4  420.79   64.15
  -4  -2  -4  481.40   65.74
   4   2  -4  444.50   66.04
  -4  -2  -4  438.31   66.81
   4  -2   4  479.77   64.80
  -4  -2  -4  461.49   67.29
  -4   2   4  446.43   65.64
   4  -2   4  487.99   66.36
  -4  -2   4  418.75   65.45
   4   2   4  425.31   64.54
   4  -2  -4  382.28   65.12
   4   2   4  415.52   65.77
   4  -2  -4  372.05   66.95
   4   2   4  542.24   66.66
  -4  -2   4  471.29   67.87
  -4   2  -4  477.58   67.90
  -4   2  -4  398.01   66.45
  -4  -2   4  454.30   64.16
  -4   2  -4  445.58   65.91
  -4   2  -4  456.80   66.37
   6   2  -4  -21.11   31.13
  -6  -2  -4   65.88   21.60
  -6  -2  -4   14.26   23.21
   6  -2   4   84.30   21.78
   6   2  -4   43.33   22.70
   6  -2   4   39.02   17.33
  -6  -2  -4   53.28   20.88
   6   2  -4   25.36   19.40
   6  -2   4   47.17   21.91
   6  -2  -4   -3.63   26.74
   6   2   4   44.29   20.34
   6  -2  -4   14.45   22.31
  -6   2  -4   46.32   21.47
  -6   2  -4   46.61   21.06
  -6  -2   4   28.36   17.55
  -6  -2   4   36.60   23.89
  -6   2  -4   31.00   16.70
   6  -2  -4   52.49   19.03
   6   2   4   33.11   20.73
  -6   2  -4   52.46   23.69
   6   2   4   39.45   16.07
  -1   3   4  339.82   47.48
  -1  -3  -4  274.89   47.17
   1  -3   4  407.67   48.08
   1  -3   4  341.83   48.72
  -1   3   4  346.86   48.62
   1  -3   4  359.34   47.63
  -1  -3  -4  265.53   47.79
   1  -3   4  373.87   49.86
  -1  -3  -4  271.67   48.26
   1   3  -4  351.17   49.66
   1   3  -4  386.96   48.61
   1   3  -4  307.91   50.01
  -1   3  -4  413.94   49.40
   1  -3  -4  277.53   47.39
  -1   3  -4  363.18   49.71
   1   3   4  301.13   46.68
  -1  -3   4  319.35   48.95
   1   3   4  270.66   47.34
  -1   3  -4  400.85   48.39
  -1   3  -4  290.79   49.83
  -1  -3   4  331.06   50.93
   1  -3  -4  330.50   46.89
   3  -3   4   50.24   13.69
   3   3  -4   18.57   13.57
  -3  -3  -4   82.10   14.56
  -3  -3  -4   47.05   15.10
   3   3  -4   16.32   11.92
  -3   3   4   22.56   11.90
   3  -3   4   56.20   15.07
   3  -3   4   51.43   11.42
  -3  -3  -4   41.24   12.88
  -3   3   4   60.87   11.39
  -3   3  -4   88.65   14.70
  -3  -3   4   29.82   16.22
  -3  -3   4   62.91   16.27
   3   3   4   52.59   14.28
   3   3   4   41.87   12.16
   3  -3  -4   14.33   11.87
  -3   3  -4   31.78   14.28
  -3   3  -4   70.56   15.26
   3   3   4   70.12   11.94
  -3   3  -4   49.15   16.18
   3  -3  -4   29.94   12.49
  -3  -3   4   36.25   10.28
  -5  -3  -4  180.28   34.40
   5   3  -4  141.98   30.93
  -5   3   4  148.28   28.91
   5  -3   4  217.72   34.32
   5   3  -4  184.16   36.67
   5  -3   4  135.22   28.74
   5  -3   4  171.34   31.32
  -5   3   4  166.70   31.66
  -5  -3  -4  144.57   35.37
  -5  -3  -4  185.57   32.08
  -5  -3   4  152.70   31.25
   5  -3  -4  147.03   30.37
  -5   3  -4  222.64   34.81
   5   3   4  217.02   31.46
   5   3   4  185.80   34.39
   5   3   4  260.75   34.65
  -5   3  -4  159.19   32.23
  -5  -3   4  169.78   34.86
   5  -3  -4  157.80   34.91
  -5   3  -4  133.33   33.38
  -5   3  -4  156.59   32.46
   7   3  -4   17.58   20.64
   7   3  -4   11.05   19.12
   7  -3   4    3.01   22.68
   7  -3   4   -7.86   16.75
   7   3  -4  -49.56   33.50
   7  -3   4  -13.15   21.75
  -7   3  -4   17.41   29.82
  -7   3  -4   10.83   19.72
   7  -3  -4    0.74   16.83
   7  -3  -4  -28.64   17.30
   7  -3  -4  -32.91   26.50
   7  -3  -4    1.09   19.06
  -7  -3   4    8.91   17.44
   7   3   4   -9.18   16.00
  -7   3  -4    1.78   22.10
  -7  -3   4   11.57   25.38
   7   3   4   13.48   22.89
   7  -3  -4  -27.23   26.91
  -7   3  -4   17.31   20.54
   7   3   4    3.46   21.53
   0  -4   4  869.55  113.12
   0   4  -4  893.77  113.15
   0   4   4  813.25  111.74
   0   4  -4  804.02  113.57
   0  -4   4  744.71  112.26
   0  -4  -4  804.58  112.24
   0   4  -4  815.38  114.19
   0   4   4  803.85  112.30
   0  -4   4  857.24  114.32
   0   4  -4  641.78  113.65
   0  -4  -4  827.67  111.75
   2  -4   4   14.89   11.06
   2   4  -4   19.62   12.87
  -2   4   4   25.95    8.26
   2  -4   4    7.86   10.12
   2  -4   4   23.53    9.67
  -2   4   4   24.58    9.37
  -2  -4  -4   32.21   11.00
  -2  -4  -4   27.12   10.43
  -2  -4  -4   43.79   12.35
   2   4  -4   11.78   10.96
   2  -4  -4   27.95    8.43
  -2   4  -4   25.13   11.77
  -2  -4   4   22.08    8.86
  -2   4  -4   39.85   13.69
  -2  -4   4   13.99   16.34
   2   4   4   17.31    8.77
  -2  -4   4   39.84   15.42
   2  -4  -4   11.36    7.90
  -2   4  -4   29.84   11.01
   2   4   4   38.32   10.81
  -2   4  -4    0.49   10.20
   2   4   4   10.37    7.88
   4  -4   4  244.57   35.01
  -4  -4  -4  232.13   35.44
  -4  -4  -4  147.69   36.59
  -4  -4  -4  218.98   37.27
  -4   4   4  160.41   34.48
   4  -4   4  267.29   38.71
   4  -4   4  270.87   37.44
  -4   4   4  238.16   33.56
   4   4  -4  141.29   35.39
  -4  -4   4  241.14   36.73
   4   4   4  223.04   34.55
   4   4   4  257.62   37.11
  -4   4  -4  149.60   37.92
  -4   4  -4  242.87   36.68
   4   4   4  275.36   37.07
  -4  -4   4  246.17   43.30
  -4   4  -4  305.77   38.41
   4  -4  -4  145.05   37.00
   6   4  -4  -20.38   30.23
  -6   4   4   27.39   13.30
   6  -4   4    2.55   19.18
   6  -4   4    8.13   16.20
   6  -4   4   31.16   22.06
   6   4  -4    8.50   15.81
   6   4  -4   17.12   21.57
  -6  -4  -4   28.12   19.77
   6  -4  -4    4.17   25.18
  -6   4  -4   32.48   21.71
   6  -4  -4   14.08   19.65
  -6  -4   4   17.19   16.84
  -6   4  -4   30.66   19.84
  -6   4  -4   25.18   19.83
   6   4   4   25.04   16.12
   6   4   4   34.58   18.87
   6   4   4   54.45   21.25
  -6  -4   4   82.06   24.85
  -6   4  -4  -10.32   24.73
   6  -4  -4   18.09   15.95
   1  -5   4  233.09   33.77
   1  -5   4  238.83   35.20
  -1  -5  -4  198.88   33.74
  -1   5   4  237.33   33.55
  -1  -5  -4  215.26   32.84
   1  -5   4  195.35   34.31
  -1  -5  -4  228.28   33.75
   1   5  -4  256.31   38.98
   1   5  -4  196.38   35.55
   1   5  -4  221.68   34.45
  -1   5   4  241.67   32.82
   1  -5   4  207.49   36.79
  -1  -5   4  213.47   33.92
  -1  -5   4  296.38   43.99
   1  -5  -4  238.25   32.87
   1   5   4  208.78   32.90
   1  -5  -4  217.33   32.09
  -1   5  -4  229.63   36.07
  -1   5  -4  228.15   36.69
  -1   5  -4  231.42   34.39
  -1  -5   4  365.30   42.02
   1   5   4  207.69   32.21
   3  -5   4   11.37   12.64
  -3  -5  -4   25.91   12.52
  -3  -5  -4   27.66   11.19
   3  -5   4   24.08   13.33
  -3   5   4   20.29    8.47
   3  -5   4   28.16   11.01
  -3  -5  -4   24.53   11.85
  -3   5   4   24.65   10.14
   3   5  -4   17.11   12.50
   3   5  -4   -0.22    9.91
  -3  -5   4   23.14   15.95
  -3  -5   4   16.47    9.05
   3  -5  -4    9.59   10.47
   3  -5  -4    8.32    9.39
   3   5   4   22.77   10.72
   3   5   4   28.19    9.93
  -3  -5   4   20.80   18.13
  -3   5  -4   21.12   13.21
  -3   5  -4   28.69   13.02
   3   5   4   17.86   10.76
  -3   5  -4    8.10   11.78
  -3   5  -4   12.25   14.41
   5   5  -4  175.54   37.79
  -5  -5  -4  151.31   31.43
   5  -5   4  150.08   29.10
   5  -5   4  226.23   35.09
   5   5  -4  171.85   32.19
   5  -5   4  148.91   31.21
  -5  -5   4  163.89   29.51
   5  -5  -4  121.76   29.49
  -5   5  -4  129.35   30.95
  -5   5  -4  173.58   33.42
   5   5   4  250.17   33.82
  -5   5  -4  178.32   38.91
  -5  -5   4  137.88   31.85
   5   5   4  209.77   32.04
  -5  -5   4  192.95   38.59
  -5   5  -4  226.57   37.67
   5   5   4  191.60   29.64
   5  -5  -4  111.82   30.74
  -7   5   4   -7.38   15.98
   7   5  -4    0.62   19.50
   7   5  -4    2.41   23.84
   7  -5   4   -6.29   17.75
   7  -5   4   31.75   24.80
   7   5  -4  -40.49   36.04
   7  -5   4  -27.19   20.90
  -7   5  -4   27.20   20.64
  -7   5  -4   29.57   29.19
   7  -5  -4   -8.31   26.47
   7  -5  -4  -14.13   15.90
   7   5   4   -6.48   21.16
   7   5   4   29.17   23.54
  -7  -5   4   18.85   20.46
   7   5   4  -20.58   18.85
   7  -5  -4  -10.89   25.11
  -7  -5   4  -15.78   30.08
  -7   5  -4   -9.30   19.95
  -7   5  -4   -2.46   21.77
   7   5   4    6.55   17.68
   7   5   4  -22.94   22.63
   0   6  -4  704.37  100.96
   0  -6  -4  682.32   98.49
   0  -6   4  682.91   99.48
   0  -6   4  745.28  100.13
   0  -6  -4  707.61   98.09
   0   6   4  717.95   98.09
   0  -6   4  699.17  101.41
   0   6  -4  564.79  100.53
   0   6   4  708.76   98.59
   0   6  -4  799.95  100.22
   0   6  -4  797.46  101.67
   2  -6   4    9.78   10.81
   2   6  -4    8.02   10.86
  -2  -6  -4   62.74   13.02
  -2   6   4   37.72    7.59
  -2  -6  -4   83.60   12.39
  -2  -6  -4   28.79   10.59
   2   6  -4   28.03   14.67
   2  -6   4   30.08    9.41
  -2   6   4   27.08    8.59
   2  -6   4   24.41   13.37
   2  -6   4   46.06   12.21
  -2  -6   4   26.04   10.01
   2  -6  -4   19.31    8.10
  -2   6  -4   20.12   12.33
  -2   6  -4   10.81   13.13
   2   6   4   34.23   10.25
   2   6   4   46.17    9.10
  -2   6  -4   24.24   13.37
  -2  -6   4   31.42   14.78
  -2   6  -4    4.89   13.15
  -2  -6   4   22.48   18.94
   2   6   4   18.48    8.47
  -4  -6  -4  287.13   38.84
   4  -6   4  330.88   43.26
   4  -6   4  278.82   40.61
  -4  -6  -4  266.50   40.80
  -4  -6  -4  259.11   41.13
   4   6  -4  163.46   42.53
   4  -6   4  278.30   38.61
   4   6  -4  168.40   40.21
   4   6   4  334.20   40.35
   4  -6  -4  173.18   40.28
  -4   6  -4  148.23   41.37
   4   6   4  283.76   40.19
  -4   6  -4  253.90   41.40
  -4   6  -4  256.16   39.92
  -4  -6   4  179.28   40.19
  -4  -6   4  266.07   47.31
   4  -6  -4  196.20   37.51
  -4  -6   4  238.72   38.19
   4   6   4  286.44   38.04
   6  -6   4   25.01   18.76
   6   6  -4    1.24   34.76
   6   6  -4   13.99   23.03
  -6   6   4   39.68   11.85
  -6  -6  -4   36.51   19.43
   6   6  -4    0.13   16.05
   6  -6   4   16.47   21.37
   6  -6   4    2.32   13.63
   6   6   4   30.88   16.62
   6  -6  -4   23.96   23.98
  -6   6  -4   10.23   19.84
   6   6   4  -31.16   20.93
   6  -6  -4    0.38   20.10
  -6   6  -4   33.74   20.70
   6   6   4   81.62   21.27
   6  -6  -4   18.54   15.38
   6   6   4   32.31   19.36
  -6   6  -4   15.50   26.80
  -6  -6   4   42.40   20.97
   6   6   4   -4.51   17.59
   6  -6  -4   -5.77   17.17
  -6   6  -4   31.60   20.87
  -6  -6   4   34.89   26.25
   6  -6  -4   -5.31   14.80
   1   7  -4  398.72   62.08
   1  -7   4  462.55   63.01
   1  -7   4  459.81   61.93
   1  -7   4  393.82   60.06
   1  -7   4  345.45   60.45
  -1  -7  -4  377.70   59.51
   1   7  -4  336.54   63.52
   1   7  -4  449.82   61.82
  -1  -7  -4  509.17   59.77
   1   7  -4  388.37   60.60
  -1   7  -4  421.24   60.78
  -1  -7   4  382.61   60.49
   1   7   4  476.40   59.21
  -1   7  -4  390.42   62.12
   1   7   4  483.43   58.64
  -1  -7   4  405.62   61.91
  -1  -7   4  388.71   64.13
  -1   7  -4  435.17   62.78
  -1   7  -4  341.87   62.17
   3   7  -4   31.95   13.25
   3  -7   4   27.33   10.37
  -3  -7  -4   71.72   14.22
  -3  -7  -4   47.39   14.92
   3  -7   4   43.96   17.22
   3   7  -4   18.81   12.22
  -3  -7  -4   64.08   14.63
   3  -7   4   20.06   12.18
   3  -7  -4   23.54   11.23
   3   7   4   60.73   12.61
  -3   7  -4   45.81   15.54
   3  -7  -4   29.61   10.08
  -3  -7   4   19.32   10.99
  -3  -7   4   68.50   20.33
  -3  -7   4   57.29   25.59
   3   7   4   46.46   13.48
  -3   7  -4   32.15   16.59
  -3   7  -4   29.75   15.10
   3   7   4   66.17   12.80
  -3   7  -4   19.86   12.58
   5   7  -4  188.41   34.23
   5  -7   4  231.13   34.94
  -5  -7  -4  205.47   35.23
   5  -7   4  167.17   32.24
   5  -7   4  128.51   28.98
   5   7  -4  155.99   37.10
   5   7   4  185.19   33.17
  -5  -7   4  116.83   28.52
   5  -7  -4  205.62   28.67
   5  -7  -4  144.65   32.07
  -5   7  -4  153.19   32.84
   5  -7  -4  248.94   31.93
   5  -7  -4  126.60   29.25
   5   7   4  228.29   33.42
  -5  -7   4  157.99   34.77
  -5   7  -4  154.92   32.26
  -5  -7   4  211.81   39.46
  -5   7  -4  154.67   36.91
   5   7   4  223.54   30.17
  -5   7  -4  116.33   30.69
  -7  -7  -4  -10.79   20.01
   7  -7   4   -9.59   15.35
   7  -7   4   -1.80   22.60
   7   7  -4  -71.98   35.51
  -7   7   4   11.25   13.76
   7   7  -4   17.65   17.91
   7   7  -4    6.53   25.12
   7  -7   4   15.06   24.09
   7  -7  -4   -5.18   15.61
  -7   7  -4   -3.57   20.46
   7  -7  -4  -30.61   23.74
  -7   7  -4   11.70   21.63
   7  -7  -4  -14.67   26.70
   7   7   4   -8.26   23.04
   7   7   4   31.51   23.56
   7   7   4   20.33   22.64
  -7   7  -4   -9.43   21.60
  -7   7  -4   14.47   26.24
   7   7   4    1.17   18.59
  -7  -7   4   -4.09   19.74
   7   7   4  -10.25   18.10
  -7  -7   4  -11.31   27.92
   0   8  -4 1334.28  169.71
   0  -8   4 1186.60  169.69
   0   8   4 1163.44  165.77
   0  -8   4 1245.24  167.70
   0   8  -4 1188.34  169.09
   0  -8  -4 1126.66  166.04
   0   8  -4 1302.82  168.14
   0   8  -4 1120.25  168.74
   0  -8   4 1186.70  168.12
   2   8  -4   82.67   22.83
   2  -8   4  201.17   29.70
  -2  -8  -4  144.47   22.85
   2   8  -4  147.47   25.28
   2  -8   4  105.06   23.49
   2  -8   4  102.94   21.42
   2  -8   4  120.61   23.78
  -2   8  -4   99.21   24.49
  -2   8  -4  163.34   29.47
   2   8   4  136.54   20.88
  -2  -8   4  164.32   32.52
  -2  -8   4  128.70   27.37
   2   8   4  144.81   22.29
  -2  -8   4  126.06   22.70
  -2   8  -4  172.32   27.21
  -2   8  -4  152.63   26.86
   2   8   4  128.95   20.79
   4   8  -4  222.75   44.53
   4  -8   4  375.82   47.86
   4  -8   4  266.72   41.75
   4   8  -4  280.42   44.04
   4  -8   4  277.79   44.43
  -4  -8  -4  274.81   44.54
   4  -8  -4  199.52   40.54
  -4  -8   4  361.92   57.14
  -4  -8   4  300.17   48.43
  -4   8  -4  266.40   43.33
  -4   8  -4  277.08   45.57
  -4  -8   4  269.41   42.42
  -4   8  -4  289.75   46.69
   4   8   4  285.91   43.47
   4   8   4  331.34   43.19
   4  -8  -4  208.20   43.03
   4  -8  -4  255.16   39.78
   4  -8  -4  261.40   41.03
   4   8   4  257.21   41.42
  -4   8  -4  354.59   46.51
   6   8  -4   37.34   38.38
   6   8  -4  -15.06   15.26
   6  -8   4   14.08   15.43
  -6  -8  -4   37.11   21.21
   6  -8   4   24.52   20.00
   6   8  -4  -11.36   20.83
   6  -8   4   37.17   22.90
  -6  -8   4   83.59   35.68
   6  -8  -4   18.04   14.66
  -6   8  -4   27.10   20.43
   6   8   4   12.88   16.90
   6   8   4   39.91   19.68
  -6   8  -4   39.66   19.15
  -6   8  -4   33.57   21.20
   6  -8  -4   36.05   20.88
   6   8   4   25.19   19.93
   6   8   4   42.29   22.65
  -6  -8   4   24.92   13.07
  -6   8  -4  -10.77   24.22
   6  -8  -4   20.71   22.03
   6   8   4   39.21   16.95
  -6  -8   4   34.86   23.29
   1   9  -4  212.13   37.68
   1  -9   4  217.51   36.63
   1  -9   4  232.84   41.46
   1   9  -4  251.06   43.32
   1  -9   4  216.30   38.09
  -1  -9  -4  237.68   35.30
   1  -9   4  244.39   38.71
   1   9  -4  218.00   38.51
  -1   9  -4  210.98   38.74
   1  -9  -4  264.33   35.53
  -1  -9   4  206.91   42.00
   1   9   4  245.77   34.03
   1   9   4  269.89   34.74
  -1   9  -4  267.72   37.32
  -1  -9   4  262.97   41.30
  -1   9  -4  211.90   39.46
  -1   9  -4  238.73   41.26
  -1  -9   4  194.27   37.78
   3   9  -4   -1.81   14.26
   3  -9   4   23.34   15.78
   3  -9   4   23.27   11.67
   3  -9   4   20.35   13.41
   3   9  -4   16.49   13.96
   3  -9   4   31.21   15.72
  -3  -9  -4   29.55   12.99
  -3   9  -4   21.99   12.85
  -3  -9   4   15.34   11.61
   3   9   4   47.93   11.73
  -3  -9   4   -4.52   21.76
  -3  -9   4   59.77   22.94
   3   9   4   67.80   15.64
  -3   9  -4   37.07   16.59
  -3   9  -4    0.65   20.57
  -3   9  -4    7.10   14.60
   3   9   4   41.50   10.98
   5  -9   4   53.45   23.54
   5   9  -4  114.56   26.79
   5  -9   4   73.77   20.97
   5   9  -4  135.00   30.61
  -5  -9  -4  134.82   26.60
   5  -9   4  142.34   27.47
   5  -9  -4   90.53   25.57
   5   9   4  175.89   25.49
   5  -9  -4   73.91   25.65
  -5   9  -4   95.22   25.90
   5   9   4  128.55   22.53
  -5  -9   4  151.20   31.30
   5  -9  -4  109.72   19.98
  -5   9  -4  169.56   32.21
  -5   9  -4   63.35   24.41
   5   9   4   70.97   21.19
   5  -9  -4  145.54   23.85
   5  -9  -4   67.37   20.72
  -5  -9   4  103.12   22.16
   5   9   4  100.38   25.47
  -5   9  -4   55.89   27.72
  -5  -9   4   80.95   35.80
   5   9   4  127.61   25.20
   0 -10   4 1411.00  179.67
   0 -10   4 1209.06  181.45
   0 -10   4 1203.79  179.68
   0  10  -4 1173.82  180.02
   0  10  -4 1250.43  180.81
   0  10  -4 1301.98  179.41
   0  10  -4 1376.37  181.28
   2  10  -4  263.19   41.71
   2 -10   4  242.07   42.92
  -2 -10  -4  285.25   40.88
   2  10  -4  306.65   43.88
   2 -10   4  275.43   44.94
   2 -10   4  249.66   40.68
   2 -10   4  264.26   42.98
  -2  10  -4  234.13   41.82
  -2 -10   4  281.27   42.79
   2  10   4  226.68   38.89
  -2  10  -4  226.30   44.16
   2  10   4  305.59   38.15
   2  10   4  256.58   39.81
   2  10   4  279.70   39.50
  -2  10  -4  268.77   46.16
  -2  10  -4  211.90   43.82
  -2 -10   4  312.06   54.42
  -2 -10   4  374.58   50.41
   2  10   4  276.54   40.96
   4 -10   4  297.41   49.73
   4 -10   4  401.96   53.15
   4  10  -4  251.18   49.60
  -4 -10  -4  312.01   49.56
   4 -10   4  283.17   46.88
   4  10  -4  265.64   47.85
  -4  10  -4  301.37   48.52
   4  10   4  278.80   46.28
  -4 -10   4  329.71   48.26
   4 -10  -4  310.26   44.91
   4  10   4  320.66   61.91
  -4 -10   4  438.32   66.47
   4  10   4  292.28   48.39
   4  10   4  364.79   47.79
  -4  10  -4  293.51   50.49
  -4 -10   4  330.86   56.10
  -4  10  -4  300.75   51.10
   6  10  -4   12.08   22.64
   6 -10   4   58.00   24.39
  -6 -10  -4   76.44   25.12
   6 -10   4   39.15   18.52
   6  10  -4   48.56   19.36
   6 -10   4   43.80   23.76
   6  10  -4   44.41   38.88
  -6  10  -4   44.69   21.68
  -6  10  -4   32.35   22.76
   6  10   4    8.67   21.17
   6  10   4   79.80   22.15
   6 -10  -4   66.56   20.81
   6 -10  -4   35.93   15.80
   6  10   4   20.68   20.08
   6 -10  -4   39.27   19.99
  -6 -10   4   36.16   15.74
  -6  10  -4   60.63   32.60
   6 -10  -4   59.29   23.37
  -6 -10   4   51.67   33.16
  -6 -10   4   15.86   24.25
   6 -10  -4   44.12   14.71
   6  10   4   42.11   18.31
  -6  10  -4   40.67   21.59
   6  10   4   45.96   18.98
   1 -11   4  105.30   22.85
   1  11  -4  135.41   27.61
   1  11  -4  104.37   22.85
   1  11  -4  109.97   24.10
   1  11  -4  108.68   27.30
   1 -11   4   87.59   23.78
   1 -11   4  126.22   24.14
  -1 -11  -4  124.89   20.34
   1 -11   4  123.03   28.19
  -1 -11   4  118.18   26.67
  -1  11  -4  132.21   22.88
   1  11   4  109.25   19.29
  -1 -11   4  170.15   34.30
   1 -11  -4   89.26   20.51
   1  11   4  107.04   19.90
  -1  11  -4  126.62   26.86
   1  11   4  114.88   18.32
  -1  11  -4  108.73   25.57
  -1  11  -4  138.55   25.50
  -1 -11   4  186.93   26.97
   1  11   4  116.82   19.02
   3  11  -4   12.83   12.16
   3 -11   4   25.38   14.49
   3 -11   4  -10.27   13.77
  -3 -11  -4   13.96   12.55
   3  11  -4   -0.27   10.28
   3 -11   4   21.54   12.21
   3 -11   4   11.92   14.40
  -3 -11   4   16.18   20.84
  -3  11  -4   -0.31   16.58
  -3  11  -4    1.30   15.23
   3  11   4   11.23    9.00
   3  11   4    9.69   11.96
   3  11   4   10.65   10.27
  -3  11  -4   33.61   17.98
  -3 -11   4    2.20   26.95
   3  11   4   12.67   12.26
  -3 -11   4    3.68   10.79
   3  11   4   11.25   10.05
  -3  11  -4   -5.90   12.42
   5 -11   4   32.01   19.25
  -5 -11  -4   43.67   20.19
   5  11  -4   33.21   21.66
   5 -11   4   85.72   23.25
   5 -11   4   38.59   14.50
   5  11  -4   45.47   21.80
  -5 -11   4   38.33   14.02
   5 -11  -4   58.57   12.81
   5 -11  -4   40.53   15.46
  -5  11  -4   55.30   21.52
  -5  11  -4   31.85   18.76
   5 -11  -4   15.88   17.82
  -5  11  -4   74.87   22.80
  -5  11  -4   34.89   27.05
   5  11   4   78.51   22.49
  -5 -11   4   34.96   24.34
   5  11   4   67.04   18.51
  -5 -11   4   -6.90   31.15
   5 -11  -4   32.23   18.52
   5  11   4   39.88   19.06
   5  11   4   37.98   15.19
   5 -11  -4   23.95   13.89
   5  11   4   65.15   17.50
   0  12  -4  795.40  114.31
   0 -12   4  768.30  114.48
   0 -12  -4  720.74  108.35
   0  12  -4  758.52  111.89
   0 -12   4  916.53  112.22
   0  12  -4  843.39  113.04
   0 -12   4  709.58  111.57
   0  12  -4  754.11  110.86
   2 -12   4  204.54   38.10
  -2 -12  -4  210.01   33.67
   2 -12   4  210.14   37.15
   2 -12   4  207.39   34.19
   2  12  -4  158.80   33.86
   2 -12   4  264.19   40.74
  -2 -12   4  205.81   36.75
  -2  12  -4  253.46   39.86
   2  12   4  204.03   32.73
   2  12   4  237.55   33.80
   2  12   4  207.56   31.87
  -2  12  -4  223.83   38.49
  -2 -12   4  182.05   42.14
  -2  12  -4  248.92   41.87
   2  12   4  185.46   31.54
  -2 -12   4  218.17   40.17
  -2  12  -4  262.30   39.51
  -4 -12  -4  230.23   36.20
   4 -12   4  195.32   34.56
   4 -12   4  149.32   37.59
   4 -12   4  287.50   41.65
   4  12  -4  116.95   30.81
  -4  12  -4  139.64   34.60
   4  12   4  247.76   33.14
  -4  12  -4  223.56   37.60
   4  12   4  199.91   36.00
  -4 -12   4  205.82   45.17
  -4  12  -4  272.47   41.64
  -4  12  -4  131.75   38.34
   4  12   4  189.27   31.57
   4  12   4  175.46   32.74
  -4 -12   4  155.49   39.17
   4  12   4  212.40   34.60
  -4 -12   4  233.93   35.56
  -6  12   4   34.30   11.27
   6  12  -4   20.41   18.71
  -6 -12  -4   55.50   22.15
   6 -12   4   21.22   18.51
   6  12  -4   61.74   41.60
   6  12  -4   -0.70   21.12
   6 -12   4   26.92   26.77
   6 -12   4   40.08   24.17
   6  12   4   51.34   20.38
  -6  12  -4   31.34   23.25
   6 -12  -4   33.93   19.58
   6  12   4   10.00   15.76
  -6 -12   4   65.97   44.04
   6 -12  -4   11.47   19.43
   6 -12  -4   16.36   12.32
  -6 -12   4   20.79   28.55
  -6  12  -4   19.38   29.57
  -6 -12   4   25.61   14.40
   6 -12  -4   37.59   14.80
  -6  12  -4   60.27   24.16
   6  12   4   40.25   17.57
  -6  12  -4   38.28   22.05
   6  12   4   68.27   25.33
   6 -12  -4   29.91   17.64
   6  12   4    4.14   20.78
   1 -13   4  108.80   22.64
   1  13  -4   56.75   18.32
   1 -13   4   88.22   21.43
   1  13  -4   65.74   19.25
   1  13  -4   58.68   17.44
   1  13  -4  125.88   29.66
   1 -13   4  130.26   30.63
   1 -13   4  122.97   21.92
  -1 -13  -4  110.20   17.70
   1  13   4  118.12   18.11
  -1  13  -4   78.85   22.47
  -1 -13   4   86.02   26.11
   1 -13  -4   78.27   19.15
  -1  13  -4   64.87   21.55
  -1  13  -4   86.16   23.55
   1  13   4   83.81   15.59
   1  13   4  144.90   17.04
  -1 -13   4   74.60   28.19
  -1  13  -4   82.53   19.90
  -1 -13   4  149.74   24.18
   1  13   4   96.67   16.84
   3 -13   4   17.92   17.29
   3  13  -4   12.97   12.97
   3 -13   4   31.30   16.78
   3 -13   4   50.35   17.41
   3 -13   4   12.56   13.23
  -3 -13  -4   33.51   14.58
   3  13  -4    3.22   17.50
  -3  13  -4   -2.92   15.93
  -3  13  -4   35.59   17.97
  -3  13  -4   30.73   14.19
   3  13   4   30.10    9.26
  -3 -13   4   -7.03   29.87
   3  13   4   -6.80   12.28
   3  13   4   13.77   12.57
  -3 -13   4   32.88   13.54
   3  13   4   23.38   10.75
  -3 -13   4   16.60   22.38
   3  13   4   33.19   10.40
  -3  13  -4   53.11   20.44
  -5 -13  -4   21.80   19.65
   5 -13   4   43.02   21.02
   5 -13   4   32.79   14.08
   5 -13   4   47.63   23.17
   5  13  -4   47.38   20.38
   5  13  -4   51.42   21.84
  -5 -13   4   66.66   27.89
  -5 -13   4    4.49   37.15
  -5  13  -4   27.83   21.26
  -5  13  -4   30.99   20.07
   5  13   4   34.15   15.06
   5 -13  -4   33.05   16.71
  -5 -13   4   23.46   13.61
   5  13   4   55.71   17.44
  -5  13  -4   64.17   37.06
  -5  13  -4   21.17   28.20
   5  13   4   23.81   18.68
   5 -13  -4   38.58   16.64
   0 -14  -4  195.61   31.76
   0  14  -4  140.21   34.04
   0 -14   4  187.52   36.14
   0  14  -4  177.87   33.12
   0 -14   4  174.65   40.19
   0 -14  -4  189.70   27.89
   0  14  -4  178.86   33.45
   0  14  -4  197.84   37.74
   0 -14   4  238.89   36.66
   2 -14   4   34.97   18.36
   2  14  -4   21.73   14.69
  -2 -14  -4   54.71   14.17
   2 -14   4   48.13   15.74
   2 -14   4   42.63   23.73
   2  14  -4   55.15   16.55
   2  14  -4   80.60   15.75
   2 -14   4   38.00   22.32
  -2  14  -4   46.84   21.08
  -2  14  -4   34.69   16.20
  -2  14  -4    9.44   15.26
   2  14   4   68.78   14.64
   2 -14  -4   38.34   14.94
   2  14   4   61.55   12.30
  -2 -14   4   58.46   23.24
  -2 -14   4   31.60   17.09
   2  14   4   77.73   12.01
  -2  14  -4   -3.12   17.56
  -2 -14   4   53.18   29.59
   4 -14   4   41.27   21.33
  -4 -14  -4   57.12   19.09
   4  14  -4    9.37   14.71
   4 -14   4   40.05   21.90
   4  14  -4   19.91   13.16
   4 -14   4   23.25   16.81
   4 -14   4   19.51   18.62
   4  14   4   64.02   15.08
  -4  14  -4   27.55   16.55
   4  14   4   59.26   14.86
  -4 -14   4   46.29   16.96
  -4 -14   4   57.37   40.11
   4  14   4   24.82   16.82
  -4  14  -4   13.99   17.97
   4 -14  -4   43.92   14.19
  -4  14  -4   37.85   22.95
   4  14   4   46.03   14.11
   4  14   4   40.18   17.39
  -4  14  -4   84.77   30.45
  -4 -14   4   14.73   29.12
  -6 -14  -4   42.58   22.19
   6 -14   4   17.20   24.29
  -6  14   4   14.62   11.30
   6 -14   4    1.62   16.98
   6  14  -4   14.40   21.20
   6  14  -4   42.42   41.05
   6  14  -4   20.74   20.04
   6 -14   4    7.17   25.07
   6  14   4   30.48   24.57
   6 -14  -4    8.76    9.66
   6 -14  -4   -5.24   17.75
   6 -14  -4   18.07   12.94
  -6  14  -4   10.60   23.66
  -6  14  -4   28.75   27.33
   6  14   4   13.94   16.57
   6  14   4    9.67   22.02
  -6 -14   4   30.85   14.42
  -6 -14   4   39.96   41.64
  -6  14  -4   -2.64   20.60
  -6 -14   4   12.22   30.92
   6 -14  -4   15.68   14.67
  -6  14  -4    5.05   19.30
   6  14   4   21.31   19.38
   6  14   4   34.74   16.95
   6 -14  -4    9.82   17.93
   1  15  -4   50.50   16.44
   1 -15   4   64.31   21.64
   1  15  -4   46.46   16.57
  -1 -15  -4  104.11   16.85
   1 -15   4   63.90   21.76
   1 -15   4   74.59   19.70
   1  15  -4   89.49   28.85
   1  15  -4   80.48   22.42
  -1 -15   4   86.70   23.03
   1  15   4   84.25   14.13
  -1  15  -4  114.00   28.15
   1  15   4   63.28   15.06
  -1 -15   4   72.85   26.92
   1 -15  -4   75.74   18.51
  -1  15  -4   86.27   21.49
   1  15   4   94.11   15.32
  -1 -15   4   55.64   31.00
  -1  15  -4   65.24   24.64
   1  15   4   70.99   13.65
  -1  15  -4   88.73   22.67
   3  15  -4   -6.51   16.46
   3  15  -4    3.22   13.43
   3 -15   4   26.19   18.84
  -3 -15  -4   26.85   15.58
   3 -15   4   18.53   22.14
   3 -15   4    2.60   17.37
   3 -15   4   11.85   13.40
  -3  15  -4    1.97   16.13
   3  15   4   37.72   11.46
  -3 -15   4   16.60   14.86
   3  15   4   40.55   14.34
  -3 -15   4    8.59   35.39
   3  15   4    8.90   10.37
   3 -15  -4   20.60   11.69
   3  15   4   10.20   13.54
  -3  15  -4    5.35   15.72
  -3  15  -4    2.54   19.85
   3  15   4   14.50    6.99
  -3  15  -4   43.81   21.91
  -3 -15   4   34.63   27.45
   5 -15   4   56.87   23.50
   5 -15   4   58.86   24.46
   5  15  -4    8.97   21.53
  -5 -15  -4   56.18   22.47
   5  15  -4   -7.21   16.70
   5 -15   4   18.82   14.28
  -5  15   4   33.19   12.05
  -5  15  -4   22.94   18.50
   5  15   4   38.13   21.46
  -5 -15   4   60.29   31.19
  -5  15  -4   12.57   18.81
   5 -15  -4   42.76   16.59
   5  15   4   42.42   16.60
   5  15   4   37.39   21.39
  -5  15  -4   77.76   33.21
   5  15   4   55.93   17.91
   5  15   4   25.77   14.92
  -5 -15   4  -32.92   39.49
  -5 -15   4   37.64   17.37
  -5  15  -4   -5.84   24.51
   0  16  -4  101.42   22.95
   0  16  -4   87.46   28.95
   0  16  -4   96.52   22.12
   0 -16  -4   94.66   16.44
   0 -16   4   74.17   22.68
   0 -16   4   66.17   24.32
   0 -16  -4   93.74   19.30
   0 -16   4  128.58   31.95
   0  16  -4   88.94   26.23
   2 -16   4   23.44   18.40
   2  16  -4   23.22   14.62
   2 -16   4   53.23   17.35
   2  16  -4   51.87   16.99
   2  16  -4   25.92   14.99
  -2 -16  -4   63.33   15.32
   2 -16   4   48.14   25.80
   2 -16   4    6.57   19.07
   2  16   4   51.48   15.20
   2  16   4   76.13   12.54
  -2  16  -4   39.55   21.69
  -2  16  -4   28.77   19.63
  -2  16  -4   40.74   18.55
  -2  16  -4   18.65   23.00
  -2 -16   4   51.60   16.60
   2  16   4   60.06   12.44
   2  16   4   62.79   14.12
   2 -16  -4   56.61   18.13
  -2 -16   4   45.69   24.78
  -2 -16   4  104.33   36.11
   4  16  -4   -2.72   15.77
   4 -16   4   25.55   17.08
   4 -16   4   41.97   22.81
   4  16  -4   22.14   13.27
   4 -16   4   50.07   22.51
  -4 -16  -4   69.87   20.66
  -4  16  -4   13.13   25.40
  -4 -16   4   37.68   16.39
  -4  16  -4   42.10   23.17
   4  16   4   42.83   14.75
   4  16   4   41.71   13.40
   4  16   4   45.56   18.91
  -4  16  -4    7.08   19.29
   4  16   4   16.08   13.43
   4 -16  -4   34.29   12.67
  -4  16  -4   -2.65   19.06
  -4 -16   4   82.88   48.58
  -4 -16   4  -25.12   30.09
   4  16   4   44.06   18.28
   1  17  -4  185.46   39.48
   1  17  -4  140.06   27.49
   1 -17   4   94.70   28.81
   1  17  -4  119.76   26.15
  -1 -17  -4  144.85   25.24
   1 -17   4  181.07   35.75
   1 -17   4  148.50   29.90
   1  17  -4  113.51   29.99
  -1  17  -4  198.12   37.84
   1  17   4  153.43   23.31
   1 -17  -4  187.74   30.71
  -1  17  -4  168.94   35.32
   1  17   4  142.47   22.44
   1  17   4  135.44   21.95
  -1 -17   4  139.01   38.60
  -1 -17   4  104.14   29.81
  -1  17  -4  178.32   30.83
  -1 -17   4  132.64   30.26
  -1  17  -4  124.46   29.96
  -3 -17  -4   64.43   18.63
   3  17  -4    3.16   11.95
   3 -17   4   30.47   19.20
   3 -17   4   61.70   26.24
   3  17  -4   16.97   13.10
   3 -17   4   20.41   14.53
   3 -17   4   -5.09   19.41
   3  17   4   71.75   18.13
   3  17   4   24.37   11.86
  -3  17  -4   42.75   22.39
  -3  17  -4   25.36   19.30
  -3 -17   4  -17.51   35.41
   3  17   4   41.46   11.94
  -3 -17   4   36.43   24.87
  -3  17  -4    8.62   21.07
  -3  17  -4    6.33   16.62
  -3 -17   4   50.51   18.66
   3  17   4   52.40   15.29
   3 -17  -4   44.91   15.55
  -5 -17  -4   34.71   21.14
   5 -17   4   25.92   16.86
   5  17  -4   15.90   20.22
   5 -17   4   71.39   26.94
   5 -17   4  -12.79   22.29
   5  17  -4   34.14   17.11
   5 -17   4   29.93   26.48
  -5 -17   4   61.96   56.65
   5 -17  -4   56.78   15.95
  -5  17  -4   21.55   20.73
  -5 -17   4   53.12   34.01
  -5  17  -4   19.22   27.29
   5  17   4   43.06   20.29
  -5  17  -4   54.76   25.95
   5  17   4   46.86   15.31
  -5  17  -4    5.26   19.07
   5  17   4   43.66   17.83
   5  17   4    8.82   18.25
   5  17   4   33.85   14.63
  -5 -17   4   42.49   16.46
   0 -18   4  142.42   29.74
   0 -18   4  133.63   30.29
   0  18  -4  206.96   39.77
   0  18  -4  120.98   26.10
   0 -18  -4  166.60   23.64
   0 -18   4  139.83   36.22
   0  18  -4  135.52   27.49
   0 -18  -4  126.10   26.68
   0  18  -4  105.40   27.24
  -2 -18  -4  131.43   22.47
   2 -18   4  107.60   28.12
   2  18  -4   79.33   20.53
   2 -18   4   73.88   29.56
   2 -18   4  109.19   28.04
   2  18  -4   75.44   20.25
   2 -18   4  106.83   24.24
   2  18   4  124.88   18.87
  -2  18  -4   27.35   23.48
  -2 -18   4   67.16   28.22
  -2  18  -4   57.28   21.41
  -2 -18   4  107.88   25.87
   2  18   4  136.86   21.24
  -2  18  -4   77.17   23.76
   2 -18  -4   83.15   23.97
   2  18   4  111.12   18.11
  -2  18  -4   63.94   28.44
   2  18   4  114.03   21.37
  -2 -18   4  128.18   38.65
   4  18  -4   38.10   15.53
   4 -18   4   63.64   25.55
   4 -18   4   49.07   24.15
   4 -18   4   61.79   19.95
  -4 -18  -4   67.99   22.51
   4  18  -4   28.42   19.03
  -4 -18   4   38.70   17.33
   4  18   4   87.01   15.14
  -4  18  -4   33.08   22.78
  -4  18  -4   41.34   30.63
  -4  18  -4   32.01   20.70
  -4  18  -4   58.43   24.74
   4 -18  -4   31.07   16.08
  -4 -18   4   29.05   44.78
   4  18   4   61.13   15.86
  -4 -18   4   24.18   31.08
   4  18   4   59.06   15.92
   4 -18  -4   58.34   14.37
   4  18   4   72.54   21.04
   4  18   4   56.57   19.54
   1  19  -4   62.82   17.94
   1  19  -4   48.55   29.23
   1 -19   4   71.38   23.23
   1  19  -4   43.31   19.34
   1 -19   4   66.81   29.35
   1 -19   4   45.52   19.89
   1  19  -4   68.73   19.64
  -1 -19  -4  105.85   19.18
  -1 -19  -4   74.70   20.13
  -1 -19   4  110.87   33.99
  -1  19  -4   81.85   27.82
  -1  19  -4   79.29   22.64
  -1 -19   4   48.05   24.99
   1 -19  -4  102.68   22.22
  -1  19  -4   79.62   28.02
  -1 -19   4   62.71   23.85
   1 -19  -4  110.88   15.47
  -1  19  -4   47.04   19.56
   1  19   4   88.25   17.09
  -3 -19  -4   41.66   18.01
   3  19  -4   21.86   12.95
   3 -19   4   18.69   19.39
   3 -19   4   24.95   27.41
   3 -19   4   44.20   27.89
   3  19  -4   53.47   16.48
   3  19  -4    5.09   12.71
  -3 -19   4   32.32   19.00
  -3  19  -4   -0.87   18.68
  -3  19  -4   54.18   25.77
  -3  19  -4   16.45   22.76
   3  19   4   15.73   14.94
   3  19   4   27.77   11.87
   3 -19  -4   23.61   17.76
   3  19   4   34.18   16.88
  -3 -19   4   22.93   36.96
  -3  19  -4   10.39   18.42
   3  19   4   41.65   12.81
   3 -19  -4   35.30    8.96
  -3 -19   4   76.48   30.06
   0  20  -4  121.06   26.89
   0 -20   4  183.68   34.77
   0 -20   4  186.84   49.25
   0  20  -4  202.78   40.71
   0 -20  -4  174.68   27.03
   0 -20   4  241.07   40.81
   0 -20  -4  115.87   27.54
   0  20  -4  162.93   30.41
   0  20  -4  113.34   29.16
  -2 -20  -4  111.99   22.71
   2  20  -4   83.98   21.44
   2 -20   4  177.26   40.43
   2  20  -4   76.23   23.53
   2 -20   4  122.06   29.50
   2  20  -4   88.39   21.22
   2 -20   4  156.98   37.38
   2 -20  -4   96.45   15.91
  -2  20  -4  135.55   34.38
   2  20   4  114.82   18.07
  -2  20  -4   44.35   25.18
  -2 -20   4  156.62   49.70
  -2 -20   4   94.34   32.07
  -2 -20   4  102.48   24.14
   2  20   4   93.63   17.26
  -2  20  -4   45.55   22.68
   2  20   4  106.81   20.66
   2  20   4   86.03   19.98
   2 -20  -4   25.84   22.81
  -2  20  -4   48.73   21.15
   4 -20  -4   21.81   17.50
  -4  20  -4   72.01   27.56
  -4 -20   4   57.10   19.61
   1  21  -4   31.40   31.37
   1  21  -4   21.75   15.54
   1 -21   4   24.00   21.78
   1  21  -4    8.67   11.62
   1 -21   4   -1.16   30.40
   1  21  -4   10.12   13.08
  -1 -21  -4   24.38   14.26
  -1 -21  -4   10.70   14.98
   1 -21  -4   30.94   16.37
  -1  21  -4   -0.19   24.72
  -1  21  -4   -9.45   15.85
  -1  21  -4  -14.61   13.34
  -1 -21   4   36.49   18.58
  -1 -21   4   -0.04   37.05
  -1  21  -4   13.54   19.23
  -1 -21   4   18.18   24.17
   3 -21   4   23.51   23.62
   3  21  -4  -14.43   13.31
   3  21  -4   42.65   16.76
   3 -21   4   -3.48   16.51
   3 -21   4   19.97   28.92
  -3 -21  -4  -13.30   18.01
   3  21  -4   -6.39   12.00
   3  21   4    2.00   11.22
  -3 -21   4   42.02   30.56
  -3  21  -4  -19.74   17.92
  -3  21  -4  -15.43   24.45
   3  21   4   -3.42   14.50
  -3  21  -4    3.06   21.08
  -3 -21   4   28.74   43.12
   3 -21  -4  -10.80   17.73
  -3 -21   4   22.55   18.42
   3  21   4   -3.41   15.78
  -3  21  -4   -8.37   15.27
   3 -21  -4    1.17    8.98
   3  21   4   10.47   10.70
   0 -22   4   81.67   27.04
   0  22  -4   54.28   22.80
   0 -22  -4   65.21   18.37
   0 -22   4   19.45   35.71
   0 -22   4   83.93   24.15
   0  22  -4   57.91   20.72
   0  22  -4   20.69   15.92
   0  22  -4   56.49   30.09
   2 -22   4   82.08   25.79
  -2 -22  -4   60.36   19.77
  -2 -22  -4   57.46   20.38
   2 -22   4   79.66   36.07
   2  22  -4   72.58   19.52
   2 -22   4   58.82   36.17
   2  22  -4   43.64   19.78
   2  22  -4   57.21   17.05
   2  22   4   50.72   13.00
  -2 -22   4  104.07   35.97
   2  22   4   52.00   16.64
   2 -22  -4   37.62   14.02
  -2 -22   4   33.43   18.52
   2  22   4   66.10   14.09
  -2 -22   4   45.39   49.73
   2 -22  -4   57.95   24.18
  -2  22  -4   52.16   27.36
  -2  22  -4   20.38   17.95
  -2  22  -4   42.70   20.75
  -2  22  -4   18.98   22.52
   2  22   4   55.53   17.95
  -1 -23  -4   48.84   16.65
   1 -23   4   57.53   40.80
   1 -23   4   39.44   25.91
   1  23  -4    4.78   15.11
   1  23  -4  -14.76   19.50
   1  23  -4   11.50   16.00
  -1  23  -4  -14.42   16.35
  -1  23  -4   -7.68   28.17
  -1  23  -4   -2.28   22.45
  -1  23  -4  -14.33   15.10
  -1 -23   4   13.33   26.36
  -1 -23   4   25.82   45.13
   1 -23  -4   35.48   17.29
   0   0   5  196.02   30.99
   0   0   5  200.34   28.95
   0   0  -5  216.51   30.91
   0   0  -5  129.74   30.30
   0   0  -5  178.19   30.37
   0   0  -5  181.33   28.78
   2   0  -5   -0.45   10.60
  -2   0  -5   -2.10   11.54
  -2   0  -5   21.95   14.83
   2   0   5   -1.86    8.60
   2   0   5   17.85   10.59
   2   0   5    0.40   12.30
  -2   0   5   -2.49    5.32
   2   0  -5   -4.10    8.75
  -2   0   5  -23.79   14.52
  -2   0  -5   -6.04   10.69
  -2   0  -5    9.92   11.67
  -2   0   5  -10.29   12.37
  -4   0   5  187.61   32.41
   4   0  -5   76.93   26.02
  -4   0  -5  136.25   26.95
  -4   0   5  150.77   27.60
   4   0   5  117.38   25.74
  -4   0  -5  181.77   30.49
  -4   0  -5  132.07   29.72
   4   0   5  201.05   30.07
  -4   0  -5  205.07   32.55
   4   0   5  158.77   30.29
   6   0   5   11.47   17.05
  -6   0   5   -4.30   19.35
  -6   0   5    4.47    9.44
   6   0   5   22.04   21.47
   6   0  -5  -18.74   15.51
  -6   0  -5   20.32   27.39
  -6   0  -5   12.91   22.56
  -6   0  -5    1.67   15.54
   6   0  -5   -9.24   22.41
   6   0   5  -21.06   22.03
  -6   0   5  -11.20   15.04
  -1   1   5  510.38   63.11
   1   1  -5  365.90   61.32
  -1  -1  -5  318.49   61.62
   1  -1   5  413.73   59.64
  -1  -1  -5  429.62   61.56
  -1   1   5  400.66   60.50
  -1  -1  -5  418.97   60.86
   1   1  -5  475.25   60.84
   1   1  -5  473.48   62.23
  -1  -1  -5  407.75   60.06
   1  -1   5  448.20   61.12
  -1   1  -5  481.31   62.27
   1   1   5  404.11   59.37
  -1   1  -5  444.44   60.54
   1  -1  -5  425.03   60.00
  -1  -1   5  410.30   63.33
  -1   1  -5  475.91   61.66
  -1  -1   5  348.58   60.82
  -1  -1   5  411.99   58.88
   1  -1  -5  395.11   60.42
   1  -1  -5  433.22   61.21
  -1   1  -5  310.54   61.95
   1   1   5  418.11   60.54
   3  -1   5  485.96   61.60
   3  -1   5  534.91   62.41
  -3  -1  -5  414.79   62.32
  -3   1   5  439.95   61.86
  -3   1   5  456.73   60.08
   3  -1   5  428.58   59.58
   3   1  -5  294.45   61.65
   3   1  -5  311.24   60.47
  -3  -1  -5  387.80   60.61
  -3  -1  -5  411.47   62.58
  -3  -1  -5  374.95   60.94
  -3  -1   5  433.01   60.98
   3  -1  -5  338.58   60.27
   3   1   5  494.68   61.66
  -3   1  -5  398.26   61.58
   3  -1  -5  352.14   61.91
  -3   1  -5  411.69   61.00
  -3  -1   5  453.23   63.42
   3   1   5  389.70   60.74
  -3   1  -5  433.01   62.90
  -3   1  -5  476.72   63.73
   3   1   5  375.45   59.30
  -3  -1   5  406.32   58.00
   5   1  -5   22.78   18.88
  -5   1   5   29.00   16.27
  -5  -1  -5   76.17   22.96
   5  -1   5   85.06   21.96
   5   1  -5   44.15   18.90
   5  -1   5   58.75   17.79
  -5  -1  -5   40.91   19.99
   5  -1   5   36.14   21.64
  -5  -1  -5   55.91   24.54
  -5  -1  -5   45.57   19.74
  -5   1   5   80.94   22.54
  -5   1  -5   68.76   21.96
  -5  -1   5   53.93   22.90
  -5   1  -5   45.75   19.65
   5   1   5   84.28   17.08
   5   1   5   88.64   21.91
  -5  -1   5   60.73   18.64
  -5  -1   5   44.61   12.08
  -5   1  -5   38.54   17.94
  -5   1  -5   54.12   24.92
   5  -1  -5   57.55   20.13
   5   1   5   61.30   19.36
   5  -1  -5   47.04   19.97
   0   2  -5  353.35   49.18
   0  -2   5  388.96   46.56
   0   2   5  333.92   47.86
   0  -2  -5  232.98   46.14
   0  -2  -5  241.28   47.07
   0   2  -5  353.68   47.47
   0  -2   5  360.64   49.53
   0   2  -5  359.46   49.10
   0   2   5  333.53   46.51
   0   2  -5  223.92   48.44
   0  -2   5  336.11   47.45
  -2  -2  -5   87.93   18.95
  -2   2   5   86.39   16.32
  -2   2   5   72.13   17.83
   2   2  -5   36.05   16.07
   2  -2   5   67.42   17.30
   2   2  -5   51.67   14.80
  -2  -2  -5   63.52   16.28
  -2  -2  -5   78.17   16.19
  -2  -2  -5   69.21   14.79
   2  -2   5   44.25   12.77
   2  -2   5   26.99   14.08
  -2  -2   5   83.17   12.38
   2   2   5   45.09   14.43
  -2  -2   5   63.37   18.42
   2  -2  -5   55.56   13.72
  -2   2  -5   68.09   18.53
  -2   2  -5  125.96   18.40
   2   2   5   63.11   12.80
  -2   2  -5   65.60   18.48
   2  -2  -5   24.40   13.31
   2   2   5   57.11   15.64
  -2  -2   5   96.04   23.18
  -2   2  -5   92.69   16.86
  -4   2   5  179.00   30.63
   4  -2   5  221.27   32.07
  -4   2   5  192.32   27.42
   4   2  -5  104.07   30.83
  -4  -2  -5  156.39   34.75
  -4  -2  -5  129.95   30.33
   4   2  -5  140.29   31.32
   4  -2   5  125.51   27.73
  -4  -2  -5  180.02   30.68
   4  -2   5  147.17   26.43
  -4   2  -5  215.93   32.99
  -4  -2   5  185.04   30.37
  -4  -2   5  173.95   25.59
   4   2   5  154.87   26.92
   4   2   5  158.38   28.50
  -4   2  -5  165.95   34.50
  -4   2  -5  183.45   30.79
  -4  -2   5  186.56   34.15
   4   2   5  219.44   32.37
   4  -2  -5   88.01   27.41
   4  -2  -5   88.05   29.08
  -4   2  -5  109.67   29.22
  -6  -2  -5    8.41   24.34
   6  -2   5   -9.68   16.09
   6  -2   5    1.79   21.25
  -6  -2  -5   -1.67   22.03
  -6   2   5  -36.72   18.13
   6   2  -5   -0.10   16.32
  -6   2   5   20.91   16.45
   6  -2   5  -14.63   22.05
   6   2  -5    0.59   23.87
  -6  -2  -5    3.95   19.23
  -6  -2   5   -1.80   10.07
   6  -2  -5   -7.87   16.62
  -6   2  -5  -21.68   24.51
   6   2   5    1.55   20.36
   6   2   5  -33.42   16.10
  -6  -2   5   23.00   18.81
  -6   2  -5  -10.24   20.31
   6   2   5   11.62   22.03
  -6   2  -5    7.30   21.80
  -6  -2   5    2.66   23.78
   6  -2  -5   17.47   23.55
   1  -3   5  223.66   35.29
   1   3  -5  207.20   37.73
  -1  -3  -5  176.88   36.89
   1   3  -5  207.67   39.23
   1  -3   5  252.75   37.29
   1   3  -5  218.15   37.83
  -1   3   5  238.51   37.74
   1   3  -5  227.34   36.25
  -1  -3  -5  293.22   37.62
  -1  -3  -5  256.75   35.55
  -1   3   5  233.65   35.61
  -1  -3  -5  251.40   36.36
  -1   3  -5  218.06   38.28
   1  -3  -5  250.56   34.64
  -1  -3   5  214.81   34.69
  -1  -3   5  295.94   41.28
  -1   3  -5  202.29   38.11
  -1   3  -5  226.66   36.47
   1   3   5  255.49   35.86
  -1  -3   5  183.79   37.32
   1  -3  -5  237.25   35.89
   1   3   5  254.97   34.43
  -3   3   5  287.39   45.21
  -3  -3  -5  282.88   46.95
  -3   3   5  276.99   43.59
   3  -3   5  345.75   46.73
  -3  -3  -5  316.49   45.58
   3  -3   5  358.47   47.83
   3   3  -5  196.82   46.67
   3  -3   5  285.76   43.99
  -3  -3  -5  293.77   47.21
  -3   3  -5  327.86   48.04
  -3   3  -5  369.17   46.58
   3  -3  -5  262.87   45.66
   3   3   5  339.07   45.69
   3  -3  -5  245.83   44.22
   3   3   5  306.71   43.78
  -3   3  -5  268.47   47.88
  -3  -3   5  282.28   43.12
  -3  -3   5  304.47   46.97
  -3   3  -5  281.12   47.72
   3   3   5  294.61   45.34
  -3  -3   5  294.21   51.18
  -5  -3  -5   74.20   26.50
   5  -3   5   26.70   14.89
  -5  -3  -5   38.69   19.95
  -5   3   5   44.99   15.00
  -5  -3  -5   55.80   20.93
   5   3  -5   22.11   19.86
  -5   3   5   34.35   17.37
   5   3  -5   21.65   17.16
   5  -3   5   45.55   20.93
   5  -3   5   13.27   17.55
  -5  -3   5   57.48   20.03
   5   3   5   37.06   14.49
  -5  -3   5   33.11   11.55
  -5   3  -5   47.74   17.23
  -5  -3   5   39.29   23.28
  -5   3  -5   14.98   27.04
  -5   3  -5   47.45   21.40
   5  -3  -5    2.13   15.25
   5   3   5   26.70   16.18
  -5   3  -5   10.20   17.40
   5   3   5   46.03   19.70
   5  -3  -5   13.87   20.39
   0   4   5  256.56   38.39
   0  -4  -5  249.85   39.12
   0   4  -5  305.29   43.41
   0   4   5  268.78   39.71
   0  -4  -5  232.28   39.57
   0  -4   5  342.29   40.97
   0   4  -5  208.17   41.83
   0   4  -5  280.88   42.38
   0   4  -5  286.70   40.61
   0  -4   5  311.09   43.14
   0  -4  -5  227.17   38.41
   2   4  -5   42.68   17.42
  -2  -4  -5   84.77   16.17
  -2  -4  -5   56.59   15.18
   2  -4   5   71.56   16.73
   2   4  -5   71.69   17.48
  -2   4   5   62.61   16.10
   2  -4   5   60.85   14.18
  -2  -4  -5   59.33   18.06
   2  -4   5   52.86   18.53
  -2   4   5   68.04   13.90
  -2  -4   5   76.44   24.61
  -2   4  -5   77.93   19.70
   2   4   5   49.98   12.42
  -2   4  -5  103.32   18.87
  -2  -4   5   76.34   12.93
   2  -4  -5   37.99   12.16
   2   4   5   76.19   15.18
  -2   4  -5   61.76   16.18
  -2  -4   5   59.40   19.96
   2   4   5   55.64   14.21
   2  -4  -5   40.12   13.51
  -2   4  -5   34.99   18.22
  -4   4   5  174.88   27.27
  -4  -4  -5  232.72   32.63
   4  -4   5  247.83   33.82
   4   4  -5  112.35   31.57
   4  -4   5  198.91   33.24
  -4   4   5  189.04   29.84
   4  -4   5  162.55   29.81
   4   4  -5  105.38   28.99
  -4  -4  -5  112.55   30.53
  -4  -4  -5  181.05   34.83
   4  -4  -5   88.50   27.48
   4   4   5  203.83   31.31
  -4   4  -5  229.99   35.23
  -4   4  -5  163.61   33.92
  -4  -4   5  176.47   28.01
  -4  -4   5  149.70   37.62
  -4   4  -5  169.41   31.43
  -4   4  -5  162.06   34.00
   4   4   5  132.22   31.25
   4   4   5  170.84   29.25
  -4  -4   5  197.99   33.84
  -6  -4  -5    3.60   19.12
  -6  -4  -5    9.76   24.72
  -6  -4  -5  -21.73   19.83
   6  -4   5  -14.87   14.52
   6   4  -5   -8.46   18.70
   6  -4   5    6.12   19.89
   6  -4   5    2.26   21.80
   6   4  -5  -26.82   21.40
  -6   4  -5   -5.72   24.21
  -6   4  -5    2.60   28.95
  -6  -4   5    3.95   10.47
   6   4   5    1.64   19.92
  -6   4  -5    2.07   16.37
   6   4   5  -34.23   15.73
  -6  -4   5   -2.31   26.77
  -6  -4   5   16.36   20.38
  -6   4  -5    4.74   21.91
   6   4   5  -15.81   18.89
  -1  -5  -5  127.43   18.91
   1  -5   5  117.08   18.58
   1   5  -5   46.77   19.95
   1   5  -5   73.47   22.01
   1  -5   5   65.60   17.08
  -1  -5  -5  151.60   18.30
   1   5  -5   78.99   19.58
  -1   5   5   96.27   16.75
   1   5  -5   95.33   19.54
   1  -5   5   84.29   19.10
  -1   5   5   86.06   18.40
  -1  -5  -5   70.39   17.44
  -1  -5   5   63.62   15.69
   1  -5  -5  107.32   16.15
  -1   5  -5  111.79   21.92
   1   5   5  105.48   17.08
  -1   5  -5   25.89   18.54
  -1   5  -5   94.91   19.90
   1   5   5   90.22   15.17
  -1   5  -5   88.06   20.13
   1  -5  -5  134.81   17.74
  -1  -5   5   84.04   22.53
  -1  -5   5   51.99   18.46
   3   5  -5   62.56   24.96
  -3  -5  -5  116.63   24.87
  -3   5   5  164.21   21.86
  -3  -5  -5  140.42   26.63
   3  -5   5  105.87   23.83
   3  -5   5   97.80   21.51
   3  -5   5  104.33   25.93
  -3   5   5  161.94   23.84
  -3  -5  -5  176.30   25.38
  -3   5  -5  184.18   27.68
   3  -5  -5   78.90   21.46
  -3   5  -5  110.68   25.99
  -3   5  -5   74.99   27.77
   3   5   5  184.63   25.20
  -3  -5   5  150.22   23.16
   3   5   5  155.84   24.46
  -3  -5   5  111.56   35.05
  -3   5  -5   73.46   26.07
  -3  -5   5  141.71   29.73
   3   5   5  147.86   23.12
   5  -5   5   17.91   20.83
  -5   5   5   10.05   15.24
  -5   5   5   13.74   12.66
   5  -5   5    5.70   13.59
   5  -5   5    8.82   18.14
   5   5  -5    4.17   15.27
  -5  -5  -5   41.73   19.25
  -5  -5  -5   28.99   19.92
   5   5  -5   -5.60   14.93
  -5  -5  -5   31.99   17.89
  -5   5  -5    2.19   17.32
  -5  -5   5   27.50   28.49
   5   5   5   41.31   17.55
  -5  -5   5   15.41   11.04
  -5   5  -5   48.60   26.03
   5   5   5   33.99   17.70
  -5   5  -5   19.71   20.08
   5  -5  -5    1.97   14.84
   5  -5  -5    6.73   18.99
   5   5   5   23.09   13.42
  -5   5  -5   17.14   18.53
  -5  -5   5   -4.74   18.90
   0   6   5  331.77   45.71
   0  -6   5  306.99   48.31
   0  -6  -5  406.20   46.07
   0  -6   5  349.87   50.96
   0   6  -5  274.91   50.86
   0   6   5  358.71   46.91
   0   6  -5  337.20   48.45
   0   6  -5  334.10   50.38
   0  -6  -5  230.36   46.99
   0   6  -5  248.83   49.25
  -2  -6  -5   62.53   15.68
  -2  -6  -5   73.62   14.23
   2  -6   5   28.54   10.64
   2  -6   5   31.34   14.81
  -2  -6  -5   34.54   13.22
   2  -6   5   17.89   10.51
   2  -6   5   40.09   19.68
   2   6  -5   11.85   11.99
  -2   6   5   49.18    9.72
   2   6  -5   14.91   11.87
  -2   6   5   65.16   12.30
  -2  -6   5    8.77   21.94
  -2   6  -5   15.80   14.19
   2   6   5   41.92   12.41
  -2  -6   5   20.75   10.77
  -2   6  -5   19.71   16.26
   2   6   5   29.38   10.06
   2  -6  -5   40.06    9.11
  -2  -6   5   15.30   18.48
  -2   6  -5   -5.99   12.25
  -2   6  -5    1.31   15.15
   2   6   5   51.69   11.61
   2  -6  -5   30.50   10.02
  -4   6   5  217.16   28.54
   4   6  -5  138.03   33.16
   4  -6   5  120.12   29.92
  -4  -6  -5  181.77   31.55
   4   6  -5   95.77   27.95
  -4   6   5  160.22   25.73
   4  -6   5  115.05   26.36
   4  -6   5  239.67   34.66
  -4  -6  -5  135.53   30.89
  -4  -6  -5  226.87   31.49
   4  -6  -5   94.65   26.37
   4   6   5  205.07   31.01
  -4  -6   5  159.83   28.09
   4   6   5  194.16   27.43
  -4  -6   5  122.14   37.02
  -4   6  -5  103.82   29.61
   4  -6  -5  131.96   30.06
  -4   6  -5  191.07   32.00
  -4  -6   5  180.32   35.16
   4   6   5  202.19   30.04
  -4   6  -5  132.28   32.61
  -4   6  -5  154.98   34.52
   6   6  -5    4.80   18.49
   6  -6   5    3.59   20.15
   6  -6   5  -12.73   20.53
   6   6  -5   -1.93   24.06
   6  -6   5    5.22   14.92
  -6  -6  -5   12.17   20.15
   6   6   5   17.50   15.69
  -6  -6   5   20.84   21.03
   6   6   5   -0.85   19.42
   6  -6  -5  -17.32   25.63
   6   6   5  -38.89   17.06
  -6   6  -5   -0.64   20.72
  -6  -6   5   10.66   11.68
  -6  -6   5  -33.98   27.61
  -6   6  -5    5.05   22.04
  -6   6  -5   13.28   21.34
  -6   6  -5  -14.27   27.99
  -1  -7  -5  178.02   22.16
   1  -7   5  141.81   24.96
   1   7  -5  131.81   25.56
   1  -7   5  133.38   24.61
  -1  -7  -5  169.99   24.40
   1  -7   5  130.74   27.32
  -1  -7  -5  113.91   22.43
   1   7  -5   76.56   24.36
   1   7  -5  120.77   28.59
  -1   7   5  133.34   22.52
  -1   7   5  127.79   21.17
   1   7  -5  127.44   25.25
  -1  -7   5   98.89   21.33
  -1  -7   5  109.63   25.32
  -1   7  -5  166.97   26.51
   1  -7  -5  146.63   21.08
  -1  -7   5  103.52   28.22
   1  -7  -5  152.12   20.01
   1   7   5  125.40   20.12
  -1   7  -5  156.52   27.23
  -1   7  -5  105.28   28.10
   1   7   5  141.29   21.78
  -1   7  -5   67.49   24.04
  -3   7   5  171.45   26.33
   3  -7   5  202.71   33.30
  -3  -7  -5  165.66   27.99
   3  -7   5  133.71   28.23
  -3  -7  -5  136.21   28.68
   3  -7   5  175.66   31.83
  -3  -7  -5  129.98   28.84
   3   7  -5   95.20   27.52
  -3   7   5  179.52   24.92
   3   7  -5  126.70   31.21
   3  -7  -5  127.97   24.74
   3   7   5  163.78   26.28
  -3   7  -5  133.87   29.97
  -3   7  -5  222.94   31.75
  -3  -7   5  189.34   28.57
   3   7   5  213.93   28.22
   3   7   5  163.16   28.35
  -3  -7   5  197.32   35.72
  -3   7  -5  140.64   33.28
  -3  -7   5  166.49   44.05
  -5  -7  -5   18.47   18.78
   5  -7   5   16.30   19.04
   5   7  -5    2.02   15.50
   5   7  -5    1.11   14.70
   5  -7   5   39.67   21.31
   5  -7   5   15.36   14.39
  -5   7  -5   17.67   20.25
   5   7   5    4.26   13.49
   5  -7  -5    3.58   13.86
  -5  -7   5   55.72   33.09
  -5   7  -5   18.62   19.99
  -5  -7   5   10.77   12.34
  -5   7  -5    7.59   26.94
   5   7   5   15.14   16.41
  -5  -7   5   15.30   22.75
  -5   7  -5    5.22   16.98
   5  -7  -5   -5.56   15.36
   5   7   5   14.36   16.80
   0   8  -5  372.96   54.71
   0  -8  -5  300.65   52.65
   0   8  -5  452.29   57.97
   0   8  -5  323.59   55.61
   0   8   5  421.14   51.53
   0  -8   5  402.28   58.10
   0  -8   5  362.03   54.81
   0   8  -5  375.57   58.17
   0   8   5  401.56   52.36
   0  -8   5  272.97   53.72
   2  -8   5   32.45   14.46
   2   8  -5   31.92   14.38
   2   8  -5   21.22   14.55
  -2  -8  -5   80.57   15.91
   2   8  -5   -1.03   20.87
  -2  -8  -5   90.20   14.76
  -2  -8  -5  105.12   17.15
   2  -8   5   42.54   18.60
   2  -8   5   77.97   16.56
   2  -8   5   33.69   20.85
  -2  -8   5   45.79   13.60
  -2  -8   5   39.93   20.67
  -2   8  -5   21.51   17.31
   2   8   5   92.41   12.76
  -2   8  -5   55.95   20.31
  -2  -8   5   44.69   25.38
  -2   8  -5   37.08   17.10
   2   8   5   61.34   13.67
  -2   8  -5   42.21   15.78
   4  -8   5   99.70   26.15
   4  -8   5  145.01   24.19
   4   8  -5  102.12   29.52
   4   8  -5   87.13   23.95
  -4  -8  -5  179.68   28.16
   4  -8   5  179.58   31.35
  -4  -8   5  119.29   31.30
   4  -8  -5   93.36   20.50
   4   8   5  182.69   26.20
   4   8   5  191.36   23.67
  -4   8  -5   91.24   25.46
  -4   8  -5   54.01   26.12
  -4   8  -5  145.71   28.98
   4  -8  -5   91.96   22.44
  -4   8  -5   75.80   25.21
  -4  -8   5  118.43   22.39
   6   8  -5  -13.40   18.46
   6  -8   5    2.18   24.29
   6   8  -5   -5.09   18.05
   6  -8   5  -10.40   16.33
   6  -8   5    4.97   24.53
  -6  -8  -5   13.66   20.30
   6   8   5   -4.18   21.81
  -6   8  -5   18.13   20.96
   6  -8  -5   12.74   22.30
  -6  -8   5   40.22   25.05
   6   8   5   14.58   20.07
   6   8   5  -27.60   15.16
   6  -8  -5  -16.36   23.69
   6   8   5   -2.37   16.60
  -6  -8   5   15.98   12.10
  -6   8  -5  -39.73   25.18
  -6  -8   5   20.34   37.72
  -6   8  -5  -26.46   20.37
   6  -8  -5  -13.92   14.01
   6   8   5  -29.59   19.60
  -6   8  -5  -24.10   21.10
  -1  -9  -5  311.78   45.89
   1   9  -5  271.82   47.53
   1   9  -5  318.57   54.35
  -1  -9  -5  305.76   46.46
   1  -9   5  358.19   48.13
   1  -9   5  352.67   48.71
  -1  -9  -5  296.21   44.96
   1  -9   5  296.69   49.80
   1   9  -5  316.65   50.21
   1   9  -5  327.40   49.46
  -1   9  -5  332.55   48.77
  -1   9  -5  368.28   51.83
   1   9   5  289.46   44.42
  -1   9  -5  365.25   53.05
  -1  -9   5  341.06   47.92
  -1  -9   5  207.56   48.22
   1   9   5  308.90   45.46
  -1   9  -5  277.84   50.85
  -1  -9   5  313.14   54.13
  -3  -9  -5  322.91   48.53
   3  -9   5  269.46   49.41
   3   9  -5  286.82   50.52
   3  -9   5  290.96   46.65
   3   9  -5  279.53   48.05
   3  -9   5  323.36   48.95
   3  -9   5  404.01   52.86
  -3  -9   5  354.55   58.33
   3   9   5  363.13   45.94
   3   9   5  278.62   45.04
  -3  -9   5  223.89   51.74
  -3   9  -5  322.97   52.54
  -3   9  -5  338.04   52.62
  -3   9  -5  308.61   48.65
   3   9   5  260.67   46.40
  -3   9  -5  261.45   51.67
  -3  -9   5  324.30   47.71
   5   9  -5   17.23   18.06
   5   9  -5   18.98   23.75
   5  -9   5   22.47   15.68
  -5  -9  -5   55.42   21.05
   5  -9   5   68.40   26.23
   5  -9   5   64.35   23.27
   5   9   5   94.15   22.95
   5  -9  -5   33.06   18.46
   5   9   5   41.65   17.09
  -5  -9   5   51.82   15.79
   5   9   5   43.85   22.20
   5  -9  -5   29.29   14.62
  -5   9  -5   -6.04   25.11
  -5   9  -5   37.16   21.25
   5  -9  -5   71.88   15.04
  -5  -9   5   35.10   23.47
   5  -9  -5   24.61   13.93
  -5   9  -5   44.24   20.43
  -5   9  -5   66.51   23.22
   5   9   5   69.11   19.14
   5   9   5   45.07   18.10
  -5  -9   5   41.32   33.50
   0 -10   5  105.68   24.16
   0 -10   5  109.82   23.10
   0  10  -5  159.11   30.88
   0 -10  -5  125.59   21.41
   0  10  -5  115.28   25.18
   0  10  -5  153.74   31.70
   0 -10   5   95.37   26.42
   0  10  -5  150.13   26.83
   2 -10   5    6.67   15.14
  -2 -10  -5   15.13   11.45
   2 -10   5   -0.11   19.64
   2 -10   5    5.35   12.10
   2  10  -5    5.70   11.49
   2 -10   5   -5.83   12.39
   2  10  -5   -6.27   13.01
  -2 -10   5   40.15   31.89
  -2  10  -5  -14.51   14.88
  -2  10  -5  -13.78   13.57
  -2  10  -5   -5.44   13.25
  -2  10  -5   -2.43   18.76
   2  10   5   11.03    8.53
  -2 -10   5  -19.69   19.46
  -2 -10   5   12.00   13.51
   2  10   5    9.80    9.49
  -4 -10  -5   86.50   22.50
   4 -10   5   70.00   24.01
   4  10  -5   85.45   22.18
   4 -10   5   39.80   18.40
   4 -10   5  106.84   26.24
   4  10  -5   62.69   18.80
  -4  10  -5   65.83   25.36
   4  10   5  114.44   20.20
   4  10   5   73.72   21.18
  -4  10  -5   83.53   24.34
  -4 -10   5   75.95   37.42
   4  10   5   75.25   20.32
   4  10   5   88.53   24.44
  -4 -10   5   69.38   19.00
  -4  10  -5   63.02   28.40
   4  10   5   70.80   17.95
  -4  10  -5   77.42   23.39
  -4 -10   5   61.62   29.81
   6 -10   5   -5.76   15.00
  -6 -10  -5   29.82   22.51
   6 -10   5   29.25   24.97
   6  10  -5   -8.33   17.49
   6  10  -5  -22.62   19.85
   6 -10   5   28.20   22.36
   6 -10  -5  -19.81   17.93
   6  10   5  -12.65   16.42
  -6 -10   5  -12.13   25.80
   6  10   5   -1.29   20.09
   6 -10  -5  -34.99   21.28
  -6  10  -5  -14.94   21.16
   6  10   5   17.84   16.24
  -6  10  -5  -37.92   18.89
   6  10   5   -9.45   23.42
   6 -10  -5   -9.71   12.57
  -6 -10   5   -1.57   36.22
   6 -10  -5   -5.91   20.28
  -6 -10   5   12.29   12.09
   6 -10  -5  -18.44   11.79
  -6  10  -5   11.03   30.34
  -6  10  -5   -4.02   20.71
   6  10   5   16.56   20.53
   1  11  -5  259.25   41.93
   1  11  -5  166.22   42.65
   1  11  -5  226.99   42.71
  -1 -11  -5  263.22   38.29
   1 -11   5  294.27   43.79
   1 -11   5  270.33   41.93
   1  11  -5  243.99   45.48
   1 -11   5  283.87   40.96
  -1  11  -5  320.57   45.00
  -1  11  -5  274.41   40.90
  -1  11  -5  207.38   41.99
  -1 -11   5  270.85   52.86
  -1 -11   5  242.63   45.22
   1  11   5  233.44   36.80
   1  11   5  214.13   35.91
  -1  11  -5  288.16   44.89
  -1 -11   5  288.95   41.50
   3 -11   5  229.40   37.76
   3  11  -5  171.95   40.20
  -3 -11  -5  226.28   37.55
   3 -11   5  203.30   38.96
   3 -11   5  288.37   43.58
   3 -11   5  213.92   40.14
   3  11  -5  256.66   40.94
  -3  11  -5  194.06   40.67
  -3 -11   5  222.67   44.20
  -3  11  -5  284.30   44.78
  -3 -11   5  231.04   37.44
   3  11   5  177.87   33.08
  -3  11  -5  197.12   40.19
  -3 -11   5  197.23   47.11
  -3  11  -5  210.94   38.03
   3  11   5  242.41   37.90
   3  11   5  206.91   32.82
   3  11   5  212.24   34.66
   3  11   5  192.78   34.96
   5 -11   5   24.61   15.83
   5  11  -5   15.15   15.06
   5 -11   5   49.18   22.43
   5  11  -5   22.39   17.38
   5 -11   5   33.53   23.18
  -5 -11  -5   57.13   21.14
  -5 -11   5   18.07   25.44
  -5  11  -5   28.39   28.07
   5  11   5   44.85   20.02
   5  11   5   46.52   15.95
  -5  11  -5   13.13   26.78
  -5 -11   5   59.36   16.16
  -5  11  -5   14.40   20.38
   5 -11  -5   17.51   13.27
  -5 -11   5    7.01   35.39
  -5  11  -5   20.91   20.82
   5  11   5   58.48   18.63
   0  12  -5   23.83   13.17
   0  12  -5   27.56   15.43
   0 -12   5   36.62   15.71
   0  12  -5   25.46   21.66
   0 -12   5   61.61   21.14
   0 -12  -5   37.88    9.97
   0  12  -5   47.93   15.42
   0 -12   5   55.79   15.65
   2 -12   5   42.63   14.01
   2  12  -5   46.84   13.67
   2  12  -5   11.49   15.75
   2 -12   5   43.94   17.51
   2 -12   5    9.45   21.78
  -2 -12  -5   32.64   12.88
   2 -12   5   19.86   16.14
   2  12  -5    6.78   13.82
   2  12   5   13.09   13.36
   2  12   5   24.51   10.94
  -2 -12   5   16.62   20.55
  -2  12  -5    9.46   18.65
  -2 -12   5   39.98   28.54
  -2 -12   5   52.79   16.41
  -2  12  -5    9.83   24.06
  -2  12  -5   43.54   21.94
   2  12   5   53.44   12.05
  -2  12  -5   19.82   16.79
   2  12   5   34.63    9.80
   4  12  -5   36.78   21.28
   4  12  -5   41.05   19.51
   4 -12   5   65.87   25.73
   4 -12   5    9.15   17.45
  -4 -12  -5   54.10   19.78
   4 -12   5   20.96   15.39
   4 -12   5   23.83   20.60
  -4  12  -5   22.55   23.95
   4  12   5   69.73   20.00
  -4 -12   5   33.02   25.94
  -4  12  -5   15.79   22.16
  -4  12  -5   60.83   23.41
  -4  12  -5   48.07   19.61
   4  12   5   48.55   15.66
  -4 -12   5   56.98   32.96
   4  12   5   47.46   17.98
  -4 -12   5   40.56   15.22
   4  12   5   33.44   15.04
   4  12   5   78.57   16.25
   1 -13   5   93.28   22.36
   1  13  -5   83.75   21.98
   1  13  -5   52.57   28.95
   1 -13   5  100.03   21.92
   1  13  -5   59.07   26.10
   1 -13   5   72.63   23.41
  -1 -13  -5   91.85   18.23
   1  13  -5   73.00   20.82
   1  13   5  122.63   18.83
  -1  13  -5   80.27   26.80
  -1  13  -5  100.42   23.95
  -1  13  -5  111.09   28.14
  -1 -13   5   76.78   20.73
   1 -13  -5   96.12   18.84
  -1 -13   5   34.82   22.43
   1  13   5  101.57   15.41
   1  13   5   91.79   16.32
  -1  13  -5   78.17   22.46
   1  13   5  133.64   17.04
  -1 -13   5   56.95   29.25
   3 -13   5   70.64   24.32
   3 -13   5  160.59   31.16
   3  13  -5   63.50   26.79
  -3 -13  -5  113.42   24.01
   3 -13   5   90.69   21.60
   3  13  -5   99.60   25.76
   3 -13   5  105.72   26.54
   3  13   5  150.14   21.93
   3  13   5  132.80   23.04
  -3 -13   5   91.65   21.97
  -3  13  -5  133.31   29.22
  -3  13  -5  105.76   28.73
  -3  13  -5   70.09   24.67
   3  13   5  119.71   24.25
  -3  13  -5   75.39   27.19
  -3 -13   5  105.96   35.36
  -3 -13   5   87.43   30.18
   3  13   5   99.53   20.20
   5 -13   5   45.30   26.54
   5  13  -5   -6.29   21.44
   5  13  -5   26.34   18.30
   5 -13   5   12.18   16.12
   5 -13   5   24.94   23.48
  -5 -13  -5   19.42   19.67
   5  13   5   16.61   14.09
  -5 -13   5   20.56   28.97
   5 -13  -5   36.46   18.75
  -5 -13   5   10.41   13.91
  -5 -13   5  -10.40   43.25
  -5  13  -5    0.78   29.38
  -5  13  -5   19.29   22.31
  -5  13  -5   39.39   23.71
   5  13   5    7.83   18.53
  -5  13  -5  -27.11   19.16
   5  13   5   19.62   15.24
   5  13   5   34.59   20.04
   5  13   5   27.89   17.32
   0 -14   5   70.28   27.60
   0  14  -5   49.82   25.91
   0  14  -5   32.38   16.99
   0 -14   5   88.20   20.80
   0  14  -5   59.52   22.97
   0  14  -5   34.17   18.04
   0 -14   5   67.14   19.95
   0 -14  -5   47.67   11.45
   2 -14   5   27.17   17.23
   2 -14   5   47.72   19.52
   2  14  -5   36.51   13.62
   2 -14   5   45.56   15.34
   2  14  -5    9.04   15.50
   2  14  -5   13.85   17.20
   2 -14   5   33.48   25.27
  -2 -14  -5   49.13   14.56
  -2  14  -5   22.92   22.05
   2  14   5   18.43   12.05
  -2  14  -5   -0.45   18.26
   2  14   5   34.87   11.20
  -2  14  -5   30.90   21.55
  -2 -14   5   46.81   22.89
  -2 -14   5   35.28   16.22
  -2 -14   5   49.38   31.17
   2  14   5   21.39   14.18
  -2  14  -5   25.02   25.08
   2  14   5   30.82   10.24
   4 -14   5   57.06   25.57
  -4 -14  -5   58.96   19.62
   4 -14   5   19.43   16.39
   4  14  -5   34.50   16.44
   4 -14   5    6.10   20.38
   4 -14   5   43.52   22.30
   4  14  -5   42.40   23.05
   4  14   5   37.14   20.07
  -4 -14   5   25.88   25.58
   4  14   5   57.83   14.69
  -4 -14   5   54.27   18.09
  -4 -14   5   58.34   36.24
  -4  14  -5    5.89   25.92
   4  14   5   52.90   18.15
  -4  14  -5   19.22   23.62
   4  14   5   22.07   13.79
   4  14   5   33.48   14.28
  -4  14  -5   11.33   22.83
  -4  14  -5   13.83   20.70
   1 -15   5  111.82   24.66
   1  15  -5   43.63   27.36
   1  15  -5   46.56   15.45
   1 -15   5  105.15   29.11
   1  15  -5   37.31   16.80
   1  15  -5   41.18   17.06
   1 -15   5   37.93   19.48
  -1 -15  -5   87.98   15.55
   1 -15  -5   92.30   17.78
  -1  15  -5   43.92   17.97
  -1 -15   5   76.38   37.23
  -1 -15   5   45.10   19.42
  -1  15  -5   84.89   27.77
  -1  15  -5   39.12   18.96
  -1  15  -5   85.65   25.41
  -1 -15   5   59.03   25.94
  -3 -15  -5   69.75   18.94
   3 -15   5   30.22   23.58
   3 -15   5   65.13   19.19
   3 -15   5   91.83   29.30
   3  15  -5   52.56   18.16
   3  15  -5   18.30   15.56
   3 -15   5   33.58   20.54
  -3 -15   5   64.68   30.21
   3  15   5   61.09   16.97
  -3 -15   5  124.05   49.10
   3  15   5   58.24   14.89
  -3  15  -5   48.11   21.57
  -3  15  -5   25.83   19.03
   3  15   5   69.64   14.54
  -3  15  -5   63.12   26.14
  -3  15  -5   27.43   24.49
  -3 -15   5   40.14   17.80
   3  15   5   65.44   18.89
   0 -16   5   53.93   21.84
   0  16  -5   56.62   20.59
   0  16  -5   38.88   22.83
   0 -16   5   85.91   25.70
   0  16  -5   58.70   21.05
   0  16  -5   71.48   30.63
   0 -16  -5  106.63   19.43
   0 -16   5  159.93   38.79
   0 -16  -5   90.25   15.09
   2 -16   5   24.12   15.88
   2  16  -5   43.95   19.97
   2 -16   5   50.53   19.42
   2 -16   5   27.81   28.30
   2  16  -5   15.55   16.29
  -2 -16  -5   29.67   14.70
   2  16  -5   47.01   15.83
   2 -16   5    7.92   19.41
  -2 -16   5   -0.71   30.14
   2  16   5   51.57   15.47
  -2  16  -5   21.86   20.00
   2 -16  -5   24.66   14.39
   2  16   5   33.27   11.11
  -2 -16   5   18.04   16.19
  -2  16  -5    5.26   24.48
   2  16   5   14.93   10.46
   2  16   5   28.02   12.97
  -2  16  -5   35.69   21.94
  -2 -16   5   13.55   21.93
  -2  16  -5   40.72   24.37
   4  16  -5   28.35   18.95
   4 -16   5   64.23   27.27
   4 -16   5   38.01   26.93
   4  16  -5   28.35   18.37
  -4 -16  -5   51.88   22.05
   4 -16   5   26.02   18.49
  -4 -16   5   57.67   18.30
  -4 -16   5   22.04   26.68
  -4  16  -5   31.61   27.17
   4  16   5   59.17   21.53
  -4  16  -5   11.74   22.40
  -4  16  -5   74.49   27.86
  -4  16  -5   20.76   20.43
   4 -16  -5   45.63   15.54
   4  16   5   34.94   15.19
   4  16   5   57.30   16.20
   4  16   5   62.26   12.83
  -4 -16   5   -7.81   36.87
   4  16   5   61.40   20.08
   1  17  -5   40.09   29.90
   1  17  -5   59.67   17.20
   1  17  -5   40.71   18.55
  -1 -17  -5   78.97   15.42
   1 -17   5   45.13   21.82
   1 -17   5   59.90   29.66
   1  17  -5   49.62   25.33
   1 -17   5   52.17   20.39
  -1 -17   5   34.46   22.54
  -1 -17   5   32.81   17.91
  -1 -17   5   63.75   30.42
  -1  17  -5   42.03   19.13
  -1  17  -5   58.39   27.53
  -1  17  -5   52.34   20.97
  -1  17  -5   27.08   25.74
   1 -17  -5   61.60   16.78
   3  17  -5   19.59   14.99
  -3 -17  -5   69.93   19.66
   3 -17   5   80.69   28.17
   3 -17   5   60.37   28.91
   3 -17   5   21.91   21.82
   3  17  -5   76.10   17.18
   3 -17   5   43.18   20.52
   3  17  -5   10.60   11.36
  -3  17  -5   34.36   26.62
  -3  17  -5   43.84   25.78
   3  17   5   38.24   13.62
  -3  17  -5   -2.62   19.33
  -3 -17   5   35.69   26.40
   3  17   5   63.21   18.13
  -3  17  -5  -10.46   21.50
  -3 -17   5   19.14   39.22
   3  17   5   40.28   15.64
  -3 -17   5   53.78   18.94
   3  17   5   41.78   13.49
   0 -18   5  131.44   31.27
   0 -18   5   70.42   36.25
   0 -18  -5  108.10   16.64
   0 -18   5   50.63   23.04
   0  18  -5   40.50   21.12
   0  18  -5   65.49   21.47
   0 -18  -5  104.38   19.23
   0  18  -5  107.98   34.41
   0  18  -5   51.11   20.16
   2 -18   5   28.88   21.73
  -2 -18  -5   58.68   16.73
   2 -18   5   26.16   22.56
   2  18  -5   48.65   16.70
   2 -18   5   25.10   29.70
   2  18  -5   30.15   20.94
   2  18  -5   13.71   17.50
   2 -18   5   81.72   20.80
   2  18   5   67.75   16.36
  -2  18  -5    6.23   20.13
  -2 -18   5   -5.67   37.74
   2  18   5   56.97   14.59
  -2 -18   5   -6.31   22.38
  -2  18  -5   17.22   22.00
  -2 -18   5   22.09   17.92
   2 -18  -5   28.60   17.18
   2  18   5   58.18   12.30
  -2  18  -5   35.38   28.20
  -2  18  -5   -2.22   24.89
   2  18   5   50.33   12.83
   1  19  -5   57.15   24.89
  -1 -19  -5   85.42   17.12
   1 -19   5   69.28   23.08
   1  19  -5   33.22   19.30
   1  19  -5   75.89   32.21
   1 -19   5   96.65   32.61
  -1 -19  -5   64.56   17.03
   1 -19   5   44.49   23.39
   1  19  -5   57.67   17.01
  -1 -19   5   42.56   26.81
  -1  19  -5   67.99   30.48
  -1 -19   5   61.79   22.50
   1 -19  -5   47.21   17.48
  -1  19  -5   48.71   22.56
  -1  19  -5    9.52   19.77
  -1  19  -5   64.08   31.55
  -1 -19   5   38.14   40.12
   3 -19   5   67.60   29.80
   3  19  -5   19.01   21.08
   3 -19   5   59.78   31.85
   3 -19   5   45.03   21.40
  -3 -19  -5   70.55   21.15
   3  19  -5   42.48   19.75
  -3 -19   5  -13.37   40.98
   3  19   5   44.56   18.26
  -3  19  -5   47.81   25.64
   3  19   5   53.39   14.87
  -3 -19   5   19.11   30.01
   3  19   5   61.31   15.52
  -3  19  -5   48.37   24.51
  -3  19  -5   77.21   28.05
  -3 -19   5   69.92   21.05
   3  19   5   49.51   20.22
   3 -19  -5   32.42   15.74
  -3  19  -5   36.38   33.44
   0 -20  -5   53.02   13.67
   0  20  -5   22.71   19.23
   0 -20   5   10.96   21.36
   0 -20   5   44.95   37.14
   0  20  -5   39.51   32.36
   0 -20  -5   58.18   15.86
   0  20  -5    8.47   17.87
   0 -20   5    8.04   23.18
   0  20  -5   17.69   25.34
  -2 -20  -5   46.74   17.07
   2 -20   5   19.96   18.00
   2 -20   5   19.03   28.00
   2  20  -5   15.97   19.89
   2  20  -5   27.61   14.88
   2  20  -5    6.40   14.34
   2  20   5    4.67   13.13
   2  20   5   11.31   10.17
  -2 -20   5   53.73   49.71
  -2 -20   5   22.77   30.38
  -2 -20   5   31.98   20.82
   2  20   5   16.40   14.12
  -2  20  -5   -8.34   20.32
   2  20   5    4.88    9.81
  -2  20  -5  -10.31   22.18
  -2  20  -5  -13.95   26.70
   2 -20  -5    7.26   17.44
  -2  20  -5   -8.54   17.32
   1  21  -5   49.44   17.60
   1  21  -5   35.29   35.16
   1  21  -5   33.50   19.57
   1 -21   5   65.90   41.67
  -1 -21  -5   60.76   18.20
  -1 -21  -5   68.31   18.02
   1 -21   5   65.12   27.53
   1  21  -5   33.14   22.86
   1 -21  -5   70.28   13.77
  -1  21  -5   16.99   19.32
   1 -21  -5   66.00   18.75
  -1  21  -5   27.08   23.16
  -1 -21   5   56.47   54.44
  -1 -21   5   42.05   23.28
  -1 -21   5   64.96   32.35
  -1  21  -5   60.28   32.19
  -1  21  -5   40.76   18.23
   0   0  -6  160.37   26.86
   0   0  -6  135.18   27.75
   0   0  -6  154.87   25.84
   0   0   6  121.54   24.44
   0   0  -6   94.64   25.75
   0   0   6  165.74   28.93
  -2   0  -6  345.45   52.34
  -2   0  -6  365.88   55.30
   2   0  -6  280.36   51.00
  -2   0   6  366.24   52.96
  -2   0  -6  250.53   54.03
   2   0   6  310.44   50.19
   2   0   6  463.60   54.62
  -2   0  -6  371.40   54.23
   2   0  -6  321.84   53.29
  -2   0   6  395.94   56.64
   2   0   6  353.16   52.53
  -4   0   6   87.70   24.22
  -4   0  -6   40.89   21.64
  -4   0  -6  115.29   25.37
   4   0   6   98.89   22.24
   4   0   6  115.26   23.61
   4   0  -6   23.17   18.22
  -4   0  -6   67.02   28.45
  -4   0  -6  102.51   22.49
  -4   0   6   58.83   19.65
   4   0   6   84.63   17.96
  -6   0  -6    5.29   24.58
  -6   0  -6   23.95   19.90
   6   0   6   52.89   26.08
   6   0   6   64.46   25.69
  -6   0  -6   76.00   31.99
  -6   0  -6   22.16   28.17
   6   0   6    4.00   17.87
  -6   0   6   14.80   18.54
  -6   0   6   37.74   24.73
   1  -1   6   33.08   15.71
   1   1  -6   43.96   14.27
   1   1  -6   27.85   15.86
  -1  -1  -6   42.45   15.10
  -1   1   6   39.97   15.80
  -1   1   6   24.63   18.50
   1   1  -6   64.36   18.42
  -1  -1  -6   33.51   16.32
   1   1  -6   57.47   15.54
   1  -1   6   61.19   14.34
  -1  -1  -6    7.50   14.15
  -1  -1  -6   33.95   14.62
  -1   1  -6   80.66   16.84
   1   1   6   55.70   16.53
  -1   1  -6   64.17   17.04
  -1   1  -6   55.67   18.38
  -1  -1   6   14.76   14.92
   1   1   6   48.47   11.91
   1  -1  -6   24.24   15.93
  -1   1  -6   19.55   15.96
   1  -1  -6   42.62   14.98
   1  -1  -6   56.94   13.61
  -1  -1   6   10.00   19.41
   1  -1  -6   12.97   13.72
   3  -1   6   92.50   20.79
   3   1  -6   71.66   22.96
   3  -1   6  182.73   28.69
  -3  -1  -6  143.90   30.16
  -3  -1  -6  133.20   24.69
   3   1  -6   66.57   25.50
   3  -1   6  111.99   24.14
  -3  -1  -6   96.26   25.30
  -3  -1  -6  121.15   26.08
  -3   1   6  159.31   29.50
  -3   1   6  124.25   24.25
   3   1   6   90.89   20.69
   3  -1  -6  103.46   23.37
  -3   1  -6  101.83   26.62
  -3   1  -6  131.98   31.35
  -3   1  -6  155.38   25.68
   3  -1  -6   82.21   24.17
  -3   1  -6  140.04   27.78
   3   1   6  150.69   26.94
  -3  -1   6  121.83   26.68
   3   1   6  132.45   23.93
  -3  -1   6  175.20   32.70
  -5  -1  -6    3.03   17.30
   5  -1   6    3.77   20.93
   5   1  -6  -30.92   14.19
  -5  -1  -6  -27.31   24.11
   5  -1   6   14.55   20.75
  -5   1   6   -6.30   15.42
   5  -1   6    4.11   16.71
  -5   1   6    0.80   21.23
   5   1  -6  -11.81   18.62
  -5  -1  -6    4.66   18.04
  -5  -1  -6   -3.19   20.09
  -5   1  -6   -5.18   26.66
   5   1   6    9.27   15.30
  -5   1  -6   14.03   19.59
  -5   1  -6   -2.12   18.69
  -5  -1   6   -8.45   16.84
  -5  -1   6   19.12   22.77
   5   1   6   -9.13   18.69
   5   1   6   -4.67   18.11
   5  -1  -6   -4.18   18.03
  -5   1  -6  -27.24   20.97
   5  -1  -6  -12.05   12.63
   0   2  -6   62.60   18.97
   0  -2  -6  106.19   17.28
   0  -2   6  121.76   23.88
   0  -2  -6   45.88   15.11
   0  -2   6   68.62   18.08
   0   2   6   79.33   19.35
   0   2  -6   71.18   18.83
   0   2  -6   52.92   18.14
   0   2  -6   79.53   22.03
   0  -2  -6   87.22   19.58
   0   2   6   36.38   14.51
   0  -2  -6   32.18   16.07
  -2  -2  -6  273.65   38.55
  -2  -2  -6  235.79   39.43
   2  -2   6  249.20   39.96
   2   2  -6  215.26   37.98
  -2   2   6  265.67   39.71
  -2  -2  -6  277.76   36.71
   2  -2   6  214.92   37.37
   2  -2   6  208.24   34.48
  -2   2   6  239.70   36.28
   2   2  -6  156.83   35.64
  -2  -2  -6  184.72   38.03
   2  -2  -6  245.87   35.11
   2  -2  -6  146.75   35.81
  -2   2  -6  169.20   38.68
  -2   2  -6  283.98   40.89
  -2  -2   6  233.16   33.27
  -2   2  -6  268.56   40.55
   2   2   6  202.84   36.30
   2   2   6  185.36   33.76
  -2  -2   6  204.56   39.27
  -2  -2   6  219.07   42.61
  -2   2  -6  251.06   37.11
   4  -2   6   35.36   14.18
  -4  -2  -6   36.34   19.11
   4  -2   6   55.98   18.26
  -4  -2  -6   74.09   27.14
  -4   2   6   69.78   21.68
   4  -2   6   78.87   23.24
  -4  -2  -6   43.60   17.68
   4   2  -6   12.59   17.61
  -4   2   6   58.91   17.04
  -4  -2  -6   56.47   21.63
   4   2  -6   19.42   18.17
   4   2   6   81.65   19.92
  -4   2  -6   49.40   21.62
  -4   2  -6   62.59   21.52
  -4  -2   6   70.95   19.83
   4   2   6   40.79   14.23
   4   2   6   40.73   16.94
   4  -2  -6   16.79   15.14
  -4   2  -6   38.23   26.25
  -4   2  -6   50.70   21.29
  -4  -2   6   41.43   10.49
   4  -2  -6   30.90   16.15
  -4  -2   6   83.80   25.60
  -6  -2  -6   59.07   29.22
  -6  -2  -6   17.50   17.35
   6  -2   6   19.43   24.60
  -6   2   6   13.33   16.46
  -6   2   6   21.18   21.66
   6   2   6   37.03   24.16
  -6  -2   6   25.00   10.18
  -6  -2   6   11.57   20.06
  -6   2  -6    6.75   33.11
  -6  -2   6    9.26   26.81
  -6   2  -6   -0.48   19.78
   1  -3   6   82.29   17.90
  -1   3   6   67.08   19.87
   1  -3   6   51.68   14.37
   1   3  -6   87.99   18.20
   1   3  -6   40.81   16.07
  -1  -3  -6   46.28   15.55
  -1  -3  -6   34.02   16.62
  -1  -3  -6   60.35   16.29
   1   3  -6   92.38   21.31
  -1  -3  -6   48.71   18.06
   1   3  -6   62.04   19.68
  -1   3   6   66.63   16.25
   1   3   6   78.17   13.90
   1  -3  -6   42.74   13.77
  -1  -3   6   95.48   23.38
   1  -3  -6   41.41   16.62
  -1   3  -6  116.66   21.30
   1  -3  -6   44.39   14.42
  -1   3  -6   82.42   23.77
  -1   3  -6   18.00   17.56
  -1   3  -6  105.69   19.98
  -1  -3   6   69.03   19.05
   1   3   6   56.48   15.94
   1  -3  -6   58.14   16.38
  -3   3   6  126.95   22.86
  -3   3   6  154.18   26.89
   3  -3   6  162.53   29.39
   3   3  -6  102.09   24.73
   3  -3   6   71.61   23.04
   3   3  -6   33.47   23.89
  -3  -3  -6   84.70   26.48
   3  -3   6  103.55   20.94
  -3  -3  -6   86.19   25.05
  -3  -3  -6  124.44   24.62
  -3  -3  -6  151.63   26.42
  -3   3  -6  198.82   29.09
   3   3   6  126.28   23.67
  -3   3  -6  168.64   26.70
   3  -3  -6   83.13   21.08
   3  -3  -6   89.74   22.93
  -3   3  -6  148.01   32.23
  -3  -3   6  152.04   20.58
  -3  -3   6  131.91   28.51
  -3  -3   6  121.98   31.79
  -3   3  -6   91.40   25.86
   3   3   6  149.79   25.04
   3   3   6   91.75   20.40
   5  -3   6   16.54   22.22
   5  -3   6   -4.91   14.76
  -5   3   6    3.65   14.64
  -5  -3  -6    1.42   17.72
   5  -3   6  -12.01   21.46
   5   3  -6   -2.23   20.74
  -5  -3  -6   14.25   22.06
  -5   3   6    8.23   18.10
  -5  -3  -6   -5.82   19.49
  -5  -3  -6    5.35   25.24
   5   3  -6  -20.11   16.08
   5   3   6  -20.92   16.17
   5   3   6   -0.94   13.05
   5   3   6    1.66   18.76
  -5  -3   6    2.74    8.85
  -5   3  -6  -26.71   25.78
  -5  -3   6   -0.49   18.20
  -5   3  -6   -7.33   20.04
  -5  -3   6  -32.47   23.47
  -5   3  -6  -13.53   19.00
   0   4   6   53.45   16.52
   0   4  -6   40.91   19.41
   0  -4   6   29.56   14.38
   0  -4   6   50.05   18.65
   0  -4   6   37.98   12.98
   0   4   6   53.25   13.40
   0   4  -6   42.30   17.47
   0  -4  -6   44.58   13.10
   0  -4  -6   82.56   14.84
   0  -4  -6   61.46   16.15
   0   4  -6   56.91   17.59
   0   4  -6   37.11   15.15
   0  -4  -6   43.17   14.73
   2  -4   6  184.24   34.08
   2  -4   6  135.80   31.47
   2   4  -6  107.46   32.08
   2   4  -6   99.20   29.37
  -2   4   6  150.45   28.27
  -2  -4  -6  185.71   29.90
  -2   4   6  149.88   30.77
  -2  -4  -6  218.14   32.97
  -2  -4  -6  225.08   31.62
  -2  -4  -6  169.43   31.71
   2  -4   6  116.92   27.44
  -2  -4   6  201.67   27.61
   2   4   6  197.92   29.58
   2  -4  -6  163.64   29.18
  -2   4  -6  224.93   35.83
  -2  -4   6  144.63   39.33
  -2  -4   6  173.67   33.69
  -2   4  -6  128.49   32.81
   2   4   6  185.59   27.04
  -2   4  -6  133.03   29.93
   2  -4  -6  176.17   27.29
  -4  -4  -6   30.43   16.97
   4  -4   6   44.14   20.21
  -4  -4  -6   45.91   20.32
  -4  -4  -6   66.77   24.77
  -4  -4  -6   24.51   17.09
  -4   4   6   36.26   14.00
   4  -4   6   32.24   18.51
   4   4  -6  -13.70   15.45
   4  -4   6   13.74   12.10
  -4   4   6   49.88   18.06
   4   4  -6    7.68   16.78
   4  -4  -6   25.23   13.28
  -4  -4   6   46.03   25.59
  -4   4  -6   -5.07   22.77
  -4   4  -6   30.87   19.24
   4   4   6    8.99   12.69
   4   4   6   31.60   17.53
   4   4   6   44.21   17.25
  -4  -4   6   26.16   10.45
  -4   4  -6  -11.45   19.02
   4  -4  -6    7.72   11.55
  -4   4  -6   -7.49   18.78
  -4  -4   6   26.60   20.19
   1   5  -6   30.15   15.63
  -1  -5  -6   76.74   15.45
   1   5  -6   34.38   14.39
  -1  -5  -6   53.28   14.28
   1   5  -6   31.86   20.18
   1  -5   6   69.37   18.03
   1  -5   6   40.54   12.73
  -1   5   6   34.38   13.09
  -1  -5  -6   44.16   16.78
  -1  -5  -6   31.33   14.56
   1   5  -6   44.46   19.11
   1  -5   6   38.22   13.22
  -1   5   6   53.17   17.41
  -1  -5   6   54.50   18.53
  -1   5  -6   86.73   23.41
  -1   5  -6   58.37   19.22
   1   5   6   31.79   13.72
   1  -5  -6   56.30   12.75
   1  -5  -6   26.95   14.79
  -1  -5   6   43.24   12.10
  -1   5  -6    2.34   17.10
  -1  -5   6   48.89   24.29
  -1   5  -6   66.53   21.20
   1   5   6   38.14   10.98
   1  -5  -6   34.40   14.00
  -3   5   6  148.39   25.33
   3  -5   6  171.76   29.87
   3  -5   6  140.36   26.28
   3   5  -6   79.24   24.44
  -3   5   6  144.15   22.28
  -3  -5  -6  101.83   25.32
  -3  -5  -6  148.01   29.97
  -3  -5  -6  178.50   26.91
   3  -5   6   76.10   21.45
   3  -5  -6   86.15   21.00
   3   5   6  178.18   26.03
  -3  -5   6  124.14   31.27
  -3   5  -6   85.16   27.70
  -3   5  -6  106.13   32.57
   3   5   6  128.26   21.92
   3  -5  -6   86.69   23.01
  -3  -5   6  134.21   22.76
   3   5   6  137.69   24.35
  -3   5  -6  154.08   28.12
  -3  -5   6  138.09   39.14
  -3   5  -6  114.95   27.95
  -5  -5  -6   13.33   19.72
   5  -5   6   19.44   22.02
   5  -5   6   22.10   17.15
  -5  -5  -6    0.83   21.67
  -5   5   6   21.83   16.82
   5   5  -6  -16.07   18.67
   5   5  -6  -25.20   13.15
  -5   5   6   14.64   13.69
  -5  -5  -6    0.81   18.73
   5  -5   6  -21.85   21.20
  -5   5  -6  -33.37   23.77
   5   5   6   -9.51   13.81
   5   5   6  -29.34   17.36
  -5  -5   6   25.43   29.58
  -5   5  -6   11.82   19.16
  -5   5  -6   -9.91   20.15
  -5  -5   6    4.04   20.72
   5   5   6    9.54   19.83
  -5  -5   6    5.24   10.30
   0   6  -6   68.10   19.86
   0  -6  -6   67.79   18.85
   0   6   6   57.01   16.22
   0  -6   6   69.10   17.54
   0   6  -6   69.49   21.56
   0  -6   6  107.42   22.82
   0   6  -6   70.92   22.22
   0  -6  -6  105.71   18.71
   0  -6  -6   98.97   17.24
   0  -6   6   71.22   25.07
   0  -6  -6  121.61   17.77
   0   6   6  111.98   20.22
   0   6  -6   75.04   23.93
  -2   6   6  235.11   27.35
   2  -6   6  136.56   30.53
   2  -6   6  229.49   36.26
   2   6  -6  116.06   30.50
  -2   6   6  198.48   29.44
   2   6  -6   93.79   33.94
   2   6  -6  115.90   34.39
   2  -6   6  154.57   28.08
  -2  -6  -6  248.28   29.85
  -2  -6  -6  129.39   29.23
  -2  -6  -6  229.58   32.07
  -2  -6   6   95.46   32.70
  -2  -6   6  178.87   40.53
  -2   6  -6  173.37   31.55
  -2   6  -6  268.87   38.22
   2   6   6  155.58   26.42
  -2   6  -6   99.48   32.41
   2  -6  -6  144.24   27.80
   2  -6  -6  159.11   26.16
  -2   6  -6  160.38   33.63
  -2  -6   6  172.16   28.10
   2   6   6  205.83   29.31
  -4   6   6   52.82   16.23
  -4  -6  -6   71.67   19.31
   4   6  -6   14.75   19.00
   4  -6   6    5.08   11.74
  -4  -6  -6   70.17   24.79
   4   6  -6   26.83   22.21
   4  -6   6   43.74   20.66
  -4  -6  -6   44.85   18.95
   4  -6   6   27.86   17.66
  -4   6   6   43.41   13.23
  -4   6  -6   23.34   20.68
   4   6   6   36.01   14.95
  -4   6  -6   40.76   19.13
  -4  -6   6   38.25   32.89
  -4   6  -6  -30.70   24.78
   4   6   6   63.54   19.02
  -4  -6   6   14.23   22.26
   4  -6  -6    8.54   11.65
   4  -6  -6   21.11   11.62
   4   6   6   50.19   16.78
  -4   6  -6    9.47   19.16
  -4  -6   6   24.71   11.88
   1  -7   6   34.65   14.52
   1  -7   6   42.98   22.20
  -1  -7  -6  110.44   18.58
  -1  -7  -6   46.37   15.79
   1  -7   6   76.17   18.31
   1   7  -6   44.21   23.25
  -1   7   6   51.12   17.68
   1   7  -6   72.68   24.79
   1   7  -6   66.90   20.54
   1   7  -6   63.08   18.35
  -1  -7  -6  118.35   16.81
  -1   7   6   63.81   14.38
  -1   7  -6   49.27   21.63
   1   7   6   62.10   15.33
  -1  -7   6   43.66   14.59
   1   7   6   64.70   12.80
   1  -7  -6  100.43   15.55
   1  -7  -6   48.65   16.28
   1  -7  -6  102.84   13.61
  -1   7  -6   42.78   20.51
  -1   7  -6   32.87   20.20
  -1   7  -6   60.86   19.20
  -1  -7   6   43.95   25.71
  -1  -7   6   23.59   17.53
   3   7  -6   57.95   24.78
   3  -7   6  177.24   32.91
   3  -7   6  103.75   25.28
  -3   7   6  143.15   20.47
  -3  -7  -6  197.33   29.74
   3   7  -6   38.24   21.58
  -3  -7  -6  111.58   24.61
  -3   7   6  165.74   22.80
  -3  -7  -6  177.68   25.54
   3  -7   6   83.63   21.09
   3  -7  -6   87.32   18.75
   3   7   6  167.58   23.55
   3   7   6  119.98   24.06
  -3   7  -6   78.51   27.91
  -3   7  -6   99.87   27.08
  -3  -7   6   79.20   19.84
  -3  -7   6  117.38   30.88
   3  -7  -6   93.57   20.44
   3   7   6  122.39   21.25
  -3   7  -6  111.18   34.18
  -3   7  -6  153.84   28.30
  -3  -7   6  102.07   34.70
   5  -7   6   -5.55   15.91
   5  -7   6  -13.27   22.75
   5   7  -6   25.98   27.03
   5   7  -6  -10.93   16.82
   5  -7   6   10.72   23.68
  -5  -7  -6   13.52   19.38
   5  -7  -6  -13.09    9.37
  -5  -7   6  -10.54   21.27
  -5  -7   6   15.39   11.80
   5   7   6   18.85   18.64
   5  -7  -6   15.49   16.67
   5   7   6  -23.08   16.30
  -5   7  -6    3.70   21.82
  -5   7  -6    2.00   30.00
  -5  -7   6   40.24   31.97
   5   7   6   -8.17   13.14
  -5   7  -6    4.41   22.88
   0  -8   6   81.89   20.33
   0  -8   6   60.34   16.38
   0   8  -6   45.25   18.41
   0   8   6   48.68   13.66
   0  -8  -6  102.61   15.24
   0   8  -6   78.02   25.32
   0   8   6   63.02   16.77
   0   8  -6   89.13   23.13
   0  -8   6   62.66   26.87
   0   8  -6   77.40   23.76
   0  -8  -6   70.43   15.89
   0  -8  -6   59.35   16.85
   2  -8   6  203.12   34.02
   2  -8   6  148.08   28.78
  -2  -8  -6  111.25   26.13
   2   8  -6  136.94   26.93
  -2  -8  -6  147.28   26.94
   2   8  -6  132.37   36.18
   2  -8   6  178.54   28.63
  -2  -8  -6  150.04   25.75
   2  -8   6  125.86   25.88
   2   8  -6   66.49   26.48
  -2  -8   6  113.32   31.65
  -2   8  -6  234.55   33.05
  -2  -8   6  178.46   26.80
   2   8   6  125.76   22.82
  -2  -8   6  201.28   43.39
   2   8   6  140.28   25.12
  -2   8  -6   69.47   28.96
  -2   8  -6  156.67   31.43
  -2   8  -6  109.37   33.59
   4   8  -6   27.69   19.82
   4  -8   6   23.68   13.05
   4  -8   6   25.60   22.03
   4  -8   6   25.20   18.46
  -4  -8  -6   50.69   19.77
  -4  -8  -6   45.99   21.07
  -4  -8  -6   37.63   19.07
   4   8  -6   22.66   16.18
  -4  -8   6   34.98   25.55
  -4  -8   6  108.92   40.24
  -4   8  -6    5.49   24.61
   4  -8  -6   20.20   11.45
  -4   8  -6   19.35   22.45
   4   8   6   32.64   13.38
   4   8   6   67.25   17.06
   4  -8  -6   12.54    9.41
  -4   8  -6   35.22   21.46
   4   8   6   15.63   15.16
  -4  -8   6   41.57   13.46
  -1  -9  -6   38.14   13.79
   1   9  -6    7.73   21.31
   1   9  -6   19.73   17.38
   1  -9   6   51.54   19.94
   1  -9   6   46.10   16.48
   1  -9   6   26.43   14.61
  -1  -9  -6   92.83   16.29
   1   9  -6   20.01   22.67
   1   9  -6   52.89   17.54
  -1  -9  -6   86.13   14.54
  -1  -9   6   31.45   14.30
  -1   9  -6    1.86   16.73
   1  -9  -6   20.25   13.28
  -1   9  -6   50.95   22.02
  -1  -9   6    7.59   24.33
  -1   9  -6   17.81   18.24
   1   9   6   34.29   13.14
  -1  -9   6   31.68   19.05
  -1   9  -6   63.94   23.74
   1   9   6   50.42   10.20
  -3  -9  -6  116.20   20.35
   3  -9   6   78.83   23.20
  -3  -9  -6   52.36   18.80
   3  -9   6  109.57   28.40
   3  -9   6   48.08   17.74
  -3  -9  -6   91.41   21.66
   3   9  -6   20.75   16.54
   3   9  -6   55.32   19.64
  -3  -9   6   83.62   29.54
  -3   9  -6   28.78   23.53
  -3   9  -6   91.04   25.86
  -3   9  -6   93.46   24.18
   3   9   6   81.73   16.19
   3   9   6   94.75   19.19
  -3   9  -6   44.56   28.43
  -3  -9   6  134.76   44.64
  -3  -9   6   74.09   17.27
   5  -9   6   -1.82   18.17
  -5  -9  -6   17.00   19.90
   5  -9   6   15.48   24.89
   5   9  -6  -10.84   22.61
   5  -9   6  -14.21   24.09
   5   9  -6   -7.51   18.50
   5  -9  -6   -0.42   12.21
   5  -9  -6    4.40   16.88
  -5  -9   6  -11.80   25.08
   5   9   6   14.97   16.39
   5  -9  -6    1.56    9.48
  -5  -9   6   38.30   35.16
   5  -9  -6    3.59   10.79
  -5   9  -6   10.29   21.25
  -5  -9   6    6.38   12.27
  -5   9  -6  -12.45   22.39
   5   9   6  -10.97   17.44
   5   9   6   12.63   18.19
  -5   9  -6   14.22   31.10
   0 -10  -6  114.92   18.44
   0  10  -6   70.94   25.18
   0 -10  -6  111.58   16.80
   0  10  -6   81.37   23.87
   0 -10   6  131.60   28.37
   0  10   6   85.35   18.14
   0 -10   6   77.27   19.49
   0 -10   6  105.14   22.80
   0 -10  -6   65.82   18.15
   0  10  -6   83.40   27.34
   0  10  -6   61.62   20.11
   2 -10   6  166.52   31.39
   2  10  -6  102.87   32.47
   2  10  -6   94.35   27.80
   2 -10   6  147.27   28.98
   2 -10   6  165.10   33.82
  -2 -10  -6  161.58   29.76
   2 -10   6  245.90   40.14
   2  10  -6  229.04   32.53
   2  10  -6  157.36   39.59
  -2  10  -6  166.23   40.12
  -2  10  -6  165.43   34.04
  -2 -10   6  184.57   30.06
  -2 -10   6  188.57   38.48
   2  10   6  138.95   25.17
  -2  10  -6  104.93   32.99
  -2  10  -6  211.17   36.78
  -2 -10   6  136.79   42.19
   2  10   6  154.90   26.74
   4  10  -6   26.20   23.60
   4  10  -6    8.82   18.97
   4 -10   6   49.16   25.95
   4 -10   6   34.07   23.12
  -4 -10  -6   46.92   20.34
   4 -10   6   27.03   15.52
   4  10   6   28.91   18.74
  -4  10  -6    4.80   22.76
  -4  10  -6    8.75   29.27
  -4  10  -6   10.43   22.06
  -4 -10   6   56.41   15.53
  -4 -10   6    9.51   26.43
  -4  10  -6   81.95   25.53
  -4 -10   6   57.21   37.21
   4  10   6   69.16   16.16
   4  10   6   75.09   17.36
   1  11  -6    6.80   14.67
   1 -11   6    4.57   17.92
  -1 -11  -6   23.70   12.39
   1  11  -6    0.99   14.52
   1 -11   6    6.70   13.94
   1  11  -6   19.51   12.36
   1 -11   6   21.12   14.92
   1  11  -6   -4.82   23.79
   1  11   6   21.16   10.47
  -1 -11   6   16.91   29.06
   1 -11  -6   -6.35   10.34
  -1  11  -6  -10.89   17.95
  -1  11  -6  -16.43   15.16
  -1 -11   6   11.23   12.81
   1  11   6    7.44    7.13
  -1  11  -6   30.70   23.45
  -1  11  -6   11.18   22.54
  -1 -11   6   10.30   19.65
  -3 -11  -6   69.98   18.59
   3 -11   6   51.02   26.43
   3 -11   6   39.34   17.22
   3  11  -6   64.09   22.05
   3  11  -6   20.61   20.45
   3 -11   6   21.14   19.25
   3 -11   6    6.72   21.34
   3  11   6   43.84   13.09
  -3  11  -6   69.15   29.12
  -3  11  -6   76.23   25.64
  -3 -11   6   41.62   27.87
  -3  11  -6    2.89   22.91
  -3 -11   6   65.01   45.22
   3  11   6   28.76   15.54
  -3  11  -6   72.18   25.78
  -3 -11   6   65.17   16.80
   0  12  -6   70.59   27.70
   0 -12   6   66.60   21.14
   0 -12   6   80.98   19.97
   0 -12  -6   68.33   15.76
   0 -12   6   83.09   27.10
   0  12  -6   81.26   24.38
   0  12  -6   41.65   18.81
   0  12  -6   62.32   29.27
   2  12  -6  122.30   24.29
   2 -12   6  144.22   34.33
   2 -12   6  110.10   30.16
   2  12  -6   57.74   23.33
   2  12  -6   66.67   36.16
  -2 -12  -6  127.92   23.01
   2 -12   6  113.81   24.53
   2 -12   6  127.84   24.46
   2  12  -6   62.16   20.15
  -2  12  -6   43.06   23.45
  -2 -12   6  120.36   22.53
  -2 -12   6  120.62   44.27
   2  12   6  119.69   20.37
   2  12   6   75.51   17.21
  -2  12  -6  162.99   32.84
  -2  12  -6   96.81   28.17
  -2  12  -6   46.13   27.01
  -2 -12   6   95.58   31.40
   4 -12   6   62.77   25.27
   4 -12   6   27.53   16.38
   4  12  -6   34.16   21.44
   4  12  -6   20.12   21.00
  -4 -12  -6   46.94   20.93
   4 -12   6   66.87   28.89
  -4 -12   6   49.49   47.08
   4  12   6   32.65   17.10
  -4  12  -6   56.76   25.18
  -4  12  -6   25.26   22.36
  -4  12  -6   15.54   25.00
   4  12   6   55.08   23.48
  -4 -12   6   19.67   29.27
  -4 -12   6   38.46   15.44
  -4  12  -6   -0.93   28.16
   4  12   6   34.99   14.24
   4  12   6   30.82   16.27
   4  12   6   42.14   15.01
   1  13  -6   25.08   26.01
   1  13  -6  -16.98   15.63
   1  13  -6   41.90   16.75
   1 -13   6   42.40   19.28
   1 -13   6   44.30   17.12
   1  13  -6   14.49   14.50
   1 -13   6   53.00   28.17
  -1 -13  -6   36.54   13.34
   1  13   6   18.93   12.75
  -1 -13   6  -41.48   27.76
  -1  13  -6   29.26   24.44
   1  13   6   20.51   10.04
   1 -13  -6   15.76   10.40
   1  13   6   30.53    8.25
  -1  13  -6    5.24   16.98
  -1  13  -6    8.07   18.69
   1  13   6   38.86   10.50
  -1 -13   6   68.97   17.70
  -1 -13   6   13.07   22.47
  -1  13  -6   12.39   21.92
   3 -13   6   38.85   27.38
   3  13  -6   20.50   16.13
   3 -13   6   42.41   17.77
   3 -13   6   14.84   19.29
   3  13  -6    7.46   13.84
   3 -13   6   52.16   26.55
  -3 -13  -6   54.83   18.53
   3  13   6   19.64   11.94
   3  13   6   34.95   18.07
  -3  13  -6    8.52   24.69
  -3 -13   6   51.12   43.52
  -3  13  -6   66.43   26.06
  -3  13  -6   12.42   19.42
  -3  13  -6   42.47   27.09
   3  13   6   31.89   13.88
  -3 -13   6   91.66   31.91
   3  13   6   41.62   15.09
  -3 -13   6   45.38   16.90
   0 -14   6   30.38   27.04
   0 -14   6   50.39   21.34
   0  14  -6   27.14   18.87
   0 -14  -6   55.95   12.97
   0  14  -6   12.88   26.54
   0  14  -6   51.51   19.59
   0 -14   6   29.78   18.21
   0  14  -6   47.68   19.08
   2 -14   6   21.55   19.09
   2  14  -6   38.72   21.54
  -2 -14  -6   67.25   17.21
   2 -14   6   75.80   19.20
   2 -14   6   82.66   23.36
   2  14  -6   22.57   18.94
  -2 -14   6   67.83   40.33
  -2 -14   6   41.21   16.88
   2  14   6   55.61   17.69
   2  14   6   43.26   13.85
  -2  14  -6   23.74   24.35
  -2  14  -6   -3.56   19.97
  -2  14  -6   72.07   29.08
   2  14   6   50.80   13.09
   2  14   6   35.50   11.27
  -2 -14   6   41.91   25.80
  -2  14  -6   10.45   19.63
   4 -14   6   19.79   17.74
   4  14  -6   19.55   18.84
   4 -14   6   14.03   28.86
   4  14  -6    6.44   18.18
   4 -14   6   33.79   26.92
  -4 -14  -6   48.70   20.14
   4  14   6   31.75   18.26
  -4  14  -6    1.42   33.19
   4  14   6   23.00   13.71
  -4  14  -6   51.80   26.76
   4  14   6   24.55   13.34
  -4  14  -6   -4.66   24.77
  -4 -14   6  -46.18   26.95
  -4 -14   6   19.14   14.73
  -4 -14   6   88.27   46.82
   4  14   6   20.12   17.75
   1  15  -6    5.89   26.72
   1  15  -6  -22.01   14.74
   1 -15   6   13.56   18.20
  -1 -15  -6   36.49   12.79
   1 -15   6   15.60   25.70
   1  15  -6    2.48   14.89
   1  15  -6   12.80   14.20
   1 -15   6   22.59   19.34
  -1  15  -6   25.37   25.51
  -1 -15   6   33.15   22.26
  -1 -15   6    5.09   31.97
  -1  15  -6  -14.02   16.77
  -1  15  -6   38.35   26.67
   1 -15  -6   40.56   13.16
   1 -15  -6   17.97    9.61
  -1 -15   6   26.40   16.29
  -1  15  -6   -8.01   19.19
   3 -15   6  102.12   30.73
   3 -15   6   49.28   20.28
   3 -15   6   45.05   30.20
  -3 -15  -6   52.86   19.11
   3  15  -6   -2.17   15.08
   3 -15   6   11.44   21.47
   3  15  -6    2.61   16.60
   3  15   6   30.38   12.35
   3  15   6   39.99   18.91
  -3  15  -6   -1.86   28.49
   3  15   6   40.95   13.94
  -3  15  -6   63.20   27.85
  -3 -15   6   46.68   16.98
   3  15   6   27.51   14.65
  -3  15  -6    9.39   20.13
  -3  15  -6   11.56   22.55
  -3 -15   6   10.12   25.64
  -3 -15   6   46.93   42.67
   0 -16   6   43.95   31.67
   0  16  -6   23.69   18.63
   0  16  -6   55.69   31.01
   0 -16  -6   52.41   13.59
   0  16  -6   30.07   21.05
   0 -16   6   63.65   24.05
   0 -16  -6   65.95   14.99
   0 -16   6   24.70   19.37
   0  16  -6   24.74   21.00
  -2 -16  -6   42.88   16.18
   2 -16   6   34.87   29.64
   2 -16   6   11.32   19.65
   2  16  -6    5.87   13.53
   2  16  -6   12.41   17.58
   2 -16   6   20.21   20.09
   2  16   6   54.44   18.11
   2  16   6   16.70    9.61
   2  16   6   43.53   12.80
  -2 -16   6   23.53   16.77
  -2 -16   6   45.98   26.73
  -2  16  -6  -11.76   21.76
  -2  16  -6   21.29   28.74
   2  16   6   31.40   12.36
  -2  16  -6   -1.57   20.02
  -2  16  -6   51.92   27.18
  -2 -16   6   27.32   41.67
   1  17  -6    2.12   23.57
   1 -17   6   71.79   32.52
   1  17  -6   20.46   20.41
   1  17  -6   40.54   17.71
   1 -17   6   37.87   19.71
   1  17  -6   14.24   31.26
  -1 -17  -6   37.39   14.51
   1 -17   6   13.17   19.87
   1 -17  -6   62.72   15.68
  -1  17  -6   49.41   29.60
  -1 -17   6  103.49   42.03
  -1  17  -6    4.87   22.94
  -1 -17   6   79.46   30.63
  -1  17  -6   -6.30   16.19
   1 -17  -6   31.05    9.95
  -1 -17   6   46.48   21.51
  -1  17  -6   -1.69   18.51
   0  18  -6  -18.15   21.25
   0 -18  -6   51.03   13.36
   0  18  -6   24.71   20.07
   0 -18   6   39.49   21.14
   0  18  -6   36.27   22.81
   0 -18   6   85.56   28.07
   0 -18  -6   61.32   14.67
   0 -18   6   80.03   37.39
   0  18  -6   49.83   32.28
   0   0  -7    9.04   16.11
   0   0  -7   -0.68   14.06
   0   0  -7   27.10   19.10
   0   0   7   11.25   19.23
   0   0   7   -1.02   13.56
   0   0  -7    5.54   13.90
  -2   0   7   42.61   25.48
  -2   0   7   84.54   21.18
  -2   0  -7   43.87   19.75
   2   0   7   22.35   13.33
   2   0   7   57.65   19.98
  -2   0  -7    1.29   18.07
   2   0  -7   12.62   18.81
   2   0  -7   70.63   18.63
  -2   0  -7   84.53   20.74
  -2   0  -7   50.75   23.63
  -4   0  -7    3.83   21.07
  -4   0  -7    2.44   21.65
  -4   0   7  -14.63   15.84
   4   0  -7   -7.88   15.68
  -4   0  -7  -48.03   25.64
   4   0   7    4.90   20.43
   4   0  -7  -28.23   13.74
   4   0   7  -13.30   10.95
   4   0   7  -11.94   16.66
  -4   0  -7    4.60   19.98
  -4   0   7  -28.49   20.52
  -1   1   7   79.27   26.15
   1  -1   7   79.39   18.81
  -1  -1  -7   70.84   22.82
  -1   1   7   71.65   21.06
  -1  -1  -7  115.11   26.97
   1   1  -7   86.86   25.50
   1   1  -7   82.59   22.49
  -1  -1  -7  125.22   23.58
   1  -1   7   94.71   21.96
  -1  -1  -7  118.75   22.38
   1   1  -7   77.70   23.46
   1   1  -7   64.39   19.77
  -1   1  -7   38.00   23.10
   1  -1  -7   85.95   24.33
  -1  -1   7   91.46   27.89
  -1   1  -7  136.11   25.21
   1  -1  -7   97.41   20.92
  -1   1  -7   96.83   27.48
   1   1   7   83.15   18.74
   1  -1  -7   86.94   23.16
   1   1   7  139.66   25.43
  -1   1  -7   82.44   22.95
  -1  -1   7   81.41   22.12
   1  -1  -7  111.44   22.74
   3   1  -7    4.13   19.15
  -3   1   7   33.89   17.73
  -3  -1  -7   22.48   19.25
   3  -1   7   45.43   20.25
   3  -1   7   55.88   21.95
   3  -1   7   17.60   14.00
  -3   1   7   42.00   23.17
   3   1  -7   15.61   14.83
  -3  -1  -7   48.71   19.93
  -3  -1  -7   55.09   21.72
  -3  -1  -7    9.94   24.21
  -3   1  -7   15.54   20.79
   3   1   7   73.34   21.12
   3  -1  -7   39.88   17.86
  -3  -1   7   57.19   28.90
  -3   1  -7   41.23   27.62
  -3  -1   7   44.49   20.45
  -3   1  -7   65.50   21.12
   3   1   7   31.77   18.68
  -3   1  -7   33.42   22.01
   3   1   7   28.28   12.84
   3  -1  -7   33.01   18.05
   0  -2   7   21.15   15.13
   0   2  -7    9.15   14.44
   0  -2   7   53.54   23.60
   0   2   7   32.57   14.27
   0   2  -7   22.30   19.41
   0   2  -7   47.75   19.47
   0  -2  -7   16.28   15.66
   0  -2  -7   25.65   14.94
   0   2  -7   36.93   17.50
   0  -2  -7   45.60   18.60
   0  -2  -7   19.24   14.67
   0   2   7   51.34   18.32
  -2   2   7   63.27   20.05
  -2  -2  -7   21.99   18.93
   2   2  -7   61.00   19.49
   2   2  -7  109.26   21.74
   2   2  -7   41.65   23.05
  -2  -2  -7   68.31   23.37
  -2   2   7   79.61   23.57
  -2  -2  -7   74.09   20.54
   2  -2   7   39.30   16.97
  -2  -2  -7   70.20   21.04
   2  -2   7   41.92   21.02
  -2   2  -7   36.21   21.04
  -2   2  -7   -4.24   19.16
   2   2   7   45.12   14.99
   2  -2  -7   65.95   18.82
  -2   2  -7  105.89   29.25
  -2  -2   7  104.51   29.70
   2  -2  -7   61.88   16.66
   2   2   7   69.60   20.42
  -2   2  -7  102.08   23.38
  -2  -2   7   54.81   23.13
  -4  -2  -7   37.22   28.70
   4   2  -7   14.99   18.83
  -4  -2  -7   -1.03   20.13
  -4  -2  -7   -1.13   17.96
   4   2  -7    0.62   15.76
   4  -2   7  -13.89   13.50
  -4  -2  -7   25.61   22.14
  -4   2   7   -0.02   14.94
  -4   2   7    3.10   20.51
   4  -2   7    6.33   22.07
   4  -2   7  -40.98   18.10
   4   2   7   -7.90   18.74
  -4   2  -7  -12.37   21.28
   4   2   7   24.70   19.01
  -4   2  -7   -6.82   21.64
   4   2   7    4.67   13.37
  -4   2  -7   10.97   19.82
  -4   2  -7    8.75   28.79
  -4  -2   7    1.69   19.36
  -4  -2   7   20.21   27.51
   1   3  -7   83.50   22.53
   1   3  -7   71.31   25.85
  -1  -3  -7   88.10   24.08
   1   3  -7  125.93   27.56
  -1  -3  -7  138.99   22.94
   1  -3   7  110.90   25.08
  -1  -3  -7  149.53   23.14
   1  -3   7  112.85   22.62
  -1  -3  -7  103.39   25.75
   1   3  -7   97.40   24.43
  -1   3   7   99.12   25.60
  -1   3   7   76.53   20.51
   1  -3  -7   64.11   22.87
  -1   3  -7  126.40   26.09
   1   3   7  125.76   22.52
  -1  -3   7   84.47   28.35
   1  -3  -7   95.74   20.68
   1  -3  -7  129.03   21.08
   1  -3  -7   84.03   22.36
  -1  -3   7   58.07   21.72
  -1   3  -7   57.53   24.77
  -1   3  -7  112.04   27.67
   1   3   7   77.56   18.29
  -1   3  -7   53.79   22.04
  -3  -3  -7   34.43   22.70
  -3   3   7   36.26   19.35
  -3  -3  -7   14.05   19.84
   3  -3   7   37.49   18.39
   3   3  -7   20.09   15.09
  -3   3   7   34.95   15.38
   3  -3   7   52.81   22.72
   3   3  -7   23.69   17.14
   3  -3   7   11.07   12.18
  -3  -3  -7   46.86   19.81
  -3  -3  -7   76.30   21.56
   3   3   7   34.08   19.27
  -3   3  -7   17.07   20.00
   3   3   7   45.21   16.92
  -3   3  -7   39.85   20.77
  -3   3  -7   -1.05   21.77
  -3  -3   7   23.09   10.51
   3   3   7   23.62   11.80
  -3   3  -7   56.12   24.42
  -3  -3   7   32.39   28.46
  -3  -3   7   39.20   23.28
   0   4  -7   22.62   16.61
   0  -4   7   27.74   17.60
   0  -4  -7   32.94   14.88
   0   4  -7   37.72   20.91
   0   4  -7   52.92   18.89
   0  -4  -7   25.14   13.86
   0   4   7   59.60   18.81
   0   4   7   31.61   14.22
   0   4  -7   53.08   21.16
   0  -4   7   75.88   26.39
   0  -4  -7   61.30   18.20
   0  -4  -7   12.06   15.09
  -2   4   7   83.71   18.64
   2   4  -7   20.12   21.35
  -2   4   7  104.24   23.54
   2  -4   7   54.43   21.89
   2   4  -7   49.47   18.91
  -2  -4  -7   76.62   23.63
   2  -4   7   40.99   16.73
  -2  -4  -7   77.64   20.25
   2   4  -7   93.87   20.25
  -2  -4  -7   61.29   20.05
  -2  -4  -7   27.19   18.68
  -2  -4   7   92.67   14.95
  -2   4  -7  124.90   25.09
   2  -4  -7   48.89   15.46
   2  -4  -7   29.21   17.15
   2   4   7   88.88   20.64
  -2   4  -7   37.48   24.62
  -2   4  -7    0.19   19.31
  -2  -4   7   46.11   23.90
  -2   4  -7   61.15   21.62
  -2  -4   7  109.57   36.49
   2   4   7   63.91   15.41
   4  -4   7   -0.79   22.20
  -4  -4  -7  -20.89   17.28
   4   4  -7  -30.16   13.98
   4   4  -7   17.32   18.19
   4  -4   7  -13.22   18.48
  -4  -4  -7   -4.83   20.58
   4  -4   7  -11.17   11.35
  -4   4   7    2.66   13.86
  -4  -4  -7   -4.62   19.14
  -4   4   7    3.66   18.09
  -4  -4  -7    2.93   23.03
   4   4   7   21.52   18.74
  -4  -4   7    7.74    9.63
  -4   4  -7  -56.11   27.96
  -4   4  -7  -11.64   21.47
  -4   4  -7  -13.30   23.21
  -4  -4   7   14.55   22.86
  -4   4  -7   -9.01   19.44
  -4  -4   7   40.77   34.23
   4   4   7   -6.11   12.59
   4   4   7   23.45   19.69
   1   5  -7   37.80   24.16
   1   5  -7   48.98   17.84
  -1  -5  -7   73.53   20.82
   1   5  -7   42.26   22.63
  -1   5   7   67.14   20.47
  -1  -5  -7   85.39   18.75
  -1  -5  -7   31.67   17.70
   1  -5   7   82.32   19.18
  -1  -5  -7  115.22   19.21
   1   5  -7   43.06   19.49
  -1   5   7   59.43   17.39
   1  -5   7   77.58   26.67
  -1  -5   7   67.51   22.86
  -1   5  -7   30.33   22.89
  -1  -5   7   54.38   14.47
   1  -5  -7   29.15   16.45
   1  -5  -7   49.25   14.61
   1   5   7   61.83   14.49
   1   5   7   66.04   17.55
  -1  -5   7   41.80   29.53
  -1   5  -7   12.35   20.84
  -1   5  -7   53.28   19.96
  -1   5  -7   82.13   23.66
   1  -5  -7   52.57   18.32
  -3  -5  -7   50.80   22.86
  -3  -5  -7   53.95   19.94
  -3  -5  -7    9.78   18.67
  -3   5   7   -9.24   16.09
   3   5  -7   28.10   19.81
  -3  -5  -7   39.77   19.03
   3  -5   7   14.34   21.07
   3   5  -7    5.79   15.11
  -3   5   7   18.86   13.20
   3  -5   7   24.43   16.52
   3  -5   7   32.39   23.11
   3   5   7   -0.59   15.02
  -3   5  -7   -9.99   21.41
   3  -5  -7   -1.80   14.41
  -3   5  -7    2.92   20.26
  -3   5  -7   24.24   20.38
   3   5   7   10.47   10.89
  -3  -5   7   23.22   10.69
  -3  -5   7   29.69   24.61
  -3  -5   7   10.31   29.97
   3  -5  -7   22.58   11.66
  -3   5  -7  -37.62   25.90
   0  -6   7   48.87   18.52
   0  -6   7    0.60   12.75
   0  -6  -7   47.54   14.28
   0  -6  -7   20.70   15.74
   0   6  -7   12.45   22.78
   0  -6  -7   26.74   13.30
   0   6  -7   53.65   20.58
   0  -6  -7   42.28   16.27
   0  -6   7   41.47   25.64
   0   6   7   24.22   13.00
   0   6   7   31.00   17.46
   0   6  -7   11.04   20.93
   0   6  -7   -3.67   16.44
   2   6  -7    5.29   26.66
   2  -6   7   45.81   20.87
   2  -6   7   66.36   17.27
  -2  -6  -7  130.68   24.59
  -2  -6  -7   41.89   19.40
   2   6  -7   55.95   21.72
  -2  -6  -7  101.77   20.32
   2   6  -7   71.84   17.76
  -2  -6  -7  105.10   20.62
  -2   6   7   81.32   19.68
   2   6  -7   25.78   25.17
  -2   6   7   60.85   15.94
   2   6   7   51.96   14.28
  -2  -6   7   97.04   27.80
  -2   6  -7   30.09   22.27
   2   6   7   44.31   17.32
  -2   6  -7   33.66   23.20
  -2  -6   7   69.13   34.41
  -2   6  -7   31.10   27.79
  -2   6  -7   95.80   25.15
  -2  -6   7   44.51   14.34
   2  -6  -7   80.60   15.08
   2  -6  -7   47.32   16.26
  -4  -6  -7  -30.01   18.02
   4  -6   7   20.45   16.06
   4   6  -7   -5.90   19.31
  -4  -6  -7   38.02   20.07
   4  -6   7    6.77   21.77
  -4   6   7   -2.90   17.88
  -4   6   7   -1.46   13.26
   4   6  -7  -38.77   15.78
  -4  -6  -7   43.60   22.45
   4  -6   7   17.33   24.86
  -4  -6  -7  -21.22   21.93
  -4   6  -7   20.51   23.19
  -4   6  -7    6.79   24.10
  -4   6  -7   18.35   30.70
   4   6   7    1.77   18.03
  -4  -6   7    7.82   10.32
  -4  -6   7   -4.02   23.01
   4   6   7   -3.92   11.85
   4  -6  -7   12.63   13.87
   4   6   7  -15.32   16.22
   4  -6  -7    5.12    9.54
  -4  -6   7    3.03   33.33
   1   7  -7   78.13   23.89
   1  -7   7   49.74   18.86
  -1  -7  -7   90.90   20.73
  -1  -7  -7   48.73   19.12
  -1  -7  -7   76.82   17.97
   1   7  -7   75.54   27.00
   1  -7   7   63.05   16.50
   1  -7   7   83.52   26.48
  -1  -7  -7  108.40   19.43
  -1   7   7   67.13   17.32
   1   7  -7   55.57   18.32
  -1   7   7  124.91   22.43
   1   7  -7   49.01   24.53
   1   7   7   70.31   15.13
   1  -7  -7   44.15   17.67
   1  -7  -7   98.97   15.73
  -1  -7   7   56.46   16.78
   1  -7  -7   76.94   18.30
  -1   7  -7   81.35   26.02
   1   7   7   66.02   17.48
  -1  -7   7   12.17   30.09
  -1  -7   7   45.12   21.94
  -1   7  -7   77.24   24.00
  -1   7  -7   30.25   24.20
  -1   7  -7   28.17   26.59
   3   7  -7   23.23   19.27
   3  -7   7   39.59   21.03
   3   7  -7    2.71   17.77
  -3   7   7   44.80   12.82
  -3  -7  -7   56.43   18.69
   3  -7   7   21.59   13.96
  -3   7   7    2.85   15.65
  -3  -7  -7   44.26   20.83
  -3  -7  -7   48.23   18.42
   3  -7   7   25.38   24.33
  -3  -7  -7   11.26   17.65
  -3   7  -7   43.83   32.46
   3  -7  -7   17.36    9.83
  -3  -7   7   19.95   11.51
   3  -7  -7   17.25   12.67
  -3  -7   7   35.18   24.94
  -3  -7   7   79.54   35.03
   3   7   7    7.97   11.70
  -3   7  -7    9.86   22.91
   3   7   7   42.25   16.52
  -3   7  -7   27.49   22.56
  -3   7  -7   -0.87   20.80
   0   8  -7    8.51   15.57
   0  -8   7   -2.29   13.24
   0  -8   7   38.43   17.74
   0  -8  -7   14.87   15.39
   0  -8  -7   42.54   15.32
   0  -8   7    0.60   22.84
   0   8  -7    4.09   22.89
   0   8   7   25.37   11.94
   0   8   7   34.91   16.84
   0  -8  -7   69.35   14.77
   0  -8  -7   55.79   13.36
   0   8  -7   25.66   19.04
   0   8  -7   12.09   20.83
   2   8  -7    1.53   29.03
  -2  -8  -7   44.52   18.12
   2   8  -7   46.29   20.88
   2  -8   7   48.62   22.88
   2   8  -7  115.05   21.55
  -2   8   7   65.46   16.18
   2  -8   7   44.79   16.41
   2   8  -7   25.47   25.69
  -2   8  -7   50.46   24.84
  -2  -8   7  104.01   38.66
   2   8   7   28.98   11.83
  -2   8  -7   60.75   24.31
  -2  -8   7   41.90   25.06
  -2   8  -7    5.96   23.01
   2  -8  -7   66.62   15.46
  -2   8  -7   56.12   28.27
   2   8   7   61.63   16.73
  -2  -8   7   38.16   14.59
   4  -8   7   13.55   16.03
   4   8  -7   15.30   20.99
  -4   8   7   -8.83   15.01
   4  -8   7   24.20   25.59
   4   8  -7    9.97   20.87
  -4  -8  -7   23.34   18.81
   4  -8   7    7.61   22.52
  -4   8   7   -3.84   11.80
  -4  -8   7    4.81   11.65
  -4  -8   7   -5.40   24.34
   4   8   7   -0.47   11.94
   4  -8  -7    4.63   11.75
   4   8   7   33.40   17.76
   4  -8  -7   -2.70    9.20
  -4   8  -7   17.20   28.52
   4   8   7   -6.63   16.31
  -4   8  -7    7.16   23.39
  -4  -8   7   32.25   37.47
  -4   8  -7   14.16   23.32
   1  -9   7   77.41   21.44
  -1   9   7   98.53   19.07
   1   9  -7   96.62   20.68
   1  -9   7   98.66   21.11
   1   9  -7   74.11   24.33
  -1  -9  -7   86.51   20.60
  -1  -9  -7   47.72   18.66
   1  -9   7   98.48   29.60
  -1  -9  -7   75.51   17.48
   1   9  -7   54.43   26.88
  -1  -9  -7   83.52   18.64
   1   9  -7   65.82   30.50
  -1   9  -7   23.09   21.64
   1   9   7   61.19   18.16
   1  -9  -7   75.05   16.75
  -1   9  -7   80.71   28.42
  -1   9  -7   90.34   26.98
  -1  -9   7   18.12   28.96
  -1  -9   7   54.31   22.85
   1  -9  -7   61.28   18.75
   1   9   7   46.65   14.28
  -1  -9   7   80.58   17.56
  -1   9  -7   17.55   21.19
   3  -9   7    4.97   22.70
   3   9  -7   -4.91   14.92
   3   9  -7   33.74   20.58
   3  -9   7   20.02   17.64
   3  -9   7   43.65   26.56
  -3  -9  -7   40.95   19.07
   3   9   7   18.90   11.64
  -3  -9   7   25.48   12.76
  -3   9  -7   15.64   29.17
  -3   9  -7   62.04   26.03
  -3   9  -7   24.57   23.88
  -3  -9   7   30.55   37.07
  -3  -9   7   27.09   26.09
   3   9   7   25.93   16.58
   0  10  -7   18.69   17.31
   0 -10  -7    9.15   13.17
   0  10   7   23.32   10.43
   0 -10   7   38.25   28.69
   0 -10  -7   -3.24   13.24
   0  10  -7   17.61   17.25
   0 -10  -7   27.26   11.62
   0 -10   7   26.58   19.79
   0  10   7   22.80   14.17
   0 -10  -7   18.22   13.10
   0 -10   7    5.91   14.85
   0  10  -7   17.72   24.79
   0  10  -7  -17.16   24.36
   2  10  -7   11.20   16.43
   2 -10   7   36.36   19.24
   2 -10   7   43.91   26.39
   2 -10   7   17.63   16.82
   2  10  -7  -26.19   28.87
  -2 -10  -7   20.28   17.05
   2  10  -7   -8.33   18.74
   2  10   7   21.39   12.76
  -2  10  -7   24.79   29.68
  -2  10  -7   47.86   25.89
  -2  10  -7   15.29   23.49
  -2 -10   7   34.90   14.12
  -2 -10   7   78.95   39.41
   2  10   7   14.26    9.72
  -2 -10   7   16.71   26.57
   1 -11   7   66.56   27.80
   1 -11   7   47.60   17.47
   1  11  -7   39.03   24.43
   1  11  -7   54.57   31.83
   1  11  -7   50.91   17.64
  -1 -11  -7   49.95   17.24
   1  11  -7   31.24   28.45
   1 -11   7   65.46   20.01
  -1  11  -7   79.26   29.06
   1 -11  -7   29.30   14.63
  -1 -11   7   48.77   16.77
  -1 -11   7   48.39   22.23
   1  11   7   28.38   11.19
  -1  11  -7   33.79   24.40
  -1 -11   7   30.35   30.03
   1  11   7   15.65   13.65
  -1  11  -7   24.46   30.10
   3 -11   7   -3.92   27.80
   3 -11   7   13.33   15.69
   3 -11   7   11.83   22.72
  -3 -11  -7   32.97   18.49
   3  11  -7    1.63   18.03
   3  11  -7  -10.99   15.33
   3  11  -7   97.15   19.60
  -3  11  -7   31.08   36.12
  -3 -11   7  -16.15   26.74
   3  11   7   20.22   15.90
  -3 -11   7   53.99   38.80
  -3  11  -7   21.38   24.35
  -3  11  -7   62.68   27.33
  -3 -11   7   20.15   13.77
   3  11   7    1.21   10.89
   0  12  -7   11.40   17.45
   0 -12   7   46.19   19.74
   0 -12  -7   16.24   13.47
   0  12  -7  -16.95   23.04
   0  12  -7   -5.42   26.60
   0 -12   7   47.91   30.95
   0 -12   7   21.45   15.80
  -2 -12  -7   20.30   16.75
   2 -12   7    6.32   16.03
   2  12  -7    5.61   17.11
   2 -12   7   68.75   19.65
   2  12  -7  -12.68   20.79
   2  12  -7   58.35   18.49
   2 -12   7   17.62   23.33
  -2 -12   7   66.67   28.04
  -2  12  -7    7.12   19.08
   2  12   7   12.61   13.12
   2  12   7    9.81    9.09
  -2  12  -7   -1.94   23.64
  -2  12  -7   48.27   26.23
  -2 -12   7   13.80   14.11
  -2 -12   7   22.01   40.34
   1 -13   7   36.32   19.80
  -1 -13  -7   48.06   16.65
   1  13  -7   19.32   20.79
   1 -13   7   84.57   33.85
   1  13  -7    9.25   20.35
   1  13  -7   28.85   32.83
   1 -13   7   24.17   18.51
  -1 -13   7   51.00   37.53
   1  13   7   20.79   10.05
  -1 -13   7   51.33   18.30
  -1  13  -7   29.53   24.46
  -1 -13   7   52.11   25.71
  -1  13  -7    1.31   30.90
  -1  13  -7   59.06   28.77
   1  13   7   32.54   13.18
   1 -13  -7   39.65   14.52
   0 -14   7   21.07   20.00
   0  14  -7   41.22   28.52
   0 -14  -7   21.97   13.96
   0  14  -7   10.02   22.11
   0  14  -7    4.68   29.26
   0 -14   7   46.49   30.48
   0 -14   7    6.01   17.18
   0   0  -8   18.18   19.32
   0   0  -8   70.74   21.19
   0   0  -8   34.39   18.70
   0   0  -8   32.22   22.30
   0   0   8   47.96   23.76
   0   0   8   42.78   17.70
  -2   0  -8   24.44   20.76
   2   0   8    9.76   15.10
   2   0   8   27.15   20.41
  -2   0   8   21.29   27.58
  -2   0   8   38.77   22.07
   2   0  -8   50.48   18.04
  -2   0  -8    4.66   20.97
  -2   0  -8   35.94   20.70
  -2   0  -8  -25.75   25.10
  -1  -1  -8   26.18   18.92
  -1  -1  -8   19.45   19.92
   1   1  -8   17.29   16.59
  -1   1   8   16.18   24.73
  -1  -1  -8   25.78   18.24
   1   1  -8  -13.96   22.95
  -1   1   8   26.83   18.20
   1  -1   8   33.69   22.37
   1   1  -8   16.35   16.58
   1   1  -8   28.03   20.56
  -1  -1  -8   13.70   24.32
   1  -1   8   32.66   14.93
   1   1   8    9.41   13.36
   1   1   8   16.12   19.10
   1  -1  -8    0.24   17.81
  -1   1  -8   48.52   21.43
  -1  -1   8    7.69   18.60
  -1  -1   8   72.14   28.67
  -1   1  -8  -28.43   18.19
   1  -1  -8   36.56   18.23
  -1   1  -8   21.30   18.19
  -1   1  -8   39.44   26.25
   0   2  -8   23.18   18.86
   0  -2  -8  112.00   32.16
   0  -2   8   19.42   17.46
   0   2  -8   55.44   22.66
   0  -2  -8   73.30   19.92
   0   2  -8   52.77   28.26
   0  -2   8   82.13   30.39
   0   2   8   36.50   22.33
   0  -2  -8   18.10   20.73
   0   2  -8   26.51   22.00
   0   2   8   48.11   18.27
  -2  -2  -8   14.61   22.69
   2  -2   8   29.41   21.71
   2  -2   8   21.75   13.16
  -2   2   8   35.89   24.48
   2   2  -8   69.39   18.40
  -2  -2  -8   36.72   20.52
  -2  -2  -8   -7.42   26.13
  -2   2   8   12.96   18.09
  -2  -2  -8  -22.16   18.63
   2   2   8   15.21   18.04
  -2  -2   8   22.70   23.69
  -2  -2   8   66.86   33.65
   2   2   8   11.05   12.29
  -2   2  -8   15.61   20.96
  -2   2  -8   22.93   28.29
  -2   2  -8  -17.41   21.39
  -2   2  -8   33.07   21.95
   1  -3   8   41.19   17.85
   1   3  -8   40.98   17.41
  -1  -3  -8   34.96   24.14
   1   3  -8   32.82   23.17
   1  -3   8   40.78   27.17
  -1   3   8   39.39   18.04
  -1  -3  -8   11.61   18.44
   1   3  -8   39.71   26.21
  -1   3   8   24.29   22.94
   1   3  -8   14.67   18.54
  -1  -3  -8    1.11   18.86
  -1  -3  -8   27.47   18.51
  -1   3  -8   13.40   22.46
   1   3   8   13.86   18.56
  -1  -3   8   36.54   21.09
  -1   3  -8   48.04   28.54
  -1   3  -8   16.15   21.17
  -1   3  -8   57.59   24.24
   1  -3  -8   33.85   17.62
   1   3   8   18.60   13.84
  -1  -3   8   30.46   27.93
   0   4   8   37.40   22.27
   0   4  -8   79.23   26.03
   0  -4  -8   24.93   20.59
   0   4   8   68.95   17.73
   0   4  -8   -3.14   20.55
   0  -4  -8   88.07   19.74
   0   4  -8   44.57   21.98
   0   4  -8   61.58   27.19
   0  -4   8   83.89   31.25
   0  -4   8   69.78   20.28
   2   4  -8   13.34   25.94
  -2  -4  -8   23.55   19.95
  -2  -4  -8  -14.03   17.78
   2  -4   8   26.35   20.02
   2  -4   8   31.54   14.69
   2   4  -8   31.26   30.96
   2   4  -8   67.07   18.79
  -2   4   8   23.86   16.44
  -2   4   8   35.53   22.77
  -2  -4   8   26.79   24.40
   2  -4  -8   32.04   17.51
   2   4   8   31.33   14.38
   2   4   8   39.68   18.86
  -2  -4   8  -11.28   31.78
  -2   4  -8    0.74   26.92
  -2   4  -8  -23.29   21.16
  -2   4  -8   32.42   23.99
  -2   4  -8   32.34   22.14
   1  -5   8   -6.28   15.31
   1   5  -8   30.57   29.25
  -1  -5  -8   54.94   18.88
   1   5  -8   39.68   17.93
  -1   5   8   24.60   17.18
  -1   5   8   21.22   22.70
  -1  -5  -8  -10.77   16.83
   1   5  -8    6.88   19.01
   1   5  -8   20.61   24.92
   1  -5   8   28.22   24.01
  -1  -5   8   42.69   21.87
  -1   5  -8    3.44   19.67
   1   5   8   15.01   12.54
  -1   5  -8   48.58   24.49
  -1   5  -8   -6.00   27.64
   1  -5  -8   51.08   18.81
  -1   5  -8  -15.62   18.19
   1   5   8    8.32   16.89
  -1  -5   8   -7.37   27.26
   0   6   8   44.78   21.30
   0   6  -8   61.18   26.03
   0   6  -8    7.48   22.13
   0  -6   8   68.21   19.34
   0   6  -8    9.59   28.43
   0   6  -8   19.63   20.62
   0  -6   8   44.44   27.27
   0  -6  -8    7.40   17.96
   0  -6  -8   79.58   17.85
   0   6   8   59.57   16.25
  -2  -6  -8   43.31   19.93
   2   6  -8   41.38   24.62
  -2  -6  -8   -5.10   18.40
   2  -6   8   20.51   21.84
   2  -6   8   -2.89   15.28
   2   6  -8   28.27   25.71
   2   6  -8   83.57   19.64
  -2   6   8   32.50   20.66
  -2   6   8   49.82   15.59
   2  -6  -8   34.80   17.05
  -2   6  -8   54.95   25.79
  -2   6  -8   -3.13   23.20
   2  -6  -8   30.58   13.00
   2   6   8   24.52   17.19
  -2  -6   8   15.28   36.43
  -2  -6   8   14.73   13.13
  -2  -6   8   21.83   25.22
  -2   6  -8   21.41   34.18
  -2   6  -8  -19.58   23.08
   2  -6  -8   40.63   17.69
   2   6   8   18.40   12.27
  -1  -7  -8   -8.75   16.59
  -1   7   8   47.57   22.28
  -1   7   8   27.99   15.35
   1   7  -8   21.85   26.68
   1   7  -8   -9.24   19.62
   1   7  -8   41.54   17.67
   1  -7   8   83.44   30.34
   1   7  -8  -17.34   25.38
   1  -7   8    8.06   16.90
  -1  -7  -8   28.23   17.52
  -1   7  -8  -31.86   19.12
  -1   7  -8   11.26   33.50
   1  -7  -8   13.50   15.67
  -1   7  -8  -11.86   23.04
  -1  -7   8   18.75   32.59
  -1  -7   8    3.28   12.95
  -1   7  -8   36.70   24.64
   1  -7  -8   16.74   16.80
   1   7   8  -19.15   15.63
   1   7   8   10.54   11.58
  -1  -7   8   41.00   24.20
   1  -7  -8   36.90   12.94
   0   8   8   33.43   13.15
   0   8   8   11.57   18.71
   0   8  -8   -8.63   19.71
   0   8  -8   57.83   26.76
   0  -8   8   20.97   19.03
   0   8  -8    1.87   30.06
   0   8  -8   13.07   20.58
   0  -8  -8   -9.42   16.39
   0  -8  -8   29.13   14.91
   0  -8  -8   23.11   13.67
   0  -8   8    0.49   29.55
   0  -8   8   24.91   14.62
   0  -8  -8   17.90   16.17
   0   0   0    0.00    0.00

_computing_structure_solution     'SHELXT 2018/2 (Sheldrick, 2018)'
;
_shelx_hkl_checksum              88030
loop_
_space_group_symop_operation_xyz
'x, y, z'
'-x, -y, z'
'-x, y, -z'
'x, -y, -z'
'x+1/2, y+1/2, z'
'-x+1/2, -y+1/2, z'
'-x+1/2, y+1/2, -z'
'x+1/2, -y+1/2, -z'
'-x, -y, -z'
'x, y, -z'
'x, -y, z'
'-x, y, z'
'-x+1/2, -y+1/2, -z'
'x+1/2, y+1/2, -z'
'x+1/2, -y+1/2, z'
'-x+1/2, y+1/2, z'
loop_
_atom_site_label
_atom_site_type_symbol
_atom_site_fract_x
_atom_site_fract_y
_atom_site_fract_z
_atom_site_U_iso_or_equiv
_atom_site_adp_type
_atom_site_occupancy
_atom_site_site_symmetry_order
_atom_site_calc_flag
_atom_site_refinement_flags_posn
_atom_site_refinement_flags_adp
_atom_site_refinement_flags_occupancy
_atom_site_disorder_assembly
_atom_site_disorder_group
Ag1 Ag 0.000000 0.500000 0.000000 0.180(6) Uani 1 8 d S T P . .
Bi1 Bi 0.500000 0.500000 0.500000 0.0784(17) Uani 1 8 d S T P . .
Br1 Br 0.000000 0.5924(5) 0.000000 0.190(6) Uani 1 4 d S T P . .
Br2 Br 0.500000 0.6025(5) 0.500000 0.237(9) Uani 1 4 d S T P . .
Br3 Br 0.2698(13) 0.500000 0.2678(13) 0.228(6) Uani 1 2 d S T P . .
C1 C 0.500000 0.5967(6) 1.000000 0.458(8) Uani 1 4 d DS TU P . .
C2 C 0.500000 0.6514(6) 1.000000 0.458(9) Uani 1 4 d DS TU P . .
C3 C 0.60001(6) 0.6820(6) 0.8998(4) 0.458(9) Uani 0.75 1 d D U P . .
N1 N 0.3425(2) 0.5755(6) 1.000000 0.458(8) Uani 1 2 d DS TU P . .
C4 C 0.000000 0.5957(6) 0.500000 0.458(8) Uani 1 4 d DS TU P . .
C5 C 0.000000 0.6503(6) 0.500000 0.458(9) Uani 1 4 d DS TU P . .
C6 C 0.1002(4) 0.6809(6) 0.60004(6) 0.458(9) Uani 0.75 1 d D U P . .
N2 N 0.000000 0.5744(6) 0.6575(2) 0.458(8) Uani 1 2 d DS TU P . .
loop_
_atom_site_aniso_label
_atom_site_aniso_U_11
_atom_site_aniso_U_22
_atom_site_aniso_U_33
_atom_site_aniso_U_23
_atom_site_aniso_U_13
_atom_site_aniso_U_12
Ag1 0.194(14) 0.136(10) 0.210(15) 0.000 0.000 0.000
Bi1 0.093(3) 0.065(2) 0.076(3) 0.000 0.000 0.000
Br1 0.215(14) 0.125(9) 0.229(15) 0.000 0.000 0.000
Br2 0.29(2) 0.102(8) 0.32(2) 0.000 0.000 0.000
Br3 0.208(11) 0.275(12) 0.202(10) 0.000 -0.123(9) 0.000
C1 0.490(15) 0.310(14) 0.574(15) 0.000 0.000 0.000
C2 0.490(15) 0.310(15) 0.574(15) 0.000 0.000 0.000
C3 0.490(15) 0.309(15) 0.574(15) 0.000(5) 0.000(5) 0.000(5)
N1 0.490(15) 0.310(14) 0.574(15) 0.000 0.000 0.000
C4 0.490(15) 0.310(14) 0.574(15) 0.000 0.000 0.000
C5 0.490(15) 0.310(15) 0.574(15) 0.000 0.000 0.000
C6 0.490(15) 0.309(15) 0.574(15) 0.000(5) 0.000(5) 0.000(5)
N2 0.490(15) 0.310(14) 0.574(15) 0.000 0.000 0.000
loop_
_atom_type_symbol
_atom_type_description
_atom_type_scat_dispersion_real
_atom_type_scat_dispersion_imag
_atom_type_scat_source
C C 0.0033 0.0016 'International Tables Vol C Tables 4.2.6.8 and 6.1.1.4'
Ag Ag -0.8971 1.1015 'International Tables Vol C Tables 4.2.6.8 and 6.1.1.4'
Bi Bi -4.1077 10.2566 'International Tables Vol C Tables 4.2.6.8 and 6.1.1.4'
Br Br -0.2901 2.4595 'International Tables Vol C Tables 4.2.6.8 and 6.1.1.4'
N N 0.0061 0.0033 'International Tables Vol C Tables 4.2.6.8 and 6.1.1.4'
loop_
_geom_angle_atom_site_label_1
_geom_angle_atom_site_label_2
_geom_angle_atom_site_label_3
_geom_angle
_geom_angle_site_symmetry_1
_geom_angle_site_symmetry_3
_geom_angle_publ_flag
Br1 Ag1 Br1 180.0 9_565 . ?
Br1 Ag1 Br3 90.000(1) 9_565 . ?
Br1 Ag1 Br3 90.000(1) . . ?
Br2 Bi1 Br2 180.0 9_666 . ?
Br2 Bi1 Br3 90.000(1) 9_666 . ?
Br2 Bi1 Br3 90.000(1) . . ?
Br2 Bi1 Br3 90.000(1) 9_666 9_666 ?
Br2 Bi1 Br3 90.000(2) . 9_666 ?
Br3 Bi1 Br3 180.0 . 9_666 ?
Br2 Bi1 Br3 90.000(3) 9_666 10_556 ?
Br2 Bi1 Br3 90.000(1) . 10_556 ?
Br3 Bi1 Br3 90.5(6) . 10_556 ?
Br3 Bi1 Br3 89.5(5) 9_666 10_556 ?
Br2 Bi1 Br3 90.000(1) 9_666 2_665 ?
Br2 Bi1 Br3 90.000(3) . 2_665 ?
Br3 Bi1 Br3 89.5(5) . 2_665 ?
Br3 Bi1 Br3 90.5(6) 9_666 2_665 ?
Br3 Bi1 Br3 180.0 10_556 2_665 ?
Bi1 Br3 Ag1 179.5(5) . . ?
N1 C1 N1 134.2(2) 3_657 . ?
N1 C1 C2 112.89(12) 3_657 . ?
N1 C1 C2 112.89(12) . . ?
C3 C2 C3 71.61(11) 12_655 . ?
C3 C2 C1 124.10(14) 12_655 . ?
C3 C2 C1 124.10(14) . . ?
C3 C2 C3 111.8(3) 12_655 10_557 ?
C3 C2 C3 71.8(3) . 10_557 ?
C1 C2 C3 124.10(14) . 10_557 ?
C3 C2 C3 71.8(3) 12_655 3_657 ?
C3 C2 C3 111.8(3) . 3_657 ?
C1 C2 C3 124.10(14) . 3_657 ?
C3 C2 C3 71.61(11) 10_557 3_657 ?
C2 C3 C3 54.20(5) . 12_655 ?
C2 C3 C3 54.12(16) . 10_557 ?
C3 C3 C3 90.001(1) 12_655 10_557 ?
N2 C4 N2 134.2(2) 10_556 . ?
N2 C4 C5 112.89(12) 10_556 . ?
N2 C4 C5 112.89(12) . . ?
C6 C5 C6 71.61(11) . 10_556 ?
C6 C5 C4 124.09(14) . . ?
C6 C5 C4 124.09(14) 10_556 . ?
C6 C5 C6 71.8(3) . 12 ?
C6 C5 C6 111.8(3) 10_556 12 ?
C4 C5 C6 124.10(14) . 12 ?
C6 C5 C6 111.8(3) . 3_556 ?
C6 C5 C6 71.8(3) 10_556 3_556 ?
C4 C5 C6 124.10(14) . 3_556 ?
C6 C5 C6 71.60(10) 12 3_556 ?
C5 C6 C6 54.20(5) . 10_556 ?
C5 C6 C6 54.12(16) . 12 ?
C6 C6 C6 90.000(2) 10_556 12 ?
loop_
_geom_bond_atom_site_label_1
_geom_bond_atom_site_label_2
_geom_bond_distance
_geom_bond_site_symmetry_2
_geom_bond_publ_flag
Ag1 Br1 2.538(13) 9_565 ?
Ag1 Br1 2.538(13) . ?
Ag1 Br3 3.335(9) . ?
Bi1 Br2 2.816(13) 9_666 ?
Bi1 Br2 2.816(13) . ?
Bi1 Br3 2.868(9) . ?
Bi1 Br3 2.868(9) 9_666 ?
Bi1 Br3 2.868(9) 10_556 ?
Bi1 Br3 2.868(9) 2_665 ?
C1 N1 1.4999(18) 3_657 ?
C1 N1 1.5000(18) . ?
C1 C2 1.5000(19) . ?
C2 C3 1.5000(14) 12_655 ?
C2 C3 1.5000(14) . ?
C2 C3 1.5000(14) 10_557 ?
C2 C3 1.5000(14) 3_657 ?
C3 C3 1.755(2) 12_655 ?
C3 C3 1.758(8) 10_557 ?
C4 N2 1.4999(17) 10_556 ?
C4 N2 1.5000(17) . ?
C4 C5 1.5000(19) . ?
C5 C6 1.5000(14) . ?
C5 C6 1.5000(14) 10_556 ?
C5 C6 1.5000(14) 12 ?
C5 C6 1.5000(14) 3_556 ?
C6 C6 1.755(2) 10_556 ?
C6 C6 1.758(8) 12 ?
