#------------------------------------------------------------------------------
#$Date: 2022-02-01 10:54:55 +0200 (Tue, 01 Feb 2022) $
#$Revision: 272383 $
#$URL: file:///home/coder/svn-repositories/cod/cif/1/56/62/1566230.cif $
#------------------------------------------------------------------------------
#
# This file is available in the Crystallography Open Database (COD),
# http://www.crystallography.net/
#
# All data on this site have been placed in the public domain by the
# contributors.
#
data_1566230
loop_
_publ_author_name
'Vladislav V. Gurzhiy'
'Alina R. Izatulina'
'Maria G. Krzhizhanovskaya'
'Mikhail N. Murashko'
'Dar-ya V. Spiridonova'
'Vladimir V. Shilovskikh'
'Sergey V. Krivovichev'
_publ_section_title
;
 Thermal behavior of uranyl selenite minerals derriksite and
 demesmaekerite
;
_journal_name_full               'Journal of GeoSciences'
_journal_page_first              249
_journal_page_last               259
_journal_paper_doi               10.3190/jgeosci.315
_journal_volume                  65
_journal_year                    2020
_chemical_formula_moiety         'Cu4 H6 O14 Se2 U'
_chemical_formula_sum            'Cu4 H6 O14 Se2 U'
_chemical_formula_weight         880.16
_space_group_crystal_system      orthorhombic
_space_group_IT_number           31
_space_group_name_Hall           'P 2ac -2'
_space_group_name_H-M_alt        'P m n 21'
_atom_sites_solution_hydrogens   difmap
_cell_angle_alpha                90
_cell_angle_beta                 90
_cell_angle_gamma                90
_cell_formula_units_Z            2
_cell_length_a                   5.9743(4)
_cell_length_b                   5.5759(4)
_cell_length_c                   19.0983(11)
_cell_measurement_reflns_used    2340
_cell_measurement_temperature    303(2)
_cell_measurement_theta_max      30.7930
_cell_measurement_theta_min      4.2240
_cell_volume                     636.20(7)
_computing_cell_refinement       'CrysAlisPro 1.171.39.44a (Rigaku OD, 2018)'
_computing_data_collection       'CrysAlisPro 1.171.39.44a (Rigaku OD, 2018)'
_computing_data_reduction        'CrysAlisPro 1.171.39.44a (Rigaku OD, 2018)'
_computing_molecular_graphics    'Olex2 1.3 (Dolomanov et al., 2009)'
_computing_publication_material  'Olex2 1.3 (Dolomanov et al., 2009)'
_computing_structure_refinement  'SHELXL 2018/3 (Sheldrick, 2015)'
_computing_structure_solution    'SHELXT 2018/3 (Sheldrick, 2015)'
_diffrn_ambient_environment      air
_diffrn_ambient_temperature      303(2)
_diffrn_detector                 'CCD plate'
_diffrn_detector_area_resol_mean 10.3829
_diffrn_detector_type            Atlas
_diffrn_measured_fraction_theta_full 0.998
_diffrn_measured_fraction_theta_max 0.999
_diffrn_measurement_details
;
List of Runs (angles in degrees, time in seconds):

  # Type    Start    End  Width  t~exp~   \w     \q     \k     \f   Frames
--------------------------------------------------------------------------
  1  \w    -47.00   3.00   1.00   22.50    --  -14.99  77.00-180.00   50
  2  \w    -27.00  19.00   1.00   22.50    --  -14.99 -77.00-150.00   46
  3  \w     42.00  83.00   1.00   22.50    --   16.86 178.00 -30.00   41
  4  \w     31.00  59.00   1.00   22.50    --   16.86 -99.00 120.00   28
  5  \w     -4.00  93.00   1.00   22.50    --   16.86  38.00 120.00   97
  6  \w     -8.00  93.00   1.00   22.50    --   16.86  38.00  30.00  101
;
_diffrn_measurement_device       'four-circle diffractometer'
_diffrn_measurement_device_type  'SuperNova, Dual, Cu at home/near, Atlas'
_diffrn_measurement_method       '\w scans'
_diffrn_orient_matrix_type
'CrysAlisPro convention (1999,Acta A55,543-557)'
_diffrn_orient_matrix_UB_11      0.1104573000
_diffrn_orient_matrix_UB_12      0.0364744000
_diffrn_orient_matrix_UB_13      0.0086559000
_diffrn_orient_matrix_UB_21      -0.0276491000
_diffrn_orient_matrix_UB_22      0.1202822000
_diffrn_orient_matrix_UB_23      -0.0086397000
_diffrn_orient_matrix_UB_31      -0.0341265000
_diffrn_orient_matrix_UB_32      0.0205420000
_diffrn_orient_matrix_UB_33      0.0350687000
_diffrn_radiation_monochromator  mirror
_diffrn_radiation_probe          x-ray
_diffrn_radiation_type           'Mo K\a'
_diffrn_radiation_wavelength     0.71073
_diffrn_reflns_av_R_equivalents  0.0450
_diffrn_reflns_av_unetI/netI     0.0429
_diffrn_reflns_Laue_measured_fraction_full 0.998
_diffrn_reflns_Laue_measured_fraction_max 0.999
_diffrn_reflns_limit_h_max       6
_diffrn_reflns_limit_h_min       -7
_diffrn_reflns_limit_k_max       6
_diffrn_reflns_limit_k_min       -7
_diffrn_reflns_limit_l_max       22
_diffrn_reflns_limit_l_min       -24
_diffrn_reflns_number            5142
_diffrn_reflns_point_group_measured_fraction_full 0.973
_diffrn_reflns_point_group_measured_fraction_max 0.971
_diffrn_reflns_theta_full        25.242
_diffrn_reflns_theta_max         27.498
_diffrn_reflns_theta_min         3.573
_diffrn_source                   'micro-focus sealed X-ray tube'
_diffrn_source_type              'SuperNova (Mo) X-ray Source'
_exptl_absorpt_coefficient_mu    25.055
_exptl_absorpt_correction_T_max  0.995
_exptl_absorpt_correction_T_min  0.989
_exptl_absorpt_correction_type   analytical
_exptl_absorpt_process_details
;
CrysAlisPro 1.171.39.44a (Rigaku Oxford Diffraction, 2018)
Analytical numeric absorption correction using a multifaceted crystal
			model based on expressions derived by R.C. Clark & J.S. Reid.
(Clark, R. C. & Reid, J. S. (1995). Acta Cryst. A51, 887-897)
Empirical absorption correction using spherical harmonics,
 implemented in SCALE3 ABSPACK scaling algorithm.
;
_exptl_crystal_colour            green
_exptl_crystal_density_diffrn    4.595
_exptl_crystal_description       prism
_exptl_crystal_F_000             788
_exptl_crystal_size_max          0.108
_exptl_crystal_size_mid          0.06
_exptl_crystal_size_min          0.041
_refine_diff_density_max         1.449
_refine_diff_density_min         -1.793
_refine_diff_density_rms         0.231
_refine_ls_abs_structure_details
;
 Flack x determined using 653 quotients [(I+)-(I-)]/[(I+)+(I-)]
 (Parsons, Flack and Wagner, Acta Cryst. B69 (2013) 249-259).
;
_refine_ls_abs_structure_Flack   -0.02(2)
_refine_ls_extinction_coef       .
_refine_ls_extinction_method     none
_refine_ls_goodness_of_fit_ref   1.053
_refine_ls_hydrogen_treatment    refxyz
_refine_ls_matrix_type           full
_refine_ls_number_parameters     123
_refine_ls_number_reflns         1552
_refine_ls_number_restraints     7
_refine_ls_restrained_S_all      1.051
_refine_ls_R_factor_all          0.0456
_refine_ls_R_factor_gt           0.0433
_refine_ls_shift/su_max          0.000
_refine_ls_shift/su_mean         0.000
_refine_ls_structure_factor_coef Fsqd
_refine_ls_weighting_details
'w=1/[\s^2^(Fo^2^)+(0.0752P)^2^+0.7479P] where P=(Fo^2^+2Fc^2^)/3'
_refine_ls_weighting_scheme      calc
_refine_ls_wR_factor_gt          0.1053
_refine_ls_wR_factor_ref         0.1076
_reflns_Friedel_coverage         0.888
_reflns_Friedel_fraction_full    0.946
_reflns_Friedel_fraction_max     0.942
_reflns_number_gt                1480
_reflns_number_total             1552
_reflns_threshold_expression     'I > 2\s(I)'
_cod_data_source_file            Derriksite_SN_30C_last.cif
_cod_data_source_block           derriksite_sn_30C
_cod_database_code               1566230
_chemical_oxdiff_formula         'Cu4 U Se2 O14'
_shelx_space_group_comment
;
The symmetry employed for this shelxl refinement is uniquely defined
by the following loop, which should always be used as a source of
symmetry information in preference to the above space-group names.
They are only intended as comments.
;
_reflns_odcompleteness_completeness 99.70
_reflns_odcompleteness_iscentric 1
_reflns_odcompleteness_theta     28.51
_olex2_refinement_description
;
1. Fixed Uiso
 At 1.5 times of:
  All O(H) groups
2. Restrained distances
 O9-H9
 1 with sigma of 0.02
 O8-H8
 0.98 with sigma of 0.02
 H8-O1_$3
 2.15 with sigma of 0.02
 H9-O5_$5
 2.15 with sigma of 0.02
 O7-H7
 0.9 with sigma of 0.02
 O10-H10
 0.9 with sigma of 0.02
3. Others
 Fixed Sof: H9(0.5)
;
_shelx_res_file
;
TITL Derriksite_SN_303K in Pmn2(1)
    derriksite_sn_303k.res
    created by SHELXL-2018/3 at 11:53:46 on 05-Sep-2020
REM Pmn2(1) (#31, found as Pnm2(1) in ba-c setting)
CELL 0.71073 5.974299 5.575851 19.0983 90 90 90
ZERR 2 0.000359 0.000445 0.001145 0 0 0
LATT -1
SYMM 0.5-X,-Y,0.5+Z
SYMM 0.5+X,-Y,0.5+Z
SYMM -X,+Y,+Z
SFAC Cu H O Se U
UNIT 8 12 28 4 2
EQIV $1 1+X,+Y,+Z
EQIV $2 0.5-X,-Y,-0.5+Z
EQIV $3 -X,+Y,+Z
EQIV $4 -1-X,+Y,+Z
EQIV $5 -0.5+X,1-Y,-0.5+Z
DFIX 1 O9 H9
DFIX 0.98 O8 H8
DFIX 2.15 H8 O1_$3
DFIX 2.15 H9 O5_$5
DFIX 0.9 O7 H7
DFIX 0.9 O10 H10

L.S. 20
PLAN  2
CONF
HTAB O7 O3_$3
HTAB O10 O5_$2
FREE Cu1 Cu1_$4
FREE Cu2 Cu3_$1
FREE Cu2 Cu3_$3
FREE Cu2 Cu3_$4
FREE Cu2 Cu3
list 4
MORE -1
BOND $H
fmap 2
acta
OMIT -4 55
REM <olex2.extras>
REM <HklSrc "%.\\Derriksite_SN_303K.hkl">
REM </olex2.extras>

WGHT    0.075200    0.747900
FVAR       1.01034
U1    5    0.500000    0.184645    0.606511    10.50000    0.01451    0.03122 =
         0.01179   -0.00460    0.00000    0.00000
SE1   4    0.000000   -0.140233    0.527449    10.50000    0.01897    0.03155 =
         0.01370    0.00248    0.00000    0.00000
SE2   4    1.000000    0.507173    0.689781    10.50000    0.01815    0.02834 =
         0.01348    0.00259    0.00000    0.00000
CU1   1   -0.250084    0.608132    0.361717    11.00000    0.00664    0.00834 =
         0.01948    0.00077    0.00149    0.00111
CU2   1    0.000000    0.112508    0.354059    10.50000    0.00461    0.00834 =
         0.01835   -0.00139    0.00000    0.00000
CU3   1   -0.500000    0.102786    0.356287    10.50000    0.00405    0.00835 =
         0.01828   -0.00234    0.00000    0.00000
O1    3    0.500000    0.459613    0.557717    10.50000    0.04602    0.04618 =
         0.03301    0.00967    0.00000    0.00000
O2    3    0.500000   -0.083969    0.655409    10.50000    0.05707    0.03361 =
         0.02036    0.00271    0.00000    0.00000
O3    3    0.217734    0.061694    0.534632    11.00000    0.02609    0.05898 =
         0.01537   -0.00951   -0.00297   -0.01283
O4    3    0.000000   -0.201610    0.442393    10.50000    0.01458    0.01533 =
         0.01522   -0.00445    0.00000    0.00000
O5    3    0.777413    0.310232    0.681992    11.00000    0.03345    0.03432 =
         0.02162   -0.01100   -0.00286   -0.00404
O6    3    1.000000    0.555108    0.774922    10.50000    0.01094    0.02135 =
         0.02379   -0.01157    0.00000    0.00000
O7    3   -0.253120    0.277749    0.402356    11.00000    0.00697    0.01212 =
         0.01479   -0.00364    0.00437   -0.00190
H7    2   -0.253491    0.261759    0.449134    11.00000   -1.50000
O8    3   -0.500000    0.724186    0.413591    10.50000    0.00517    0.01601 =
         0.01814   -0.00057    0.00000    0.00000
H8    2   -0.500000    0.660644    0.461438    10.50000   -1.50000
O9    3    0.000000    0.488373    0.309022    10.50000    0.00619    0.01821 =
         0.01294   -0.00525    0.00000    0.00000
H9    2    0.070557    0.549284    0.264815    10.50000   -1.50000
O10   3   -0.248223   -0.069212    0.312164    11.00000    0.00676    0.01075 =
         0.01598   -0.00222   -0.00377    0.00116
H10   2   -0.259008   -0.099224    0.266152    11.00000   -1.50000
HKLF 4




REM  Derriksite_SN_303K in Pmn2(1)
REM wR2 = 0.1076, GooF = S = 1.053, Restrained GooF = 1.051 for all data
REM R1 = 0.0433 for 1480 Fo > 4sig(Fo) and 0.0456 for all 1552 data
REM 123 parameters refined using 7 restraints

END

WGHT      0.0753      0.6365

REM Highest difference peak  1.449,  deepest hole -1.793,  1-sigma level  0.231
Q1    1   0.5000  0.4811  0.6066  10.50000  0.05    1.45
Q2    1   1.0000  0.8553  0.6918  10.50000  0.05    1.39
;
_shelx_res_checksum              32072
_shelx_hkl_file
;
   0   0 -26 784.415 274.477   2
   0   0 -25 289.707 119.029   6
   0   0 -25-40.1206 112.079   2
   0   0 -24 23237.2 903.465   6
   0   0 -24 19231.3 1293.42   2
   0   0 -23 404.833 134.587   6
   0   0 -23 588.146 223.317   2
   0   0 -22 584.919 146.064   6
   0   0 -22 957.349 275.882   2
   0   0 -21-32.9756 78.9921   6
   0   0 -21 142.723 122.165   2
   0   0 -20 11404.4 872.408   2
   0   0 -20 11289.6 571.744   6
   0   0 -19 123.258 84.5687   6
   0   0 -18 5320.53 360.605   6
   0   0 -18 6997.64 417.057   1
   0   0 -17-27.5112 50.3975   1
   0   0 -17 169.427 91.7672   6
   0   0 -16 36652.6 995.662   1
   0   0 -16 29839.2 912.355   6
   0   0 -15 200.434 94.3185   6
   0   0 -15 123.995 66.0781   1
   0   0 -14 5517.05 322.152   1
   0   0 -14 4717.70 296.204   6
   0   0 -13 99.9126 54.4108   3
   0   0 -13 46.5814 42.7709   1
   0   0 -13 107.765 67.7657   6
   0   0 -13 83.6058 67.6686   4
   0   0 -12 105945. 2217.83   4
   0   0 -12 99382.4 1991.90   6
   0   0 -11 20.6617 37.1182   4
   0   0 -11 100.490 62.1130   6
   0   0 -11 20.3838 38.2000   1
   0   0 -10 869.659 110.829   3
   0   0 -10 707.693 121.825   4
   0   0 -10 711.459 98.9156   1
   0   0 -10 724.099 96.8436   6
   0   0  -9 63.2221 38.4828   3
   0   0  -9 64.2501 41.8381   6
   0   0  -9 37.5874 31.3852   4
   0   0  -9 27.5602 34.2521   1
   0   0  -8 20117.3 525.300   1
   0   0  -8 19225.8 518.841   6
   0   0  -8 19930.7 617.166   4
   0   0  -7 19.6718 27.0517   4
   0   0  -7 35.1371 30.5051   1
   0   0  -7 28.5758 30.6407   6
   0   0  -6 29716.6 648.151   1
   0   0  -6 31411.6 751.256   4
   0   0  -6 30895.1 649.630   6
   0   0  -5 44.8196 34.3178   6
   0   0  -5 10.1096 21.8548   1
   0   0  -4 98182.9 1613.49   6
   0   0  -4 99253.0 1611.33   1
   0   0  -3 7.23420 12.7998   1
   0   0   4 113877. 1933.07   4
   0   0   5 26.9512 28.4838   4
   0  -1 -26 108.414 91.8278   2
   0   1 -26 260.605 109.657   6
   0   1 -25 792.362 175.585   6
   0   1 -25 272.787 225.991   2
   0  -1 -25 457.035 215.555   2
   0  -1 -24 303.411 178.597   2
   0   1 -24 376.836 192.860   2
   0   1 -24 249.217 113.442   6
   0   1 -23 3478.76 517.525   2
   0   1 -23 3329.89 331.906   6
   0  -1 -23 3452.33 532.580   2
   0  -1 -23 3902.50 322.500   6
   0   1 -22 3178.62 321.141   6
   0  -1 -22 3249.34 295.392   6
   0  -1 -22 2626.32 446.357   2
   0   1 -22 3546.90 510.007   2
   0  -1 -22 3209.81 362.691   5
   0  -1 -21 3096.84 278.022   6
   0   1 -21 2887.12 440.013   2
   0   1 -21 2489.09 275.624   6
   0  -1 -21 2479.45 311.157   5
   0  -1 -20 1086.78 159.375   6
   0  -1 -20 1089.64 202.255   5
   0   1 -20 756.172 219.451   2
   0   1 -20 1077.22 178.995   6
   0  -1 -19 11147.9 503.242   6
   0   1 -19 11351.2 571.099   6
   0  -1 -19 10467.3 610.380   5
   0   1 -19 11027.4 821.126   2
   0   1 -18 1456.81 287.605   2
   0   1 -18 1551.69 204.375   6
   0   1 -18 1521.55 150.256   5
   0  -1 -18 1350.11 170.219   6
   0   1 -17 3019.15 401.701   2
   0  -1 -17 2937.64 235.433   6
   0   1 -17 3143.63 276.695   6
   0   1 -17 3420.63 219.815   5
   0   1 -16 8633.32 649.808   2
   0   1 -16 8279.61 439.500   6
   0  -1 -16 8647.05 392.286   6
   0   1 -15 13128.0 539.951   6
   0  -1 -15 13016.2 472.146   6
   0  -1 -14 3018.42 213.112   6
   0   1 -14 3527.38 199.158   5
   0  -1 -14 3988.52 316.367   1
   0  -1 -13 1811.95 156.918   6
   0  -1 -13 2305.34 235.568   1
   0   1 -13 2131.19 148.211   5
   0   1 -13 2129.89 189.949   3
   0   1 -12 855.583 90.2618   5
   0   1 -12 648.409 134.181   4
   0  -1 -12 777.919 98.7990   6
   0  -1 -12 716.734 122.374   1
   0   1 -11 10609.5 332.505   5
   0   1 -11 11745.1 557.532   4
   0  -1 -11 10165.9 361.292   6
   0  -1 -11 11061.6 499.823   1
   0  -1 -10 15058.2 574.568   1
   0   1 -10 14018.2 466.650   3
   0  -1 -10 13843.5 417.294   6
   0   1 -10 15105.4 397.556   5
   0  -1  -9 15340.5 581.980   1
   0   1  -9 15301.8 468.839   3
   0  -1  -9 14327.7 412.544   6
   0   1  -9 15499.3 394.093   5
   0   1  -8 4314.65 219.822   3
   0   1  -8 4297.77 175.036   5
   0  -1  -8 4102.07 277.198   1
   0  -1  -8 4032.07 185.767   6
   0   1  -7 14376.0 355.649   5
   0  -1  -7 14086.2 374.729   6
   0   1  -7 14291.7 418.425   3
   0  -1  -7 14772.9 541.290   1
   0   1  -6 3273.11 140.026   5
   0  -1  -6 3194.96 145.894   6
   0   1  -5 20866.0 447.123   5
   0  -1  -5 20177.4 451.233   6
   0   1  -4 18252.5 416.735   5
   0  -1  -4 18243.3 408.356   6
   0  -1  -4 19232.5 539.961   5
   0   1  -3 21543.0 476.877   5
   0  -1  -3 22185.8 462.247   6
   0  -1  -3 21677.0 588.889   5
   0  -1  -2 12716.9 425.208   5
   0  -1  -2 13644.8 333.383   6
   0  -1  -1 15236.4 449.818   5
   0  -1   0 2496.01 128.744   2
   0  -1   0 2267.15 150.180   5
   0  -1   1 15566.1 415.518   5
   0  -1   1 15385.0 427.766   2
   0  -1   2 12351.4 334.112   5
   0  -1   3 24642.7 514.515   5
   0  -1   4 17255.1 434.277   3
   0  -1   4 18033.3 399.321   5
   0   1   4 17519.0 404.284   6
   0  -1   5 22927.2 541.798   3
   0   1   5 22271.8 500.891   6
   0  -1   5 23361.4 487.525   5
   0  -1   6 4859.06 154.715   1
   0   1   6 4661.71 197.119   6
   0  -1   6 4681.84 212.663   3
   0  -1   7 15851.8 365.134   1
   0  -1   7 15867.9 456.384   3
   0   1   7 15607.1 429.666   6
   0   1   8 4947.34 296.079   4
   0  -1   8 5477.50 204.728   1
   0   1   8 5353.44 239.974   6
   0  -1   8 5554.24 260.486   3
   0  -1   9 16394.3 437.319   1
   0  -1   9 17137.0 523.485   3
   0   1   9 17001.8 605.410   4
   0   1   9 15195.1 467.183   6
   0  -1  10 18219.1 514.814   1
   0  -1  10 19579.4 583.612   3
   0   1  10 17371.0 521.198   6
   0   1  10 19024.5 681.058   4
   0  -1  11 10586.7 403.493   1
   0  -1  11 10522.9 429.461   3
   0   1  11 11278.4 525.650   4
   0   1  12 809.079 147.448   4
   0   1  13 3212.83 308.963   4
   0   1  14 3657.88 345.427   4
   0   1  15 18295.4 840.599   4
   0   2 -26 1584.60 253.781   6
   0  -2 -26 1174.87 345.562   2
   0  -2 -25 1587.83 413.433   2
   0   2 -25 1678.31 266.959   6
   0  -2 -24 302.540 171.242   2
   0   2 -24 419.450 178.588   2
   0   2 -24 172.448 108.063   6
   0  -2 -23 892.301 212.976   5
   0  -2 -23 592.401 231.275   2
   0   2 -23 481.528 226.581   2
   0   2 -23 769.159 171.547   6
   0   2 -22 1443.87 332.994   2
   0  -2 -22 1566.17 194.180   6
   0  -2 -22 1788.82 289.961   5
   0   2 -22 1499.74 230.070   6
   0   2 -21 7446.64 724.313   2
   0  -2 -21 8639.66 632.153   5
   0  -2 -21 8244.47 426.577   6
   0   2 -21 7271.08 494.503   6
   0   2 -20 1161.34 193.527   6
   0  -2 -20 1508.09 254.436   5
   0  -2 -20 1403.32 175.912   6
   0   2 -20 1154.02 283.956   2
   0   2 -19 6492.49 632.658   2
   0  -2 -19 5881.74 485.798   5
   0  -2 -19 5854.99 340.593   6
   0   2 -19 4847.48 385.171   6
   0  -2 -18 5422.22 445.344   5
   0  -2 -18 5613.45 324.288   6
   0   2 -18 5134.33 539.589   2
   0  -2 -17 9646.81 590.242   5
   0   2 -17 9861.67 729.424   2
   0  -2 -17 10228.2 438.102   6
   0   2 -17 10255.7 404.935   5
   0  -2 -16 4374.32 382.356   5
   0  -2 -16 4080.31 261.304   6
   0   2 -16 4378.47 250.536   5
   0   2 -16 4499.76 479.749   2
   0  -2 -15 14725.3 690.465   5
   0   2 -15 12840.1 454.784   5
   0   2 -15 14490.6 826.821   2
   0  -2 -15 14393.5 500.722   6
   0  -2 -14 4229.34 350.997   5
   0  -2 -14 4702.07 262.635   6
   0   2 -14 3953.34 407.956   2
   0  -2 -13 11159.9 573.796   5
   0   2 -13 12627.5 716.791   2
   0  -2 -13 12358.0 439.244   6
   0   2 -13 12712.0 430.899   5
   0  -2 -12 1388.50 135.883   6
   0  -2 -12 1348.76 189.428   5
   0   2 -12 1377.02 128.631   5
   0   2 -12 1573.01 243.342   2
   0  -2 -11 13629.7 609.345   5
   0  -2 -11 14103.2 452.949   6
   0   2 -11 14076.3 445.807   5
   0   2 -11 13804.1 706.656   2
   0  -2 -10 8615.27 543.048   1
   0  -2 -10 9076.46 343.788   6
   0  -2 -10 8949.77 483.805   5
   0   2 -10 8986.50 343.189   5
   0  -2  -9 46980.6 979.555   6
   0   2  -9 44604.5 979.500   5
   0  -2  -9 46054.3 1220.44   5
   0   2  -8 5415.01 254.821   5
   0  -2  -8 5213.92 346.830   5
   0  -2  -8 5102.24 241.369   6
   0   2  -7 31833.1 766.063   5
   0  -2  -7 31912.8 738.742   6
   0  -2  -7 32989.1 959.548   5
   0  -2  -6 27755.4 866.611   5
   0  -2  -6 27352.3 657.743   6
   0   2  -6 26129.8 693.672   5
   0   2  -6 28606.3 904.484   2
   0   2  -5 50629.5 1110.42   5
   0  -2  -5 50774.3 1058.70   6
   0   2  -5 54301.1 1321.12   2
   0  -2  -5 51318.0 1289.46   5
   0   2  -4 3467.49 273.417   2
   0  -2  -4 3662.02 208.805   6
   0  -2  -4 3718.13 282.142   5
   0   2  -4 3235.30 219.628   5
   0  -2  -3 38772.6 893.562   6
   0   2  -3 38622.2 961.841   5
   0  -2  -3 40301.3 1069.25   5
   0   2  -3 40924.3 1037.86   2
   0   2  -2 16605.5 581.330   5
   0  -2  -2 16537.3 616.434   5
   0   2  -2 16577.6 564.385   2
   0   2  -1 24414.0 679.136   2
   0  -2  -1 25874.1 788.030   5
   0  -2  -1 24575.8 617.274   2
   0  -2   0 83.1213 42.2728   2
   0  -2   0 29.5001 41.8386   5
   0  -2   1 19775.8 647.116   5
   0  -2   1 20292.0 621.709   2
   0  -2   2 12521.5 483.461   5
   0   2   2 13912.9 462.578   6
   0  -2   2 14460.8 543.579   2
   0   2   3 44179.6 971.345   6
   0  -2   3 44439.9 1017.76   5
   0   2   4 6757.35 286.671   6
   0  -2   4 6907.40 314.632   5
   0   2   5 47458.4 990.419   6
   0  -2   5 46409.4 1008.08   5
   0   2   6 26863.3 667.001   6
   0  -2   6 28116.6 683.091   5
   0  -2   7 43614.8 955.113   5
   0  -2   7 45956.2 1048.72   3
   0   2   7 43667.8 955.556   6
   0  -2   8 7505.61 363.640   3
   0   2   8 7185.80 309.031   6
   0  -2   8 7602.66 308.756   5
   0  -2   9 49409.9 1162.55   3
   0  -2   9 49493.2 1039.83   5
   0   2   9 49969.4 1093.20   6
   0  -2  10 10606.8 316.281   1
   0  -2  10 11598.2 474.940   3
   0   2  10 11299.2 431.241   6
   0  -2  11 20901.1 511.680   1
   0   2  11 20241.6 636.003   6
   0  -2  11 22096.7 710.521   3
   0  -2  12 708.697 132.692   3
   0   2  12 835.651 169.445   4
   0   2  12 741.367 111.810   6
   0  -2  12 917.927 95.2051   1
   0   2  13 12868.8 666.711   4
   0  -2  13 13347.3 574.617   3
   0  -2  13 12480.7 424.491   1
   0   2  14 5652.42 447.145   4
   0  -2  14 5736.86 305.452   1
   0  -2  14 6211.04 398.315   3
   0  -2  15 23735.0 841.248   3
   0   2  15 21747.5 946.960   4
   0   2  16 4290.59 416.808   4
   0   2  17 10134.9 674.136   4
   0   2  18 8949.23 656.763   4
   0   2  19 10063.0 727.408   4
   0   2  20 2076.47 349.628   4
   0   3 -25 1046.81 213.398   6
   0   3 -24 4311.37 425.362   6
   0  -3 -23-28.3383 99.3321   5
   0   3 -23-188.613 141.258   2
   0   3 -23-21.7599 86.7336   6
   0   3 -22 2563.63 310.753   6
   0  -3 -22 3157.27 417.748   5
   0  -3 -22 2736.49 468.046   2
   0   3 -22 2743.35 471.622   2
   0  -3 -21 1114.50 247.939   5
   0   3 -21 661.843 233.207   2
   0  -3 -20 1329.97 256.009   5
   0  -3 -20 1386.08 164.653   6
   0   3 -20 1182.57 311.693   2
   0  -3 -19 255.857 93.3156   6
   0  -3 -19 168.544 104.913   5
   0  -3 -18 496.792 101.156   6
   0  -3 -18 489.714 174.278   5
   0   3 -18 365.022 171.354   2
   0  -3 -17 1112.74 222.387   5
   0   3 -17 1136.51 260.300   2
   0  -3 -17 1187.46 148.746   6
   0  -3 -16 1954.47 191.437   6
   0   3 -16 1928.05 324.688   2
   0  -3 -16 1565.47 250.175   5
   0  -3 -15 903.999 129.570   6
   0   3 -15 751.172 113.136   5
   0   3 -15 569.555 171.507   2
   0  -3 -15 612.267 152.329   5
   0   3 -14 6229.68 345.295   5
   0  -3 -14 7312.19 358.051   6
   0   3 -14 6863.94 586.293   2
   0  -3 -14 6691.13 504.592   5
   0  -3 -13 3354.69 239.529   6
   0   3 -13 3229.20 247.910   5
   0  -3 -13 3240.31 342.522   5
   0   3 -13 3105.87 378.609   2
   0   3 -12 15134.1 820.238   2
   0  -3 -12 15432.5 537.473   6
   0  -3 -12 15660.7 767.871   5
   0   3 -12 14617.6 553.881   5
   0   3 -11 1272.16 240.788   2
   0  -3 -11 1349.02 220.428   5
   0  -3 -11 1401.62 152.116   6
   0   3 -11 1268.41 153.506   5
   0  -3 -10 8355.82 380.159   6
   0  -3 -10 8160.00 521.189   5
   0   3 -10 7242.69 382.235   5
   0   3 -10 8113.53 566.640   2
   0   3  -9 1875.52 192.720   5
   0  -3  -9 2007.94 184.780   6
   0  -3  -9 2354.38 275.470   5
   0   3  -9 1858.06 266.132   2
   0  -3  -8 4490.37 376.474   5
   0  -3  -8 3975.75 265.893   6
   0   3  -8 4168.63 294.777   5
   0   3  -8 4482.92 393.752   2
   0   3  -7-7.72370 47.1432   5
   0  -3  -7-42.3300 49.3315   6
   0  -3  -7 17.4593 58.6598   5
   0  -3  -6 1987.15 247.195   5
   0  -3  -6 1345.72 162.184   6
   0   3  -6 1729.74 196.079   5
   0   3  -5 600.632 124.547   5
   0  -3  -5 653.837 148.553   5
   0   3  -4 5169.66 360.253   5
   0   3  -4 4976.59 359.372   2
   0  -3  -4 5062.86 389.544   5
   0   3  -3 1253.19 182.165   2
   0   3  -3 1592.86 207.759   5
   0  -3  -3 1845.91 237.086   5
   0  -3  -3 1227.35 122.252   2
   0  -3  -2 18186.9 755.661   5
   0  -3  -2 16795.5 540.724   2
   0   3  -2 18669.3 752.475   5
   0   3  -2 16868.5 639.629   2
   0  -3  -1 3016.51 221.980   2
   0  -3  -1 3027.45 288.648   5
   0   3  -1 3456.98 325.055   5
   0  -3   0 24358.8 876.570   5
   0  -3   0 24597.0 753.586   2
   0  -3   1 2707.08 239.187   2
   0  -3   1 2789.34 270.268   5
   0  -3   2 17414.4 689.819   5
   0   3   2 17345.6 644.057   6
   0  -3   3 2081.68 220.667   5
   0   3   3 2164.81 206.806   6
   0   3   4 3575.84 265.668   6
   0  -3   4 3555.72 285.176   5
   0  -3   5 550.879 109.260   5
   0   3   5 590.741 109.162   6
   0  -3   6 2534.55 224.888   5
   0   3   6 2366.16 206.632   6
   0   3   7-9.93584 31.3124   6
   0  -3   7 4.07835 39.6431   5
   0  -3   8 3878.46 267.309   5
   0  -3   9 2670.90 227.138   5
   0  -3   9 2457.95 249.810   3
   0  -3  10 10790.1 538.087   3
   0  -3  10 10584.6 464.003   5
   0  -3  11 1041.23 138.644   5
   0  -3  11 1031.79 176.676   3
   0  -3  12 20729.8 656.747   5
   0  -3  12 20011.1 763.970   3
   0  -3  13 4201.00 201.606   1
   0  -3  13 5535.81 399.896   3
   0  -3  14 9043.51 532.597   3
   0   3  14 9012.09 464.247   6
   0  -3  15 553.554 139.457   3
   0  -3  15 165.756 53.5183   1
   0   3  15 513.659 156.993   4
   0   3  16 1960.13 302.264   4
   0  -3  16 2893.22 321.622   3
   0  -3  17 1467.02 237.291   3
   0   3  17 1352.33 251.579   4
   0  -3  18 707.714 178.131   3
   0   3  18 570.235 175.275   4
   0   3  19 205.314 130.539   4
   0   3  20 1407.84 287.031   4
   0   3  21 1854.34 348.514   4
   0   3  22 5377.94 612.603   4
   0   3  23 111.302 120.123   4
   0  -4 -23 1586.30 358.163   5
   0   4 -22 1646.73 401.406   2
   0  -4 -22 2066.58 364.604   5
   0  -4 -21 2574.35 395.826   5
   0   4 -21 2802.12 490.821   2
   0   4 -20 2329.60 424.631   2
   0  -4 -20 3024.01 401.155   5
   0  -4 -19 4843.85 508.074   5
   0   4 -19 3706.02 524.623   2
   0  -4 -18 2015.83 325.013   5
   0   4 -18 1326.73 315.846   2
   0  -4 -18 1616.31 195.658   6
   0  -4 -17 4309.64 467.300   5
   0  -4 -17 3888.00 300.813   6
   0   4 -17 3789.19 494.284   2
   0  -4 -16 4775.44 473.775   5
   0   4 -16 4541.69 535.682   2
   0  -4 -16 4403.39 312.483   6
   0  -4 -15 4354.58 437.299   5
   0  -4 -15 3783.59 290.033   6
   0   4 -15 3178.07 438.843   2
   0  -4 -14 5739.65 503.044   5
   0  -4 -14 5403.40 348.507   6
   0   4 -14 5380.70 536.701   2
   0  -4 -13 1549.11 263.154   5
   0   4 -13 1566.10 306.352   2
   0  -4 -13 1359.93 179.834   6
   0  -4 -12 8904.66 617.984   5
   0   4 -12 8379.15 640.387   2
   0  -4 -12 7924.22 432.630   6
   0  -4 -11 6153.78 512.147   5
   0  -4 -11 5281.18 355.771   6
   0   4 -11 5956.86 523.638   2
   0   4 -10 12575.9 750.848   2
   0  -4 -10 12371.4 718.075   5
   0  -4  -9 5521.13 472.034   5
   0   4  -9 5903.49 499.268   2
   0   4  -8 17116.3 840.061   2
   0  -4  -8 16951.7 843.281   5
   0   4  -7 16251.4 804.715   2
   0  -4  -7 17112.8 845.151   5
   0   4  -6 12354.5 672.088   2
   0  -4  -6 13527.4 725.719   5
   0  -4  -5 5908.35 304.497   2
   0  -4  -5 8288.99 567.037   5
   0  -4  -4 14737.0 521.085   2
   0  -4  -4 18788.3 855.797   5
   0  -4  -3 15227.2 774.956   5
   0  -4  -3 13914.2 519.252   2
   0  -4  -2 12323.5 509.912   2
   0  -4  -2 12895.1 704.925   5
   0  -4  -1 3935.13 289.090   2
   0  -4  -1 4133.25 383.488   5
   0  -4   0 11937.9 577.276   2
   0  -4   0 12131.3 662.832   5
   0  -4   1 5389.22 428.657   5
   0  -4   2 11987.1 635.683   5
   0  -4   3 13443.4 664.743   5
   0  -4   4 18425.3 788.047   5
   0  -4   5 11103.4 585.251   5
   0  -4   6 12279.2 607.957   5
   0  -4   7 16085.9 688.794   5
   0  -4   8 17347.4 707.550   5
   0  -4   9 7398.36 445.704   5
   0  -4  10 13190.4 682.626   3
   0  -4  10 14838.2 642.913   5
   0  -4  11 4796.77 408.749   3
   0  -4  11 5015.39 363.333   5
   0  -4  12 10037.3 526.090   5
   0  -4  12 9989.08 601.355   3
   0  -4  13 3027.69 341.944   3
   0  -4  13 3826.57 317.060   5
   0  -4  14 6763.92 501.145   3
   0  -4  15 3944.54 403.891   3
   0  -4  16 6711.20 541.588   3
   0  -4  17 6438.82 541.071   3
   0   4  17 5647.61 581.418   4
   0   4  18 1637.89 318.557   4
   0  -4  18 2427.73 351.994   3
   0   4  19 4177.37 519.768   4
   0  -4  19 4827.32 496.534   3
   0   4  20 3226.04 460.821   4
   0  -4  20 3965.50 465.107   3
   0   4  21 3671.51 508.986   4
   0  -4  21 4170.67 472.506   3
   0   4  22 2206.66 415.037   4
   0  -5 -21 433.791 187.364   5
   0  -5 -20 1294.83 298.817   5
   0   5 -20 1505.13 355.372   2
   0   5 -19 1081.78 312.180   2
   0  -5 -19 945.620 243.119   5
   0  -5 -18 4709.11 522.967   5
   0   5 -18 4937.37 608.747   2
   0  -5 -17 984.078 249.534   5
   0   5 -17 656.844 223.926   2
   0   5 -16 1254.93 308.722   2
   0  -5 -16 1227.82 263.604   5
   0   5 -15 485.704 212.763   2
   0  -5 -15 792.503 217.541   5
   0  -5 -14 2140.15 328.091   5
   0   5 -14 2120.31 366.596   2
   0   5 -13-18.3381 104.798   2
   0  -5 -13 192.560 125.063   5
   0   5 -12 877.091 227.539   2
   0  -5 -12 947.421 230.107   5
   0  -5 -11 1076.81 249.140   5
   0   5 -11 952.222 231.843   2
   0   5 -10 743.659 203.475   2
   0  -5 -10 675.494 198.063   5
   0  -5  -9 1029.96 233.292   5
   0   5  -9 458.476 168.820   2
   0  -5  -8 6370.40 554.487   5
   0   5  -8 6986.97 575.918   2
   0  -5  -7 3101.73 388.143   5
   0   5  -7 3091.34 368.691   2
   0   5  -6 7357.30 544.759   2
   0  -5  -6 7766.66 601.089   5
   0  -5  -5 810.780 102.741   2
   0  -5  -5 1871.72 296.832   5
   0  -5  -4 4044.41 428.537   5
   0  -5  -4 2994.17 217.030   2
   0  -5  -3 2340.05 338.149   5
   0  -5  -2 3386.32 391.723   5
   0  -5  -1 391.129 138.015   5
   0  -5   0 299.982 148.747   5
   0  -5   1 380.512 133.304   5
   0  -5   2 2287.82 301.767   5
   0  -5   3 2283.93 309.754   5
   0  -5   4 3658.29 381.454   5
   0  -5   5 1721.55 257.305   5
   0  -5   6 7758.50 542.237   5
   0  -5   7 3862.05 375.496   5
   0  -5   8 7711.91 524.429   5
   0  -5   9 518.177 140.495   5
   0  -5  10 556.888 158.969   5
   0  -5  11 808.369 204.673   3
   0  -5  11 957.021 189.638   5
   0  -5  12 1509.09 236.754   5
   0  -5  12 903.608 212.737   3
   0  -5  13 167.256 96.9777   5
   0  -5  13-3.13278 104.162   3
   0  -5  14 1447.89 228.851   5
   0  -5  14 1260.27 244.190   3
   0  -5  15 927.855 225.468   3
   0  -5  15 855.286 186.934   5
   0  -5  16 1887.44 308.705   3
   0  -5  17 738.981 229.264   3
   0   5  18 4203.74 556.473   4
   0  -5  18 4491.74 492.670   3
   0  -5  19 1188.72 299.044   3
   0   5  19 820.139 272.134   4
   0  -5  20 2037.62 357.048   3
   0   5  20 1996.45 398.348   4
   0  -5  21 357.789 172.889   3
   0  -5  22 1098.26 287.028   3
   0   6 -18 1014.18 291.754   2
   0   6 -17-143.904 131.199   2
   0   6 -16 227.490 181.537   2
   0  -6 -16-118.331 115.059   5
   0  -6 -15 3778.53 475.890   5
   0   6 -15 3153.57 468.210   2
   0  -6 -14 5589.95 576.959   5
   0   6 -14 5072.06 587.135   2
   0   6 -13 1575.97 340.671   2
   0  -6 -13 2044.86 360.333   5
   0   6 -12 226.692 155.088   2
   0  -6 -12 448.761 196.535   5
   0   6 -11 3830.82 464.625   2
   0  -6 -11 3849.93 475.765   5
   0   6 -10 5898.39 572.867   2
   0  -6 -10 7574.98 652.794   5
   0  -6  -9 3704.22 464.642   5
   0   6  -9 3353.60 420.547   2
   0  -6  -8 811.661 240.973   5
   0  -6  -7 3484.91 441.689   5
   0  -6  -6 3302.00 428.124   5
   0  -6  -5 3474.81 435.335   5
   0  -6  -4 1188.97 258.052   5
   0  -6  -3 9255.78 712.768   5
   0  -6  -2 13718.1 858.377   5
   0  -6  -1 6991.03 609.370   5
   0  -6   0 73.4382 103.567   5
   0  -6   1 9811.24 702.414   5
   0  -6   2 12202.7 782.862   5
   0  -6   3 8004.98 632.103   5
   0  -6   4 972.955 241.914   5
   0  -6   5 3444.95 407.686   5
   0  -6   6 3395.15 392.262   5
   0  -6   7 3089.45 376.771   5
   0  -6   8 528.304 169.278   5
   0  -6   9 4723.66 456.295   5
   0  -6  10 6910.22 553.627   5
   0  -6  11 4152.90 433.614   5
   0  -6  11 2010.60 326.026   3
   0  -6  12 520.694 166.863   5
   0  -6  12 268.113 141.058   3
   0  -6  13 1873.14 339.781   3
   0  -6  13 3093.08 379.136   5
   0  -6  14 3351.00 434.390   3
   0  -6  15 2541.19 390.830   3
   0  -6  16-17.7728 95.6602   3
   0  -6  17 265.592 151.779   3
   0  -6  18 988.317 248.583   3
   0  -7  -9 933.093 255.881   5
   0  -7  -8 1023.23 266.990   5
   0  -7  -7 310.081 175.506   5
   0  -7  -6 299.632 167.802   5
   0  -7  -5 1304.21 297.589   5
   0  -7  -4 248.413 139.163   5
   0  -7  -3 1094.65 273.607   5
   0  -7  -2 289.689 195.857   5
   0  -7  -1 982.792 251.546   5
   0  -7   0 108.182 109.796   5
   0  -7   1 1453.01 312.974   5
   0  -7   2 1220.97 282.210   5
   0  -7   3 1279.61 285.708   5
   0  -7   4 64.9766 105.323   5
   0  -7   5 1557.67 312.213   5
   0  -7   6-4.23654 115.617   5
   0  -7   7 228.679 107.874   5
   0  -7   8 398.067 163.780   5
   0  -7   9 1099.06 252.285   5
   0  -7  10 431.800 173.040   5
   0  -7  11 280.273 118.632   5
   0  -7  11-29.1857 128.686   3
   0  -7  12 137.389 129.291   3
  -1   0 -27 1458.67 230.164   6
   1   0 -26-507.603 263.247   2
  -1   0 -26-26.6952 80.0623   6
   1   0 -25-278.215 202.074   2
  -1   0 -25 806.239 186.434   6
  -1   0 -24 122.985 106.581   6
   1   0 -24-109.801 224.361   2
  -1   0 -23 882.100 186.164   6
   1   0 -23 1054.64 159.628   6
   1   0 -23 770.410 292.427   2
  -1   0 -22 96.8684 92.7044   6
   1   0 -22-1.45994 72.9440   6
  -1   0 -21 9498.69 563.920   6
   1   0 -21 8201.59 818.125   2
   1   0 -21 9924.00 502.425   6
   1   0 -20 59.8347 78.4167   6
  -1   0 -20 114.187 81.3560   6
   1   0 -20 128.861 118.382   2
   1   0 -19 16710.6 630.100   6
   1   0 -19 14585.4 638.867   5
  -1   0 -19 15968.1 700.681   6
   1   0 -18 66.2436 60.6047   6
   1   0 -18 249.030 147.548   2
  -1   0 -18 171.849 112.869   6
  -1   0 -18 273.906 112.213   1
   1   0 -18 28.4356 48.8859   5
  -1   0 -17 15703.4 670.856   6
   1   0 -17 16716.7 601.020   6
   1   0 -17 15062.5 635.733   5
   1   0 -17 14023.5 935.965   2
  -1   0 -16-16.9579 56.0794   1
  -1   0 -16 58.2938 78.5447   6
   1   0 -16-21.5887 47.9846   5
   1   0 -16 52.3397 68.7483   6
   1   0 -16 50.7870 67.7463   2
   1   0 -15 9177.72 439.206   1
   1   0 -15 7524.42 401.910   5
  -1   0 -15 10289.4 477.055   1
  -1   0 -15 7957.02 432.206   6
   1   0 -15 6076.63 565.757   2
   1   0 -15 7822.60 372.907   6
  -1   0 -15 7436.09 456.240   4
   1   0 -14 79.9474 76.4054   2
  -1   0 -14-10.5507 49.4862   3
  -1   0 -14 39.0679 56.9517   6
  -1   0 -14 36.1393 44.2347   1
  -1   0 -14-57.1175 46.5067   4
   1   0 -14 30.1691 46.1652   6
   1   0 -14 39.3968 32.5210   5
   1   0 -14 36.9202 43.8713   1
  -1   0 -13 925.385 146.285   4
  -1   0 -13 1099.51 146.369   1
   1   0 -13 718.283 179.839   2
  -1   0 -13 904.206 138.445   6
   1   0 -13 1075.53 139.672   1
   1   0 -13 757.518 111.117   5
   1   0 -13 895.192 108.348   6
   1   0 -12 70.9524 85.8748   2
   1   0 -12 25.4805 39.4239   4
  -1   0 -12 13.3991 31.7392   4
   1   0 -12 31.5201 33.9137   5
  -1   0 -12 30.9306 29.9920   1
   1   0 -12 0.23273 28.4467   6
   1   0 -12 10.2711 32.1925   1
  -1   0 -12 3.54649 42.3367   6
   1   0 -11 1080.99 125.179   1
  -1   0 -11 939.499 112.431   3
  -1   0 -11 947.636 132.325   4
   1   0 -11 976.022 113.302   5
   1   0 -11 991.180 159.320   4
   1   0 -11 965.230 101.299   6
  -1   0 -11 999.021 133.786   6
  -1   0 -11 988.390 120.940   1
   1   0 -11 943.505 199.362   2
  -1   0 -10-5.47505 32.8370   4
   1   0 -10 72.0983 93.3541   2
  -1   0 -10 28.1544 32.2916   1
   1   0 -10 1.24834 24.7005   1
  -1   0 -10 65.1298 54.0741   6
  -1   0 -10-25.0626 22.3153   3
   1   0 -10 0.67363 30.2817   4
   1   0 -10-3.32461 24.1911   5
  -1   0  -9 22205.5 640.663   6
   1   0  -9 22365.8 603.827   1
  -1   0  -9 21497.6 629.635   4
   1   0  -9 22351.9 890.925   2
   1   0  -9 19995.6 544.734   5
  -1   0  -9 22472.6 563.977   3
   1   0  -8-1.45284 21.2794   5
   1   0  -8 13.8254 23.9138   1
  -1   0  -8 77.4922 54.7822   6
  -1   0  -8 14.0562 24.8749   4
  -1   0  -8 0.98186 22.9293   3
   1   0  -8-2.24488 42.2813   2
  -1   0  -7 34966.5 808.919   6
   1   0  -7 35678.6 766.168   1
  -1   0  -7 35391.7 775.297   4
   1   0  -7 33691.0 1054.84   2
   1   0  -6-40.3242 68.2471   2
  -1   0  -6 33.4663 42.6239   6
   1   0  -6-8.26076 19.7770   1
   1   0  -6 8.52779 15.9657   5
  -1   0  -6 7.52455 13.7733   4
   1   0  -5 64686.6 1057.70   5
  -1   0  -5 62800.0 1140.90   4
   1   0  -5 68817.1 1196.70   1
  -1   0  -5 64644.7 1229.86   6
   1   0  -4 5.37872 8.80312   5
  -1   0  -4 35.4371 33.8576   6
  -1   0  -3 24056.3 543.499   6
   1   0  -3 24591.6 433.279   5
   1   0  -3 24503.3 462.467   6
  -1   0  -2 2.63649 15.1368   6
   1   0  -2-0.91631 7.32176   5
   1   0  -2-0.59085 9.34000   6
  -1   0   1 3627.47 157.722   4
  -1   0   2 12.2881 19.8317   2
  -1   0   2 2.27002 12.3246   3
  -1   0   2 4.68176 17.1774   4
  -1   0   2 10.5967 14.1013   6
  -1   0   3 25957.9 702.797   2
  -1   0   3 26339.6 480.058   5
  -1   0   3 26265.0 548.032   3
  -1   0   3 27963.9 640.005   4
  -1   0   4-9.64183 15.7891   5
  -1   0   4 31.6546 26.1576   2
  -1   0   4-4.68651 23.2923   4
  -1   0   5 76222.6 1610.09   2
  -1   0   5 77438.3 1527.25   4
  -1   0   6-12.8137 34.0866   4
  -1   0   7 41873.6 1050.47   4
  -1   0   7 39941.3 914.348   1
  -1   0   8-16.9894 32.1131   4
  -1   0   8 14.6607 34.7291   1
  -1   0   9 24406.6 707.356   1
  -1   0   9 26572.1 850.853   4
  -1   0  10-23.3045 39.4414   1
   1  -1 -27-121.314 194.498   2
  -1   1 -27 635.025 177.706   6
  -1   1 -26 2534.78 329.591   6
   1  -1 -26 2286.05 527.163   2
  -1  -1 -25 812.886 173.256   6
   1   1 -25 472.584 240.232   2
  -1   1 -25 745.328 170.430   6
  -1   1 -25 883.929 312.273   2
   1  -1 -25 569.701 254.594   2
  -1  -1 -24 4458.22 382.870   6
   1   1 -24 4437.05 367.388   6
  -1   1 -24 4251.15 607.013   2
  -1   1 -24 4186.46 395.960   6
   1  -1 -24 3172.03 606.579   2
   1   1 -24 3461.08 565.842   2
   1   1 -23 1351.58 349.966   2
  -1  -1 -23 1531.94 222.957   6
   1   1 -23 1536.52 224.060   6
  -1   1 -23 1623.17 247.849   6
   1  -1 -23 1690.78 400.955   2
  -1   1 -22 2968.76 328.762   6
   1   1 -22 2430.46 457.075   2
   1  -1 -22 2684.84 513.560   2
  -1  -1 -22 2943.62 303.474   6
   1   1 -22 3261.93 302.624   6
   1  -1 -21 2525.82 210.762   6
   1   1 -21 2889.13 284.744   6
  -1   1 -21 2598.64 299.622   6
  -1  -1 -21 2693.83 282.501   6
   1   1 -21 2243.89 409.183   2
   1  -1 -21 2053.04 421.393   2
   1   1 -20 1688.66 351.062   2
   1  -1 -20 1908.80 276.363   5
   1  -1 -20 1793.01 177.969   6
   1  -1 -20 1787.49 371.262   2
  -1  -1 -20 2070.66 239.641   6
   1   1 -20 1951.48 220.613   6
  -1   1 -20 1526.45 232.122   6
   1   1 -19 319.613 164.740   2
  -1  -1 -19 378.063 119.902   6
   1  -1 -19 218.423 75.6397   5
  -1   1 -19 148.794 88.2409   6
   1  -1 -19 181.661 102.114   2
   1   1 -19 299.030 100.417   6
   1  -1 -19 239.879 70.4831   6
   1   1 -18 3049.73 260.499   6
  -1   1 -18 3490.90 325.359   6
   1  -1 -18 3415.69 225.785   6
   1   1 -18 2611.33 175.932   5
   1   1 -18 3139.61 447.009   2
   1  -1 -18 2638.62 439.715   2
  -1  -1 -18 3311.05 288.378   6
   1  -1 -18 3830.73 373.375   5
  -1  -1 -17 1145.38 163.850   6
   1  -1 -17 852.625 246.412   2
   1   1 -17 939.281 68.8912   5
  -1   1 -17 1184.52 191.037   6
   1   1 -17 1234.30 270.910   2
   1  -1 -17 1372.46 139.686   6
   1   1 -17 1021.42 148.981   6
   1  -1 -17 1400.15 219.059   5
   1   1 -16 3638.88 452.496   2
   1  -1 -16 3909.83 483.498   2
  -1   1 -16 4377.18 281.355   5
  -1   1 -16 4032.95 327.708   6
  -1  -1 -16 4550.62 310.534   6
   1   1 -16 3332.09 137.106   5
   1  -1 -16 4505.10 385.370   5
   1  -1 -16 4004.46 225.804   6
  -1   1 -15 2097.47 192.124   3
  -1   1 -15 2368.07 196.939   5
   1  -1 -15 1955.14 149.061   6
   1  -1 -15 2112.97 255.244   5
   1   1 -15 1798.04 92.5117   5
  -1  -1 -15 1895.48 195.102   6
   1   1 -15 1836.83 311.230   2
   1  -1 -15 1927.08 323.662   2
  -1  -1 -15 2017.40 242.707   1
  -1   1 -15 2053.59 225.987   6
   1  -1 -14 11050.6 743.329   2
  -1  -1 -14 10479.6 546.850   1
  -1   1 -14 11539.0 581.583   4
   1  -1 -14 11231.3 365.805   6
  -1  -1 -14 10828.6 463.159   6
  -1   1 -14 11266.8 528.570   6
   1   1 -14 9800.32 255.482   5
  -1   1 -14 11597.2 438.361   5
   1  -1 -14 11927.0 596.963   5
   1   1 -14 10549.6 725.303   2
  -1   1 -13 3619.16 307.370   4
  -1  -1 -13 3200.73 285.691   1
   1  -1 -13 3174.74 173.634   6
   1  -1 -13 3664.49 314.611   5
   1   1 -13 3978.76 426.342   2
  -1   1 -13 3571.07 281.619   6
   1  -1 -13 3325.51 386.192   2
  -1   1 -13 3638.95 227.155   5
  -1  -1 -13 3438.63 244.027   6
   1   1 -13 3170.25 120.156   5
  -1  -1 -12 15805.4 540.427   6
   1  -1 -12 17047.5 690.215   5
   1   1 -12 15462.1 839.027   2
  -1   1 -12 16594.6 615.014   6
  -1   1 -12 17119.7 519.986   5
   1   1 -12 14812.8 323.864   5
   1  -1 -12 18012.2 658.474   1
   1  -1 -12 15862.7 418.043   6
   1  -1 -12 14722.6 796.669   2
   1   1 -11 5882.45 163.632   5
  -1   1 -11 6646.90 295.491   5
   1  -1 -11 7120.03 387.806   1
   1   1 -11 6673.32 340.685   3
   1  -1 -11 6797.73 404.130   5
   1   1 -11 7209.72 447.876   4
   1  -1 -11 6419.81 228.267   6
  -1  -1 -11 5941.55 308.747   6
  -1   1 -11 6619.97 361.273   6
   1  -1 -11 6379.79 483.962   2
  -1   1 -11 6853.39 297.287   3
  -1   1 -10 9960.37 365.049   5
   1  -1 -10 10547.4 501.929   5
   1  -1 -10 9487.33 275.306   6
   1  -1 -10 11074.9 468.700   1
   1  -1 -10 9856.15 582.893   2
  -1   1 -10 10003.3 354.593   3
  -1   1 -10 10097.5 438.767   6
  -1  -1 -10 10136.9 392.759   6
  -1  -1  -9 6270.38 291.559   6
   1  -1  -9 6436.46 371.786   5
   1  -1  -9 6486.65 442.242   2
  -1   1  -9 6283.02 276.064   5
  -1   1  -9 6641.36 265.198   3
   1  -1  -9 6297.13 198.629   6
   1  -1  -9 6830.55 349.983   1
   1  -1  -8 8705.62 386.819   1
  -1   1  -8 7671.13 274.413   3
  -1   1  -8 7731.47 301.336   5
   1  -1  -8 7568.57 206.199   6
   1  -1  -8 8217.85 407.983   5
  -1  -1  -8 7931.07 318.765   6
   1  -1  -8 8232.96 462.833   2
  -1   1  -7 1956.97 139.153   5
   1  -1  -7 1986.70 84.2798   6
   1  -1  -7 1993.14 210.627   2
   1  -1  -7 2191.38 181.192   1
   1  -1  -7 1920.02 183.630   5
  -1  -1  -7 2048.02 150.156   6
  -1   1  -6 8234.64 294.676   5
   1  -1  -6 8199.05 373.848   5
   1  -1  -6 7910.00 394.007   2
   1  -1  -6 8200.99 188.095   6
  -1  -1  -6 7741.78 299.303   6
   1  -1  -6 8064.45 348.915   1
   1  -1  -5 3329.39 229.916   5
   1  -1  -5 3510.52 232.116   2
   1  -1  -5 3604.62 216.148   1
  -1  -1  -5 3556.74 183.293   6
  -1   1  -5 3795.42 188.803   5
   1  -1  -4 12490.9 415.461   1
   1  -1  -4 12896.6 436.810   5
  -1  -1  -4 12638.3 372.267   6
   1  -1  -4 12371.4 407.177   2
  -1   1  -3 19113.9 375.485   1
   1  -1  -3 17950.7 446.935   2
   1  -1  -3 18722.3 520.411   5
  -1  -1  -3 17253.7 461.226   6
   1  -1  -3 18297.4 502.646   1
   1  -1  -2 26424.9 644.328   5
  -1  -1  -2 26816.5 604.992   6
  -1   1  -2 27669.7 535.070   1
   1  -1  -2 26358.4 620.347   1
   1  -1  -1 7870.00 285.220   5
   1  -1  -1 8123.40 274.598   1
  -1  -1  -1 7717.27 270.993   6
  -1   1  -1 8186.41 247.039   1
   1  -1   0 30113.5 652.903   5
  -1  -1   0 29545.5 659.987   6
   1  -1   0 29829.7 622.929   1
  -1   1   0 29614.7 635.235   1
   1  -1   1 8976.07 293.913   5
  -1  -1   1 8445.92 382.821   2
   1  -1   1 9015.82 251.542   1
  -1  -1   1 8999.90 314.616   6
   1  -1   2 26189.3 495.143   1
  -1  -1   2 26512.1 786.648   2
   1  -1   2 25451.3 591.313   5
  -1   1   2 24691.4 530.317   2
  -1  -1   3 21458.3 476.413   5
  -1  -1   3 21692.5 725.084   2
  -1   1   3 21889.5 484.163   2
  -1   1   3 20154.8 400.948   6
   1  -1   3 20939.3 385.460   1
   1  -1   3 21113.4 517.516   5
  -1  -1   3 19978.7 512.019   3
  -1  -1   4 10472.3 514.381   2
  -1   1   4 10596.0 409.330   5
   1  -1   4 11429.1 349.811   5
  -1  -1   4 10674.4 356.665   3
  -1  -1   4 11171.2 288.218   5
  -1   1   5 5130.75 279.826   5
  -1  -1   5 4588.64 229.242   3
  -1  -1   5 5067.62 357.900   2
  -1  -1   5 5079.43 142.963   5
   1  -1   5 4818.96 177.390   3
  -1  -1   6 9410.34 513.037   2
   1  -1   6 8210.21 260.394   3
  -1   1   6 8867.12 381.707   5
  -1  -1   6 8705.98 335.461   3
   1   1   7 2444.64 161.142   4
   1  -1   7 2291.11 137.857   3
   1   1   7 2750.04 193.320   6
  -1  -1   7 2770.59 191.744   3
   1   1   8 10286.9 404.805   6
  -1  -1   8 9425.10 384.820   3
  -1   1   8 10262.2 487.989   4
  -1  -1   8 9558.04 342.331   1
   1  -1   8 8709.71 307.025   3
   1   1   8 9367.17 359.236   4
   1   1   9 6298.52 311.702   4
  -1  -1   9 7158.18 348.011   3
  -1  -1   9 6969.44 301.016   1
   1  -1   9 6375.19 269.157   3
   1   1   9 6720.66 341.298   6
  -1   1   9 6903.17 415.817   4
  -1   1  10 13249.7 609.347   4
  -1  -1  10 13377.2 458.151   1
  -1  -1  10 13193.3 508.403   3
   1   1  10 12326.7 485.694   4
  -1  -1  11 6316.25 320.257   1
  -1   1  11 6124.06 425.679   4
   1   1  11 6928.70 368.520   4
  -1  -1  11 6671.48 358.798   3
   1   1  12 21163.9 735.422   4
  -1  -1  12 21555.3 720.481   3
  -1  -1  12 21036.7 671.983   1
  -1   1  12 22636.2 880.672   4
   1   1  13 3969.95 289.741   6
  -1   1  13 4691.32 400.785   4
  -1   1  14 13696.9 727.995   4
  -1   1  15 3693.76 387.613   4
  -1   1  16 5235.28 480.650   4
  -1   1  17 1496.13 279.109   4
  -1  -1  17 1773.10 248.678   1
  -1   2 -26 2207.31 315.176   6
   1  -2 -26 2341.36 488.632   2
   1   2 -25 1181.06 199.927   6
  -1   2 -25 1521.29 246.006   6
   1  -2 -25 1900.12 468.864   2
   1   2 -24 1973.45 267.623   6
  -1  -2 -24 2500.48 287.483   6
   1   2 -24 2473.23 477.055   2
  -1   2 -24 2417.59 456.729   2
  -1   2 -24 2128.23 296.933   6
  -1  -2 -24 1772.92 294.855   5
   1  -2 -24 1879.62 454.520   2
  -1   2 -23 3017.52 496.670   2
  -1   2 -23 2101.08 290.984   6
  -1  -2 -23 1963.98 295.599   5
   1  -2 -23 1990.53 451.028   2
  -1  -2 -23 2472.32 275.384   6
   1   2 -23 2310.89 275.061   6
   1   2 -23 2346.99 453.001   2
  -1   2 -22 1209.30 342.614   2
   1  -2 -22 1166.49 359.194   2
  -1   2 -22 1211.21 233.380   6
  -1  -2 -22 1150.05 185.008   6
  -1  -2 -22 1238.79 237.270   5
   1   2 -22 1092.51 185.407   6
   1   2 -22 1295.44 308.948   2
   1  -2 -21 2373.74 441.371   2
  -1  -2 -21 2547.50 265.140   6
   1  -2 -21 3602.04 441.222   5
  -1  -2 -21 2128.14 293.778   5
   1   2 -21 2324.26 420.328   2
  -1   2 -21 2821.80 462.118   2
  -1   2 -21 2501.57 310.230   6
   1   2 -21 1945.87 236.195   6
  -1   2 -20 664.995 154.895   6
   1   2 -20 452.345 165.650   2
  -1   2 -20 1021.27 290.683   2
   1  -2 -20 1069.55 246.006   5
   1  -2 -20 822.016 245.318   2
  -1  -2 -20 724.162 151.230   6
   1  -2 -19 612.446 94.8814   6
   1  -2 -19 534.616 211.034   2
  -1  -2 -19 682.180 137.717   6
  -1   2 -19 764.555 160.170   6
   1  -2 -19 1029.37 224.680   5
  -1  -2 -18 992.644 156.468   6
   1   2 -18 629.833 197.638   2
   1  -2 -18 1141.02 234.713   5
   1  -2 -18 769.685 248.532   2
  -1   2 -18 992.062 183.858   6
   1  -2 -18 775.514 103.142   6
   1  -2 -17 902.508 245.996   2
   1  -2 -17 1374.38 245.258   5
  -1   2 -17 975.946 170.739   6
  -1  -2 -17 1135.38 157.837   6
   1   2 -17 853.715 227.756   2
   1  -2 -17 851.603 102.513   6
   1   2 -16 2642.87 142.723   5
   1   2 -16 2612.93 380.884   2
   1  -2 -16 2965.44 186.454   6
  -1  -2 -16 2817.39 244.800   6
  -1   2 -16 3362.69 259.647   5
   1  -2 -16 3413.55 382.418   5
   1  -2 -16 2851.26 417.465   2
  -1   2 -16 2792.29 282.664   6
  -1  -2 -15 2806.61 241.661   6
   1  -2 -15 3555.14 443.490   2
   1  -2 -15 3163.14 360.851   5
   1  -2 -15 2947.63 179.861   6
   1   2 -15 2803.82 156.488   5
  -1   2 -15 3191.92 242.262   5
   1   2 -15 2988.47 406.709   2
   1  -2 -14 7690.23 293.745   6
  -1  -2 -14 7835.88 390.439   6
   1  -2 -14 7712.34 621.787   2
   1   2 -14 8290.07 658.486   2
  -1   2 -14 8399.89 390.608   5
   1   2 -14 7727.49 286.847   5
   1  -2 -14 9683.19 606.091   5
  -1   2 -13 6466.82 333.334   5
   1  -2 -13 7239.48 509.623   5
   1   2 -13 6427.19 263.854   5
   1  -2 -13 6027.05 522.344   2
  -1  -2 -13 6194.91 338.839   6
   1   2 -13 6242.08 558.209   2
   1  -2 -13 6019.13 248.743   6
   1   2 -12 9309.30 339.926   5
   1  -2 -12 8862.38 304.893   6
   1  -2 -12 8529.81 591.008   2
   1  -2 -12 10053.7 590.123   5
   1   2 -12 9849.94 683.828   2
  -1  -2 -12 9235.91 407.634   6
  -1   2 -12 10126.9 411.619   5
  -1   2 -11 12570.8 460.817   5
   1   2 -11 12952.3 766.724   2
  -1  -2 -11 12244.4 465.544   6
   1  -2 -11 11463.0 651.020   2
   1  -2 -11 14438.5 698.489   5
   1   2 -11 12024.6 409.735   5
   1  -2 -11 11794.9 355.806   6
   1   2 -10 9200.88 357.150   5
  -1  -2 -10 8642.79 384.714   6
  -1   2 -10 9872.38 391.677   5
   1  -2 -10 8811.14 291.883   6
   1  -2 -10 10738.6 583.824   5
   1  -2 -10 8028.96 507.510   2
   1  -2  -9 7011.84 457.090   5
  -1  -2  -9 5571.02 299.756   6
   1  -2  -9 5322.41 380.657   2
   1  -2  -9 5798.71 398.685   1
   1  -2  -9 5834.04 228.994   6
   1   2  -9 5960.41 289.848   5
  -1   2  -9 6200.00 303.246   5
   1  -2  -8 4366.23 350.441   5
   1  -2  -8 3577.69 177.832   6
  -1  -2  -8 3978.28 240.604   6
   1  -2  -8 3419.63 274.834   2
   1   2  -8 3617.47 232.203   5
   1  -2  -8 3689.93 303.627   1
  -1   2  -8 3877.40 233.507   5
   1   2  -7 3265.05 228.405   5
  -1   2  -7 4167.14 241.814   5
  -1  -2  -7 3667.88 227.750   6
   1  -2  -7 3944.62 329.319   5
   1  -2  -7 3612.89 300.862   1
   1  -2  -7 3266.06 237.333   2
   1   2  -6 2789.22 216.909   5
   1  -2  -6 2518.46 176.944   2
   1  -2  -6 2572.21 257.860   5
  -1  -2  -6 2851.48 196.946   6
   1  -2  -6 2583.21 244.958   1
  -1   2  -6 2698.74 192.788   5
   1  -2  -5 2249.83 234.227   5
   1  -2  -5 2443.82 230.977   1
  -1   2  -5 2465.51 184.659   5
  -1  -2  -5 2463.09 182.568   6
   1   2  -5 2474.47 210.352   5
   1  -2  -5 2234.84 133.594   2
   1  -2  -4 5514.52 359.240   5
   1  -2  -4 5267.17 339.479   1
  -1  -2  -4 5329.47 273.207   6
  -1   2  -4 5277.47 276.419   5
   1  -2  -3 8344.92 435.753   5
  -1  -2  -3 8339.97 348.508   6
   1  -2  -3 8070.71 417.120   1
   1  -2  -2 14026.6 558.403   5
   1  -2  -2 13996.9 552.455   1
  -1  -2  -2 15015.8 498.234   6
  -1  -2  -2 15441.9 556.486   5
   1  -2  -1 11087.5 472.234   5
   1  -2  -1 10737.4 466.124   1
  -1  -2  -1 11211.3 462.468   5
  -1  -2  -1 11775.5 443.954   6
  -1  -2   0 15083.3 540.954   5
   1  -2   0 14475.0 528.144   1
  -1  -2   0 14206.3 564.037   2
  -1  -2   0 15245.6 532.486   6
   1  -2   0 15199.3 549.164   5
   1  -2   1 11353.2 438.025   1
  -1  -2   1 11385.3 519.774   2
  -1  -2   1 11551.4 459.271   5
   1  -2   1 11428.2 458.660   5
  -1  -2   2 12458.4 474.955   5
  -1  -2   2 12300.9 572.592   2
   1  -2   2 11965.1 436.310   1
   1  -2   2 12727.5 467.556   5
  -1  -2   3 9712.67 404.222   5
  -1  -2   3 9251.76 511.847   2
   1  -2   3 9014.61 360.770   1
   1  -2   3 10460.9 405.150   5
  -1   2   3 10032.0 355.426   6
  -1  -2   4 4994.24 267.910   5
   1  -2   4 4758.82 230.124   1
  -1   2   4 5294.57 228.326   6
   1  -2   4 5635.30 288.569   5
  -1  -2   4 4675.28 387.596   2
  -1  -2   5 3032.77 196.075   5
   1   2   5 3125.43 213.992   6
  -1   2   5 2833.76 150.935   6
  -1  -2   5 3085.16 316.001   2
   1  -2   5 2674.88 201.527   5
  -1   2   5 3024.10 274.850   5
   1  -2   5 2791.58 146.851   1
  -1  -2   6 2893.74 222.442   3
  -1   2   6 3207.33 287.426   5
   1   2   6 2797.00 205.585   6
   1  -2   6 2518.45 197.676   5
  -1  -2   6 2821.03 173.473   5
  -1  -2   6 2709.39 299.367   2
  -1   2   6 2666.28 140.070   6
   1  -2   6 2444.86 108.985   1
  -1  -2   7 3805.68 264.076   3
  -1   2   7 3799.59 326.812   5
  -1   2   7 3600.22 164.591   6
   1   2   7 3809.52 249.234   6
   1  -2   7 3833.00 241.697   5
   1  -2   7 3621.86 219.051   3
  -1  -2   7 3770.07 188.046   5
  -1  -2   7 3949.40 382.093   2
   1  -2   8 4563.53 254.279   3
  -1   2   8 4771.77 195.690   6
  -1  -2   8 4421.01 195.150   5
   1  -2   8 4576.65 269.386   5
  -1  -2   8 4520.20 293.680   3
  -1   2   9 6922.37 255.576   6
   1  -2   9 7221.00 328.809   3
  -1  -2   9 7206.97 381.573   3
  -1  -2   9 7219.43 249.056   5
  -1   2  10 10735.2 343.303   6
   1  -2  10 11801.7 446.877   3
  -1  -2  10 11794.7 511.857   3
  -1  -2  11 13950.4 474.138   1
   1   2  11 14114.8 570.631   6
  -1  -2  11 14143.9 586.898   3
  -1   2  11 12166.1 384.545   6
   1   2  11 12557.9 563.393   4
   1  -2  11 13104.2 493.173   3
  -1   2  12 12783.9 693.303   4
   1   2  12 10856.6 539.468   4
  -1  -2  12 11927.1 452.770   1
  -1  -2  12 11920.5 553.259   3
   1  -2  12 11898.2 487.923   3
   1   2  12 12823.2 560.428   6
  -1   2  13 9201.63 602.692   4
   1  -2  13 9228.74 436.228   3
  -1  -2  13 9420.59 410.655   1
   1   2  13 8255.38 475.489   4
  -1  -2  13 9532.15 507.828   3
  -1   2  14 9600.24 634.607   4
   1  -2  14 8728.88 443.227   3
  -1  -2  14 10326.1 542.490   3
   1   2  14 9066.46 521.185   4
  -1  -2  15 4907.54 385.628   3
   1   2  15 4187.85 379.819   4
  -1   2  15 4555.17 448.402   4
  -1  -2  16 3827.23 352.775   3
   1   2  16 3712.26 370.149   4
  -1   2  16 4126.97 437.504   4
  -1   2  17 1460.42 284.993   4
   1   2  17 1134.21 218.083   4
  -1   2  18 1265.90 265.308   4
  -1   2  19 755.713 220.189   4
  -1   2  20 1429.55 304.584   4
  -1   2  21 3433.03 477.985   4
   1   3 -25 215.113 111.700   6
  -1  -3 -24-24.8699 83.7353   5
   1   3 -24 177.077 89.4417   6
  -1   3 -24 49.2247 88.5287   6
   1   3 -23 323.942 184.237   2
  -1  -3 -23 281.374 160.316   5
  -1   3 -23 464.012 192.652   2
  -1   3 -23 322.095 134.743   6
  -1   3 -22 192.189 152.369   2
  -1  -3 -22 102.885 84.7625   6
  -1  -3 -22 67.8076 84.2477   5
   1   3 -22 204.599 91.5746   2
  -1   3 -22 178.498 111.251   6
   1  -3 -21 4448.56 522.530   5
  -1   3 -21 4278.42 580.232   2
   1   3 -21 3612.13 532.993   2
   1  -3 -21 3475.67 517.632   2
  -1   3 -21 2710.25 345.225   6
  -1  -3 -21 3488.33 315.010   6
  -1  -3 -21 3347.33 391.494   5
  -1  -3 -20 949.176 215.121   5
   1  -3 -20 973.237 224.604   5
  -1   3 -20 345.690 126.989   6
  -1   3 -20 747.756 227.848   2
  -1  -3 -20 779.473 165.137   6
   1  -3 -20 1179.23 310.066   2
   1   3 -20 659.890 223.283   2
  -1   3 -19 6291.15 494.419   6
  -1  -3 -19 6891.72 544.558   5
  -1  -3 -19 6993.40 430.299   6
   1  -3 -19 9032.14 717.362   5
  -1   3 -19 7142.12 701.670   2
   1   3 -19 7173.98 715.572   2
   1  -3 -19 8162.74 743.207   2
   1  -3 -18 1326.58 287.773   2
   1  -3 -18 1502.35 299.186   5
  -1   3 -18 1458.33 320.266   2
   1   3 -18 1463.02 316.824   2
  -1  -3 -18 972.257 161.077   6
  -1  -3 -18 953.405 209.172   5
   1  -3 -17 6429.12 312.323   6
  -1  -3 -17 7180.53 419.094   6
  -1  -3 -17 6557.45 502.674   5
   1  -3 -17 8142.39 691.746   2
  -1   3 -17 7563.62 663.107   2
   1   3 -17 7078.69 669.707   2
  -1   3 -16 550.483 187.169   2
   1  -3 -16 309.505 74.4294   6
  -1  -3 -16 303.396 117.383   5
   1   3 -16 478.271 177.170   2
   1  -3 -16 527.582 191.043   5
   1  -3 -16 389.823 155.463   2
  -1  -3 -16 328.441 102.559   6
   1  -3 -15 4293.57 448.972   5
   1  -3 -15 2852.43 203.519   6
   1   3 -15 3467.93 449.005   2
   1  -3 -15 4024.27 446.954   2
  -1  -3 -15 3942.59 290.554   6
  -1   3 -15 3510.76 419.131   2
  -1  -3 -15 3246.49 338.989   5
   1  -3 -14 484.017 83.4078   6
  -1   3 -14 456.387 167.983   2
   1   3 -14 368.011 85.9164   5
   1  -3 -14 593.542 168.296   5
  -1  -3 -14 318.516 80.4299   6
  -1  -3 -14 431.285 129.862   5
   1   3 -14 517.060 176.303   2
   1  -3 -14 796.929 190.079   2
   1   3 -13 679.133 195.126   2
  -1   3 -13 503.787 157.370   2
  -1  -3 -13 434.390 127.136   5
   1  -3 -13 396.881 85.3587   6
  -1  -3 -13 521.336 105.191   6
   1  -3 -13 563.354 151.253   2
   1   3 -13 303.819 72.9224   5
   1  -3 -13 947.163 225.698   5
   1  -3 -12 367.471 155.191   5
  -1  -3 -12 134.738 64.6122   6
  -1  -3 -12 340.218 116.916   5
   1  -3 -12 371.415 115.782   2
  -1   3 -12 221.268 111.101   2
   1  -3 -12 172.243 57.6953   6
   1   3 -12 317.681 128.693   2
   1   3 -12 129.092 50.8172   5
  -1   3 -11 674.711 117.987   5
  -1   3 -11 657.812 165.516   2
  -1  -3 -11 429.876 96.3339   6
   1  -3 -11 757.697 177.990   5
  -1  -3 -11 441.602 118.634   5
   1   3 -11 569.049 177.841   2
   1   3 -11 327.520 85.8282   5
   1  -3 -11 497.342 121.263   2
   1   3 -10 527.266 165.482   2
   1  -3 -10 304.277 132.259   5
   1   3 -10 372.290 98.8970   5
  -1   3 -10 458.080 102.648   5
  -1  -3 -10 463.006 107.566   6
  -1  -3 -10 413.786 117.924   5
  -1   3 -10 392.390 131.432   2
   1  -3 -10 263.645 86.0892   2
  -1   3  -9 9080.81 540.711   2
   1  -3  -9 10160.9 633.658   5
   1   3  -9 9221.93 478.440   5
  -1   3  -9 8723.85 431.445   5
  -1  -3  -9 8620.03 415.624   6
   1  -3  -9 8768.84 410.863   2
  -1  -3  -9 7955.76 489.362   5
   1   3  -9 9264.97 649.336   2
  -1   3  -8 2124.80 215.101   5
   1  -3  -8 2863.45 326.795   5
   1   3  -8 2217.34 235.857   5
   1  -3  -8 1963.43 158.344   2
   1   3  -8 2180.81 315.304   2
  -1  -3  -8 2484.70 216.898   6
  -1  -3  -8 2103.51 248.883   5
  -1   3  -8 2310.98 261.608   2
  -1  -3  -7 17227.1 594.689   6
   1   3  -7 17689.4 706.358   5
   1  -3  -7 17463.8 803.102   5
   1   3  -7 19405.3 889.383   2
  -1   3  -7 17123.0 618.620   5
  -1  -3  -7 15472.0 677.692   5
   1  -3  -6 2229.41 285.945   5
  -1  -3  -6 2297.34 253.228   5
  -1   3  -6 2404.66 224.421   5
  -1  -3  -6 2587.03 221.997   6
   1   3  -6 2708.99 274.998   5
  -1  -3  -5 21405.3 806.963   5
   1   3  -5 22971.6 873.384   5
  -1  -3  -5 22708.5 725.789   6
  -1   3  -5 22492.9 751.884   2
   1  -3  -5 22396.8 989.846   1
  -1   3  -5 21283.9 736.323   5
   1  -3  -5 20686.2 891.903   5
  -1  -3  -4 1660.90 211.126   5
  -1   3  -4 1954.08 194.730   2
  -1   3  -4 1746.13 198.563   5
   1  -3  -4 1435.64 248.496   1
   1   3  -4 1720.01 237.000   5
  -1  -3  -4 1807.32 189.560   6
   1  -3  -4 1695.27 240.242   5
   1  -3  -3 10702.9 584.961   5
  -1   3  -3 10609.8 509.764   5
   1  -3  -3 11788.9 684.731   1
  -1   3  -3 10233.4 449.664   2
  -1  -3  -3 10132.7 481.320   6
  -1  -3  -3 10490.9 539.762   5
  -1   3  -2 942.002 121.312   2
   1  -3  -2 933.537 170.360   5
   1  -3  -2 849.701 174.113   1
  -1  -3  -2 910.586 156.246   5
  -1   3  -2 794.706 138.379   5
   1  -3  -1 1066.94 176.660   5
  -1  -3  -1 827.466 147.913   2
  -1  -3  -1 1013.56 165.753   5
   1  -3  -1 1057.63 190.386   1
  -1   3  -1 1072.65 117.541   2
  -1  -3   0 14.3620 34.8584   2
  -1   3   0 2.39243 24.0617   2
  -1  -3   0-35.1925 63.3151   5
   1  -3   0 118.166 77.2165   5
  -1  -3   1 1817.06 212.890   5
   1  -3   1 1849.91 219.890   5
  -1  -3   1 1653.32 224.914   2
   1  -3   2 971.849 158.076   5
  -1  -3   2 1232.73 173.872   5
  -1  -3   2 1049.49 181.805   2
  -1  -3   3 9896.91 495.685   5
  -1  -3   3 9420.20 571.377   2
  -1   3   3 9880.96 445.601   6
   1  -3   3 9871.62 488.036   5
  -1   3   4 2095.03 189.147   6
   1  -3   4 1822.64 202.953   5
  -1  -3   4 1701.68 247.517   2
  -1  -3   4 2252.69 222.606   5
  -1  -3   5 22674.5 957.630   2
  -1   3   5 23224.3 674.875   6
  -1  -3   5 22401.5 752.854   5
   1  -3   5 21453.1 747.480   5
  -1  -3   6 3633.40 265.192   5
   1   3   6 3443.73 271.161   6
  -1   3   6 3526.97 357.339   5
  -1  -3   6 3275.63 362.859   2
  -1   3   6 3117.97 216.154   6
   1  -3   6 2937.59 257.108   5
   1  -3   7 18423.6 676.591   5
  -1  -3   7 19988.8 651.667   5
   1   3   7 19667.3 685.212   6
  -1   3   7 17747.8 553.489   6
   1  -3   8 1476.43 144.523   1
  -1  -3   8 2257.82 243.787   3
   1   3   8 2685.50 239.831   6
  -1   3   8 2223.88 166.802   6
  -1  -3   8 2525.59 201.455   5
   1  -3   8 2294.37 225.989   5
   1  -3   9 9338.18 452.257   3
   1   3   9 9868.75 475.868   6
  -1  -3   9 9324.37 503.382   3
  -1  -3   9 9849.31 384.800   5
  -1   3   9 9920.96 357.886   6
   1  -3   9 9776.74 464.827   5
   1  -3  10 408.512 108.119   5
   1  -3  10 280.491 91.3474   3
  -1  -3  10 395.711 128.023   3
  -1  -3  10 369.080 74.3267   5
  -1   3  10 408.883 72.5324   6
   1  -3  11 549.915 121.418   5
  -1  -3  11 541.793 88.7619   5
  -1   3  11 713.671 102.115   6
   1  -3  11 439.986 110.486   3
  -1  -3  11 554.578 145.633   3
  -1   3  12 142.955 50.5676   6
  -1  -3  12 171.608 49.6976   5
  -1  -3  12 90.1369 68.4180   3
   1  -3  12 117.058 69.0514   3
   1  -3  13 525.252 128.303   3
  -1  -3  13 738.185 163.354   3
  -1   3  13 394.958 81.0380   6
  -1  -3  14 513.682 151.076   3
   1   3  14 626.436 151.272   4
  -1   3  14 379.364 78.5885   6
   1  -3  14 378.730 105.447   3
   1   3  15 4331.33 409.830   4
  -1   3  15 3928.36 452.949   4
   1  -3  15 4942.30 379.663   3
  -1  -3  15 4366.02 398.529   3
   1  -3  16 498.567 138.757   3
  -1  -3  16 501.731 168.945   3
   1   3  16 682.237 176.292   4
  -1   3  16 610.183 200.634   4
  -1  -3  17 11268.1 682.027   3
  -1   3  17 10286.4 769.956   4
   1   3  17 9975.94 660.595   4
   1  -3  17 10205.6 577.960   3
   1   3  18 1460.01 263.145   4
  -1  -3  18 1826.41 300.258   3
  -1   3  18 1441.37 300.512   4
  -1   3  19 9351.26 773.825   4
   1   3  19 10040.6 714.732   4
  -1  -3  19 10309.9 695.360   3
   1   3  20 1060.22 255.763   4
  -1   3  20 868.242 256.135   4
   1   3  21 4936.49 538.280   4
  -1   3  21 4778.82 591.544   4
  -1   3  22 340.972 196.531   4
  -1   3  23 385.376 229.505   4
  -1   3  24 370.540 199.625   4
  -1  -4 -24 1429.59 288.146   5
  -1  -4 -23 339.583 96.2062   5
  -1  -4 -22 1806.45 311.635   5
  -1   4 -22 1705.97 292.993   6
   1  -4 -22 2991.33 470.097   5
  -1   4 -22 2434.11 487.355   2
   1   4 -21 237.785 171.557   2
   1  -4 -21 635.308 236.705   5
  -1   4 -21 438.180 242.737   2
  -1  -4 -21 343.895 151.482   5
   1  -4 -20 1336.05 307.000   5
  -1  -4 -20 946.384 176.804   6
   1   4 -20 893.923 266.874   2
  -1  -4 -20 1077.09 230.138   5
  -1   4 -20 1106.93 326.603   2
   1   4 -19 75.1670 99.9720   2
  -1  -4 -19-187.085 113.211   5
  -1   4 -19-5.15197 123.737   2
   1  -4 -19 175.929 139.746   5
  -1  -4 -19-36.2297 61.4076   6
  -1  -4 -18 2214.59 241.649   6
  -1  -4 -18 1616.81 282.721   5
  -1   4 -18 2028.37 379.175   2
   1   4 -18 2914.39 460.977   2
   1  -4 -18 2625.26 411.328   5
  -1  -4 -17 976.871 171.596   6
   1   4 -17 1499.70 326.870   2
  -1  -4 -17 736.651 195.430   5
   1  -4 -17 1243.31 280.327   5
  -1   4 -17 1223.40 286.950   2
   1   4 -16 1841.06 355.716   2
  -1  -4 -16 1978.02 226.892   6
  -1   4 -16 2122.83 358.831   2
   1  -4 -16 2487.40 371.194   5
  -1  -4 -16 1973.95 296.957   5
   1   4 -15 1152.38 278.403   2
   1  -4 -15 1882.33 315.268   5
  -1   4 -15 1274.29 270.861   2
  -1  -4 -15 1273.99 187.311   6
  -1  -4 -15 1176.55 230.080   5
   1  -4 -15 928.312 165.744   2
   1  -4 -14 4857.60 494.990   5
  -1  -4 -14 4070.68 329.790   6
   1   4 -14 4017.13 501.042   2
  -1   4 -14 3864.63 454.215   2
  -1  -4 -14 3599.52 390.438   5
   1  -4 -14 2684.76 265.487   2
   1   4 -13 565.682 193.727   2
  -1  -4 -13 467.268 124.132   6
   1  -4 -13 982.977 243.696   5
   1  -4 -13 470.547 97.2699   2
  -1   4 -13 684.413 197.338   2
  -1  -4 -13 520.911 158.889   5
   1   4 -12 6098.69 435.854   5
   1  -4 -12 6463.40 559.570   5
   1   4 -12 6007.73 578.679   2
  -1  -4 -12 4513.66 425.479   5
  -1  -4 -12 5215.28 363.649   6
  -1   4 -12 5416.74 489.082   2
  -1  -4 -11 811.899 151.744   6
  -1  -4 -11 681.393 175.308   5
   1   4 -11 877.630 235.299   2
   1   4 -11 593.528 152.907   5
   1  -4 -11 206.327 46.9683   2
  -1   4 -11 985.374 210.817   2
   1  -4 -11 877.158 203.815   5
  -1  -4 -10 3848.02 376.881   5
   1   4 -10 5547.54 423.807   5
  -1   4 -10 4622.47 424.639   2
  -1  -4 -10 4392.45 329.047   6
   1   4 -10 5180.45 509.305   2
   1  -4 -10 5633.95 506.042   5
   1   4  -9 1555.60 232.365   5
   1  -4  -9 2060.68 315.291   5
   1   4  -9 1362.17 280.369   2
  -1  -4  -9 1829.27 218.505   6
  -1  -4  -9 1436.89 232.544   5
  -1   4  -9 1183.09 223.378   2
  -1  -4  -8 1921.61 228.034   6
   1   4  -8 1197.07 256.558   2
   1   4  -8 2278.42 293.397   5
  -1  -4  -8 1827.93 258.610   5
   1  -4  -8 1977.50 299.801   5
  -1   4  -8 1751.48 251.318   2
   1   4  -7 343.912 122.451   2
   1   4  -7 388.220 136.258   5
   1  -4  -7 532.182 173.441   5
  -1  -4  -7 297.429 95.2067   6
  -1   4  -7 325.294 106.953   2
  -1  -4  -7 243.621 83.7962   5
   1  -4  -6 5707.18 488.525   5
  -1  -4  -6 4710.16 410.550   5
   1   4  -6 5420.85 470.809   5
  -1  -4  -6 4861.88 365.060   6
   1   4  -6 5120.51 475.203   2
   1  -4  -5 1723.21 279.074   5
  -1  -4  -5 1846.38 259.087   5
   1  -4  -4 3225.71 362.107   5
  -1  -4  -4 3389.87 349.987   5
  -1  -4  -4 2586.91 264.502   2
  -1   4  -4 3148.30 281.527   2
  -1  -4  -3 3994.47 373.934   5
  -1  -4  -3 3222.99 296.680   2
   1  -4  -3 3742.85 379.496   5
  -1   4  -3 3957.00 301.269   2
  -1  -4  -2 10605.8 614.378   5
  -1  -4  -2 9361.30 527.164   2
   1  -4  -2 9187.24 596.205   5
  -1   4  -2 10222.0 469.521   2
  -1  -4  -1 972.022 166.137   2
   1  -4  -1 1047.05 201.031   5
  -1  -4  -1 1346.66 218.862   5
  -1  -4   0 14148.0 711.739   5
  -1  -4   0 13502.0 679.288   2
   1  -4   0 11885.0 675.664   5
   1  -4   1 1192.85 202.780   5
  -1  -4   1 1382.12 216.169   5
  -1   4   1 1196.26 183.022   6
  -1  -4   1 1122.53 192.578   2
  -1  -4   2 9730.08 568.519   5
  -1   4   2 9511.38 520.047   6
  -1  -4   2 9976.26 605.080   2
   1  -4   2 9521.01 575.587   5
  -1  -4   3 3665.54 338.271   5
  -1  -4   3 3793.17 385.496   2
   1  -4   3 3903.85 362.210   5
  -1   4   3 3632.95 307.011   6
  -1  -4   4 3209.18 310.609   5
  -1   4   4 3260.58 282.549   6
  -1  -4   4 3171.51 356.291   2
   1  -4   4 3247.76 321.447   5
  -1  -4   5 1505.95 211.822   5
   1  -4   5 1837.58 233.304   5
  -1  -4   6 4793.41 369.195   5
   1  -4   6 5314.51 396.141   5
   1  -4   7 510.289 131.841   5
  -1  -4   7 462.507 115.184   5
  -1  -4   8 2315.59 242.834   5
   1  -4   8 2073.37 246.970   5
  -1  -4   9 1179.30 207.382   3
  -1  -4   9 1968.08 218.035   5
   1  -4   9 987.593 162.820   1
   1  -4   9 1660.21 220.679   5
  -1  -4  10 5270.51 433.460   3
   1  -4  10 4924.64 383.291   3
   1  -4  10 5901.02 422.036   5
  -1  -4  10 5761.90 355.712   5
   1  -4  11 769.853 166.581   5
  -1  -4  11 734.998 126.156   5
  -1  -4  11 856.059 189.885   3
   1  -4  11 780.085 150.843   3
  -1  -4  12 6082.88 487.448   3
   1  -4  12 5975.09 442.354   3
  -1  -4  12 6860.38 394.698   5
   1  -4  12 6454.58 456.799   5
   1  -4  13 825.132 173.676   5
   1  -4  13 801.774 171.314   3
  -1  -4  13 818.768 140.342   5
  -1  -4  13 898.740 209.195   3
  -1  -4  14 5134.85 461.582   3
  -1  -4  14 5363.19 331.614   5
   1  -4  14 5262.04 417.814   3
  -1  -4  15 2106.94 308.994   3
   1  -4  15 1700.33 255.614   3
  -1  -4  16 2026.33 314.393   3
   1  -4  16 2355.43 301.130   3
  -1  -4  17 1078.07 236.379   3
   1   4  17 1070.84 238.924   4
   1  -4  17 1123.22 227.927   3
  -1   4  17 1070.16 256.439   4
  -1   4  18 3000.81 455.765   4
   1   4  18 2674.27 379.037   4
  -1  -4  18 3220.75 404.294   3
   1  -4  18 2870.29 346.644   3
   1  -4  19-80.5896 103.037   3
   1   4  19-91.3087 96.9815   4
  -1   4  19-160.563 194.401   4
  -1  -4  19-79.5679 130.178   3
   1  -4  20 1462.39 274.774   3
  -1  -4  20 2036.29 356.944   3
  -1   4  20 1618.31 352.752   4
  -1  -4  21 647.860 219.371   3
  -1   4  21 457.385 207.312   4
  -1   4  22 2401.63 455.760   4
  -1   4  23 142.478 151.687   4
   1  -5 -21 1220.03 290.405   5
  -1  -5 -20 188.267 125.151   5
   1  -5 -20 383.757 164.985   5
   1   5 -19 279.113 174.093   2
  -1   5 -19 271.601 138.553   2
  -1  -5 -19 331.702 176.010   5
   1  -5 -19 365.481 178.675   5
   1   5 -18 34.2314 157.250   2
  -1  -5 -18 1.06516 94.0983   5
  -1  -5 -18-134.589 95.1258   6
  -1   5 -18-32.7947 124.530   2
   1   5 -17 568.035 221.389   2
  -1  -5 -17 268.490 90.9167   6
  -1  -5 -17 402.594 143.776   5
  -1   5 -17 25.0104 97.7259   2
   1  -5 -17 575.770 218.249   5
  -1   5 -16 288.101 162.683   2
   1   5 -16 366.362 174.895   2
  -1  -5 -16 340.245 121.755   6
  -1  -5 -16 402.367 149.055   5
   1  -5 -16 607.489 225.460   5
   1   5 -15 1971.21 364.804   2
   1  -5 -15 2065.45 356.897   5
  -1  -5 -15 1831.86 312.117   5
  -1  -5 -15 1825.40 246.138   6
  -1   5 -15 1939.08 365.488   2
  -1  -5 -14 1215.21 203.447   6
  -1  -5 -14 1539.57 286.164   5
   1   5 -14 1706.87 341.435   2
   1  -5 -14 1874.75 342.599   5
  -1   5 -14 1427.04 294.228   2
   1  -5 -13 4527.25 506.392   5
   1   5 -13 4047.59 517.810   2
  -1  -5 -13 3727.81 430.580   5
  -1  -5 -13 3533.76 340.778   6
  -1   5 -13 3801.59 464.266   2
   1  -5 -12 626.685 199.838   5
  -1   5 -12 673.307 187.342   2
  -1  -5 -12 805.857 210.388   5
   1   5 -12 586.299 204.541   2
  -1   5 -11 3890.93 431.856   2
   1  -5 -11 5447.90 551.522   5
  -1  -5 -11 4715.78 467.815   5
   1   5 -11 4292.81 523.525   2
  -1  -5 -10 2213.67 328.062   5
  -1   5 -10 2600.54 337.714   2
   1   5 -10 2455.45 374.087   2
   1  -5 -10 2516.66 364.306   5
   1  -5  -9 3049.38 399.069   5
  -1  -5  -9 2602.26 353.999   5
  -1   5  -9 2050.28 309.070   2
   1   5  -9 2579.34 380.869   2
   1  -5  -8 454.522 184.631   5
  -1   5  -8 505.288 152.984   2
  -1  -5  -8 245.368 126.316   5
   1   5  -8 371.024 150.543   2
  -1   5  -7 1033.70 205.069   2
  -1  -5  -7 586.972 134.157   2
  -1  -5  -7 1112.56 232.978   5
   1  -5  -7 1307.90 276.783   5
  -1   5  -6 142.273 81.7468   2
  -1  -5  -6 270.563 139.864   5
  -1  -5  -6 182.767 67.2363   2
   1  -5  -6 247.574 130.804   5
  -1  -5  -5 217.157 89.7342   2
   1  -5  -5 187.108 111.838   5
  -1  -5  -5 172.258 115.665   5
  -1  -5  -4 459.535 168.242   5
  -1  -5  -4 421.166 114.046   2
   1  -5  -4 597.460 186.511   5
   1  -5  -3 4627.50 466.065   5
  -1  -5  -3 4807.47 455.159   5
  -1  -5  -3 3672.97 344.120   2
   1  -5  -2 2412.49 338.479   5
  -1  -5  -2 2681.61 345.479   5
  -1  -5  -2 2292.91 275.768   2
  -1  -5  -1 5545.27 496.978   5
   1  -5  -1 5476.00 498.114   5
  -1  -5  -1 5514.89 437.048   2
  -1  -5   0 1214.93 236.306   5
  -1  -5   0 1240.91 216.081   2
   1  -5   0 1568.44 264.258   5
  -1  -5   1 6083.53 502.492   5
  -1  -5   1 6150.83 483.333   2
   1  -5   1 5508.71 498.370   5
  -1  -5   2 2256.41 303.446   5
   1  -5   2 2067.00 306.759   5
   1  -5   3 4881.96 449.775   5
  -1  -5   3 4383.67 415.969   5
   1  -5   4 514.740 169.963   5
  -1  -5   4 436.635 138.772   5
   1  -5   5 406.514 131.139   5
  -1  -5   5 104.568 83.9884   5
  -1  -5   6 207.867 95.4964   5
   1  -5   6 336.921 126.797   5
   1  -5   7 953.326 201.630   5
  -1  -5   7 1006.30 200.533   5
  -1  -5   8 897.796 177.268   5
   1  -5   8 705.457 175.921   5
  -1  -5   9 2764.69 298.637   5
   1  -5   9 3120.84 349.695   5
  -1  -5  10 1891.29 294.595   3
   1  -5  10 2179.76 304.411   5
  -1  -5  10 2360.94 278.267   5
  -1  -5  11 3463.96 409.869   3
   1  -5  11 3057.38 362.218   3
   1  -5  11 4846.30 442.192   5
  -1  -5  11 5011.85 394.310   5
  -1  -5  12 887.257 175.913   5
   1  -5  12 572.589 163.646   5
  -1  -5  12 767.646 213.035   3
   1  -5  12 478.843 134.946   3
   1  -5  13 4988.55 448.569   5
   1  -5  13 4187.03 418.642   3
  -1  -5  13 3829.14 443.206   3
  -1  -5  13 4865.12 388.167   5
   1  -5  14 1347.91 255.904   3
  -1  -5  14 1516.43 291.370   3
   1  -5  14 1639.91 277.290   5
  -1  -5  15 2173.11 344.490   3
   1  -5  15 1972.41 291.272   3
  -1  -5  16 369.058 141.015   3
   1  -5  16 183.346 136.620   3
  -1  -5  17 548.025 208.010   3
   1  -5  17 247.235 148.679   3
  -1  -5  18 45.4753 109.862   3
   1  -5  18-121.077 112.868   3
  -1   5  18-34.6209 134.931   4
  -1  -5  19 563.825 200.510   3
  -1   5  19 2.47739 106.164   4
   1  -5  19 384.470 171.052   3
   1  -5  20 214.297 95.8621   3
  -1   5  20-181.207 152.358   4
  -1  -5  20 320.069 211.549   3
  -1   5  21 988.960 307.556   4
  -1   6 -18 1001.27 287.277   2
  -1   6 -17 1199.95 312.512   2
   1   6 -17 961.791 306.007   2
   1   6 -16 830.939 269.285   2
   1  -6 -16 652.011 229.588   5
  -1   6 -16 801.015 230.073   2
  -1   6 -15 376.240 180.856   2
   1   6 -15 636.357 222.486   2
   1  -6 -15 932.090 257.829   5
  -1  -6 -15 867.589 230.520   5
   1   6 -14-24.3302 91.5225   2
  -1  -6 -14 276.703 137.587   5
  -1   6 -14 215.185 110.210   2
   1  -6 -14 345.412 208.682   5
  -1   6 -13 310.127 147.457   2
   1   6 -13-23.3378 86.6995   2
   1  -6 -13 324.848 173.238   5
  -1  -6 -13 14.4106 116.137   5
  -1   6 -12 299.992 159.955   2
   1   6 -12 350.695 164.971   2
   1  -6 -12 415.299 177.736   5
  -1  -6 -12 44.9803 104.138   5
  -1   6 -11 190.608 124.583   2
  -1  -6 -11 391.147 176.491   5
   1  -6 -11 524.743 203.332   5
  -1   6 -10 527.293 148.717   2
   1  -6 -10 527.323 193.328   5
  -1  -6 -10 186.880 144.143   5
  -1   6  -9 1152.41 226.397   2
   1  -6  -9 1446.82 292.820   5
  -1  -6  -9 809.637 230.561   5
   1  -6  -8 1679.08 315.734   5
  -1  -6  -8 1563.05 292.003   5
  -1   6  -8 1719.74 280.839   2
  -1  -6  -7 3378.53 430.460   5
   1  -6  -7 3542.22 464.051   5
  -1   6  -7 2556.03 338.080   2
   1  -6  -6 1756.71 333.869   5
  -1  -6  -6 1837.21 318.690   5
  -1  -6  -5 3321.06 422.567   5
   1  -6  -5 3034.82 432.657   5
   1  -6  -4 2071.77 342.748   5
  -1  -6  -4 2147.50 338.522   5
   1  -6  -3 1793.64 312.574   5
  -1  -6  -3 1588.64 299.461   5
   1  -6  -2 54.3455 102.045   5
  -1  -6  -2 209.391 125.533   5
   1  -6  -1 396.900 173.471   5
  -1  -6  -1 31.1690 93.0871   5
   1  -6   0 360.238 164.712   5
  -1  -6   0 304.020 153.114   5
   1  -6   1 371.383 160.445   5
  -1  -6   1 276.249 121.856   5
  -1  -6   2 231.413 132.895   5
   1  -6   2 358.398 166.392   5
   1  -6   3 1144.43 244.827   5
  -1  -6   3 1139.30 240.183   5
   1  -6   4 1812.79 317.960   5
  -1  -6   4 2334.78 328.774   5
  -1  -6   5 3316.89 397.698   5
   1  -6   5 2760.42 364.428   5
   1  -6   6 1598.95 291.727   5
  -1  -6   6 1925.63 309.011   5
  -1  -6   7 2890.28 364.378   5
   1  -6   7 3270.38 397.633   5
   1  -6   8 1876.48 313.242   5
  -1  -6   8 1397.08 240.436   5
   1  -6   9 1173.95 259.951   5
  -1  -6   9 1131.92 216.437   5
  -1  -6  10 227.617 133.376   3
   1  -6  10 256.970 153.662   5
  -1  -6  10 453.115 134.645   5
  -1  -6  11 149.178 120.291   3
   1  -6  11-13.9931 113.432   3
  -1  -6  11 165.970 103.182   5
   1  -6  11 87.2716 110.701   5
   1  -6  12-107.131 104.707   3
  -1  -6  12 231.726 146.967   3
   1  -6  12 222.764 128.860   5
  -1  -6  13 236.586 124.473   3
   1  -6  13 268.677 147.295   3
   1  -6  13 156.991 108.683   5
   1  -6  14 246.453 109.341   5
  -1  -6  14 196.805 159.958   3
   1  -6  14-4.60887 134.032   3
   1  -6  15 480.935 207.412   3
  -1  -6  15 495.038 205.870   3
   1  -6  16 543.405 183.789   3
  -1  -6  16 737.386 204.666   3
   1  -6  17 1459.22 309.895   3
   1  -7  -9 167.715 151.820   5
   1  -7  -8 1263.95 275.026   5
  -1  -7  -8 424.101 213.318   5
   1  -7  -7 42.5514 112.398   5
  -1  -7  -7 257.077 139.051   5
   1  -7  -6 930.979 273.512   5
  -1  -7  -6 1166.65 258.591   5
  -1  -7  -5 917.957 260.840   5
   1  -7  -5 402.435 197.481   5
   1  -7  -4 772.528 256.825   5
  -1  -7  -4 824.933 233.963   5
   1  -7  -3 261.234 166.676   5
  -1  -7  -3 606.879 209.550   5
   1  -7  -2 1341.23 305.062   5
  -1  -7  -2 905.136 264.369   5
   1  -7  -1 375.210 198.159   5
  -1  -7  -1 254.071 155.807   5
  -1  -7   0 1746.99 343.048   5
   1  -7   0 1486.02 316.298   5
   1  -7   1 234.258 155.978   5
  -1  -7   1 376.391 180.575   5
   1  -7   2 1012.61 266.274   5
  -1  -7   2 1209.44 275.901   5
   1  -7   3 397.350 169.633   5
  -1  -7   3 268.555 137.145   5
   1  -7   4 894.828 234.788   5
  -1  -7   4 799.825 257.109   5
   1  -7   5 655.294 197.101   5
  -1  -7   5 681.698 216.818   5
   1  -7   6 646.279 202.702   5
  -1  -7   6 811.758 214.406   5
  -1  -7   7 395.904 167.575   5
   1  -7   7 356.154 166.201   5
   1  -7   8 350.247 154.625   5
  -1  -7   8 595.042 184.086   5
  -1  -7   9 40.2371 115.563   5
   1  -7   9 76.9661 129.821   5
   1  -7  10 652.330 226.790   5
  -1  -7  10 753.663 254.836   3
   1  -7  11 349.600 183.864   5
   1  -7  11 184.174 125.080   3
   1  -7  12 621.184 205.314   5
   1  -7  12 130.455 135.455   3
   1  -7  13 135.254 129.443   3
  -2   0 -27 139.878 109.291   6
  -2   0 -26 3574.00 386.074   6
   2   0 -26 3867.89 720.737   2
   2   0 -25 285.045 224.521   2
  -2   0 -25-11.0673 78.0068   6
  -2   0 -24 8083.61 567.999   6
   2   0 -24 8366.55 978.162   2
  -2   0 -23 188.770 116.612   6
   2   0 -23-83.6474 133.900   2
   2   0 -22 6072.21 795.575   2
  -2   0 -22 5936.36 469.498   6
   2   0 -21 217.048 200.152   2
  -2   0 -21-60.7342 95.6328   6
  -2   0 -20 3355.62 343.976   6
   2   0 -20 4040.66 273.205   6
   2   0 -20 4005.03 603.440   2
  -2   0 -19-10.3559 68.0835   6
   2   0 -19 91.2228 166.865   2
   2   0 -19 32.6206 59.4429   6
  -2   0 -18 1044.61 199.467   6
   2   0 -18 972.677 129.769   6
   2   0 -18 834.681 255.509   2
  -2   0 -17 80.5884 83.0643   1
  -2   0 -17-25.5941 79.1880   6
   2   0 -17-8.00653 38.8904   6
   2   0 -17 160.015 127.105   2
   2   0 -16 7432.86 333.708   6
  -2   0 -16 7013.45 444.405   6
   2   0 -16 6206.10 665.589   2
  -2   0 -16 6509.92 402.277   1
  -2   0 -16 5441.00 316.553   3
  -2   0 -15 32.0778 59.5008   6
   2   0 -15-2.00624 108.968   2
   2   0 -15 27.2312 48.7100   6
  -2   0 -14 9045.93 483.671   6
   2   0 -14 8256.10 723.603   2
   2   0 -14 8692.31 335.680   6
  -2   0 -13-9.80591 32.1160   3
   2   0 -13 23.7306 12.5368   5
  -2   0 -13 85.5009 73.9548   6
  -2   0 -13 24.5498 28.0635   4
   2   0 -13 77.0009 126.423   2
   2   0 -12 31662.3 1373.15   2
  -2   0 -12 33291.5 948.325   6
   2   0 -12 29441.3 522.255   5
  -2   0 -12 31584.3 731.097   3
  -2   0 -12 28633.5 790.266   4
  -2   0 -11 9.45189 24.2276   3
   2   0 -11 18.2732 14.7659   5
  -2   0 -11 35.4571 59.3067   6
  -2   0 -11 18.6457 25.4873   4
   2   0 -10 10595.7 706.304   2
  -2   0 -10 10894.6 472.725   6
   2   0 -10 10145.5 226.412   5
  -2   0 -10 8927.55 349.051   4
  -2   0 -10 10161.6 324.834   3
  -2   0  -9-6.30633 20.8391   3
   2   0  -9-13.5701 49.2488   2
   2   0  -9 4.47859 11.9162   5
  -2   0  -9-13.2431 16.8262   4
  -2   0  -9-20.7471 41.7186   6
   2   0  -8 8299.46 566.882   2
  -2   0  -8 7961.56 377.854   6
  -2   0  -8 7257.69 261.843   4
   2   0  -8 7863.89 282.721   6
   2   0  -8 7872.50 199.967   5
   2   0  -7 10.0795 13.7877   5
   2   0  -7-6.53739 50.5718   2
  -2   0  -7 1.10514 12.0028   4
   2   0  -7 21.6185 25.8634   6
  -2   0  -7-12.6925 34.9311   6
   2   0  -6 5531.28 194.495   6
  -2   0  -6 6043.05 297.460   6
   2   0  -6 5885.85 420.323   2
   2   0  -5-22.7213 27.4191   3
   2   0  -5-2.46851 39.9584   2
   2   0  -5 27.1014 21.9648   6
  -2   0  -5 30.3236 38.4582   6
   2   0  -4 6499.66 207.042   6
  -2   0  -4 6826.82 294.553   6
   2   0  -4 7097.08 270.360   3
   2   0  -3 1.81255 16.0341   6
  -2   0  -3 4.90779 26.1791   6
   2   0  -3 21.7022 27.6783   3
  -2   0  -2 35046.5 597.922   3
   2   0  -2 33772.3 688.694   6
  -2   0  -2 35782.5 763.115   6
   2   0  -2 35920.7 714.180   3
  -2   0  -1-6.76238 14.8603   3
   2   0  -1 7.38521 16.0659   3
  -2   0  -1 0.07955 23.2559   6
   2   0  -1-4.83374 18.5063   6
   2   0   0 48641.0 871.106   3
   2   0   0 47057.5 941.750   6
  -2   0   0 48796.7 937.995   6
  -2   0   0 47546.8 956.512   4
  -2   0   0 50322.6 864.969   3
  -2   0   1 3.67382 18.9389   3
  -2   0   1 4.06044 18.3772   5
   2   0   1-10.0993 26.8790   6
  -2   0   1 15.2012 21.5521   6
  -2   0   1 10.9272 21.8150   4
  -2   0   2 38205.7 757.198   6
  -2   0   2 41564.0 894.870   4
  -2   0   2 37377.6 762.950   5
  -2   0   2 38699.4 770.334   3
  -2   0   3-23.0551 21.1389   3
  -2   0   3-0.82940 15.9590   5
  -2   0   3-10.8938 22.7098   4
  -2   0   3 50.2172 45.8932   2
  -2   0   3 34.6467 32.4850   6
  -2   0   4 6179.72 225.933   6
  -2   0   4 6127.26 255.696   3
  -2   0   4 6565.51 330.819   4
  -2   0   4 6811.99 419.331   2
  -2   0   4 6435.70 218.569   5
  -2   0   5 11.1391 27.1767   4
  -2   0   5 8.46163 20.5253   5
  -2   0   5 0.76036 36.4055   2
  -2   0   6 6436.61 228.817   5
  -2   0   6 7892.01 408.696   4
  -2   0   6 6490.39 430.566   2
  -2   0   7 39.6252 23.3422   5
  -2   0   7-7.60825 40.1357   4
  -2   0   7 20.2679 40.6330   2
  -2   0   8 7260.85 476.329   2
  -2   0   8 8669.17 473.497   4
  -2   0   9 11.9542 67.9278   4
  -2   0   9 57.1254 52.6612   2
  -2   0  10 15630.8 713.802   4
  -2   0  11-28.9036 70.2332   4
  -2   0  11-13.7076 46.1535   1
  -2   0  12 36539.5 1081.78   1
  -2   0  13 48.8939 59.5947   1
  -2   0  14 11507.6 612.781   1
  -2   0  15-9.32037 71.3468   1
  -2   0  16 6658.89 497.150   1
  -2   0  17-79.2621 97.3177   1
  -2   0  18 1508.97 250.325   1
  -2  -1 -26 983.282 204.670   6
  -2   1 -26 852.353 202.965   6
   2  -1 -26 985.384 382.826   2
   2   1 -25 1949.56 474.947   2
  -2  -1 -25 1772.10 272.205   6
  -2   1 -25 1514.77 250.727   6
   2  -1 -25 2019.49 519.037   2
   2   1 -24 1583.65 429.436   2
   2  -1 -24 1143.99 385.017   2
  -2  -1 -24 2027.60 290.602   6
  -2   1 -24 1506.43 261.767   6
  -2  -1 -23 1320.23 228.676   6
  -2   1 -23 1698.25 275.131   6
   2  -1 -23 1292.65 366.907   2
   2   1 -23 1237.86 318.398   2
  -2   1 -22 875.024 200.108   6
  -2  -1 -22 875.517 187.842   6
   2  -1 -22 695.730 294.348   2
   2   1 -22 797.639 156.726   6
   2   1 -22 866.957 299.442   2
  -2   1 -21 7623.41 540.709   6
   2   1 -21 8741.00 898.974   2
   2   1 -21 8647.44 462.461   6
   2  -1 -21 7379.64 866.310   2
  -2  -1 -21 8557.92 543.799   6
   2  -1 -20 4647.83 669.268   2
  -2   1 -20 5870.89 459.175   6
   2   1 -20 6039.93 727.111   2
  -2  -1 -20 5674.44 438.001   6
   2   1 -20 5331.52 351.525   6
  -2  -1 -19 5596.70 417.982   6
   2   1 -19 5817.83 688.981   2
   2   1 -19 5098.90 331.447   6
  -2   1 -19 5192.36 428.356   6
   2  -1 -19 4267.61 609.605   2
   2  -1 -19 4447.03 276.082   5
   2  -1 -18 146.619 132.121   2
   2  -1 -18 298.281 82.6473   5
  -2  -1 -18 306.277 112.458   6
   2  -1 -18 298.336 56.6935   6
  -2   1 -18 283.952 124.006   6
   2   1 -18 334.233 217.057   2
  -2  -1 -17 12093.5 583.359   6
   2  -1 -17 9645.53 861.248   2
   2   1 -17 12080.1 946.462   2
   2  -1 -17 10632.0 450.765   5
   2  -1 -17 10452.8 323.204   6
  -2   1 -17 12631.4 639.486   6
   2  -1 -16 12396.4 493.838   5
  -2   1 -16 11803.3 595.633   4
   2  -1 -16 11786.0 333.132   6
  -2   1 -16 13501.2 651.907   6
  -2  -1 -16 13208.7 599.890   6
   2   1 -16 13633.1 974.741   2
   2  -1 -16 10239.2 857.156   2
   2  -1 -15 5573.10 319.598   5
  -2   1 -15 5725.61 394.716   4
   2  -1 -15 5060.94 574.257   2
  -2  -1 -15 6708.11 403.663   6
   2   1 -15 6774.47 674.224   2
   2  -1 -15 5471.05 198.352   6
  -2   1 -15 6179.65 429.420   6
   2  -1 -14 5493.43 301.165   5
  -2   1 -14 6135.03 296.078   3
  -2  -1 -14 5856.32 360.394   6
   2  -1 -14 5439.18 167.340   6
  -2   1 -14 5247.05 360.987   4
  -2   1 -14 6214.78 414.356   6
   2   1 -14 6965.92 655.497   2
   2  -1 -14 5342.60 553.776   2
  -2   1 -13 9309.64 347.168   3
   2  -1 -13 8094.39 194.404   6
   2   1 -13 9495.59 747.461   2
  -2   1 -13 7811.18 429.759   4
  -2  -1 -13 9010.61 433.439   6
   2  -1 -13 7558.19 641.602   2
  -2   1 -13 9428.05 496.630   6
   2  -1 -13 8488.73 372.958   5
  -2  -1 -12 14300.8 547.810   6
   2  -1 -12 14072.9 830.763   2
   2  -1 -12 13124.7 254.737   6
   2   1 -12 15640.1 946.467   2
  -2   1 -12 15492.7 636.849   6
   2  -1 -12 14158.1 489.229   5
  -2   1 -11 5783.87 377.875   6
   2  -1 -11 4639.49 453.190   2
   2   1 -11 5920.70 555.198   2
  -2  -1 -11 5658.67 324.902   6
  -2   1 -11 5558.61 305.572   5
  -2   1 -11 3890.12 153.843   1
   2  -1 -11 5405.54 287.554   5
   2  -1 -10 8808.22 422.252   1
   2   1 -10 8909.13 677.669   2
   2  -1 -10 8325.19 357.056   5
  -2  -1 -10 7999.03 387.032   6
   2  -1 -10 8297.55 577.699   2
  -2   1 -10 8361.38 377.071   5
  -2   1 -10 8388.63 445.887   6
  -2   1  -9 34822.2 965.637   6
  -2   1  -9 32560.3 838.931   5
  -2  -1  -9 32172.5 864.971   6
   2  -1  -9 32538.4 1147.02   2
   2   1  -9 34984.7 1367.28   2
   2  -1  -9 33743.9 910.078   1
   2  -1  -9 32362.1 806.592   5
   2   1  -8 42624.9 1100.65   6
  -2   1  -8 44548.0 1108.58   6
   2  -1  -8 43369.9 1056.22   1
   2  -1  -8 42380.1 1280.21   2
  -2  -1  -8 42575.0 1016.02   6
  -2   1  -8 41618.4 983.821   5
   2  -1  -8 43108.4 961.180   5
  -2   1  -7 37186.5 987.299   6
   2   1  -7 37571.8 978.242   6
   2  -1  -7 39134.4 951.349   1
   2  -1  -7 37875.9 1108.97   2
  -2  -1  -7 36528.2 908.904   6
  -2   1  -7 36996.6 888.991   5
   2  -1  -7 37132.7 855.375   5
  -2  -1  -6 5374.31 279.057   6
   2  -1  -6 5013.71 329.214   2
   2   1  -6 5412.26 296.300   6
   2  -1  -6 5314.97 250.808   5
   2  -1  -6 5615.51 297.353   1
  -2   1  -6 5963.26 320.655   6
  -2   1  -5 28181.6 558.172   1
   2  -1  -5 30066.2 762.444   1
   2  -1  -5 28136.1 687.572   5
   2   1  -5 29384.3 758.505   6
  -2   1  -5 30772.9 798.175   6
  -2  -1  -5 28941.1 732.484   6
  -2   1  -4 37141.8 883.715   6
  -2   1  -4 35249.2 686.714   1
   2   1  -4 35669.8 850.704   6
  -2  -1  -4 35383.4 837.092   6
   2  -1  -4 36985.3 860.215   1
   2  -1  -4 35876.4 796.861   5
   2   1  -3 39565.2 890.017   6
  -2  -1  -3 39461.2 886.255   6
   2  -1  -3 38014.5 841.570   5
  -2   1  -3 38117.7 756.295   1
   2   1  -3 40293.2 951.656   4
  -2   1  -3 39641.1 897.642   6
   2  -1  -3 39435.7 883.466   1
   2   1  -2 13821.2 441.143   6
   2   1  -2 13428.6 456.823   4
  -2   1  -2 13962.0 374.486   1
  -2   1  -2 13473.7 436.652   6
   2  -1  -2 14262.9 434.665   1
  -2  -1  -2 13358.9 440.163   6
   2  -1  -2 13440.7 419.232   5
  -2   1  -1 10222.0 348.070   6
   2  -1  -1 10759.4 356.376   1
   2   1  -1 10443.7 375.494   6
  -2   1  -1 11029.3 338.283   1
   2  -1  -1 10392.6 363.082   5
  -2  -1  -1 10013.2 370.554   6
  -2   1   0 18460.6 474.719   6
  -2   1   0 19112.8 501.157   1
  -2  -1   0 17776.5 518.609   6
   2  -1   0 18793.9 523.466   5
  -2  -1   1 6329.78 276.927   6
  -2   1   1 6509.65 275.168   1
  -2   1   1 6176.01 223.092   6
   2  -1   1 6417.67 278.998   5
  -2  -1   2 11744.3 381.340   3
  -2  -1   2 11156.4 561.203   2
  -2   1   2 11590.3 305.953   6
  -2  -1   2 12345.0 417.281   6
   2  -1   2 12712.3 414.925   5
  -2   1   2 12746.8 422.128   5
  -2  -1   3 41280.8 902.828   3
  -2   1   3 41715.7 938.433   5
  -2   1   3 40812.3 735.775   6
  -2  -1   3 44423.6 1268.50   2
  -2   1   3 43129.9 1041.84   2
  -2  -1   3 41632.5 954.631   6
   2  -1   3 41667.0 932.144   5
  -2   1   4 44627.4 984.699   5
  -2   1   4 44061.2 1081.69   2
  -2  -1   4 45872.7 1343.14   2
  -2   1   4 42640.9 711.768   6
  -2  -1   4 43557.5 952.224   3
  -2   1   5 22252.3 637.079   5
  -2  -1   5 24426.5 942.153   2
  -2  -1   5 23576.0 618.525   3
  -2   1   5 22638.2 707.010   2
  -2   1   6 5151.45 292.961   5
  -2  -1   6 5305.54 435.480   2
  -2   1   6 5681.59 334.380   2
  -2  -1   6 5593.75 285.922   3
  -2   1   7 43748.9 1102.90   5
  -2  -1   7 46674.1 1491.89   2
  -2   1   7 50923.8 1223.28   2
  -2  -1   7 46017.0 1081.36   3
  -2   1   7 49376.2 1299.87   4
  -2   1   8 45080.5 1130.71   5
  -2  -1   8 46878.4 1124.64   3
  -2  -1   8 49063.3 1523.02   2
  -2   1   9 31408.3 885.071   5
  -2  -1   9 34864.0 1264.22   2
  -2   1   9 34833.5 1101.16   4
  -2  -1   9 33216.1 914.409   3
  -2   1  10 11240.8 554.258   1
  -2   1  10 12382.4 632.835   4
   2   1  10 11906.9 541.958   6
  -2  -1  10 11462.6 501.467   3
  -2   1  11 9652.78 537.092   1
  -2   1  11 10755.6 607.148   4
  -2  -1  11 9883.31 474.504   3
  -2   1  12 17533.9 824.596   4
  -2   1  12 15702.1 733.784   1
  -2  -1  12 16220.6 654.005   3
  -2  -1  12 17584.0 654.831   1
  -2   1  13 8133.41 537.646   1
  -2  -1  13 8053.14 449.574   1
  -2   1  13 9039.65 599.938   4
  -2   1  14 5292.42 448.706   1
  -2   1  14 6611.06 532.653   4
  -2  -1  14 6053.37 407.182   1
  -2   1  15 10206.8 661.719   1
  -2   1  15 12013.3 749.926   4
  -2  -1  15 11148.7 587.328   1
  -2  -1  16 16327.8 750.288   1
  -2   1  16 17722.9 957.240   4
  -2  -1  17 13730.3 708.329   1
  -2   1  17 14739.9 901.882   4
  -2  -1  18 121.302 75.6598   1
  -2   1  18 75.4864 96.4008   4
  -2  -1  19 8235.40 597.597   1
  -2  -1  20 7443.66 601.715   1
  -2  -2 -25 209.386 134.012   6
  -2   2 -25 296.858 127.891   6
   2   2 -24 104.980 142.945   2
  -2  -2 -24 242.939 125.707   6
  -2   2 -24 203.449 102.818   6
   2   2 -23 2779.60 512.268   2
  -2   2 -23 2667.65 343.059   6
   2   2 -23 2195.45 248.137   6
  -2  -2 -23 2832.17 331.468   6
   2  -2 -23 2033.36 436.335   2
   2   2 -22 870.002 305.720   2
  -2  -2 -22 810.646 178.073   6
  -2   2 -22 883.841 202.475   6
   2  -2 -22 1025.94 338.849   2
  -2   2 -21 1612.15 254.589   6
   2   2 -21 2459.47 454.047   2
   2  -2 -21 2061.63 446.984   2
  -2  -2 -21 1894.89 263.906   6
   2   2 -20 1670.72 376.670   2
   2  -2 -20 2148.00 416.535   2
  -2  -2 -20 1891.53 249.527   6
  -2   2 -20 2081.95 291.402   6
   2  -2 -19 6327.37 480.514   5
   2  -2 -19 7364.82 770.750   2
  -2   2 -19 6804.04 518.006   6
  -2  -2 -19 6825.72 452.298   6
   2   2 -19 7678.02 773.412   2
   2  -2 -18 4586.29 413.933   5
  -2  -2 -18 4321.56 354.942   6
   2   2 -18 5370.63 636.612   2
  -2   2 -18 4878.50 424.235   6
   2  -2 -18 5416.92 625.697   2
   2   2 -17 1428.85 326.787   2
  -2   2 -17 1342.66 228.320   6
   2  -2 -17 1672.62 333.099   2
   2  -2 -17 1590.69 244.268   5
  -2  -2 -17 1191.43 188.898   6
   2  -2 -16 3665.15 359.458   5
   2   2 -16 5118.33 584.980   2
   2  -2 -16 5117.53 559.942   2
  -2  -2 -16 4120.56 322.751   6
  -2   2 -16 3989.12 363.732   6
  -2  -2 -15 5626.51 368.274   6
   2  -2 -15 6086.55 575.879   2
  -2   2 -15 5407.98 419.556   6
   2   2 -15 5891.11 622.235   2
   2  -2 -15 5156.00 424.521   5
   2  -2 -14 3863.11 358.600   5
   2  -2 -14 4537.26 467.675   2
   2   2 -14 4765.48 552.985   2
  -2   2 -14 4087.03 350.486   6
  -2  -2 -14 4199.12 313.765   6
   2   2 -13 190.254 135.317   2
   2  -2 -13 124.545 72.2094   5
  -2  -2 -13 71.8758 65.3590   6
  -2   2 -13 187.864 79.3221   6
   2  -2 -13 198.151 99.8225   2
   2  -2 -12 1276.23 221.313   2
   2   2 -12 1908.13 335.143   2
   2  -2 -12 1127.22 194.209   5
  -2  -2 -12 1499.13 181.940   6
  -2   2 -12 1304.50 190.055   6
   2  -2 -11 9067.24 523.012   5
  -2  -2 -11 9486.65 449.652   6
   2  -2 -11 10344.1 589.770   2
  -2   2 -11 9252.38 499.325   6
   2  -2 -10 4562.06 356.355   5
   2   2 -10 5819.35 562.170   2
  -2  -2 -10 4606.71 297.232   6
   2  -2 -10 4811.50 370.836   2
   2  -2  -9 5084.02 369.883   5
   2  -2  -9 5662.26 368.193   2
  -2  -2  -9 5274.91 318.113   6
  -2   2  -9 5427.47 310.731   5
   2   2  -8 8568.67 506.662   6
   2  -2  -8 8182.90 412.857   2
  -2  -2  -8 8250.75 394.745   6
  -2   2  -8 8568.35 393.482   5
   2  -2  -8 8851.17 474.347   5
   2   2  -7 19427.0 762.179   6
  -2  -2  -7 18447.5 616.557   6
   2  -2  -7 17588.6 671.764   1
  -2   2  -7 18326.8 604.889   5
   2  -2  -7 19988.2 728.394   5
  -2  -2  -6 11022.5 456.095   6
   2   2  -6 12072.2 566.458   6
   2  -2  -6 11171.6 502.756   1
  -2   2  -6 11453.4 454.984   5
   2  -2  -6 11816.5 530.563   5
   2   2  -5 8438.74 448.344   6
   2  -2  -5 7326.66 389.389   1
  -2  -2  -5 7460.84 367.371   6
   2  -2  -5 7857.65 416.562   5
   2  -2  -4 11125.1 474.938   1
  -2  -2  -4 11373.2 458.216   6
   2   2  -4 11689.0 518.200   6
   2  -2  -4 11849.6 507.853   5
   2   2  -3 12583.5 526.546   6
  -2   2  -3 13537.3 479.979   1
  -2  -2  -3 12744.3 481.491   6
   2  -2  -3 12144.8 488.277   1
   2  -2  -3 12807.4 519.146   5
  -2  -2  -2 9253.21 401.792   6
   2  -2  -2 9095.17 396.268   1
  -2   2  -2 9884.58 410.820   1
   2  -2  -2 9321.04 427.106   5
  -2  -2  -1 1543.37 160.672   6
   2  -2  -1 1300.13 139.382   1
  -2   2  -1 1468.66 160.958   1
   2  -2  -1 1572.29 166.687   5
  -2   2   0 603.534 105.308   1
  -2  -2   0 757.737 117.683   6
   2  -2   0 573.758 90.3216   1
   2  -2   0 792.508 122.729   5
  -2  -2   1 1644.74 180.692   6
  -2  -2   1 1556.08 221.135   2
   2  -2   1 1740.95 150.890   1
  -2   2   1 1780.68 182.075   1
   2  -2   1 1933.08 184.227   5
  -2  -2   2 7062.56 383.130   6
  -2  -2   2 7096.52 488.030   2
   2  -2   2 7064.83 295.223   1
   2  -2   2 7862.69 374.887   5
  -2   2   2 7395.69 381.612   1
  -2   2   3 14976.7 589.967   5
   2  -2   3 14918.2 424.778   1
  -2   2   3 16048.2 599.617   1
  -2  -2   3 14839.4 737.219   2
  -2   2   3 13452.1 411.282   2
   2  -2   3 15386.2 554.549   5
  -2   2   4 8908.02 458.034   5
  -2  -2   4 10494.6 405.058   5
   2  -2   4 9656.53 303.291   1
  -2  -2   4 9475.27 602.909   2
   2  -2   4 10558.3 445.464   5
  -2   2   4 9576.61 316.642   2
  -2  -2   5 8306.49 407.369   3
  -2  -2   5 9002.49 368.676   5
  -2   2   5 9315.48 276.561   6
  -2  -2   5 9018.35 604.188   2
   2  -2   5 9020.05 419.255   5
  -2  -2   6 12062.4 506.305   3
  -2  -2   6 11911.8 413.032   5
   2  -2   6 13288.6 512.269   5
  -2   2   6 11309.4 268.402   6
  -2  -2   6 12076.9 722.890   2
   2  -2   7 19397.8 515.770   3
  -2  -2   7 18620.1 516.789   5
  -2  -2   7 21069.9 993.447   2
   2   2   7 20994.3 706.085   6
  -2  -2   7 19783.6 684.632   3
   2  -2   7 20138.2 668.988   5
  -2  -2   8 9274.14 453.769   3
   2   2   8 9930.10 479.161   6
   2  -2   8 9025.35 322.685   3
  -2  -2   8 9609.90 292.832   5
   2  -2   9 4422.98 222.570   3
  -2  -2   9 4994.55 155.946   5
  -2  -2   9 4699.81 324.519   3
   2   2  10 6772.69 328.197   4
   2  -2  10 6567.39 285.209   3
  -2  -2  10 7257.65 420.345   3
   2  -2  11 8978.79 355.699   3
   2   2  11 8238.69 383.469   4
  -2  -2  11 9186.91 487.783   3
  -2  -2  12 1804.38 220.654   3
  -2  -2  12 1867.06 204.525   1
   2   2  12 1890.79 184.671   4
   2  -2  12 1707.51 159.824   3
  -2   2  12 2121.58 297.283   4
  -2  -2  13 936.588 168.572   3
   2   2  13 667.607 117.266   4
  -2   2  13 423.625 142.970   4
  -2  -2  13 611.999 128.627   1
   2   2  14 4159.73 315.155   4
  -2  -2  14 4736.64 347.084   1
  -2   2  14 4228.87 442.996   4
  -2  -2  14 4181.09 362.596   3
  -2   2  15 8689.51 659.526   4
  -2  -2  15 8177.36 474.703   1
  -2  -2  15 8491.80 537.192   3
  -2   2  16 5860.20 557.688   4
  -2  -2  16 4968.42 386.132   1
  -2  -2  16 5131.01 427.293   3
  -2   2  17 2512.95 382.017   4
  -2  -2  17 2911.39 310.461   1
  -2  -2  18 5693.71 444.104   1
  -2   2  18 5811.04 605.045   4
  -2  -2  19 10750.4 642.009   1
  -2   2  19 10897.8 846.157   4
  -2  -2  20 3483.94 374.839   1
  -2   2  20 3842.45 516.238   4
  -2   2  21 1667.21 356.215   4
  -2   2  22 1537.60 351.618   4
  -2  -3 -25 1102.12 273.411   5
  -2  -3 -24 6065.50 564.421   5
  -2  -3 -24 6714.37 512.886   6
  -2  -3 -23 2818.69 336.378   6
  -2  -3 -23 1943.82 320.386   5
  -2   3 -23 2291.80 346.659   6
   2   3 -22 548.940 245.014   2
  -2   3 -22 999.835 333.923   2
  -2  -3 -22 712.899 199.332   5
  -2  -3 -22 793.418 192.335   6
  -2   3 -22 559.964 190.784   6
   2   3 -21 2708.97 486.807   2
  -2  -3 -21 2317.46 335.734   5
  -2  -3 -21 2389.07 294.718   6
  -2   3 -21 3134.38 545.119   2
  -2   3 -21 1805.90 287.430   6
  -2  -3 -20 2303.35 318.411   5
   2  -3 -20 2329.02 354.127   5
  -2   3 -20 2405.04 328.689   6
  -2  -3 -20 2242.66 273.515   6
   2   3 -20 2735.89 485.299   2
  -2  -3 -19 4735.90 388.201   6
   2   3 -19 5116.88 642.956   2
  -2   3 -19 4340.59 436.743   6
   2  -3 -19 5162.53 537.795   2
   2  -3 -19 5333.88 529.991   5
   2   3 -18 416.670 208.539   2
   2  -3 -18 406.357 139.558   5
  -2  -3 -18 361.208 104.108   6
  -2   3 -18 106.181 83.8097   6
   2  -3 -18 134.930 125.177   2
   2   3 -17 1495.62 344.497   2
   2  -3 -17 1261.41 258.458   5
  -2  -3 -17 1303.30 193.661   6
  -2   3 -17 951.198 190.350   6
   2  -3 -17 962.918 208.235   2
   2  -3 -16 6094.84 551.033   5
  -2  -3 -16 5452.46 393.148   6
   2  -3 -16 6173.70 503.136   2
  -2   3 -16 5090.03 444.149   6
   2   3 -16 6443.37 677.737   2
   2  -3 -15 8812.86 659.855   5
  -2  -3 -15 8581.92 486.401   6
   2   3 -15 9324.01 798.610   2
   2  -3 -15 8544.14 567.202   2
   2  -3 -14 4280.58 448.731   5
  -2  -3 -14 4625.71 344.661   6
   2   3 -14 4753.80 560.747   2
   2  -3 -14 4477.28 381.410   2
   2  -3 -13 4404.64 444.249   5
   2  -3 -13 4588.00 363.014   2
  -2  -3 -13 4778.82 346.905   6
   2   3 -13 5521.45 598.759   2
   2  -3 -12 24841.3 1096.18   5
  -2  -3 -12 24474.6 838.872   6
   2  -3 -12 25309.5 840.328   2
   2  -3 -11 6591.86 526.858   5
  -2  -3 -11 7162.68 410.608   6
   2  -3 -11 6692.03 365.843   2
   2  -3 -10 2708.32 330.226   5
   2   3 -10 3583.14 446.465   2
  -2  -3 -10 2633.51 246.138   6
   2  -3  -9 8590.76 576.084   5
  -2  -3  -9 8776.88 449.380   6
   2   3  -9 9772.47 735.298   2
   2  -3  -8 5821.16 470.605   5
   2   3  -8 6020.49 556.672   2
  -2  -3  -8 5807.83 360.809   6
   2  -3  -7 8315.21 544.444   5
  -2  -3  -7 8013.03 422.633   6
   2   3  -7 7207.67 592.246   2
  -2  -3  -6 1986.45 206.432   6
   2  -3  -6 2168.53 272.173   5
  -2  -3  -5 10250.4 488.460   6
   2  -3  -5 10924.6 601.417   5
  -2  -3  -4 14276.0 587.562   6
   2  -3  -4 14620.8 696.786   5
   2  -3  -3 30711.0 1006.36   1
  -2  -3  -3 30772.3 932.881   6
   2  -3  -3 31592.2 1058.66   5
  -2  -3  -2 2880.32 278.357   5
  -2  -3  -2 2681.20 258.010   6
   2  -3  -2 2482.99 275.119   5
   2  -3  -2 2653.65 262.300   1
  -2  -3  -1 31079.0 983.715   5
  -2  -3  -1 31361.0 976.718   6
   2  -3  -1 32106.0 1027.87   5
   2  -3  -1 31531.1 987.687   1
  -2  -3   0 72794.4 1703.97   5
  -2  -3   0 77186.6 1735.04   6
  -2  -3   0 70550.1 1867.63   2
   2  -3   0 71462.9 1725.36   5
   2  -3   0 74425.3 1676.47   1
  -2  -3   1 34281.1 1030.01   5
  -2  -3   1 35024.8 1213.48   2
   2  -3   1 35497.8 994.328   1
   2  -3   1 34058.7 1047.33   5
  -2  -3   2 3178.59 277.103   5
  -2  -3   2 3052.55 350.590   2
   2  -3   2 3463.96 264.957   1
   2  -3   2 3100.24 280.058   5
  -2  -3   3 30127.2 941.286   5
  -2  -3   3 30172.4 1170.35   2
   2  -3   3 31868.8 858.868   1
   2  -3   3 30207.1 954.386   5
  -2  -3   4 15171.5 620.215   5
  -2   3   4 13781.2 511.015   6
  -2  -3   4 14965.2 812.283   2
   2  -3   4 14815.0 508.018   1
   2  -3   4 15296.4 638.962   5
  -2  -3   5 12478.3 548.617   5
   2  -3   5 12684.2 430.733   1
  -2   3   5 13169.3 467.516   6
   2  -3   5 13328.9 594.711   5
  -2  -3   6 1899.74 195.371   5
  -2   3   6 2304.88 166.883   6
   2  -3   6 1995.47 227.556   5
   2  -3   6 2098.59 141.405   1
  -2  -3   7 7980.02 393.785   5
  -2  -3   7 7643.81 467.961   3
   2  -3   7 6686.92 235.835   1
  -2   3   7 7617.49 286.248   6
   2  -3   7 8234.25 460.643   5
  -2  -3   8 6064.94 420.394   3
  -2   3   8 6078.57 232.924   6
   2  -3   8 5976.40 401.902   5
  -2  -3   8 6123.67 324.170   5
  -2  -3   9 11794.2 599.721   3
   2  -3   9 10196.4 465.274   3
  -2   3   9 11113.9 319.511   6
   2  -3   9 11473.5 565.547   5
  -2  -3   9 12057.0 438.683   5
  -2   3  10 2752.03 136.282   6
   2  -3  10 2887.25 280.840   5
  -2  -3  10 2626.23 179.308   5
  -2  -3  10 2832.74 296.681   3
   2  -3  10 2437.45 221.993   3
  -2   3  11 6781.80 220.539   6
   2  -3  11 7484.36 379.122   3
  -2  -3  11 7654.93 288.976   5
  -2  -3  11 7850.10 493.991   3
  -2  -3  12 31808.9 1092.22   3
   2  -3  12 30383.7 881.214   3
   2   3  13 6205.82 415.562   4
   2  -3  13 5993.80 362.493   3
  -2  -3  13 7261.96 503.381   3
  -2  -3  14 5042.64 365.626   1
  -2   3  14 5228.68 541.778   4
   2   3  14 4413.94 359.042   4
   2  -3  14 5331.37 344.636   3
  -2  -3  14 5261.02 441.524   3
  -2   3  15 9373.07 740.286   4
  -2  -3  15 9993.97 534.953   1
   2   3  15 9405.36 544.086   4
   2  -3  15 10156.1 497.291   3
  -2  -3  15 10384.6 644.823   3
  -2  -3  16 7960.14 485.804   1
   2   3  16 7511.58 501.420   4
  -2   3  16 7936.26 695.312   4
  -2  -3  16 8512.32 596.463   3
  -2  -3  17 1812.62 294.674   3
  -2  -3  17 1780.79 238.006   1
   2   3  17 2047.89 270.361   4
  -2   3  17 1725.60 332.777   4
  -2  -3  18 116.362 112.198   3
  -2  -3  18 65.2822 105.526   1
  -2   3  18 65.0934 106.835   4
  -2   3  19 6095.35 659.060   4
  -2  -3  19 6213.06 552.746   3
  -2   3  20 3011.74 473.572   4
  -2   3  21 3706.24 556.667   4
  -2   3  22 903.863 283.819   4
  -2   3  23 3694.97 579.117   4
  -2   3  24 11170.1 1053.88   4
  -2  -4 -22 1799.65 323.251   5
  -2  -4 -22 2072.87 285.633   6
  -2  -4 -21 1899.39 265.785   6
  -2  -4 -21 1691.61 301.370   5
  -2   4 -21 2031.64 345.614   6
  -2   4 -21 2497.51 504.146   2
   2   4 -20-282.633 181.134   2
   2  -4 -20 46.4372 130.595   5
  -2  -4 -20-9.99320 73.4439   5
  -2   4 -20-105.397 152.138   6
  -2  -4 -20 37.8151 93.3000   6
  -2   4 -20 150.960 224.968   2
   2   4 -19 2149.36 421.318   2
   2  -4 -19 3233.15 455.524   5
  -2  -4 -19 1592.06 281.306   5
  -2  -4 -19 1963.08 260.654   6
  -2   4 -19 2704.95 481.702   2
  -2   4 -19 1405.81 274.065   6
   2   4 -18 360.197 226.519   2
   2  -4 -18 753.489 232.650   5
  -2  -4 -18 307.859 147.893   5
  -2   4 -18 251.007 163.966   6
  -2  -4 -18 483.813 125.667   6
  -2   4 -18 667.121 240.303   2
   2  -4 -17 3659.77 484.042   5
  -2  -4 -17 2474.77 343.348   5
   2   4 -17 2817.98 469.413   2
  -2  -4 -17 2503.26 288.844   6
  -2   4 -17 2967.81 458.818   2
   2  -4 -16 3775.80 466.620   5
  -2  -4 -16 3543.54 394.909   5
  -2   4 -16 3146.55 450.635   2
  -2  -4 -16 3329.77 323.066   6
   2   4 -16 3574.06 524.435   2
   2  -4 -15 5047.39 546.709   5
  -2  -4 -15 3533.61 395.595   5
  -2   4 -15 3468.65 462.403   2
   2   4 -15 3928.47 531.216   2
  -2  -4 -15 3679.38 337.629   6
   2   4 -14 3.39956 107.613   2
   2  -4 -14 22.2927 89.7969   5
  -2  -4 -14 187.707 114.205   5
  -2  -4 -14 59.2148 86.3761   6
  -2   4 -14-113.586 113.894   2
  -2  -4 -13 2039.80 289.739   5
   2   4 -13 2467.70 404.501   2
  -2   4 -13 2299.14 346.731   2
   2  -4 -13 2707.65 381.264   5
  -2  -4 -13 2831.19 284.777   6
  -2  -4 -12 77.4903 79.9005   5
   2   4 -12 164.158 130.364   2
   2  -4 -12 90.6893 93.8545   5
  -2  -4 -12 102.868 75.7748   6
  -2   4 -12 177.986 101.116   2
   2   4 -11 2027.52 373.154   2
  -2   4 -11 1916.04 290.011   2
   2  -4 -11 1970.80 319.558   5
  -2  -4 -11 1668.75 217.204   6
  -2  -4 -11 1563.36 249.048   5
   2  -4 -10 4158.49 455.779   5
  -2  -4 -10 3333.90 361.680   5
  -2   4 -10 3660.88 374.001   2
   2   4 -10 3650.39 466.966   2
  -2  -4 -10 3260.61 304.287   6
   2  -4  -9 5575.70 520.612   5
  -2  -4  -9 5277.06 448.273   5
  -2   4  -9 5339.32 435.155   2
  -2  -4  -9 5711.72 400.216   6
   2   4  -9 5706.26 579.352   2
   2  -4  -8 1108.53 222.010   5
  -2  -4  -8 1284.03 197.697   6
  -2   4  -8 1245.61 211.877   2
  -2  -4  -8 1365.47 232.374   5
  -2  -4  -7 1998.84 271.343   5
   2  -4  -7 1861.97 293.060   5
  -2   4  -7 2377.09 265.532   2
  -2  -4  -7 2107.76 250.527   6
   2  -4  -6-114.795 130.483   5
  -2  -4  -6 41.4294 79.3168   5
  -2  -4  -6 51.9909 71.3197   6
  -2  -4  -5 8158.36 544.054   5
  -2  -4  -5 8467.46 508.324   6
   2  -4  -5 9630.64 646.652   5
  -2  -4  -4 1900.90 262.444   5
   2  -4  -4 1798.30 277.769   5
  -2   4  -4 1574.27 185.564   2
  -2  -4  -4 1761.76 234.949   6
  -2  -4  -3 5164.66 421.733   5
  -2   4  -3 4468.04 294.956   2
  -2  -4  -3 4984.59 386.013   6
   2  -4  -3 5238.43 465.938   5
  -2  -4  -2 1851.05 260.244   5
  -2   4  -2 2029.89 180.209   2
  -2  -4  -2 1973.01 279.270   2
   2  -4  -2 2362.18 307.974   5
  -2  -4  -1 6374.89 467.594   5
  -2   4  -1 5069.17 259.720   2
   2  -4  -1 6529.31 496.554   5
   2  -4   0 9.20493 64.1445   5
  -2  -4   0 38.2242 74.5742   5
   2  -4   1 6862.14 501.277   1
  -2  -4   1 6549.68 465.772   5
   2  -4   1 6057.63 468.332   5
   2  -4   2 2142.38 281.501   1
  -2  -4   2 2117.78 263.331   5
   2  -4   2 2038.71 264.174   5
   2  -4   3 4590.51 383.419   1
  -2  -4   3 5303.26 411.651   5
   2  -4   3 4500.96 395.853   5
  -2  -4   4 2204.83 265.636   5
   2  -4   4 1866.98 252.024   5
   2  -4   4 2006.55 236.903   1
  -2  -4   5 9286.88 534.174   5
   2  -4   5 9273.03 479.605   1
   2  -4   5 9061.86 551.934   5
   2  -4   6-10.3198 66.4476   5
  -2   4   6 54.6674 46.2563   6
  -2  -4   6-40.5671 64.3216   5
   2  -4   6 3.73313 57.0954   1
  -2  -4   7 2231.13 246.133   5
  -2   4   7 2158.10 197.165   6
   2  -4   7 1686.84 156.828   1
   2  -4   7 1754.78 248.910   5
   2  -4   8 849.828 98.4498   1
   2  -4   8 1417.85 228.570   5
  -2  -4   8 1180.69 208.787   3
  -2   4   8 1387.92 152.004   6
  -2  -4   8 1640.90 200.426   5
  -2  -4   9 5593.74 472.572   3
  -2   4   9 6426.43 313.356   6
   2  -4   9 6489.45 481.646   5
  -2  -4   9 6599.14 396.556   5
  -2  -4  10 3975.03 402.198   3
   2  -4  10 3405.31 315.473   3
   2  -4  10 4898.70 418.806   5
  -2  -4  10 4774.33 318.521   5
  -2  -4  11 1657.76 263.414   3
   2  -4  11 1498.22 212.630   3
   2  -4  11 2093.45 278.591   5
  -2  -4  11 1846.98 189.141   5
   2  -4  12 118.186 80.4965   5
  -2  -4  12 65.1351 54.0993   5
  -2  -4  12 85.8844 126.198   3
   2  -4  12 70.1700 71.8548   3
   2  -4  13 1982.40 255.845   3
  -2  -4  13 3447.63 389.743   3
   2  -4  14 192.789 108.999   3
  -2  -4  14 147.473 117.567   3
  -2  -4  15 4060.00 344.557   1
   2  -4  15 4520.51 369.655   3
  -2  -4  15 5559.38 510.989   3
  -2  -4  16 3095.05 305.523   1
   2   4  16 3216.53 360.507   4
   2  -4  16 3420.38 332.134   3
  -2  -4  16 3912.10 453.743   3
  -2   4  17 3918.12 536.813   4
   2  -4  17 2842.79 321.285   3
  -2  -4  17 4374.52 472.781   3
   2  -4  18 712.414 175.263   3
  -2  -4  18 552.311 194.355   3
  -2   4  18 335.994 168.067   4
  -2  -4  19 2831.28 402.288   3
  -2   4  19 2517.52 448.042   4
  -2  -4  20 214.514 193.076   3
  -2   4  20-16.3117 119.348   4
  -2  -4  21 3001.70 447.880   3
  -2   4  21 3043.71 517.438   4
  -2   4  22 2591.85 492.573   4
   2  -5 -20 334.263 194.908   5
  -2  -5 -20 209.619 106.170   6
  -2   5 -20-61.5945 122.694   2
  -2  -5 -19 1148.04 253.796   5
   2  -5 -19 1407.12 350.237   5
  -2  -5 -19 1012.08 214.550   6
  -2   5 -19 789.784 274.384   2
   2  -5 -18 10464.4 862.725   5
  -2  -5 -18 7527.30 656.960   5
  -2   5 -18 8247.07 819.814   2
   2   5 -18 9057.44 890.891   2
  -2  -5 -18 8104.51 553.374   6
   2   5 -17 414.981 193.747   2
   2  -5 -17 552.366 231.839   5
  -2  -5 -17 299.736 164.359   5
  -2  -5 -17 322.244 133.273   6
  -2   5 -17-33.7171 97.1020   2
   2   5 -16 889.954 278.271   2
   2  -5 -16 1064.04 280.582   5
  -2  -5 -16 835.010 213.975   5
  -2   5 -16 526.641 214.933   2
  -2  -5 -16 901.705 196.818   6
   2   5 -15 1368.32 333.255   2
   2  -5 -15 1766.34 334.180   5
  -2  -5 -15 1145.39 248.418   5
  -2  -5 -15 1493.12 242.919   6
  -2   5 -15 900.565 234.298   2
  -2  -5 -14 6890.53 598.645   5
  -2   5 -14 6981.57 639.935   2
   2   5 -14 8092.40 770.888   2
  -2  -5 -14 8085.96 539.886   6
   2   5 -13 163.587 108.978   2
   2  -5 -13 13.4560 109.131   5
  -2  -5 -13 127.937 96.8893   5
  -2  -5 -13 212.230 101.888   6
  -2   5 -13 153.535 126.933   2
   2  -5 -12 2238.23 381.537   5
  -2  -5 -12 2197.71 282.931   6
  -2  -5 -12 1559.45 279.562   5
   2   5 -12 2517.44 448.134   2
  -2   5 -12 1865.60 316.020   2
  -2  -5 -11 179.306 109.590   5
   2  -5 -11 578.290 187.237   5
  -2  -5 -11 462.509 148.965   6
  -2   5 -11 390.465 147.800   2
  -2  -5 -10 11810.6 756.389   5
  -2  -5 -10 12661.6 686.657   6
  -2   5 -10 11198.7 714.896   2
   2  -5  -9 2547.55 381.412   5
  -2  -5  -9 2205.02 317.937   5
  -2  -5  -9 1865.23 263.392   6
  -2   5  -9 1877.80 277.178   2
   2  -5  -8 1023.67 246.091   5
  -2  -5  -8 455.519 151.012   5
  -2  -5  -8 821.880 186.488   6
  -2   5  -8 755.789 165.220   2
   2  -5  -7 987.964 232.155   5
  -2  -5  -7 925.497 219.073   5
  -2   5  -7 683.385 160.234   2
  -2  -5  -6 25463.6 1110.42   5
  -2   5  -6 22486.9 893.793   2
  -2  -5  -5 3226.68 377.016   5
   2  -5  -5 3144.57 416.165   5
   2  -5  -4 1497.51 280.960   5
  -2  -5  -4 1736.26 283.691   5
  -2  -5  -3 2089.64 314.258   5
   2  -5  -3 2100.44 335.520   5
  -2   5  -3 1868.89 201.297   2
  -2  -5  -2 17795.3 895.307   5
   2  -5  -2 17097.1 934.594   5
   2  -5  -1 557.826 182.661   5
  -2  -5  -1 676.368 174.396   5
  -2  -5   0 4309.14 428.634   5
   2  -5   0 4221.70 439.205   5
   2  -5   1 458.205 166.112   5
  -2  -5   1 677.186 177.847   5
  -2  -5   2 18147.4 882.866   5
   2  -5   2 16516.9 869.407   5
  -2  -5   3 3052.04 348.272   5
   2  -5   3 2723.26 346.230   5
   2  -5   4 1042.07 219.840   5
  -2  -5   4 1392.98 238.301   5
  -2  -5   5 3056.92 342.333   5
   2  -5   5 2832.01 353.288   5
  -2  -5   6 28239.8 1073.82   5
   2  -5   6 27818.8 1148.25   5
   2  -5   7 1494.87 256.631   5
  -2  -5   7 1284.87 220.660   5
   2  -5   8 770.719 201.677   5
  -2  -5   8 877.829 176.310   5
   2  -5   9 1998.27 307.042   5
  -2  -5   9 2008.43 318.357   3
  -2  -5   9 2119.85 265.995   5
  -2  -5  10 12904.7 808.314   3
   2  -5  10 14753.7 818.524   5
  -2  -5  10 15332.4 694.410   5
   2  -5  11 456.539 147.550   5
  -2  -5  11 558.766 139.410   5
  -2  -5  11 307.017 138.607   3
   2  -5  11 428.051 133.062   3
  -2  -5  12 1835.97 308.735   3
   2  -5  12 1627.36 243.651   3
   2  -5  12 2425.69 330.955   5
  -2  -5  13-27.5928 89.9336   3
   2  -5  13 95.5962 96.6636   3
   2  -5  14 7078.32 523.156   3
  -2  -5  14 9310.84 711.777   3
   2  -5  15 1074.33 221.023   3
  -2  -5  15 1647.64 307.644   3
   2  -5  16 79.0638 81.1190   3
  -2  -5  16 450.247 173.061   3
  -2  -5  17 558.222 249.864   3
  -2   5  18 10881.5 979.911   4
  -2  -5  18 11119.7 850.070   3
  -2   5  19 1388.83 369.082   4
   2  -6 -16 400.027 220.397   5
   2  -6 -15 343.344 139.748   5
  -2  -6 -14 2240.98 371.584   5
   2  -6 -14 2863.02 453.273   5
   2  -6 -13 2158.82 389.868   5
  -2  -6 -13 1782.98 343.649   5
   2  -6 -12 1596.28 337.570   5
  -2  -6 -12 1228.59 284.979   5
   2  -6 -11 1516.51 336.319   5
  -2  -6 -11 945.838 253.249   5
  -2  -6 -10 2654.54 393.205   5
   2  -6 -10 2917.13 439.030   5
   2  -6  -9 2229.91 387.219   5
  -2  -6  -9 1231.49 267.749   5
   2  -6  -8 799.392 248.945   5
  -2  -6  -8 154.345 125.807   5
   2  -6  -7-46.3715 87.0931   5
  -2  -6  -7 21.3459 116.260   5
   2  -6  -6 365.091 191.330   5
  -2  -6  -6 396.274 165.509   5
   2  -6  -5 667.251 236.096   5
  -2  -6  -5 523.934 185.714   5
   2  -6  -4 854.840 244.891   5
  -2  -6  -4 657.646 186.228   5
   2  -6  -3 212.907 162.872   5
  -2  -6  -3 384.888 154.648   5
   2  -6  -2 1152.83 263.587   5
  -2  -6  -2 1498.64 292.848   5
   2  -6  -1 2118.50 356.942   5
  -2  -6  -1 2320.29 348.346   5
  -2  -6   0 4347.23 474.410   5
   2  -6   0 4095.22 473.884   5
  -2  -6   1 2595.00 366.131   5
   2  -6   1 1866.41 326.451   5
   2  -6   2 1108.29 251.222   5
  -2  -6   2 1544.69 283.853   5
   2  -6   3 323.438 152.147   5
  -2  -6   3 525.340 167.700   5
   2  -6   4 662.174 208.918   5
  -2  -6   4 967.966 227.234   5
   2  -6   5 779.413 223.143   5
  -2  -6   5 707.792 177.963   5
   2  -6   6 146.243 153.252   5
  -2  -6   6 140.757 109.835   5
   2  -6   7 144.633 124.575   5
  -2  -6   7-65.6035 116.342   5
   2  -6   8 15.6144 96.3624   5
  -2  -6   8 130.905 108.789   5
   2  -6   9 1608.07 304.930   5
  -2  -6   9 1433.85 235.830   5
  -2  -6   9 1297.51 279.581   3
  -2  -6  10 1806.28 329.610   3
   2  -6  10 2793.39 411.214   5
   2  -6  11 350.569 177.990   5
  -2  -6  11 393.623 152.271   3
   2  -6  11 521.397 147.756   3
   2  -6  12 1821.91 336.732   5
  -2  -6  12 1494.54 315.650   3
   2  -6  12 881.612 201.556   3
   2  -6  13 2251.17 363.361   5
  -2  -6  13 1984.56 350.249   3
   2  -6  13 1137.31 243.433   3
   2  -6  14 1249.88 295.721   5
  -2  -6  14 1267.64 292.865   3
  -2  -7  -7 5328.02 584.409   5
   2  -7  -7 6369.58 678.289   5
   2  -7  -6 576.494 232.892   5
  -2  -7  -6 291.589 149.722   5
  -2  -7  -5 3908.99 509.667   5
   2  -7  -5 4325.40 559.149   5
   2  -7  -4 911.263 278.859   5
  -2  -7  -4 830.383 250.671   5
  -2  -7  -3 7384.32 674.842   5
   2  -7  -3 6708.01 691.085   5
   2  -7  -2 575.446 232.943   5
  -2  -7  -2 118.533 138.707   5
  -2  -7  -1 3772.30 487.635   5
   2  -7  -1 5146.06 569.053   5
   2  -7   0 75.4710 113.393   5
  -2  -7   0 255.891 173.473   5
  -2  -7   1 5915.86 586.444   5
   2  -7   1 4567.25 539.486   5
   2  -7   2 282.256 179.338   5
  -2  -7   2 550.404 196.812   5
  -2  -7   3 6450.44 594.353   5
   2  -7   3 5121.73 571.714   5
   2  -7   4 939.395 256.289   5
  -2  -7   4 1067.16 251.111   5
   2  -7   5 4844.33 560.897   5
  -2  -7   5 5149.27 527.526   5
   2  -7   6 279.524 176.509   5
  -2  -7   6 73.3024 135.131   5
   2  -7   7 4110.51 525.275   5
  -2  -7   7 4136.12 460.386   5
   2  -7   8 567.131 216.196   5
   2  -7   9 5083.11 597.307   5
   2  -7  10 635.797 242.507   5
   2  -7  11 2848.10 461.773   5
   2  -7  12 96.1899 188.365   5
   3   0 -25 948.497 384.971   2
  -3   0 -25 679.223 204.092   6
   3   0 -24-383.019 247.207   2
  -3   0 -24 154.140 113.506   6
   3   0 -23 244.558 205.615   2
  -3   0 -23 647.443 181.398   6
   3   0 -22 182.813 279.778   2
  -3   0 -22 122.081 88.7175   6
  -3   0 -21 5816.74 475.493   6
   3   0 -21 5916.85 846.481   2
   3   0 -20 209.200 179.745   2
  -3   0 -20 107.182 91.3649   6
  -3   0 -19 9765.34 605.054   6
   3   0 -19 9742.89 1003.18   2
   3   0 -18 243.453 221.067   2
  -3   0 -18-52.5264 69.7531   6
   3   0 -17 13426.6 423.610   6
  -3   0 -17 11939.8 644.678   6
   3   0 -17 10970.2 1019.93   2
   3   0 -16 14.3516 89.3515   2
  -3   0 -16 127.417 102.075   6
   3   0 -16-20.2092 33.5857   6
   3   0 -15 5823.26 270.940   6
  -3   0 -15 6349.00 441.032   6
   3   0 -15 6454.79 262.620   6
   3   0 -15 6467.75 699.803   2
  -3   0 -15 5821.40 273.185   3
  -3   0 -14 6.74096 37.2091   3
   3   0 -14 6.49910 93.2327   2
  -3   0 -14 81.4513 73.2424   6
   3   0 -14 41.0666 29.2130   6
   3   0 -13 1011.05 256.548   2
   3   0 -13 959.944 93.7452   6
  -3   0 -13 1156.87 187.050   6
  -3   0 -13 950.326 94.5375   3
  -3   0 -12 0.23768 23.3319   3
   3   0 -12 42.3877 79.9521   2
  -3   0 -12-21.3492 79.3837   6
   3   0 -12 20.4090 25.8286   6
   3   0 -11 949.894 236.517   2
   3   0 -11 996.268 83.0585   6
  -3   0 -11 963.619 154.713   6
  -3   0 -11 832.878 75.7226   3
  -3   0 -10 7.36586 19.7685   3
   3   0 -10-13.9120 59.7445   2
   3   0 -10 4.69904 26.1659   6
  -3   0 -10 35.6028 50.5008   6
   3   0  -9 11238.8 304.079   6
  -3   0  -9 12370.0 519.958   6
  -3   0  -8 10.8307 11.8843   3
   3   0  -8 9.39115 33.0090   3
   3   0  -8-6.39050 18.7108   6
  -3   0  -8 16.6524 40.2523   6
   3   0  -7 17083.5 427.730   6
  -3   0  -7 18463.8 632.727   6
   3   0  -7 19386.3 604.181   3
   3   0  -6 29.0498 36.7355   3
   3   0  -6 4.80530 22.4496   6
  -3   0  -6 20.5627 52.0904   6
  -3   0  -5 32727.4 853.141   6
   3   0  -5 31820.1 688.472   6
   3   0  -5 33952.2 814.960   3
  -3   0  -4-1.29878 11.1269   3
   3   0  -4-12.2136 24.0598   3
   3   0  -4 9.99361 20.1380   6
  -3   0  -4-8.42192 15.3450   4
   3   0  -3 15347.2 456.685   3
  -3   0  -3 15415.9 501.508   6
   3   0  -3 14622.9 415.252   6
  -3   0  -3 13490.7 376.095   4
  -3   0  -3 14067.8 306.548   3
  -3   0  -2 9.87019 19.9665   3
   3   0  -2 34.0022 26.8557   3
  -3   0  -2-13.7989 34.0375   6
   3   0  -2 14.5658 25.4646   6
  -3   0  -2 6.51454 19.2430   4
   3   0  -1 4454.39 205.400   3
  -3   0  -1 4419.37 244.479   5
   3   0  -1 4177.28 226.428   6
  -3   0  -1 4177.89 226.840   4
  -3   0  -1 4672.40 243.639   6
  -3   0  -1 4553.62 175.781   3
  -3   0   0 15.3270 27.0100   3
  -3   0   0 21.2893 28.9659   5
  -3   0   0 26.7806 29.3441   6
  -3   0   0-21.0607 26.8080   4
   3   0   0 2.75366 27.6277   6
  -3   0   1 4504.51 228.197   6
   3   0   1 4405.81 249.476   6
  -3   0   1 4147.47 252.155   4
  -3   0   1 4427.53 203.269   3
  -3   0   1 4320.17 231.433   5
  -3   0   2 17.4047 35.9332   3
   3   0   2 29.4704 28.2069   6
  -3   0   2 5.73101 25.5856   5
  -3   0   2-4.18477 30.0281   6
  -3   0   2 0.96089 25.5768   4
   3   0   3 16092.0 547.690   6
  -3   0   3 15844.3 459.747   6
  -3   0   3 17479.9 615.321   4
  -3   0   3 15780.2 475.361   5
  -3   0   4-36.4395 88.0190   2
  -3   0   4 10.2220 22.8662   5
  -3   0   4-6.96060 24.3442   6
  -3   0   4-0.80511 28.6062   4
   3   0   4-2.44870 34.0888   6
  -3   0   5 34282.5 797.494   6
  -3   0   5 36684.7 1272.83   2
  -3   0   5 34676.4 791.110   5
  -3   0   6-24.2725 70.4990   2
  -3   0   6 13.0260 29.3130   5
  -3   0   6 15.6967 56.5853   4
  -3   0   7 21692.7 818.433   4
  -3   0   7 20645.2 960.552   2
  -3   0   7 20071.3 552.382   5
  -3   0   8 27.6812 26.5532   5
  -3   0   8-34.4828 65.7143   4
  -3   0   8-8.65466 84.0145   2
  -3   0   9 13116.5 423.986   5
  -3   0   9 13967.9 787.001   2
  -3   0   9 13962.6 606.786   1
  -3   0   9 14427.0 706.253   4
  -3   0  10 30.5168 57.4760   1
  -3   0  10 2.57327 25.1719   5
  -3   0  10-53.6065 70.5368   4
  -3   0  11 976.957 161.637   1
  -3   0  11 1037.58 195.294   4
  -3   0  12-72.3573 67.7179   1
  -3   0  13 1196.81 197.961   1
  -3   0  14 56.0464 87.0297   1
  -3   0  15 7730.78 541.006   1
  -3   0  16 21.4635 73.2909   1
  -3   0  17 15082.1 842.030   1
  -3   0  18 44.7271 92.5983   1
  -3   0  19 12388.3 824.237   1
  -3   0  20 19.6466 126.720   1
  -3   0  21 8355.38 729.317   1
   3  -1 -25-14.1400 112.587   2
  -3  -1 -25 475.559 166.859   6
   3  -1 -24 4653.27 752.976   2
   3   1 -24 3751.36 697.437   2
  -3  -1 -24 3318.54 385.872   6
  -3   1 -24 2797.86 364.373   6
   3  -1 -23 662.567 304.897   2
   3   1 -23 1059.81 374.837   2
  -3  -1 -23 913.689 207.025   6
  -3   1 -23 831.028 203.413   6
   3  -1 -22 1653.63 445.522   2
   3   1 -22 2454.23 533.494   2
  -3  -1 -22 2049.84 289.223   6
  -3   1 -22 2192.37 317.630   6
   3  -1 -21 2588.94 517.734   2
   3   1 -21 2264.37 528.928   2
  -3  -1 -21 1727.37 272.608   6
  -3   1 -21 2166.24 310.186   6
   3  -1 -20 950.146 321.074   2
   3   1 -20 916.504 326.670   2
  -3  -1 -20 1143.83 211.894   6
  -3   1 -20 1151.65 225.465   6
   3  -1 -19 310.916 218.018   2
   3   1 -19 484.773 235.918   2
  -3  -1 -19 347.919 132.262   6
  -3   1 -19 362.434 146.241   6
   3  -1 -18 2402.83 464.259   2
   3   1 -18 2465.45 476.420   2
  -3  -1 -18 2305.87 287.315   6
  -3   1 -18 2808.20 330.500   6
   3  -1 -17 643.963 230.186   2
   3   1 -17 977.031 317.955   2
  -3  -1 -17 860.455 177.739   6
  -3   1 -17 584.425 157.773   6
   3  -1 -17 817.128 84.5507   5
   3   1 -16 3542.50 559.747   2
  -3  -1 -16 3647.82 336.501   6
  -3   1 -16 3973.46 375.048   6
   3  -1 -16 4321.84 555.877   2
   3  -1 -16 3565.83 187.045   5
   3  -1 -15 1711.37 338.698   2
   3   1 -15 1915.09 408.599   2
  -3  -1 -15 1610.90 224.164   6
  -3   1 -15 1923.32 259.802   6
  -3   1 -15 1288.73 168.116   4
   3   1 -15 1655.82 209.643   6
   3  -1 -15 1492.37 119.177   5
  -3   1 -14 8110.77 332.947   1
  -3  -1 -14 9064.06 505.115   6
  -3   1 -14 7925.43 417.804   4
  -3   1 -14 9774.03 559.434   6
   3   1 -14 9614.63 864.881   2
   3  -1 -14 9642.67 762.219   2
   3   1 -14 9394.45 507.074   6
   3  -1 -14 8505.47 314.739   5
  -3   1 -13 2898.90 307.975   6
   3   1 -13 3109.77 278.575   6
  -3  -1 -13 3064.03 285.934   6
   3   1 -13 3048.16 472.311   2
   3  -1 -13 2755.72 386.177   2
   3  -1 -13 2585.61 168.003   5
  -3   1 -12 14029.9 648.169   6
   3   1 -12 13681.8 970.439   2
   3  -1 -12 14194.8 853.349   2
  -3  -1 -12 13024.1 581.785   6
   3  -1 -12 12643.2 403.141   5
   3   1 -11 3681.00 270.259   6
  -3  -1 -11 3708.20 295.558   6
  -3   1 -11 3453.85 317.830   6
   3  -1 -11 3677.17 396.902   2
   3   1 -11 3483.21 466.147   2
   3  -1 -11 3605.61 203.649   5
   3   1 -10 7231.42 370.650   6
  -3   1 -10 6903.10 428.654   6
   3   1 -10 6482.39 623.130   2
  -3  -1 -10 6675.09 388.912   6
   3  -1 -10 6734.98 291.066   5
   3   1  -9 3909.78 258.060   6
  -3  -1  -9 3831.53 282.946   6
  -3   1  -9 3952.50 314.941   6
   3   1  -9 3372.85 418.150   2
   3  -1  -9 3659.46 211.130   5
   3   1  -8 4852.79 280.067   6
  -3  -1  -8 4257.73 289.578   6
  -3   1  -8 4897.93 338.769   6
   3  -1  -8 4200.16 231.636   5
   3   1  -7 1284.36 150.566   3
   3   1  -7 1109.15 169.758   4
   3   1  -7 1258.95 137.854   6
  -3   1  -7 1172.30 160.340   6
   3  -1  -7 1657.25 176.943   3
   3  -1  -7 1163.15 121.272   5
  -3  -1  -7 1076.42 149.174   6
   3   1  -6 3961.84 243.879   6
  -3  -1  -6 3555.31 253.746   6
  -3   1  -6 3783.17 277.168   6
   3  -1  -6 4826.58 290.408   3
   3  -1  -6 3891.23 224.608   5
   3   1  -5 1237.56 131.495   6
  -3  -1  -5 964.354 135.836   6
  -3   1  -5 1084.00 146.121   6
   3  -1  -5 1253.23 138.404   3
   3  -1  -5 1035.62 116.616   5
  -3   1  -4 7041.51 274.859   1
   3   1  -4 7051.93 327.362   6
  -3  -1  -4 7460.62 358.454   6
  -3   1  -4 7091.37 364.040   6
   3   1  -4 7414.62 386.276   4
   3  -1  -4 7835.49 341.867   3
   3  -1  -4 6992.29 315.765   5
  -3   1  -3 7520.87 295.024   1
  -3  -1  -3 7593.48 358.772   6
  -3   1  -3 7863.19 361.082   6
   3   1  -3 8083.01 387.858   4
   3   1  -3 7485.98 340.138   6
   3  -1  -3 7980.61 329.756   3
   3  -1  -3 7604.36 328.585   5
  -3   1  -2 17108.4 505.543   1
  -3  -1  -2 18993.1 598.320   6
   3   1  -2 18535.4 572.654   6
  -3   1  -2 17841.8 568.291   6
   3   1  -2 18097.7 591.767   4
   3  -1  -2 19404.3 517.024   3
   3  -1  -2 17796.6 551.774   5
  -3  -1  -1 5520.41 294.516   6
  -3   1  -1 4709.98 251.895   6
  -3   1  -1 4633.14 243.361   1
   3   1  -1 4407.01 256.582   4
   3  -1  -1 5177.39 221.008   3
   3  -1  -1 5036.60 272.048   5
   3   1  -1 4900.80 274.420   6
  -3  -1   0 20607.8 556.025   3
  -3  -1   0 21513.1 644.098   6
   3   1   0 22494.1 655.165   6
  -3   1   0 20763.5 599.206   1
  -3   1   0 20897.4 569.604   6
   3   1   0 20244.1 591.161   4
   3  -1   0 21836.5 631.067   5
   3  -1   0 21695.8 499.184   3
  -3  -1   1 5083.97 250.138   3
  -3   1   1 5601.76 288.872   1
  -3  -1   1 5488.97 292.617   6
   3   1   1 5628.50 302.643   6
  -3   1   1 5324.62 238.395   6
   3  -1   1 5103.78 183.973   3
   3   1   1 4785.47 238.428   4
  -3   1   1 4582.37 264.149   5
  -3   1   2 18732.8 587.673   1
  -3   1   2 16729.4 457.991   6
   3   1   2 18343.9 601.664   6
  -3  -1   2 18970.7 582.848   6
   3  -1   2 16793.0 362.085   3
  -3   1   2 19357.4 585.712   5
  -3  -1   2 17394.1 520.595   3
  -3  -1   3 9113.79 390.937   6
  -3   1   3 8519.06 283.412   6
  -3   1   3 9369.34 408.248   1
  -3  -1   3 8378.10 570.528   2
  -3  -1   3 8346.48 347.761   3
  -3   1   3 9152.30 394.625   5
  -3   1   4 5918.32 213.430   6
  -3  -1   4 6468.74 309.961   3
  -3  -1   4 5986.26 325.559   6
  -3  -1   4 6122.45 499.467   2
  -3   1   4 6162.03 430.042   2
  -3   1   4 6697.85 339.922   5
  -3  -1   5 1340.50 244.253   2
  -3   1   5 1470.02 90.2661   6
  -3   1   5 1700.00 225.976   2
  -3  -1   5 1591.76 158.472   3
  -3   1   5 1791.46 174.427   5
  -3   1   6 4135.90 273.057   5
  -3   1   6 3863.45 343.617   2
  -3   1   6 4510.40 352.927   4
  -3  -1   6 4134.63 430.960   2
  -3  -1   6 3698.06 172.797   5
  -3  -1   6 4184.65 268.151   3
  -3   1   7 1263.93 155.025   5
  -3   1   7 1143.10 185.085   4
  -3  -1   7 1385.82 95.7384   5
  -3  -1   7 1615.49 175.083   3
  -3   1   7 1115.98 188.288   2
  -3   1   8 4732.10 313.180   5
  -3  -1   8 4886.68 324.112   1
  -3   1   8 5555.79 421.686   2
  -3   1   8 5737.02 428.844   4
  -3  -1   8 5579.00 334.972   3
  -3  -1   8 4858.79 172.020   5
  -3   1   9 3388.10 270.761   5
  -3   1   9 3821.40 364.669   4
  -3  -1   9 3740.66 287.198   1
  -3   1   9 4156.91 363.310   2
  -3  -1   9 3625.42 280.817   3
  -3   1   9 3574.61 310.118   1
  -3   1  10 8382.29 498.375   1
  -3   1  10 8105.99 428.590   5
  -3   1  10 9144.13 582.089   4
  -3   1  10 9746.64 585.061   2
  -3  -1  10 7818.35 446.826   1
  -3  -1  10 8532.50 449.299   3
  -3   1  11 4136.35 356.353   1
  -3   1  11 3540.29 269.418   5
  -3  -1  11 3753.60 315.670   1
  -3   1  11 4037.57 399.829   4
  -3  -1  11 4025.53 309.881   3
  -3   1  12 15208.3 745.618   1
  -3   1  12 17982.1 892.754   4
  -3  -1  12 16367.3 705.529   1
  -3   1  13 3823.94 375.782   1
  -3   1  13 3969.68 426.766   4
  -3  -1  13 4006.87 342.723   1
  -3   1  14 10718.7 659.653   1
  -3   1  14 12359.5 787.467   4
  -3  -1  14 10823.0 596.576   1
  -3   1  15 2634.48 334.751   1
  -3   1  15 2614.73 368.388   4
  -3  -1  15 2548.17 293.829   1
  -3   1  16 4364.27 453.343   1
  -3   1  16 4910.24 527.989   4
  -3  -1  16 4619.26 416.503   1
  -3   1  17 848.132 210.915   1
  -3   1  17 846.658 231.107   4
  -3  -1  17 974.300 202.572   1
  -3  -1  18 3406.53 388.812   1
  -3   1  18 3012.42 437.610   4
  -3   1  18 2684.05 389.580   1
  -3  -1  19 181.960 107.631   1
  -3  -1  20 1392.45 269.296   1
  -3  -1  21 1996.48 348.320   1
  -3  -1  22 2958.14 434.950   1
  -3  -2 -25 893.106 207.768   6
  -3  -2 -24 1796.28 281.596   6
   3   2 -23 2774.31 561.216   2
  -3  -2 -23 2602.06 337.877   6
  -3   2 -23 2083.58 326.897   6
   3   2 -22 864.747 321.992   2
  -3  -2 -22 1067.56 221.614   6
  -3   2 -22 867.472 218.357   6
   3  -2 -21 2096.05 401.034   2
   3   2 -21 1567.25 410.976   2
  -3  -2 -21 1848.87 279.105   6
  -3   2 -21 2045.58 312.880   6
   3  -2 -20 504.291 205.156   2
   3   2 -20 870.187 295.997   2
  -3  -2 -20 525.191 133.235   6
  -3   2 -20 680.532 185.175   6
   3  -2 -19 221.089 145.012   2
   3   2 -19 659.718 264.486   2
  -3  -2 -19 308.802 129.284   6
  -3   2 -19 424.800 148.982   6
   3   2 -18 965.465 268.425   2
   3  -2 -18 620.229 207.936   2
   3  -2 -18 944.256 134.242   5
  -3  -2 -18 1182.60 208.408   6
  -3   2 -18 1103.03 232.811   6
   3   2 -17 1138.77 332.260   2
   3  -2 -17 775.463 216.662   2
   3  -2 -17 735.930 125.768   5
  -3  -2 -17 661.608 152.039   6
  -3   2 -17 946.157 197.834   6
   3   2 -16 2710.69 483.057   2
   3  -2 -16 3029.40 401.460   2
  -3  -2 -16 2584.04 285.880   6
  -3   2 -16 2324.15 305.557   6
   3  -2 -16 2523.87 230.722   5
   3   2 -15 2693.17 474.560   2
  -3  -2 -15 2616.05 275.333   6
  -3   2 -15 2605.76 319.115   6
   3  -2 -15 2638.32 363.717   2
   3  -2 -15 2410.83 226.018   5
  -3  -2 -14 6750.16 435.915   6
  -3   2 -14 6328.42 492.322   6
   3   2 -14 7259.40 764.748   2
   3  -2 -14 7197.85 562.611   2
   3  -2 -14 6178.38 372.015   5
  -3  -2 -13 4748.10 362.026   6
   3  -2 -13 4816.20 430.416   2
  -3   2 -13 4644.94 413.030   6
   3   2 -13 4747.96 603.089   2
   3  -2 -13 4620.45 317.732   5
  -3  -2 -12 6525.25 414.925   6
  -3   2 -12 7659.51 505.939   6
   3   2 -12 7664.78 736.451   2
   3  -2 -12 6980.37 392.475   5
  -3  -2 -11 9705.88 495.979   6
  -3   2 -11 10293.9 576.890   6
   3   2 -11 10007.3 821.060   2
   3  -2 -11 9427.90 460.379   5
  -3  -2 -10 6148.96 386.114   6
  -3   2 -10 7266.87 469.588   6
   3   2 -10 6665.15 648.127   2
   3  -2 -10 6477.36 372.235   5
   3   2  -9 5033.57 379.969   6
  -3  -2  -9 4712.85 332.268   6
  -3   2  -9 4872.64 379.290   6
   3  -2  -9 4841.43 317.516   5
   3   2  -8 2649.99 270.006   6
  -3   2  -8 2799.05 284.005   6
  -3  -2  -8 2596.46 241.557   6
   3  -2  -8 2695.35 235.722   5
  -3   2  -7 3706.16 213.825   1
   3   2  -7 2720.58 267.434   6
  -3  -2  -7 2593.83 235.587   6
  -3   2  -7 2850.24 269.205   6
   3  -2  -7 2771.36 236.444   5
  -3   2  -6 2494.31 181.344   1
  -3  -2  -6 1972.37 206.532   6
  -3   2  -6 2037.74 231.783   6
   3   2  -6 1924.51 221.706   6
   3  -2  -6 2171.41 206.415   5
  -3   2  -5 2258.86 172.251   1
   3   2  -5 1683.30 214.765   4
  -3  -2  -5 2045.62 205.435   6
  -3   2  -5 1720.15 202.428   6
   3   2  -5 1673.50 199.519   6
   3  -2  -5 1819.81 189.198   5
  -3   2  -4 5289.77 277.741   1
   3   2  -4 4577.48 330.041   6
  -3  -2  -4 4072.18 297.209   6
  -3   2  -4 4645.59 321.024   6
   3  -2  -4 4675.83 308.957   1
   3  -2  -4 5004.69 316.899   5
  -3   2  -3 6947.63 330.009   1
   3  -2  -3 6725.90 362.774   1
   3   2  -3 6772.45 387.678   6
  -3  -2  -3 6502.36 372.309   6
  -3   2  -3 6432.45 369.335   6
   3  -2  -3 6701.94 369.041   5
  -3   2  -2 11813.4 456.594   1
   3  -2  -2 11339.6 471.659   1
   3   2  -2 11729.6 517.561   6
  -3  -2  -2 11230.1 496.143   6
  -3   2  -2 10435.7 470.371   6
   3  -2  -2 11614.9 497.636   5
  -3   2  -1 8664.41 396.911   1
   3  -2  -1 8649.21 393.763   1
  -3  -2  -1 8850.68 426.340   6
   3   2  -1 8557.09 435.297   6
  -3   2  -1 7940.34 378.581   6
   3  -2  -1 8470.11 424.568   5
  -3   2   0 10484.7 460.403   1
  -3   2   0 10389.1 419.832   6
  -3  -2   0 10883.9 485.614   6
   3   2   0 11375.4 507.407   6
   3  -2   0 10760.4 483.246   5
  -3   2   1 9172.20 436.459   1
  -3  -2   1 9314.32 455.285   6
   3   2   1 9797.74 462.746   6
  -3   2   1 8928.76 366.997   6
   3  -2   1 9695.72 455.359   5
  -3   2   1 9223.67 460.143   5
  -3   2   2 9472.92 454.047   1
  -3  -2   2 9367.10 464.404   6
  -3   2   2 9250.65 351.766   6
  -3  -2   2 7925.79 583.831   2
   3  -2   2 9568.58 458.223   5
  -3   2   2 10788.0 494.442   5
  -3   2   3 8794.51 455.941   5
  -3  -2   3 8145.17 407.339   3
  -3   2   3 8251.72 433.098   1
  -3   2   3 7698.60 297.837   6
  -3  -2   3 8362.86 448.782   6
   3  -2   3 8521.87 431.664   5
  -3   2   4 4198.44 318.180   5
  -3  -2   4 3986.45 283.788   3
  -3   2   4 3517.73 278.029   2
  -3   2   4 4096.57 312.332   1
  -3   2   4 3917.27 178.503   6
   3  -2   4 4112.70 297.250   5
  -3  -2   5 2399.43 221.750   3
  -3   2   5 2362.65 244.385   1
  -3   2   5 2473.11 224.489   2
  -3   2   5 2572.84 120.704   6
   3  -2   5 2548.48 244.344   5
   3  -2   6 1280.78 86.7159   3
  -3   2   6 1597.70 208.261   1
  -3   2   6 1575.14 186.040   2
  -3  -2   6 1778.70 199.128   3
  -3  -2   7 2304.44 169.503   5
  -3   2   7 2477.87 267.908   1
  -3   2   7 2587.41 226.453   2
   3  -2   7 1407.38 85.5802   3
  -3  -2   7 2569.22 235.486   3
  -3  -2   8 3324.59 187.716   5
  -3   2   8 3082.00 313.199   1
   3   2   8 2690.15 114.957   4
   3  -2   8 2225.35 108.332   3
  -3  -2   8 3599.42 285.649   3
  -3  -2   9 4651.92 177.914   5
  -3   2   9 4986.60 400.373   1
   3   2   9 3758.78 134.043   4
  -3  -2   9 5317.44 360.485   3
  -3   2  10 8060.59 544.977   1
  -3   2  10 9285.56 634.181   4
  -3  -2  10 8685.93 482.504   3
  -3   2  11 8948.33 597.994   1
  -3   2  11 10718.9 700.006   4
  -3  -2  11 10028.8 536.475   3
  -3   2  12 8670.94 552.964   5
  -3  -2  12 8769.40 505.469   1
  -3   2  12 9071.81 611.940   1
  -3   2  12 8862.14 653.213   4
  -3  -2  12 8831.78 525.930   3
  -3   2  13 6502.78 542.205   1
  -3  -2  13 6395.05 445.143   1
  -3  -2  13 6917.30 469.568   3
  -3   2  13 6902.87 594.938   4
  -3  -2  14 7104.01 484.454   1
  -3   2  14 6761.15 566.834   1
  -3   2  14 7476.87 630.209   4
  -3  -2  14 7587.24 508.603   3
  -3  -2  15 3961.49 372.414   1
  -3   2  15 3930.05 478.192   4
  -3  -2  15 3420.72 353.967   3
  -3   2  16 2814.60 410.753   4
  -3  -2  16 3288.55 349.180   1
  -3  -2  16 3331.90 357.885   3
  -3  -2  17 1236.96 228.982   1
  -3   2  17 979.558 254.663   4
  -3  -2  18 854.052 197.793   1
  -3   2  18 1141.72 284.541   4
  -3   2  19 500.031 192.384   4
  -3  -2  19 760.237 206.039   1
  -3  -2  20 1492.94 277.846   1
  -3   2  20 1417.81 345.621   4
  -3  -2  21 2257.45 350.203   1
  -3   2  21 2524.90 452.019   4
  -3   2  22 1844.59 403.687   4
  -3  -3 -24 304.649 114.617   6
  -3  -3 -23 542.359 158.940   6
  -3  -3 -22 351.159 158.955   6
   3   3 -21 2517.50 492.314   2
  -3  -3 -21 2911.51 354.279   6
  -3   3 -21 2834.61 383.637   6
   3   3 -20 934.138 324.968   2
  -3   3 -20 855.533 224.785   6
  -3  -3 -20 607.715 172.912   6
  -3  -3 -19 5923.24 482.087   6
   3   3 -19 6913.02 804.417   2
  -3   3 -19 5669.53 538.987   6
   3   3 -18 980.515 304.170   2
   3  -3 -18 643.503 140.656   5
  -3  -3 -18 730.748 168.873   6
  -3   3 -18 1043.88 235.462   6
  -3  -3 -17 5999.88 460.873   6
  -3   3 -17 5354.48 493.410   6
   3   3 -17 6105.65 732.853   2
   3  -3 -17 5212.12 447.178   5
   3  -3 -16 208.917 98.1844   5
  -3  -3 -16 30.1256 82.3439   6
  -3   3 -16 271.088 134.875   6
   3   3 -15 2745.56 484.390   2
  -3  -3 -15 2594.22 292.835   6
  -3   3 -15 2397.44 320.547   6
   3  -3 -15 2628.71 312.969   5
   3   3 -14 364.210 197.636   2
   3  -3 -14 192.971 63.2827   5
  -3  -3 -14 273.890 103.847   6
  -3   3 -14 169.684 110.138   6
   3   3 -13 351.140 150.213   2
   3  -3 -13 150.478 78.5419   5
  -3  -3 -13 149.171 79.5805   6
  -3   3 -13 286.744 111.444   6
   3   3 -12 75.5524 140.920   2
   3  -3 -12 189.594 99.9266   5
  -3  -3 -12 237.428 94.0425   6
  -3   3 -12 253.707 97.7963   6
   3  -3 -11 368.877 110.667   5
   3   3 -11 405.005 167.691   2
  -3  -3 -11 435.344 124.147   6
  -3   3 -11 258.347 95.0070   6
   3  -3 -10 451.860 118.640   5
  -3  -3 -10 431.147 114.669   6
  -3   3 -10 320.746 103.666   6
  -3  -3  -9 7383.35 441.893   6
  -3   3  -9 6544.55 470.124   6
   3  -3  -9 7008.93 492.421   5
  -3  -3  -8 1764.04 221.368   6
   3  -3  -8 1980.44 255.276   5
  -3  -3  -7 13706.8 614.591   6
   3  -3  -7 14376.0 692.638   5
  -3  -3  -6 2173.09 236.452   6
   3  -3  -6 2388.81 270.950   5
  -3  -3  -5 16481.8 678.250   6
   3  -3  -5 17493.0 756.925   5
  -3  -3  -4 1231.55 181.053   6
   3  -3  -4 1417.96 207.593   5
  -3  -3  -3 7410.87 440.985   6
   3  -3  -3 7947.03 481.031   5
   3  -3  -2 858.732 165.574   5
  -3  -3  -2 798.197 152.520   6
   3  -3  -1 333.610 101.608   1
   3  -3  -1 541.690 134.317   5
  -3  -3  -1 697.569 146.204   6
   3  -3   0 76.7337 49.3674   1
   3  -3   0 143.863 90.8179   5
  -3  -3   0 66.1774 72.1836   6
   3  -3   1 839.633 165.410   5
  -3  -3   1 918.774 163.920   6
   3  -3   1 1025.94 146.957   1
  -3  -3   2 1159.78 178.338   5
   3  -3   2 793.743 156.041   5
   3  -3   2 947.156 137.167   1
  -3  -3   3 6647.92 405.067   5
   3  -3   3 6730.91 338.995   1
   3  -3   3 7298.63 453.317   5
  -3  -3   4 1951.84 216.248   5
   3  -3   4 1853.69 236.431   5
  -3  -3   5 17545.2 745.703   3
  -3  -3   5 17978.4 684.098   5
   3  -3   5 18895.4 770.582   5
  -3  -3   6 2565.71 277.362   3
  -3  -3   6 2887.97 251.728   5
  -3   3   6 2802.76 176.325   6
   3  -3   6 3039.70 303.680   5
  -3  -3   7 15599.6 717.432   3
  -3  -3   7 15676.5 598.457   5
  -3   3   7 15670.0 384.497   6
  -3   3   7 14942.4 377.118   6
   3  -3   7 16156.0 714.562   5
   3  -3   8 1557.99 143.515   3
  -3  -3   8 1761.46 174.335   5
  -3  -3   8 1829.41 234.860   3
   3  -3   8 1954.89 245.943   5
  -3  -3   9 8253.77 361.478   5
  -3  -3   9 7585.88 492.734   3
   3  -3   9 6288.93 297.962   3
   3  -3  10 411.103 82.0035   3
  -3  -3  10 522.160 138.784   3
  -3  -3  10 564.385 79.4741   5
   3  -3  11 396.561 73.7200   3
  -3  -3  11 651.039 152.075   3
  -3  -3  11 455.556 53.6700   5
   3  -3  12 74.2002 44.2886   3
  -3  -3  12 183.034 105.046   3
   3   3  12 165.441 63.5436   4
   3  -3  13 310.065 80.2303   3
  -3  -3  13 241.514 107.103   3
   3   3  13 235.053 71.9529   4
  -3  -3  14 248.980 116.338   3
  -3  -3  14 271.622 99.9223   1
  -3   3  14 231.702 128.028   4
  -3  -3  15 3049.33 331.572   1
  -3   3  15 3573.98 480.359   4
  -3  -3  15 3326.28 372.415   3
  -3  -3  16 464.162 159.675   3
  -3   3  16 393.291 169.940   4
  -3  -3  16 344.118 146.305   1
  -3  -3  17 7846.36 563.399   1
  -3   3  17 7858.09 744.240   4
  -3  -3  17 8196.77 632.538   3
  -3  -3  18 1581.84 294.487   3
  -3  -3  18 1361.05 253.735   1
  -3   3  18 1165.86 306.672   4
  -3   3  19 8703.02 840.610   4
  -3  -3  19 8284.28 607.401   1
  -3  -3  19 8343.03 664.161   3
  -3   3  20 971.160 281.687   4
  -3   3  21 4821.78 657.019   4
  -3   3  22 469.395 227.213   4
  -3  -4 -22 2047.11 294.801   6
  -3  -4 -21 352.389 145.580   6
  -3  -4 -20 1073.39 257.361   5
  -3  -4 -20 1275.99 232.625   6
  -3   4 -20 1266.72 413.410   2
   3   4 -19 112.124 143.441   2
   3  -4 -19-203.339 132.213   5
  -3  -4 -19 12.3639 102.375   5
  -3  -4 -19 73.1900 98.9392   6
  -3   4 -19 137.117 150.927   2
  -3   4 -19 86.2326 135.776   6
   3   4 -18 2631.88 494.740   2
   3  -4 -18 1460.49 269.090   5
  -3  -4 -18 1662.56 300.229   5
  -3  -4 -18 1783.60 272.492   6
  -3   4 -18 1594.85 306.755   6
   3   4 -17 755.806 274.402   2
   3  -4 -17 585.224 173.166   5
  -3  -4 -17 711.607 217.817   5
  -3  -4 -17 400.939 134.721   6
  -3   4 -17 725.982 224.223   6
   3   4 -16 1701.42 393.347   2
   3  -4 -16 1305.41 261.752   5
  -3  -4 -16 1506.24 285.718   5
  -3  -4 -16 1436.03 235.529   6
  -3   4 -16 1547.45 269.555   6
   3   4 -15 1201.72 320.663   2
   3  -4 -15 919.541 214.626   5
  -3  -4 -15 685.567 192.679   5
  -3  -4 -15 946.048 195.603   6
  -3   4 -15 702.992 192.771   6
   3   4 -14 2895.03 494.985   2
   3  -4 -14 2308.40 355.154   5
  -3  -4 -14 2562.27 304.082   6
  -3   4 -14 2323.84 332.640   6
   3  -4 -13 175.889 85.1432   5
  -3  -4 -13 468.068 136.830   6
  -3  -4 -12 4099.95 366.724   6
   3  -4 -12 3447.29 420.313   5
   3  -4 -11 322.442 146.409   5
  -3  -4 -11 502.008 148.077   6
  -3  -4 -10 3840.82 352.346   6
   3  -4 -10 3986.73 441.758   5
   3  -4  -9 1423.69 258.909   5
  -3  -4  -9 1396.07 213.798   6
   3  -4  -8 2256.96 314.961   5
  -3  -4  -8 1993.74 254.781   6
   3  -4  -7 361.487 147.949   5
  -3  -4  -7 241.494 123.750   5
  -3  -4  -7 440.852 133.082   6
  -3  -4  -6 4000.57 389.123   5
  -3  -4  -6 5144.85 404.110   6
   3  -4  -6 4629.33 449.980   5
  -3  -4  -5 1094.59 200.056   6
   3  -4  -5 1056.18 212.325   5
  -3  -4  -5 1048.79 208.685   5
  -3  -4  -4 2654.62 315.460   5
  -3  -4  -4 2757.51 304.928   6
   3  -4  -4 2438.74 324.227   5
  -3  -4  -3 2413.09 296.953   5
  -3  -4  -3 2647.57 296.887   6
   3  -4  -3 2747.81 332.270   5
  -3  -4  -2 5497.13 442.980   5
  -3  -4  -2 5796.71 444.679   6
   3  -4  -2 5722.11 476.059   5
   3  -4  -1 773.167 195.467   5
  -3  -4  -1 761.662 166.795   5
  -3  -4   0 7616.22 506.108   5
   3  -4   0 7348.20 536.325   5
   3  -4   1 787.215 184.927   5
  -3  -4   1 856.192 178.140   5
  -3  -4   2 5966.78 450.564   5
   3  -4   2 6010.39 483.456   5
  -3  -4   3 2586.66 289.161   5
   3  -4   3 2402.87 247.730   1
   3  -4   3 2516.84 315.266   5
  -3  -4   4 3231.90 319.124   5
   3  -4   4 2896.07 256.048   1
   3  -4   4 2748.45 330.561   5
   3  -4   5 1308.02 220.431   5
  -3  -4   5 1065.31 181.514   5
  -3   4   5 1072.18 154.450   6
   3  -4   5 1125.21 148.153   1
  -3  -4   6 4552.42 375.143   5
  -3  -4   6 3833.69 399.444   3
  -3   4   6 4992.11 313.302   6
   3  -4   6 4346.08 415.816   5
   3  -4   7 155.827 98.9712   5
  -3  -4   7 33.6373 82.4538   3
  -3  -4   7 292.189 95.4867   5
  -3  -4   8 2426.91 257.238   5
  -3  -4   8 2367.40 322.549   3
   3  -4   8 2671.70 318.294   5
   3  -4   9 1389.64 245.900   5
  -3  -4   9 1352.81 240.801   3
  -3  -4   9 1403.72 182.052   5
   3  -4  10 4547.08 428.987   5
  -3  -4  10 4862.80 315.688   5
  -3  -4  10 4945.19 462.407   3
   3  -4  11 304.742 86.3343   3
  -3  -4  11 719.310 185.850   3
   3  -4  12 2855.23 254.413   3
  -3  -4  12 4726.63 465.154   3
   3  -4  13 282.483 91.4244   3
  -3  -4  13 878.077 213.664   3
  -3  -4  14 3247.51 399.597   3
  -3  -4  15 1470.72 275.019   3
  -3  -4  15 1348.30 219.673   1
  -3  -4  16 1594.63 301.997   3
  -3  -4  16 1638.13 258.303   1
  -3   4  16 1468.82 330.759   4
  -3  -4  17 1155.92 265.843   3
  -3   4  17 641.391 250.167   4
  -3  -4  18 2716.06 410.773   3
  -3   4  18 2091.31 416.199   4
  -3  -4  19-39.6132 118.372   3
  -3   4  19-115.563 140.344   4
  -3   4  20 2191.84 443.558   4
   3  -5 -19 499.237 241.257   5
  -3   5 -19 202.161 181.869   2
  -3  -5 -19 470.306 176.967   6
   3  -5 -18-44.7324 111.031   5
  -3  -5 -18 97.0191 108.511   6
   3  -5 -17-81.6378 163.742   5
  -3  -5 -17 412.853 151.977   6
  -3  -5 -17 413.193 177.715   5
  -3   5 -17 513.133 226.948   2
   3  -5 -16 317.179 183.040   5
  -3  -5 -16 279.598 134.768   6
  -3   5 -16 108.764 127.819   2
  -3   5 -16 237.805 113.339   6
  -3  -5 -16 434.660 190.123   5
   3  -5 -15 1818.38 353.013   5
  -3  -5 -15 1292.75 291.525   5
  -3  -5 -15 1611.61 267.880   6
  -3   5 -15 1275.91 292.786   2
  -3  -5 -14 1241.80 271.756   5
   3  -5 -14 1785.89 353.534   5
  -3  -5 -14 1293.08 245.109   6
  -3   5 -14 1276.90 278.026   2
   3  -5 -13 3137.87 452.425   5
  -3  -5 -13 2493.50 322.344   6
  -3  -5 -13 2111.94 336.437   5
  -3   5 -13 2111.12 342.713   2
   3  -5 -12 286.246 160.775   5
  -3  -5 -12 324.571 144.608   5
  -3  -5 -12 436.254 148.367   6
  -3   5 -12 238.282 124.153   2
  -3  -5 -11 2664.75 365.815   5
  -3   5 -11 2911.07 363.020   2
  -3  -5 -11 3429.14 373.502   6
   3  -5 -11 3305.81 455.863   5
   3  -5 -10 1350.05 298.080   5
  -3  -5 -10 1494.22 282.696   5
  -3  -5 -10 1644.47 266.130   6
  -3   5 -10 1299.75 230.831   2
   3  -5  -9 1815.56 322.525   5
  -3  -5  -9 1752.51 292.375   5
  -3  -5  -9 2029.08 286.349   6
  -3   5  -9 1535.94 244.525   2
   3  -5  -8 356.801 167.716   5
  -3  -5  -8 317.701 149.736   6
  -3   5  -8 265.918 110.707   2
  -3  -5  -8 333.558 146.311   5
  -3  -5  -7 528.560 169.461   5
   3  -5  -7 756.457 211.058   5
  -3   5  -7 812.587 167.358   2
   3  -5  -6 438.295 142.268   5
  -3  -5  -6 224.188 130.834   5
  -3  -5  -6 266.225 117.866   6
  -3   5  -6 50.3014 50.6215   2
   3  -5  -5 425.683 164.815   5
  -3  -5  -5 427.440 160.004   5
   3  -5  -4 382.435 172.476   5
  -3  -5  -4 281.274 133.286   5
  -3  -5  -3 2775.20 365.833   5
   3  -5  -3 3282.81 411.072   5
   3  -5  -2 1766.99 299.090   5
  -3  -5  -2 1714.25 278.887   5
  -3  -5  -1 3920.50 420.977   5
   3  -5  -1 3798.70 438.939   5
   3  -5   0 751.907 201.911   5
  -3  -5   0 1152.01 230.411   5
  -3  -5   1 3972.83 413.076   5
   3  -5   1 4428.17 465.715   5
   3  -5   2 1543.81 277.321   5
  -3  -5   2 1924.30 291.823   5
  -3  -5   3 2836.82 346.306   5
   3  -5   3 3206.57 392.421   5
   3  -5   4 331.715 134.279   5
  -3  -5   4 229.178 116.237   5
   3  -5   5 236.055 108.917   5
  -3  -5   5 359.698 143.853   5
   3  -5   6-17.4014 86.6698   5
  -3  -5   6 397.017 133.461   5
   3  -5   7 761.201 211.608   5
  -3  -5   7 822.912 222.271   3
  -3  -5   7 799.013 175.734   5
   3  -5   8 229.876 118.420   5
  -3  -5   8 330.663 144.683   3
  -3  -5   8 489.299 127.281   5
   3  -5   9 2189.54 330.096   5
  -3  -5   9 2082.05 335.305   3
  -3  -5   9 1831.35 239.663   5
   3  -5  10 1812.24 324.553   5
  -3  -5  10 1697.71 314.770   3
   3  -5  10 1249.10 191.981   3
  -3  -5  11 3477.59 432.336   3
   3  -5  11 3793.79 447.504   5
   3  -5  12 426.660 172.744   5
  -3  -5  12 316.433 155.526   3
  -3  -5  13 3118.11 427.730   3
  -3  -5  14 1345.38 284.791   3
  -3  -5  15 1615.93 330.359   3
  -3  -5  16 280.146 157.102   3
  -3   5  17 446.966 226.614   4
   3  -6 -15 453.884 203.460   5
  -3  -6 -15 881.604 208.768   6
   3  -6 -14-73.4486 100.887   5
  -3  -6 -14-13.3220 105.485   6
   3  -6 -13 48.7228 137.942   5
  -3  -6 -13 36.0722 108.918   6
   3  -6 -12 742.198 271.246   5
  -3  -6 -12 278.629 163.738   5
  -3  -6 -11 238.941 121.456   5
   3  -6 -11 188.826 148.839   5
   3  -6 -10 376.437 172.263   5
  -3  -6 -10-18.5132 96.3955   5
   3  -6  -9 833.084 255.082   5
  -3  -6  -9 998.083 258.709   5
   3  -6  -8 1755.16 350.373   5
  -3  -6  -8 1110.00 288.067   5
   3  -6  -7 2286.55 396.695   5
  -3  -6  -7 2238.00 358.781   5
   3  -6  -6 1437.40 308.747   5
  -3  -6  -6 1654.70 312.225   5
   3  -6  -5 2472.79 397.788   5
  -3  -6  -5 2527.39 385.331   5
   3  -6  -4 1879.10 353.618   5
  -3  -6  -4 1175.84 269.654   5
   3  -6  -3 1204.72 287.922   5
  -3  -6  -3 1058.27 240.418   5
   3  -6  -2 29.3783 95.5617   5
  -3  -6  -2 149.268 137.936   5
   3  -6  -1 5.33782 94.0391   5
  -3  -6  -1 15.5648 98.3991   5
   3  -6   0 122.514 127.945   5
  -3  -6   0 92.6830 129.745   5
   3  -6   1 122.947 125.734   5
  -3  -6   1 102.372 100.044   5
   3  -6   2-31.7503 108.374   5
  -3  -6   2 12.1782 83.4558   5
   3  -6   3 608.963 227.296   5
  -3  -6   3 881.594 216.407   5
   3  -6   4 1307.16 293.282   5
  -3  -6   4 1616.26 282.802   5
  -3  -6   5 2753.79 361.476   5
   3  -6   5 2172.84 388.631   5
   3  -6   6 1446.25 326.473   5
  -3  -6   6 2028.50 303.974   5
  -3  -6   7 2743.79 342.296   5
   3  -6   7 2430.30 394.816   5
   3  -6   8 1058.10 285.045   5
  -3  -6   8 1088.49 268.422   3
   3  -6   9 806.437 255.178   5
  -3  -6   9 748.128 236.663   3
   3  -6  10 347.191 182.367   5
  -3  -6  10 318.044 150.523   3
   3  -6  11 453.604 197.479   5
  -3  -6  11 151.186 122.173   3
   3  -6  12 21.4334 112.836   5
  -3  -6  12 142.729 164.819   3
   3  -6  13 93.6606 130.075   5
  -3  -7  -5 307.436 123.658   5
  -3  -7  -4 681.789 233.945   5
  -3  -7  -3 381.397 169.385   5
  -3  -7  -2 852.962 248.521   5
  -3  -7  -1 197.621 125.857   5
  -3  -7   0 1124.17 264.033   5
  -3  -7   1 308.822 180.577   5
  -3  -7   2 1001.20 242.606   5
  -3  -7   3 350.160 151.925   5
  -3  -7   4 780.521 222.880   5
  -3  -7   5 657.822 205.060   5
   4   0 -24 13492.0 1419.37   2
   4   0 -23 247.511 232.635   2
  -4   0 -23 12.0530 85.2823   6
   4   0 -22 394.906 254.169   2
  -4   0 -22 412.705 181.074   6
   4   0 -21 48.3053 165.061   2
  -4   0 -21 189.718 139.159   6
  -4   0 -20 7266.62 562.793   6
   4   0 -20 8029.75 944.815   2
   4   0 -19 277.715 194.087   2
  -4   0 -19 57.2946 109.651   6
   4   0 -18 3046.29 544.026   2
  -4   0 -18 2806.39 334.039   6
   4   0 -17 204.732 170.853   2
  -4   0 -17 10.8404 68.4443   6
  -4   0 -16 15781.4 777.922   6
  -4   0 -15 39.3820 84.9417   6
  -4   0 -14 1421.05 223.722   6
   4   0 -13 0.33774 26.4048   6
  -4   0 -13 111.101 104.025   6
   4   0 -12 39904.4 779.969   6
  -4   0 -12 46246.9 1290.97   6
   4   0 -11 2.92498 34.6683   6
  -4   0 -11 77.0140 93.9849   6
   4   0 -10 232.960 43.1512   6
  -4   0 -10 425.352 123.599   6
   4   0  -9-0.46079 21.5822   6
  -4   0  -9 13.6771 65.5905   6
   4   0  -8 14021.0 401.124   6
  -4   0  -8 14672.1 613.608   6
  -4   0  -7 58.3845 70.7356   6
   4   0  -7-8.83415 29.8452   6
  -4   0  -6 10629.3 484.300   6
   4   0  -6 9613.92 343.977   6
   4   0  -5 23.0349 40.6575   3
  -4   0  -5-3.48147 15.6021   4
  -4   0  -5 72.2496 66.8413   6
   4   0  -5 51.6131 46.4646   6
   4   0  -4 43491.4 1006.90   3
  -4   0  -4 42149.8 1068.42   6
   4   0  -4 40664.1 921.457   6
  -4   0  -4 39071.6 848.153   4
   4   0  -3 24.8214 34.5540   3
  -4   0  -3-5.17106 24.0397   4
  -4   0  -3 58.0555 58.8350   6
   4   0  -3 74.4821 44.0342   6
  -4   0  -2 1441.83 161.563   6
   4   0  -2 1465.38 147.085   6
  -4   0  -2 1278.91 140.057   4
  -4   0  -1 25.6489 34.4129   5
  -4   0  -1 39.8037 52.4525   6
  -4   0  -1 65.4870 54.6266   4
   4   0  -1 40.5854 62.9599   6
  -4   0   0 170765. 2944.79   6
   4   0   0 169774. 2956.52   6
  -4   0   0 163713. 2968.54   5
  -4   0   1 105.559 63.1163   6
  -4   0   1 91.7917 70.7434   4
   4   0   1 98.3378 68.7079   6
  -4   0   2 1342.70 145.458   6
  -4   0   2 1636.88 195.357   4
   4   0   2 1431.69 164.915   6
  -4   0   3 9.39919 46.7579   6
  -4   0   3 21.5773 53.0742   4
   4   0   3 61.6317 75.0481   6
  -4   0   4 43632.1 1141.98   1
  -4   0   4 44322.3 1017.87   6
  -4   0   4 46556.8 1295.36   4
  -4   0   5 8.23040 36.7049   5
  -4   0   5-0.69040 35.5644   6
  -4   0   5 44.8057 61.0165   4
  -4   0   5 26.2608 60.6344   1
  -4   0   6 12639.3 638.595   4
  -4   0   6 10890.6 426.238   6
  -4   0   6 10339.7 512.483   1
  -4   0   6 10918.2 429.880   5
  -4   0   7 63.5841 45.9958   5
  -4   0   7 44.4638 58.6429   4
  -4   0   7 38.7326 63.0545   1
  -4   0   8 19301.4 869.879   4
  -4   0   8 17901.9 732.049   1
  -4   0   8 18565.2 596.103   5
  -4   0   9 121.569 76.4657   1
  -4   0   9-7.07444 43.7885   5
  -4   0   9 48.5663 71.5274   4
  -4   0  10 267.783 121.666   1
  -4   0  10 103.818 45.8144   5
  -4   0  10 170.311 93.1657   4
  -4   0  11 25.8205 94.5777   1
  -4   0  11-37.9126 37.3798   5
  -4   0  12 57190.0 1650.08   1
  -4   0  13-154.460 103.195   1
  -4   0  14 2052.53 299.002   1
  -4   0  15 70.6626 92.7433   1
  -4   0  16 20073.3 1008.80   1
  -4   0  17-51.5249 101.942   1
  -4   0  18 2994.35 401.288   1
  -4   0  19-130.881 153.601   1
  -4   0  20 9647.32 788.993   1
  -4   0  21-50.1869 146.542   1
  -4   0  22-102.316 151.440   1
  -4   0  23-86.3045 195.863   1
   4   1 -23 2348.77 587.757   2
   4  -1 -23 2701.61 553.281   2
  -4  -1 -23 1765.44 281.813   6
   4   1 -22 2120.56 540.357   2
   4  -1 -22 2311.94 505.913   2
  -4  -1 -22 1835.25 295.761   6
  -4   1 -22 1788.81 292.138   6
   4   1 -21 1809.05 483.848   2
   4  -1 -21 1261.88 351.375   2
  -4  -1 -21 1657.76 270.541   6
  -4   1 -21 1866.39 311.453   6
   4   1 -20 943.601 350.550   2
   4  -1 -20 640.274 275.152   2
  -4  -1 -20 549.080 180.460   6
  -4   1 -20 822.743 203.230   6
  -4  -1 -19 6876.13 532.926   6
  -4   1 -19 6293.51 533.086   6
   4   1 -19 6978.07 885.979   2
   4   1 -18 570.783 271.515   2
  -4  -1 -18 936.577 213.864   6
  -4   1 -18 795.574 193.128   6
   4   1 -17 1584.19 420.029   2
  -4  -1 -17 2028.16 285.740   6
  -4   1 -17 1520.58 255.568   6
  -4   1 -16 4322.34 419.849   6
  -4  -1 -16 4277.22 392.070   6
   4   1 -16 4526.78 660.496   2
  -4  -1 -15 6728.09 485.644   6
  -4   1 -15 8333.12 570.026   6
  -4  -1 -14 1475.84 222.853   6
  -4   1 -14 1648.68 259.946   6
   4   1 -13 898.412 116.613   6
  -4  -1 -13 934.554 185.022   6
  -4   1 -13 771.820 170.878   6
   4   1 -12 538.000 105.694   6
  -4  -1 -12 628.105 151.023   6
  -4   1 -12 444.952 139.321   6
   4   1 -11 5117.26 295.237   6
  -4  -1 -11 5037.42 375.721   6
  -4   1 -11 5736.10 427.441   6
   4  -1 -11 5579.25 282.585   5
   4   1 -10 5336.82 302.616   6
  -4  -1 -10 5592.91 387.994   6
  -4   1 -10 6018.86 429.657   6
   4  -1 -10 5682.10 291.431   5
   4   1  -9 6930.97 344.073   6
  -4  -1  -9 6672.89 421.210   6
  -4   1  -9 8254.28 486.096   6
   4  -1  -9 7112.62 333.422   5
   4   1  -8 2028.85 178.604   6
  -4  -1  -8 2060.09 224.312   6
  -4   1  -8 2160.85 243.192   6
   4  -1  -8 2110.39 178.309   5
   4   1  -7 8907.65 394.284   6
  -4  -1  -7 8558.51 456.254   6
  -4   1  -7 9692.23 502.055   6
  -4  -1  -6 1530.00 190.750   6
   4   1  -6 1715.17 167.598   6
  -4   1  -6 1388.18 196.976   6
   4   1  -5 9276.49 411.431   6
  -4   1  -5 8939.39 373.152   1
  -4  -1  -5 9762.53 477.758   6
  -4   1  -5 9837.88 482.859   6
   4   1  -5 10127.3 529.258   4
   4  -1  -5 10072.0 425.441   3
  -4  -1  -4 5849.85 262.584   3
  -4   1  -4 6325.94 310.779   1
  -4  -1  -4 6526.98 378.469   6
   4   1  -4 6535.14 341.827   6
  -4   1  -4 6351.12 372.310   6
   4  -1  -4 7261.67 336.334   3
  -4  -1  -3 8233.22 322.894   3
  -4   1  -3 7941.73 361.380   1
  -4  -1  -3 8458.87 426.019   6
   4   1  -3 8584.80 402.365   6
  -4   1  -3 8136.20 402.309   6
   4  -1  -3 8686.67 356.578   3
  -4  -1  -2 3639.76 211.850   3
  -4   1  -2 3882.32 252.950   1
  -4  -1  -2 4320.73 293.890   6
   4   1  -2 3869.59 275.409   6
  -4   1  -2 3625.66 250.950   6
   4  -1  -2 3884.51 219.252   3
  -4  -1  -1 5018.24 318.175   6
  -4   1  -1 4242.77 274.176   1
   4   1  -1 4719.01 298.267   6
  -4   1  -1 4045.07 256.602   6
   4  -1  -1 4495.27 219.773   3
  -4  -1  -1 4688.72 245.355   3
  -4  -1   0 786.952 119.297   6
  -4   1   0 784.376 110.898   6
   4   1   0 753.523 127.393   6
  -4   1   0 843.651 125.637   1
  -4  -1   0 874.693 110.114   3
   4  -1   0 709.010 85.1070   3
   4  -1   1 4779.88 201.777   3
  -4  -1   1 5181.29 321.024   6
  -4   1   1 4628.14 260.216   6
  -4   1   1 4788.24 304.318   1
  -4   1   1 5577.54 327.143   5
  -4  -1   1 5547.11 280.862   3
  -4  -1   2 3499.89 260.098   6
  -4   1   2 3265.68 210.983   6
  -4   1   2 3153.91 264.579   1
  -4  -1   2 3722.99 239.649   3
  -4   1   2 3647.01 260.608   5
  -4  -1   3 10095.5 456.211   6
  -4   1   3 9591.26 359.157   6
  -4   1   3 9145.79 460.752   1
  -4   1   3 9845.73 532.349   4
  -4  -1   3 10387.0 426.768   3
  -4   1   3 10414.0 464.432   5
  -4  -1   4 6491.73 366.721   6
  -4   1   4 5730.58 257.297   6
  -4   1   4 6203.55 383.150   1
  -4   1   4 6425.95 434.601   4
  -4   1   4 6178.11 495.697   2
  -4  -1   4 5329.70 281.521   5
  -4  -1   4 6459.85 344.582   3
  -4  -1   5 10292.1 481.023   6
  -4   1   5 9915.89 335.861   6
  -4   1   5 10336.6 660.026   2
  -4   1   5 11502.2 608.465   4
  -4   1   5 9669.58 499.931   1
  -4  -1   5 9081.33 371.038   5
  -4  -1   5 11051.1 470.469   3
  -4   1   6 2098.69 295.470   2
  -4   1   6 2076.70 134.218   6
  -4   1   6 2549.26 289.611   4
  -4   1   6 2287.94 237.571   1
  -4  -1   6 2363.96 218.975   3
  -4  -1   6 2060.07 160.442   5
  -4   1   7 9715.79 655.579   2
  -4   1   7 10446.3 616.273   4
  -4   1   7 9688.82 529.817   1
  -4  -1   7 10255.4 487.137   3
  -4  -1   7 9676.17 358.938   5
  -4  -1   8 2339.09 252.926   1
  -4   1   8 2905.96 330.805   4
  -4   1   8 2582.38 281.298   1
  -4  -1   8 2762.58 251.040   3
  -4  -1   8 2456.35 162.900   5
  -4   1   8 2201.76 304.993   2
  -4  -1   9 7419.03 462.846   1
  -4   1   9 8642.75 592.186   4
  -4  -1   9 7854.93 444.659   3
  -4   1   9 7642.57 507.857   1
  -4  -1   9 7505.51 285.988   5
  -4   1  10 7563.50 444.147   5
  -4  -1  10 8028.15 485.833   1
  -4   1  10 8198.22 596.981   4
  -4  -1  10 8041.14 461.907   3
  -4   1  10 7678.68 513.113   1
  -4  -1  10 6346.20 231.411   5
  -4   1  11 6355.14 475.847   1
  -4   1  11 5704.36 381.144   5
  -4  -1  11 5402.84 417.405   1
  -4   1  11 5994.01 522.190   4
  -4  -1  12 644.954 163.235   1
  -4   1  12 452.598 143.585   1
  -4   1  12 647.313 128.194   5
  -4   1  12 586.708 176.395   4
  -4  -1  13 1798.88 256.420   1
  -4   1  13 1339.26 241.816   1
  -4   1  13 1699.86 303.232   4
  -4  -1  14 1429.07 231.268   1
  -4   1  14 1653.71 283.331   1
  -4   1  14 1643.30 305.289   4
  -4   1  15 9492.11 691.453   1
  -4   1  15 10346.1 790.419   4
  -4  -1  15 9409.00 638.123   1
  -4   1  16 4587.75 484.753   1
  -4   1  16 5103.72 575.678   4
  -4  -1  16 5078.14 474.772   1
  -4   1  17 2516.67 385.753   1
  -4   1  17 2876.51 449.541   4
  -4  -1  17 3014.26 388.741   1
  -4   1  18 1063.11 270.990   1
  -4  -1  18 628.352 189.900   1
  -4  -1  19 9209.91 714.615   1
  -4   1  19 8807.12 764.264   1
  -4  -1  20 626.988 200.483   1
  -4   1  20 661.304 204.188   1
  -4  -1  21 1795.28 352.300   1
  -4   1  21 1738.23 366.770   1
  -4  -1  22 3332.03 465.105   1
  -4  -1  23 3872.22 556.253   1
  -4  -2 -22 1135.24 238.413   6
  -4  -2 -21 5639.08 507.860   6
  -4   2 -21 4777.97 493.995   6
   4   2 -20 759.046 328.997   2
  -4  -2 -20 994.298 211.247   6
  -4   2 -20 1028.05 244.651   6
   4   2 -19 3711.44 642.982   2
  -4   2 -19 3642.51 423.539   6
  -4  -2 -19 3756.31 399.199   6
   4   2 -18 4407.64 693.622   2
  -4  -2 -18 3119.25 357.022   6
  -4   2 -18 3500.15 406.264   6
  -4  -2 -17 6484.82 497.822   6
  -4   2 -17 6195.61 533.575   6
  -4  -2 -16 2523.75 306.725   6
  -4   2 -16 2921.69 360.503   6
   4  -2 -16 2943.17 229.245   5
  -4  -2 -15 9308.03 572.521   6
  -4   2 -15 8596.75 615.240   6
   4  -2 -15 7957.13 392.547   5
  -4  -2 -14 2401.05 282.519   6
  -4   2 -14 2941.01 355.799   6
   4  -2 -14 2748.39 230.002   5
  -4  -2 -13 6936.69 481.857   6
  -4   2 -13 8062.76 570.667   6
   4  -2 -13 7295.08 381.881   5
   4  -2 -12 610.890 116.617   5
  -4  -2 -12 375.605 123.596   6
  -4   2 -12 739.137 191.623   6
  -4   2 -11 6887.19 303.196   1
  -4  -2 -11 7126.15 456.937   6
  -4   2 -11 7323.29 521.042   6
   4  -2 -11 6607.20 369.738   5
  -4  -2 -10 4736.26 373.073   6
  -4   2 -10 5015.30 417.250   6
   4  -2 -10 4614.88 309.512   5
  -4   2 -10 5253.25 261.704   1
  -4  -2  -9 24620.4 894.609   6
  -4   2  -9 25142.0 983.079   6
   4  -2  -9 23882.3 790.389   5
  -4  -2  -8 2700.82 282.757   6
  -4   2  -8 2715.63 302.673   6
  -4   2  -8 2722.82 199.756   1
   4  -2  -8 2567.52 234.859   5
  -4  -2  -7 16041.2 679.099   6
  -4   2  -7 15798.6 719.400   6
  -4   2  -7 17556.9 556.440   1
   4  -2  -7 15543.3 615.474   5
  -4  -2  -6 13100.7 607.976   6
  -4   2  -6 13052.8 637.938   6
  -4   2  -6 14197.9 501.773   1
   4  -2  -6 13597.4 567.200   5
  -4  -2  -5 22552.7 827.205   6
  -4   2  -5 24580.9 864.703   6
  -4   2  -5 25456.8 730.034   1
   4  -2  -5 24012.1 791.998   5
  -4   2  -4 1408.38 195.196   6
   4   2  -4 1206.71 187.433   4
  -4  -2  -4 1421.53 191.694   6
  -4   2  -4 1427.28 162.060   1
   4  -2  -4 1639.19 192.739   5
  -4  -2  -3 20986.9 760.738   6
  -4   2  -3 20561.3 740.639   6
   4   2  -3 18929.1 738.336   4
  -4   2  -3 21163.3 684.111   1
   4  -2  -3 20896.5 733.548   5
  -4  -2  -2 7507.20 433.429   6
  -4   2  -2 7356.74 408.584   6
  -4   2  -2 7739.11 395.287   1
   4  -2  -2 7102.84 415.235   5
  -4  -2  -1 12561.2 573.322   6
  -4   2  -1 13233.1 522.220   6
   4  -2  -1 13423.9 575.696   5
  -4   2  -1 12749.1 533.512   1
   4  -2   0 51.6865 54.6370   5
  -4  -2   0 56.9137 39.5815   3
  -4  -2   0 170.853 95.7543   6
   4   2   0 85.7810 51.7514   4
  -4   2   0 103.139 63.0722   6
  -4   2   0 110.387 68.3112   1
  -4  -2   1 10297.5 468.866   3
  -4  -2   1 9979.92 509.420   6
  -4   2   1 9908.40 411.513   6
   4   2   1 8258.56 395.095   4
   4  -2   1 10249.5 511.856   5
  -4   2   1 10724.7 502.010   1
  -4  -2   2 6350.45 367.065   3
  -4  -2   2 6142.97 397.949   6
  -4   2   2 6131.00 297.414   6
   4   2   2 5208.64 283.464   4
   4  -2   2 5145.58 214.246   3
   4  -2   2 6107.50 395.321   5
  -4   2   2 6244.25 386.744   1
  -4  -2   3 24232.8 769.711   3
  -4   2   3 24898.6 838.109   1
  -4  -2   3 25045.7 857.821   6
  -4   2   3 23674.8 599.473   6
   4   2   3 22236.3 605.938   4
  -4   2   4 2552.10 265.833   1
  -4   2   4 1663.86 236.149   2
  -4  -2   4 2475.61 258.204   6
  -4   2   4 2284.77 152.786   6
   4   2   4 2176.58 142.939   4
  -4  -2   4 2405.94 231.233   3
  -4   2   5 19696.6 787.233   1
  -4   2   5 19931.5 479.985   6
  -4  -2   5 19522.1 707.919   3
  -4   2   6 12692.8 635.332   1
  -4   2   6 11992.3 304.786   6
  -4   2   6 12327.4 653.120   2
  -4  -2   6 12844.0 567.523   3
  -4   2   7 20317.5 853.097   1
  -4   2   7 21391.1 882.564   2
  -4  -2   7 21471.3 778.791   3
  -4   2   8 3372.38 338.386   1
  -4   2   8 3417.17 326.473   2
  -4  -2   8 3148.19 180.319   5
  -4  -2   8 3408.12 300.947   3
  -4  -2   9 23426.4 618.353   5
  -4   2   9 23157.2 971.087   1
  -4   2   9 26401.6 957.599   2
  -4   2   9 24214.2 1096.71   4
  -4  -2   9 22839.9 547.185   5
  -4  -2   9 22970.7 854.803   3
  -4  -2  10 3680.49 158.829   5
  -4   2  10 5558.09 466.151   1
  -4   2  10 5940.44 530.723   4
  -4  -2  10 5626.42 405.296   3
  -4  -2  10 3457.33 137.205   5
  -4  -2  11 9720.09 579.133   1
  -4   2  11 9540.11 634.598   1
  -4   2  11 10541.2 737.152   4
  -4  -2  11 10530.7 584.035   3
  -4  -2  12 359.746 123.938   3
  -4   2  12 182.810 131.912   1
  -4  -2  12 258.144 105.212   1
  -4   2  12 374.616 159.923   4
  -4   2  13 7350.99 597.412   1
  -4  -2  13 6893.40 510.053   1
  -4   2  13 7601.93 653.387   4
  -4  -2  13 7085.17 502.205   3
  -4   2  14 3822.99 439.659   1
  -4  -2  14 3012.37 349.995   1
  -4   2  14 3658.86 461.564   4
  -4  -2  14 3442.38 363.246   3
  -4  -2  15 13251.7 762.131   1
  -4   2  15 12677.5 843.293   1
  -4   2  15 13106.6 920.348   4
  -4  -2  15 12357.5 710.806   3
  -4   2  16 2518.77 392.116   1
  -4  -2  16 2775.80 362.418   1
  -4   2  16 2732.37 438.759   4
  -4   2  17 5764.39 653.181   4
  -4   2  17 6132.52 622.665   1
  -4  -2  17 6171.96 547.940   1
  -4   2  18 6026.28 682.187   4
  -4  -2  18 5572.54 536.567   1
  -4   2  19 7114.61 769.065   4
  -4  -2  19 6264.33 595.320   1
  -4   2  20 1576.66 387.639   4
  -4  -2  20 1254.31 276.939   1
  -4  -2  21 5964.00 607.386   1
  -4   2  21 6020.63 739.616   4
  -4  -3 -21 665.828 205.752   6
  -4  -3 -20 1240.66 244.886   6
  -4  -3 -19 310.530 163.249   6
  -4   3 -19 310.099 161.094   6
  -4  -3 -18 344.476 160.720   6
  -4   3 -18 398.598 159.468   6
  -4  -3 -17 624.320 154.120   6
  -4   3 -17 664.203 212.507   6
   4  -3 -16 1478.89 208.700   5
  -4  -3 -16 1451.25 247.621   6
  -4   3 -16 1243.79 253.197   6
   4  -3 -15 528.178 123.773   5
  -4  -3 -15 364.430 120.877   6
  -4   3 -15 225.159 137.874   6
  -4  -3 -14 3761.97 372.337   6
  -4   3 -14 4475.40 471.788   6
   4  -3 -14 4575.71 373.348   5
  -4  -3 -13 2125.18 278.223   6
  -4   3 -13 2126.10 315.179   6
   4  -3 -13 2080.71 257.617   5
  -4  -3 -12 9939.77 588.795   6
  -4   3 -12 9799.85 665.947   6
   4  -3 -12 9348.71 546.188   5
   4  -3 -11 644.831 156.615   5
  -4  -3 -11 272.493 95.4055   6
  -4   3 -11 551.390 159.169   6
  -4  -3 -10 4568.56 389.969   6
  -4   3 -10 5164.47 467.531   6
   4  -3 -10 5670.58 420.330   5
   4  -3  -9 1416.51 216.623   5
  -4  -3  -9 1303.19 208.924   6
  -4   3  -9 1186.09 226.480   6
  -4  -3  -8 2248.96 270.587   6
  -4   3  -8 2210.69 294.221   6
   4  -3  -8 2663.05 288.287   5
   4  -3  -7 35.3809 62.0616   5
  -4  -3  -7 83.9043 92.2046   6
  -4   3  -7-70.1574 75.6937   6
   4  -3  -6 902.122 169.005   5
  -4  -3  -6 649.292 159.901   6
  -4   3  -6 953.544 194.147   6
   4  -3  -5 203.834 84.3040   5
  -4  -3  -5 395.060 130.714   6
  -4   3  -5 376.370 131.863   6
  -4  -3  -4 2405.50 279.124   6
  -4   3  -4 3274.45 323.466   1
  -4   3  -4 2850.88 295.571   6
   4  -3  -4 3042.45 306.547   5
   4  -3  -3 358.981 124.036   5
  -4   3  -3 260.105 116.740   1
  -4  -3  -3 476.275 137.810   6
  -4   3  -3 404.551 120.197   6
  -4  -3  -2 9231.12 535.876   6
  -4   3  -2 10634.9 569.523   1
  -4   3  -2 9500.64 532.332   6
   4  -3  -2 9485.40 554.845   5
  -4  -3  -1 1748.79 241.133   6
  -4   3  -1 1718.00 235.737   1
  -4   3  -1 1633.90 208.730   6
   4  -3  -1 1645.96 237.789   5
  -4  -3   0 14441.1 698.737   6
  -4   3   0 15653.0 714.431   1
  -4   3   0 15006.8 625.847   6
   4  -3   0 15050.7 712.989   5
  -4   3   1 1790.46 245.808   1
  -4   3   1 1827.83 205.971   6
  -4  -3   1 1673.11 236.615   6
   4  -3   1 1688.89 236.199   5
  -4  -3   2 9766.83 574.221   6
  -4   3   2 9572.26 570.257   1
  -4   3   2 10081.1 455.795   6
   4  -3   2 9619.54 571.008   5
   4  -3   3 751.511 173.325   5
  -4   3   3 392.509 98.4235   2
  -4  -3   3 479.143 148.253   3
  -4   3   3 763.194 117.369   6
  -4   3   3 686.021 161.021   1
  -4  -3   4 1854.61 246.066   3
  -4   3   4 2029.83 279.724   1
  -4   3   4 1988.41 165.293   6
  -4   3   4 1355.47 173.832   2
   4  -3   4 1646.39 245.791   5
   4  -3   5 372.974 127.959   5
  -4  -3   5 357.639 121.511   3
  -4   3   5 243.841 104.175   1
  -4  -3   5 514.640 123.534   5
  -4   3   5 417.691 74.4546   6
  -4   3   5 220.629 54.0718   2
   4  -3   6 1088.06 203.542   5
  -4  -3   6 794.712 165.706   3
  -4  -3   6 1103.28 164.572   5
  -4   3   6 1000.30 201.301   1
  -4   3   6 784.021 120.093   2
  -4   3   6 980.079 85.6537   6
  -4  -3   7-36.1168 80.3835   3
   4  -3   7-13.7497 28.7916   3
  -4  -3   7-72.4179 70.7640   5
  -4   3   7 34.9373 64.9383   1
  -4  -3   8 2329.62 216.674   5
  -4   3   8 2279.27 319.636   1
  -4  -3   8 2761.93 297.760   3
  -4  -3   9 1388.53 153.861   5
  -4  -3   9 1762.38 247.038   3
  -4   3   9 1420.49 258.899   1
  -4   3  10 5629.54 525.847   1
  -4  -3  10 6209.84 475.573   3
  -4  -3  11 349.983 136.528   3
  -4   3  12 10525.8 815.078   4
  -4  -3  12 10639.3 659.006   3
  -4  -3  13 2900.00 338.204   1
  -4   3  13 2806.71 422.084   4
  -4  -3  13 3242.69 374.886   3
  -4  -3  14 5047.13 454.878   1
  -4   3  14 5471.36 612.881   4
  -4  -3  14 6274.64 528.856   3
  -4  -3  15 463.250 166.180   3
  -4   3  15 314.835 163.027   4
  -4  -3  15 396.123 139.487   1
  -4  -3  16 1949.00 308.039   3
  -4   3  16 1837.90 363.321   4
  -4  -3  16 1238.73 254.085   1
  -4  -3  17 1350.24 261.357   3
  -4  -3  17 951.782 226.002   1
  -4   3  17 1102.20 294.472   4
  -4  -3  18 657.650 207.419   3
  -4  -3  18 153.815 96.8660   1
  -4   3  18 674.101 227.643   4
  -4  -3  19 1.60364 158.552   1
  -4   3  19 288.995 212.422   4
  -4   3  20 1591.68 379.017   4
  -4  -4 -19 2705.29 368.750   6
  -4  -4 -18 796.781 200.353   6
   4  -4 -17 2697.66 353.641   5
  -4  -4 -17 2464.91 332.536   6
  -4   4 -17 2808.36 414.375   6
  -4  -4 -16 3275.77 363.188   6
  -4   4 -16 3013.22 420.530   6
   4  -4 -16 2977.69 371.669   5
  -4  -4 -15 2979.49 358.806   6
  -4   4 -15 2793.47 406.473   6
   4  -4 -15 2836.90 364.413   5
  -4  -4 -14 3675.76 382.653   6
  -4   4 -14 3454.34 426.136   6
   4  -4 -14 3202.59 381.966   5
   4  -4 -13 1235.22 245.820   5
  -4  -4 -13 1409.71 241.410   6
  -4   4 -13 1822.79 315.915   6
  -4  -4 -12 4902.61 436.226   6
  -4   4 -12 5005.62 500.752   6
   4  -4 -12 4665.62 468.026   5
  -4  -4 -11 3892.69 384.047   6
  -4   4 -11 3251.60 406.385   6
   4  -4 -11 3678.21 412.663   5
  -4  -4 -10 6636.72 499.177   6
  -4   4 -10 5497.62 532.906   6
   4  -4 -10 7008.19 564.574   5
  -4  -4  -9 3135.87 337.899   6
  -4   4  -9 2646.62 351.887   6
   4  -4  -9 3307.03 382.721   5
  -4  -4  -8 8767.30 571.280   6
  -4   4  -8 8702.48 618.403   6
   4  -4  -8 9661.18 658.593   5
  -4  -4  -7 8464.67 565.875   6
  -4   4  -7 7939.31 603.656   6
   4  -4  -7 8891.60 635.114   5
  -4  -4  -6 6630.65 491.732   6
  -4   4  -6 6367.82 510.778   6
   4  -4  -6 6975.59 557.356   5
  -4  -4  -5 4384.56 400.238   6
  -4   4  -5 3928.05 405.697   6
   4  -4  -5 4692.62 452.783   5
  -4  -4  -4 9730.58 611.418   6
  -4   4  -4 8631.25 593.252   6
   4  -4  -4 10521.6 676.255   5
  -4  -4  -3 7457.78 546.145   6
  -4   4  -3 8026.38 550.179   6
   4  -4  -3 8699.59 614.879   5
  -4  -4  -2 6793.93 514.187   6
  -4   4  -2 6737.00 486.855   6
   4  -4  -2 7058.59 564.261   5
  -4  -4  -1 2292.11 293.926   5
  -4  -4  -1 2393.54 308.259   6
  -4   4  -1 2638.66 308.146   6
   4  -4  -1 3047.86 358.781   5
  -4  -4   0 6606.37 493.343   5
  -4  -4   0 6657.83 511.034   6
  -4   4   0 6319.28 463.708   6
   4  -4   0 6418.24 533.459   5
  -4  -4   1 3588.63 361.224   5
  -4   4   1 4019.31 351.369   6
   4  -4   1 3935.74 408.625   5
  -4  -4   2 6307.36 475.795   5
  -4   4   2 7300.82 455.951   6
   4  -4   2 7370.86 561.674   5
  -4  -4   3 7444.77 511.159   5
  -4   4   3 7622.04 453.460   6
   4  -4   3 7846.18 585.660   5
  -4  -4   4 9142.09 644.858   3
  -4  -4   4 10547.8 607.758   5
  -4   4   4 11684.4 530.208   6
   4  -4   4 9778.55 662.737   5
  -4  -4   5 6010.48 524.589   3
  -4  -4   5 6405.72 457.071   5
  -4   4   5 6888.25 372.684   6
   4  -4   5 6008.56 515.033   5
  -4  -4   6 6917.72 569.939   3
  -4  -4   6 7301.28 483.230   5
   4  -4   6 7056.41 554.717   5
  -4  -4   7 8466.67 624.372   3
  -4  -4   7 8922.48 516.263   5
   4  -4   7 7857.50 596.575   5
  -4  -4   8 9420.13 666.182   3
  -4  -4   8 9981.27 528.872   5
   4  -4   8 9231.64 648.884   5
  -4  -4   9 4510.32 461.754   3
  -4  -4  10 8616.16 640.431   3
  -4  -4  11 3395.23 405.672   3
  -4  -4  12 5793.41 541.936   3
  -4  -4  13 3125.86 408.407   3
  -4   4  14 4165.74 580.686   4
  -4  -4  14 3657.37 452.395   3
  -4  -4  15 2918.64 399.978   3
  -4  -4  15 1868.31 303.070   1
  -4   4  15 2249.68 421.085   4
  -4  -4  16 3305.78 407.963   1
  -4   4  16 3250.42 531.654   4
  -4  -4  16 4177.40 496.367   3
  -4  -4  17 3104.26 400.469   1
  -4   4  17 3520.23 553.900   4
  -4  -4  17 4042.14 499.831   3
   4  -5 -17 505.025 228.626   5
   4  -5 -16 667.729 234.235   5
  -4   5 -16 1092.85 284.897   2
   4  -5 -15 588.218 206.003   5
  -4  -5 -15 965.133 232.277   6
  -4   5 -15 370.768 188.029   2
   4  -5 -14 1085.14 256.840   5
  -4  -5 -14 723.531 252.055   5
  -4  -5 -14 1463.46 273.007   6
  -4   5 -14 1077.16 310.218   2
  -4   5 -14 1282.31 277.022   6
   4  -5 -13-31.5224 122.640   5
  -4  -5 -13 71.7598 122.274   5
  -4  -5 -13 193.068 103.649   6
  -4   5 -13-108.135 132.505   6
   4  -5 -12 356.581 193.875   5
  -4  -5 -12 518.833 198.541   5
  -4  -5 -12 931.268 234.111   6
  -4   5 -12 689.699 184.602   6
   4  -5 -11 801.763 225.071   5
  -4  -5 -11 764.460 238.590   5
  -4  -5 -11 466.797 149.373   6
  -4   5 -11 179.992 112.845   6
   4  -5 -10 420.632 162.892   5
  -4  -5 -10 467.782 194.991   5
  -4  -5 -10 320.147 145.038   6
  -4   5 -10 231.279 98.7803   6
   4  -5  -9 563.989 206.438   5
  -4  -5  -9 511.241 188.353   5
  -4  -5  -9 632.104 185.309   6
  -4   5  -9 316.038 142.933   6
  -4  -5  -8 3373.93 415.038   5
  -4  -5  -8 3957.10 424.923   6
  -4   5  -8 2846.06 391.085   6
   4  -5  -8 3778.95 474.971   5
   4  -5  -7 1319.65 279.514   5
  -4  -5  -7 1599.55 290.170   5
  -4  -5  -7 2082.09 319.100   6
  -4  -5  -6 4239.96 453.132   5
  -4  -5  -6 4338.14 441.637   6
   4  -5  -6 4731.48 521.172   5
   4  -5  -5 958.944 260.507   5
  -4  -5  -5 715.508 202.287   5
  -4  -5  -5 852.247 214.871   6
   4  -5  -4 2388.32 371.212   5
  -4  -5  -4 2042.05 318.512   5
  -4  -5  -4 2437.68 327.561   6
   4  -5  -3 1108.58 263.544   5
  -4  -5  -3 897.591 216.852   5
   4  -5  -2 2050.42 348.979   5
  -4  -5  -2 1837.54 288.545   5
   4  -5  -1 76.6617 95.1557   5
  -4  -5  -1 85.8345 105.057   5
   4  -5   0-156.792 149.770   5
  -4  -5   0-81.2540 85.0722   5
   4  -5   1 94.1117 120.019   5
  -4  -5   1 283.577 133.917   5
   4  -5   2 1187.31 273.232   5
  -4  -5   2 1227.76 251.755   5
   4  -5   3 1123.66 252.300   5
  -4  -5   3 1367.94 234.970   5
  -4  -5   4 2479.40 326.988   5
   4  -5   4 1972.41 347.267   5
   4  -5   5 978.184 237.014   5
  -4  -5   5 622.428 187.178   3
  -4  -5   5 960.967 209.350   5
  -4  -5   6 3822.23 487.459   3
  -4  -5   6 4816.50 423.910   5
   4  -5   6 4827.93 512.885   5
   4  -5   7 2322.03 358.661   5
  -4  -5   7 1816.49 341.942   3
  -4  -5   7 2164.15 275.901   5
  -4  -5   8 4330.95 509.779   3
   4  -5   8 4445.68 499.226   5
   4  -5   9 424.233 156.059   5
  -4  -5   9 176.540 107.302   3
   4  -5  10 461.997 181.645   5
  -4  -5  10 571.124 213.514   3
  -4  -5  11 708.270 239.154   3
  -4  -5  12 996.640 255.692   3
  -4  -5  13 370.681 180.728   3
  -4  -5  14 1011.02 254.511   3
   4  -6 -12 332.208 186.345   5
   4  -6 -11 2649.40 449.073   5
  -4   6 -11 1775.76 327.405   6
  -4  -6 -10 3884.77 455.096   6
   4  -6 -10 3951.99 546.455   5
   4  -6  -9 2335.90 416.391   5
  -4  -6  -9 2166.94 367.405   5
   4  -6  -8 544.148 214.488   5
  -4  -6  -8 365.276 186.498   5
   4  -6  -7 2006.64 368.496   5
  -4  -6  -7 1704.48 326.694   5
   4  -6  -6 2120.90 390.877   5
  -4  -6  -6 1812.21 323.660   5
   4  -6  -5 2001.94 374.578   5
  -4  -6  -5 1710.88 321.601   5
   4  -6  -4 551.185 211.705   5
  -4  -6  -4 472.756 214.073   5
  -4  -6  -3 5435.09 557.105   5
   4  -6  -3 5457.93 613.060   5
  -4  -6  -2 7175.66 636.451   5
   4  -6  -2 7749.77 726.469   5
  -4  -6  -1 4233.40 490.979   5
   4  -6  -1 4657.84 564.636   5
   4  -6   0-202.762 152.611   5
  -4  -6   0-14.7500 98.2352   5
  -4  -6   1 5499.89 540.184   5
   4  -6   1 5298.73 604.090   5
  -4  -6   2 8660.08 671.427   5
   4  -6   2 8164.04 742.109   5
  -4  -6   3 5335.65 517.778   5
   4  -6   3 5085.75 591.776   5
   4  -6   4 653.040 236.648   5
  -4  -6   4 759.708 193.920   5
   4  -6   5 2421.56 414.692   5
  -4  -6   5 1832.82 363.063   3
  -4  -6   5 2420.11 339.423   5
   4  -6   6 1885.21 386.909   5
  -4  -6   6 1824.43 359.290   3
   4  -6   7 1992.25 407.146   5
  -4  -6   7 1853.56 367.628   3
   4  -6   8 811.346 278.441   5
  -4  -6   8 159.650 168.973   3
   4  -6   9 2712.64 440.954   5
   4  -6  10 3497.95 514.827   5
  -4  -7  -1 433.321 175.010   5
  -4  -7   0 115.730 98.7526   5
  -4  -7   1 519.977 205.548   5
  -4  -7   2 410.500 150.616   5
  -5   0 -20 7.17065 116.596   6
  -5   0 -19 6526.28 569.983   6
  -5   0 -18 4.87051 93.0909   6
  -5   0 -17 6435.69 540.210   6
  -5   0 -16 134.605 100.168   6
  -5   0 -15 2786.24 341.920   6
  -5   0 -14 56.6591 100.340   6
  -5   0 -13 556.485 145.259   6
  -5   0 -12-32.3580 73.5502   6
  -5   0 -11 595.548 152.628   6
  -5   0 -10 2.47432 78.3541   6
  -5   0  -9 8725.66 517.816   6
   5   0  -9 7319.47 306.044   6
  -5   0  -8 68.8953 77.1971   6
   5   0  -8 3.73940 29.0773   6
  -5   0  -7 13716.7 636.699   6
   5   0  -7 13867.7 468.860   6
  -5   0  -6 162.393 104.194   6
   5   0  -6 12.5424 45.1149   6
  -5   0  -5 18882.5 723.822   6
   5   0  -5 18857.4 602.853   6
  -5   0  -4 14.3213 59.7870   6
   5   0  -4-12.1271 40.3270   6
  -5   0  -3 6018.81 369.462   6
   5   0  -3 5939.09 337.501   6
  -5   0  -2-3.06189 31.9301   4
  -5   0  -2 14.1005 51.2276   6
   5   0  -2 74.1164 49.2429   6
  -5   0  -1 775.031 135.865   4
  -5   0  -1 673.164 122.841   6
  -5   0   0-12.2557 47.9158   4
  -5   0   0 48.4383 57.7306   6
  -5   0   1 762.221 121.472   6
  -5   0   1 550.447 124.320   4
  -5   0   2-17.1625 53.0518   1
  -5   0   2 19.5335 50.7554   6
  -5   0   2 52.0442 46.1454   4
  -5   0   3 6152.63 402.512   1
  -5   0   3 6808.98 367.409   6
  -5   0   3 6968.55 475.037   4
  -5   0   4 84.2284 63.5062   6
  -5   0   4 15.9914 46.8108   4
  -5   0   4-8.72223 55.8694   1
  -5   0   5 21769.1 702.082   6
  -5   0   5 20842.2 818.269   1
  -5   0   5 21191.0 723.896   5
  -5   0   6 42.1952 65.8152   5
  -5   0   6 8.38257 64.4544   6
  -5   0   6 8.84669 83.2887   4
  -5   0   6-89.9253 85.6455   1
  -5   0   7 15946.8 732.212   1
  -5   0   7 17903.2 876.660   4
  -5   0   8-9.58574 68.2265   1
  -5   0   8 83.9657 79.3053   4
  -5   0   9 9791.96 597.758   1
  -5   0  10 145.186 98.9585   1
  -5   0  11 490.131 140.959   1
  -5   0  12-142.329 118.830   1
  -5   0  13 100.067 116.310   1
  -5   0  14 9.77858 112.875   1
  -5   0  15 3799.02 442.842   1
  -5   0  16 257.991 141.726   1
  -5   0  17 8601.84 708.822   1
  -5   0  18 78.9059 133.146   1
  -5   0  19 10548.6 854.058   1
  -5   0  20 45.0414 125.305   1
  -5   0  21 6634.89 715.883   1
  -5  -1 -20 1147.97 253.988   6
  -5  -1 -19 195.068 148.972   6
  -5   1 -19 79.2180 102.832   6
  -5  -1 -18 2129.09 320.504   6
  -5   1 -18 1834.13 301.209   6
  -5  -1 -17 650.840 181.188   6
  -5   1 -17 641.601 200.124   6
  -5  -1 -16 1751.71 279.282   6
  -5   1 -16 1665.70 284.751   6
  -5  -1 -15 925.918 207.077   6
  -5   1 -15 777.654 201.758   6
  -5  -1 -14 4197.51 400.232   6
  -5   1 -14 4739.08 442.180   6
  -5   1 -13 607.929 92.5591   1
  -5  -1 -13 1209.06 202.262   6
  -5   1 -13 1436.94 259.700   6
  -5  -1 -12 5235.81 427.228   6
  -5   1 -12 5416.02 459.233   6
  -5   1 -11 2135.46 178.089   1
  -5  -1 -11 2432.58 282.322   6
  -5   1 -11 2448.15 301.757   6
  -5   1 -10 3732.33 245.901   1
  -5  -1 -10 4138.89 363.232   6
  -5   1 -10 4462.75 386.434   6
  -5   1  -9 2918.96 222.711   1
  -5  -1  -9 2707.73 290.030   6
  -5   1  -9 2901.00 311.352   6
  -5  -1  -9 1710.43 121.676   3
  -5   1  -8 3286.36 239.645   1
  -5  -1  -8 3459.37 316.946   6
  -5   1  -8 3768.65 335.002   6
  -5  -1  -7 590.041 71.7749   3
  -5   1  -7 743.670 119.696   1
  -5  -1  -7 1015.43 170.921   6
   5   1  -7 677.042 116.859   6
  -5   1  -7 798.920 164.795   6
  -5   1  -6 3448.18 257.928   1
  -5  -1  -6 3347.76 303.968   6
  -5   1  -6 3570.85 311.207   6
  -5  -1  -6 2444.29 162.751   3
  -5  -1  -5 799.911 96.5336   3
  -5   1  -5 1258.59 159.720   1
  -5  -1  -5 1211.39 186.839   6
  -5   1  -5 1080.97 172.794   6
  -5   1  -4 4510.76 302.213   1
  -5  -1  -4 4456.11 342.518   6
  -5   1  -4 4482.37 326.188   6
  -5  -1  -4 3999.19 229.726   3
   5  -1  -4 4823.73 296.919   3
  -5   1  -3 4242.63 301.677   1
  -5  -1  -3 4647.16 343.536   6
  -5   1  -3 4286.37 311.834   6
  -5  -1  -3 3974.62 236.416   3
   5  -1  -3 4579.44 276.598   3
   5  -1  -2 7980.80 358.063   3
  -5  -1  -2 7531.62 444.088   6
  -5   1  -2 7363.58 411.608   1
  -5   1  -2 7152.79 395.621   6
  -5  -1  -2 8485.35 366.071   3
   5  -1  -1 1462.88 145.091   3
  -5  -1  -1 1979.33 229.325   6
  -5   1  -1 1967.74 212.979   1
  -5   1  -1 2132.98 211.992   6
  -5   1  -1 1900.49 215.835   4
  -5  -1  -1 2292.69 192.831   3
  -5  -1   0 8336.05 465.904   6
  -5   1   0 7668.43 395.873   6
  -5   1   0 7968.66 440.169   1
  -5   1   0 7804.51 471.809   4
  -5  -1   0 8832.27 400.039   3
  -5  -1   1 2600.04 253.127   6
  -5   1   1 2612.84 216.258   6
  -5   1   1 2411.88 250.410   1
  -5   1   1 2645.23 281.856   4
  -5  -1   1 2977.64 237.715   3
  -5  -1   2 7392.64 428.957   6
  -5   1   2 7442.82 366.430   6
  -5   1   2 7355.98 447.375   1
  -5   1   2 6925.81 468.534   4
  -5  -1   2 8218.99 408.797   3
  -5  -1   3 5490.32 367.577   6
  -5   1   3 5667.14 309.133   6
  -5   1   3 5521.57 390.593   1
  -5   1   3 5564.12 431.940   4
  -5  -1   3 6255.73 371.240   3
  -5  -1   4 4501.81 336.408   6
  -5   1   4 4110.11 253.556   6
  -5   1   4 4349.24 359.881   1
  -5   1   4 4804.05 413.341   4
  -5  -1   4 4721.43 327.865   3
  -5  -1   4 3749.75 270.255   5
  -5   1   5 1784.83 157.990   6
  -5   1   5 1658.07 246.684   4
  -5  -1   5 1512.59 193.600   6
  -5   1   5 1732.93 227.936   1
  -5  -1   5 1789.47 211.302   3
  -5  -1   5 1617.27 169.635   5
  -5  -1   6 3794.58 310.357   6
  -5   1   6 3608.95 217.832   6
  -5   1   6 3902.31 394.628   4
  -5   1   6 3777.55 345.517   1
  -5  -1   6 4044.73 319.149   3
  -5  -1   7 1295.91 189.459   3
  -5   1   7 834.167 161.436   1
  -5  -1   7 810.041 171.508   1
  -5   1   7 1153.25 225.661   4
  -5  -1   8 3914.06 363.140   1
  -5   1   8 4694.29 453.982   4
  -5   1   8 4399.14 399.834   1
  -5  -1   9 2716.19 309.454   1
  -5   1   9 3277.26 400.125   4
  -5   1   9 3221.83 349.252   1
  -5  -1  10 5664.93 451.776   1
  -5   1  10 6266.72 562.346   4
  -5   1  10 5839.75 490.929   1
  -5  -1  11 2144.70 289.314   1
  -5   1  11 2701.90 376.464   4
  -5   1  11 2256.62 317.190   1
  -5  -1  12 7612.06 568.386   1
  -5   1  12 8462.95 696.748   4
  -5   1  12 7744.43 593.276   1
  -5   1  13 2155.73 324.589   1
  -5  -1  13 1862.71 285.584   1
  -5   1  13 1736.51 318.288   4
  -5   1  14 5012.79 518.869   1
  -5   1  14 5639.29 611.076   4
  -5  -1  14 5462.48 510.415   1
  -5  -1  15 1635.25 280.533   1
  -5   1  15 1370.39 281.693   1
  -5   1  15 1624.77 344.214   4
  -5  -1  16 2654.78 366.420   1
  -5   1  16 2333.94 371.801   1
  -5   1  16 2828.27 463.198   4
  -5  -1  17 859.910 234.378   1
  -5   1  17 959.074 268.461   1
  -5   1  18 2303.23 403.448   1
  -5  -1  18 2957.12 428.136   1
  -5  -1  19 83.7131 159.685   1
  -5   1  19-110.073 139.837   1
  -5   1  20 2021.00 403.951   1
  -5  -1  20 1434.25 320.132   1
  -5  -1  21 1136.70 309.340   1
  -5  -1  22 2364.74 443.983   1
  -5  -2 -19 311.654 130.508   6
  -5   2 -19 415.606 178.245   6
  -5  -2 -18 552.629 167.942   6
  -5   2 -18 242.025 142.722   6
  -5  -2 -17 598.659 168.317   6
  -5   2 -17 606.218 186.793   6
  -5  -2 -16 1183.74 238.708   6
  -5   2 -16 1144.29 265.423   6
  -5  -2 -15 1223.56 235.551   6
  -5   2 -15 1362.34 255.023   6
  -5  -2 -14 2889.11 344.284   6
  -5   2 -14 3842.52 426.396   6
  -5  -2 -13 3043.07 340.804   6
  -5   2 -13 2863.43 372.911   6
   5  -2 -13 3018.35 251.892   5
  -5  -2 -12 3820.93 377.768   6
  -5   2 -12 4283.56 434.848   6
   5  -2 -12 3929.52 294.698   5
  -5  -2 -11 4222.81 396.082   6
  -5   2 -11 4528.35 433.048   6
   5  -2 -11 4607.19 322.055   5
  -5  -2 -10 3443.65 351.440   6
  -5   2 -10 3477.68 368.963   6
  -5   2 -10 3033.24 226.916   1
   5  -2 -10 3131.92 270.095   5
  -5  -2  -9 2188.03 277.339   6
  -5   2  -9 2371.87 296.722   6
  -5   2  -9 2286.20 199.905   1
   5  -2  -9 2029.15 220.427   5
  -5  -2  -8 1399.29 218.492   6
  -5   2  -8 1580.34 171.992   1
  -5   2  -8 1363.29 229.191   6
   5  -2  -8 1419.04 184.473   5
  -5  -2  -7 1348.72 215.904   6
  -5   2  -7 1494.05 170.346   1
  -5   2  -7 1207.44 224.483   6
   5  -2  -7 1506.71 191.587   5
   5  -2  -6 1029.86 161.178   5
  -5   2  -6 1153.54 153.315   1
  -5  -2  -6 911.551 173.366   6
  -5   2  -6 929.957 178.510   6
   5  -2  -5 964.016 163.504   5
  -5   2  -5 855.624 133.929   1
  -5  -2  -5 772.532 158.764   6
  -5   2  -5 1004.53 181.245   6
  -5  -2  -4 1838.58 195.975   3
  -5  -2  -4 2031.06 248.176   6
  -5   2  -4 1847.74 226.530   6
  -5   2  -4 2080.35 211.568   1
  -5  -2  -3 2188.60 216.679   3
  -5  -2  -3 2730.26 286.754   6
  -5   2  -3 2716.55 258.886   6
  -5   2  -3 2821.40 256.904   1
   5  -2  -3 2771.84 222.797   3
  -5  -2  -2 4877.54 325.809   3
  -5  -2  -2 5066.86 391.079   6
  -5   2  -2 4801.42 338.876   6
   5   2  -2 4693.17 363.357   4
  -5   2  -2 4602.27 339.943   1
   5  -2  -2 4605.67 276.589   3
  -5  -2  -1 4877.10 328.542   3
  -5  -2  -1 5817.08 410.856   6
  -5   2  -1 4304.07 310.654   6
  -5   2  -1 4659.53 344.569   1
   5  -2  -1 4349.53 248.448   3
  -5  -2   0 6488.33 433.189   6
  -5   2   0 5624.79 334.942   6
  -5   2   0 5936.73 403.982   1
   5  -2   0 5240.88 260.483   3
  -5  -2   0 5958.76 366.636   3
  -5  -2   1 5186.68 388.985   6
  -5   2   1 4476.79 290.004   6
  -5   2   1 4760.27 366.999   1
   5  -2   1 3928.11 203.553   3
  -5  -2   1 4453.02 323.242   3
  -5  -2   2 4526.85 373.219   6
  -5   2   2 4309.29 266.687   6
  -5   2   2 4507.01 361.445   1
  -5  -2   2 4380.03 321.062   3
   5  -2   2 3370.39 167.413   3
  -5  -2   3 3325.77 323.377   6
  -5   2   3 2819.64 208.014   6
  -5   2   3 3066.10 309.027   1
  -5  -2   3 3517.31 288.002   3
  -5  -2   4 2119.42 264.217   6
  -5   2   4 2265.78 174.372   6
  -5  -2   4 2084.91 228.157   3
  -5   2   4 1764.49 244.956   1
  -5   2   5 982.367 190.222   1
  -5  -2   5 1214.06 180.797   3
  -5   2   5 1006.32 108.564   6
  -5   2   6 1080.47 201.442   1
  -5  -2   6 1116.03 172.754   3
  -5   2   6 932.958 91.5313   6
  -5   2   6 1073.73 224.759   4
  -5  -2   7 1216.92 190.321   3
  -5   2   7 1102.60 210.541   1
  -5   2   7 1275.80 251.396   4
  -5  -2   8 1678.20 233.668   3
  -5   2   8 1787.77 271.978   1
  -5   2   8 1671.42 287.870   4
  -5   2   9 2697.37 339.344   1
  -5   2   9 2819.33 377.703   4
  -5  -2   9 2744.70 306.961   3
  -5   2  10 4068.18 425.481   1
  -5  -2  10 3837.89 376.803   1
  -5   2  10 4044.41 470.206   4
  -5  -2  10 4046.88 370.263   3
  -5   2  11 4439.65 466.396   1
  -5  -2  11 4370.77 420.161   1
  -5   2  11 4688.72 516.609   4
  -5  -2  11 4662.09 413.769   3
  -5   2  12 4622.38 488.236   1
  -5  -2  12 4027.19 413.016   1
  -5   2  12 5700.58 587.445   4
  -5  -2  12 4870.59 430.558   3
  -5   2  13 4282.53 478.682   1
  -5  -2  13 4064.10 425.266   1
  -5   2  13 4439.92 531.170   4
  -5  -2  13 3932.81 402.547   3
  -5   2  14 3113.23 425.772   1
  -5  -2  14 4145.32 443.635   1
  -5   2  14 4049.77 526.149   4
  -5  -2  15 1956.94 320.485   1
  -5   2  15 2095.04 394.447   4
  -5   2  15 2348.75 385.297   1
  -5   2  16 1856.18 373.348   1
  -5  -2  16 1949.21 326.211   1
  -5   2  16 1833.90 371.873   4
  -5  -2  17 655.391 222.199   1
  -5   2  17 448.982 203.018   4
  -5   2  17 518.138 185.178   1
  -5   2  18 389.193 172.154   1
  -5  -2  18 599.818 198.693   1
  -5   2  18 665.632 280.650   4
  -5  -2  19 472.313 180.670   1
  -5   2  19 773.005 284.741   4
  -5   2  19 241.361 167.862   1
  -5  -2  20 920.545 246.351   1
  -5  -2  21 1870.90 374.472   1
  -5  -3 -17 3419.21 408.048   6
  -5   3 -17 4999.93 542.884   6
  -5  -3 -16 201.239 105.394   6
  -5   3 -16 397.477 156.876   6
  -5  -3 -15 1364.18 246.128   6
  -5   3 -15 1621.73 321.882   6
   5  -3 -14 390.649 114.665   5
  -5  -3 -14-25.6566 90.3437   6
  -5   3 -14 352.871 166.008   6
   5  -3 -13 565.086 136.498   5
  -5  -3 -13 414.210 144.991   6
  -5   3 -13 563.201 203.759   6
   5  -3 -12 139.351 84.5324   5
  -5  -3 -12 80.7249 82.7355   6
  -5   3 -12 26.2574 91.0564   6
   5  -3 -11 341.501 108.072   5
  -5  -3 -11 381.510 133.163   6
  -5   3 -11 381.315 169.338   6
   5  -3 -10 208.727 94.8404   5
  -5  -3 -10 7.66676 97.4027   6
  -5   3 -10 296.309 154.802   6
  -5  -3  -9 3849.13 378.366   6
  -5   3  -9 3961.20 423.138   6
   5  -3  -9 4030.96 357.028   5
   5  -3  -8 956.477 178.699   5
  -5  -3  -8 743.115 184.782   6
  -5   3  -8 992.204 207.102   6
  -5  -3  -7 6634.82 497.679   6
  -5   3  -7 7948.41 520.341   1
  -5   3  -7 7492.54 558.937   6
   5  -3  -7 6553.65 472.636   5
   5  -3  -6 1042.44 190.305   5
  -5   3  -6 821.761 172.570   1
  -5  -3  -6 1052.88 214.380   6
  -5   3  -6 1014.59 215.570   6
  -5   3  -5 9182.11 551.311   1
  -5  -3  -5 8471.78 554.237   6
  -5   3  -5 9342.69 592.519   6
   5  -3  -5 8437.40 539.500   5
   5  -3  -4 813.430 178.305   5
  -5   3  -4 497.560 161.331   1
  -5  -3  -4 633.268 167.402   6
  -5   3  -4 858.395 179.755   6
  -5   3  -3 3977.87 362.317   1
  -5  -3  -3 4091.13 391.095   6
  -5   3  -3 4702.75 387.519   6
   5  -3  -3 4417.64 392.616   5
  -5   3  -2 238.174 116.316   1
   5  -3  -2 545.124 147.274   5
  -5  -3  -2 474.244 157.623   6
  -5   3  -2 475.800 146.405   6
   5  -3  -1 815.379 194.480   5
  -5  -3  -1 793.260 162.904   3
  -5  -3  -1 670.847 165.798   6
  -5   3  -1 609.820 153.047   6
  -5   3  -1 581.213 154.142   1
  -5   3   0 67.7136 77.4920   1
   5  -3   0 155.279 106.055   5
  -5  -3   0-100.655 89.1555   3
  -5  -3   0 58.2484 85.6232   6
  -5   3   0 0.23957 65.6174   6
  -5   3   1 811.022 170.771   1
   5  -3   1 1008.45 196.454   5
  -5  -3   1 1023.22 183.344   3
  -5  -3   1 974.526 175.208   6
  -5   3   1 1117.78 163.260   6
  -5   3   2 335.950 116.108   1
   5  -3   2 559.020 172.588   5
  -5  -3   2 409.435 133.660   3
  -5  -3   2 329.236 132.715   6
  -5   3   2 361.911 96.1315   6
  -5  -3   3 4135.36 380.424   3
  -5   3   3 3328.35 364.262   1
  -5  -3   3 4463.80 413.975   6
  -5   3   3 4255.71 268.457   6
  -5  -3   4 842.903 188.909   3
  -5   3   4 666.341 181.057   1
  -5   3   4 877.986 118.601   6
  -5   3   5 8513.93 598.652   1
  -5  -3   5 9592.23 586.015   3
  -5  -3   6 1134.86 205.973   3
  -5   3   6 915.648 218.807   1
  -5  -3   7 7564.23 445.459   5
  -5   3   7 7258.26 582.998   1
  -5  -3   7 7936.48 537.928   3
  -5  -3   8 983.811 200.958   3
  -5   3   8 640.695 180.906   1
  -5   3   9 3710.54 438.040   1
  -5  -3   9 4014.92 389.576   3
  -5  -3  10 90.1609 81.7774   3
  -5   3  10 97.0203 104.848   1
  -5   3  10 220.402 121.884   4
  -5   3  11 576.752 179.558   1
  -5  -3  11 448.045 151.313   3
  -5   3  11 50.8391 101.909   4
  -5  -3  12 191.160 103.125   3
  -5   3  12-98.3030 115.873   1
  -5   3  12 4.72142 96.8805   4
  -5  -3  13 323.300 130.905   3
  -5  -3  13 294.134 132.506   1
  -5   3  13 562.563 210.318   4
  -5   3  13 427.267 175.623   1
  -5  -3  14 351.000 164.213   3
  -5   3  14 345.582 171.693   4
  -5  -3  14 229.038 141.247   1
  -5  -3  15 2373.87 356.622   3
  -5   3  15 2637.35 471.215   4
  -5  -3  15 2449.64 365.633   1
  -5  -3  16 117.461 95.2175   3
  -5  -3  16 121.783 117.694   1
  -5  -3  17 3751.93 489.556   1
  -5   3  17 4929.38 659.319   4
  -5  -3  17 4569.16 509.442   3
  -5  -3  18 248.462 157.661   1
  -5  -3  19 4213.01 530.731   1
  -5  -4 -15 547.005 169.102   6
  -5   4 -15 775.980 210.896   6
   5  -4 -14 2642.70 337.775   5
  -5  -4 -14 2262.82 328.566   6
  -5   4 -14 2036.04 379.202   6
   5  -4 -13 337.051 128.385   5
  -5  -4 -13 138.440 120.759   6
  -5   4 -13 266.637 166.643   6
  -5  -4 -12 3079.74 363.089   6
  -5   4 -12 2766.71 403.014   6
   5  -4 -12 3058.18 370.116   5
   5  -4 -11 444.747 144.510   5
  -5  -4 -11 364.362 170.034   6
  -5   4 -11 399.179 169.723   6
  -5  -4 -10 2426.02 331.741   6
  -5   4 -10 2434.50 376.715   6
   5  -4 -10 3130.08 377.831   5
   5  -4  -9 731.799 193.626   5
  -5  -4  -9 799.080 190.269   6
  -5   4  -9 835.871 236.316   6
   5  -4  -8 972.928 212.375   5
  -5  -4  -8 1073.91 223.271   6
  -5   4  -8 847.529 226.836   6
   5  -4  -7 300.671 106.085   5
  -5  -4  -7 359.934 145.417   6
  -5   4  -7 188.472 121.271   6
   5  -4  -6 2038.98 312.852   5
  -5  -4  -6 2683.03 339.911   6
  -5   4  -6 1728.77 323.173   6
   5  -4  -5 595.057 171.324   5
  -5  -4  -5 547.341 162.710   6
  -5   4  -5 443.455 184.206   6
   5  -4  -4 1906.90 299.722   5
  -5  -4  -4 1746.91 274.574   6
  -5   4  -4 1654.47 276.520   6
   5  -4  -3 1530.08 264.032   5
  -5  -4  -3 1500.97 260.308   6
  -5   4  -3 1565.37 267.735   6
  -5  -4  -2 4799.68 459.389   6
  -5   4  -2 5426.85 481.363   6
   5  -4  -2 4095.25 455.764   5
   5  -4  -1 628.614 199.306   5
  -5  -4  -1 391.241 165.006   6
  -5   4  -1 531.545 154.985   6
  -5  -4   0 5595.66 498.476   6
  -5   4   0 6467.30 472.906   6
   5  -4   0 5577.59 519.000   5
   5  -4   1 821.749 219.358   5
  -5  -4   1 380.040 150.808   3
  -5   4   1 627.339 158.791   6
  -5  -4   2 4477.31 474.582   3
  -5  -4   2 4671.88 424.466   5
  -5   4   2 5614.28 406.338   6
   5  -4   2 4604.31 485.426   5
   5  -4   3 1663.37 298.582   5
  -5  -4   3 1524.04 287.653   3
  -5  -4   3 1178.35 216.940   5
   5  -4   4 1676.30 298.732   5
  -5  -4   4 1415.66 283.866   3
  -5  -4   4 1347.26 228.506   5
   5  -4   5 700.467 218.303   5
  -5  -4   5 805.830 212.351   3
  -5  -4   5 725.460 158.395   5
  -5  -4   6 2277.37 275.980   5
  -5  -4   6 2008.47 324.531   3
  -5  -4   7 313.714 150.888   3
  -5  -4   8 1106.90 248.767   3
  -5  -4   9 1055.87 242.041   3
  -5  -4  10 3124.86 406.500   3
  -5  -4  11 544.733 197.806   3
  -5   4  12 2406.18 454.849   4
  -5  -4  12 3365.01 430.244   3
  -5  -4  13 188.998 118.183   3
  -5   4  13 178.902 117.943   4
  -5  -4  14 1500.68 311.122   1
  -5   4  14 2288.16 448.161   4
  -5  -4  15 1114.77 278.808   3
  -5  -4  15 547.497 135.005   1
  -5  -4  16 842.053 233.405   1
  -5  -4  17 429.355 155.141   1
   5  -5 -14 642.793 219.863   5
   5  -5 -13 2128.79 360.341   5
   5  -5 -12 397.955 176.987   5
  -5   5 -12 362.653 186.209   6
   5  -5 -11 2441.30 395.630   5
  -5  -5 -11 2367.72 399.839   5
  -5  -5 -11 2672.18 366.328   6
  -5   5 -11 2141.74 387.665   6
   5  -5 -10 711.358 203.395   5
  -5  -5 -10 1196.16 288.252   5
  -5  -5 -10 1298.18 261.504   6
  -5   5 -10 1075.77 284.628   6
   5  -5  -9 991.491 244.050   5
  -5  -5  -9 921.205 248.869   5
  -5  -5  -9 1373.12 278.199   6
  -5   5  -9 955.793 260.369   6
   5  -5  -8 16.2057 142.525   5
  -5  -5  -8 21.5549 95.8376   5
  -5  -5  -8 94.4281 132.486   6
  -5   5  -8 287.658 157.418   6
   5  -5  -7 518.200 210.481   5
  -5  -5  -7 344.039 165.092   5
  -5  -5  -7 468.258 170.712   6
  -5   5  -7 245.497 135.302   6
   5  -5  -6 54.6628 101.836   5
  -5  -5  -6 39.7589 80.0627   5
  -5  -5  -6 26.4241 103.209   6
  -5   5  -6 99.6324 132.865   6
   5  -5  -5 38.9998 99.0615   5
  -5  -5  -5 316.757 143.885   5
  -5  -5  -5 21.5687 120.261   6
  -5   5  -5 179.105 149.265   6
   5  -5  -4 212.841 108.283   5
  -5  -5  -4 114.041 103.514   5
  -5  -5  -4 159.655 139.520   6
  -5   5  -4 325.156 150.104   6
   5  -5  -3 2078.14 372.744   5
  -5  -5  -3 1797.18 314.788   5
  -5  -5  -3 1717.10 311.851   6
  -5   5  -3 2016.56 347.965   6
   5  -5  -2 716.310 214.503   5
  -5  -5  -2 1023.47 228.175   5
  -5   5  -2 1420.31 288.045   6
  -5  -5  -1 2246.26 341.776   5
  -5   5  -1 3178.15 420.309   6
   5  -5  -1 3545.71 468.989   5
   5  -5   0 925.685 264.900   5
  -5  -5   0 584.272 172.896   5
  -5  -5   1 3087.61 389.180   5
   5  -5   1 3669.15 484.238   5
   5  -5   2 775.304 227.537   5
  -5  -5   2 1228.66 313.463   3
  -5  -5   2 695.651 184.377   5
   5  -5   3 2333.35 387.567   5
  -5  -5   3 2121.48 369.562   3
  -5  -5   3 2286.11 322.777   5
   5  -5   4-133.807 124.024   5
  -5  -5   4 186.301 157.176   3
  -5  -5   4 225.024 104.630   5
   5  -5   5-39.2008 106.229   5
  -5  -5   5-39.2504 152.327   3
   5  -5   6 227.647 145.624   5
  -5  -5   6 97.4493 139.384   3
   5  -5   7 383.769 193.991   5
  -5  -5   7 372.910 148.750   3
  -5  -5   8 607.812 241.150   3
  -5  -5   9 1189.15 299.894   3
  -5  -5  10 1175.60 294.032   3
  -5  -5  11 1997.65 381.899   3
  -5   6  -8 856.015 261.710   6
  -5   6  -7 1370.27 326.049   6
  -5   6  -6 584.681 221.813   6
  -5  -6  -5 1342.64 290.008   5
  -5   6  -5 963.657 263.301   6
  -5  -6  -4 435.800 195.696   5
  -5   6  -4 577.880 188.718   6
  -5  -6  -3 767.447 219.782   5
  -5  -6  -2-19.6639 132.350   5
  -5  -6  -1 84.4742 122.595   5
  -5  -6   0 223.401 166.282   5
  -5  -6   1 120.421 126.452   5
  -5  -6   2 382.311 139.376   5
  -5  -6   3 972.028 310.333   3
  -6   0 -17 200.187 93.2450   6
  -6   0 -16 2633.25 364.922   6
  -6   0 -15-125.692 146.418   6
  -6   0 -14 3706.37 408.449   6
  -6   0 -13 26.2779 99.1607   6
  -6   0 -12 10850.9 682.700   6
  -6   0 -11 171.571 136.643   6
  -6   0 -10 3220.47 354.095   6
  -6   0  -9 50.2426 67.8703   6
  -6   0  -8 2351.71 287.420   6
  -6   0  -7-158.286 96.1225   6
  -6   0  -6 652.877 145.747   6
  -6   0  -5-95.0738 65.6186   6
  -6   0  -4 2128.40 248.608   6
  -6   0  -3-24.6698 66.7512   6
  -6   0  -2 9478.24 519.957   6
  -6   0  -1 91.1244 87.8085   6
  -6   0   0 13995.0 673.838   1
  -6   0   0 14707.4 651.675   6
  -6   0   1 6.72934 60.2390   6
  -6   0   1 61.3336 65.1759   1
  -6   0   2 9884.03 564.567   1
  -6   0   2 9831.33 508.811   6
  -6   0   3 116.916 98.7655   6
  -6   0   3-2.19126 62.0159   1
  -6   0   4 2215.04 231.088   6
  -6   0   4 2058.92 267.256   1
  -6   0   5 27.8209 59.9838   6
  -6   0   5-15.9014 63.5024   1
  -6   0   6 998.016 151.758   6
  -6   0   6 987.507 191.402   1
  -6   0   7-34.9357 96.1166   1
  -6   0   8 1930.94 281.658   1
  -6   0   9-124.346 104.552   1
  -6   0  10 4875.05 465.587   1
  -6   0  11 130.565 96.1823   1
  -6   0  12 13510.4 832.096   1
  -6   0  13-123.507 110.121   1
  -6   0  14 5720.46 584.343   1
  -6   0  15 127.413 153.759   1
  -6   0  16 3217.08 454.387   1
  -6   0  17-209.012 118.057   1
  -6  -1 -16 4782.92 479.298   6
  -6   1 -16 5313.19 519.408   6
  -6  -1 -15 2153.44 328.718   6
  -6   1 -15 2267.12 332.683   6
  -6  -1 -14 1405.95 266.782   6
  -6   1 -14 1813.02 307.462   6
  -6  -1 -13 3666.27 399.721   6
  -6   1 -13 4137.21 431.570   6
  -6  -1 -12 4999.59 462.404   6
  -6   1 -12 5247.55 477.635   6
  -6   1 -11 1704.71 190.185   1
  -6  -1 -11 1704.76 257.356   6
  -6   1 -11 1749.74 273.311   6
  -6   1 -10 2709.00 240.024   1
  -6   1 -10 2222.59 303.172   6
  -6  -1 -10 2313.25 294.895   6
  -6   1  -9 9537.24 479.176   1
  -6  -1  -9 9382.25 596.040   6
  -6   1  -9 9012.87 587.720   6
  -6   1  -8 10903.5 524.873   1
  -6  -1  -8 11238.9 643.867   6
  -6   1  -8 11041.1 631.554   6
  -6   1  -7 8914.96 482.974   1
  -6  -1  -7 8223.69 539.335   6
  -6   1  -7 8586.44 543.311   6
  -6   1  -6 1759.72 217.927   1
  -6  -1  -6 1542.66 240.718   6
  -6   1  -6 1507.69 220.648   6
  -6  -1  -5 7667.20 505.279   6
  -6   1  -5 8266.70 474.756   1
  -6   1  -5 7291.68 474.812   6
  -6   1  -5 7121.95 384.817   4
  -6  -1  -4 10061.6 578.650   6
  -6   1  -4 10599.4 546.767   1
  -6   1  -4 9360.86 530.439   6
  -6   1  -4 9411.39 472.471   4
  -6  -1  -3 9845.15 563.186   6
  -6   1  -3 9461.69 521.245   1
  -6   1  -3 8938.46 508.334   6
  -6   1  -3 8612.01 473.165   4
  -6  -1  -3 8532.80 393.903   3
  -6  -1  -2 3843.14 345.568   6
  -6   1  -2 3295.62 298.066   6
  -6   1  -2 3931.46 333.125   1
  -6   1  -2 3531.51 311.637   4
  -6  -1  -2 3924.67 276.176   3
  -6  -1  -1 4113.26 358.299   6
  -6   1  -1 4392.07 329.442   6
  -6   1  -1 4459.73 360.903   1
  -6   1  -1 3799.52 343.887   4
  -6  -1  -1 4756.66 314.382   3
  -6  -1   0 6982.79 464.329   6
  -6   1   0 6877.30 411.596   6
  -6   1   0 7028.74 466.374   1
  -6   1   0 6262.99 454.279   4
  -6  -1   0 7677.94 427.515   3
  -6  -1   1 3037.16 306.236   6
  -6   1   1 2954.85 261.951   6
  -6   1   1 2985.76 308.847   1
  -6   1   1 2781.61 313.134   4
  -6  -1   1 3615.44 294.668   3
  -6  -1   2 3673.54 333.203   6
  -6   1   2 3422.90 275.138   6
  -6   1   2 3409.64 359.282   4
  -6   1   2 3589.10 343.717   1
  -6  -1   2 3810.92 309.995   3
  -6  -1   3 11372.4 591.755   6
  -6   1   3 11416.3 509.267   6
  -6   1   3 11038.7 671.464   4
  -6   1   3 11847.5 656.426   1
  -6  -1   4 11609.2 602.755   6
  -6   1   4 12092.5 509.933   6
  -6   1   4 11359.2 696.557   4
  -6   1   4 12093.8 672.899   1
  -6  -1   5 6055.90 436.343   6
  -6   1   5 6294.41 350.096   6
  -6   1   5 6714.71 548.151   4
  -6   1   5 6076.20 472.809   1
  -6  -1   6 1646.78 256.981   1
  -6   1   6 1883.72 299.049   4
  -6  -1   6 1858.03 235.295   6
  -6   1   6 2034.94 289.196   1
  -6  -1   7 10474.9 642.885   1
  -6   1   7 12775.6 803.425   4
  -6   1   7 11058.0 681.486   1
  -6  -1   8 11920.8 696.860   1
  -6   1   8 13890.6 864.894   4
  -6   1   8 12841.0 754.837   1
  -6  -1   9 8157.10 590.211   1
  -6   1   9 9093.46 714.721   4
  -6   1   9 9181.38 651.149   1
  -6  -1  10 3254.55 379.438   1
  -6   1  10 3899.67 477.096   4
  -6   1  10 3871.10 443.099   1
  -6  -1  11 3795.82 420.096   1
  -6   1  11 3583.95 475.367   4
  -6   1  11 3899.37 440.137   1
  -6   1  12 6867.49 680.110   4
  -6  -1  12 6374.84 568.346   1
  -6   1  12 7040.40 624.594   1
  -6   1  13 4223.29 481.624   1
  -6   1  13 4387.43 556.417   4
  -6  -1  13 3531.50 432.761   1
  -6   1  14 1538.15 326.161   1
  -6  -1  14 1904.09 327.246   1
  -6   1  14 1606.03 351.256   4
  -6   1  15 4394.91 531.421   1
  -6  -1  15 4339.92 507.340   1
  -6   1  16 6585.48 665.118   1
  -6  -1  16 6158.08 621.804   1
  -6   1  17 5352.38 637.613   1
  -6  -1  17 5711.90 623.877   1
  -6  -1  18-127.600 149.620   1
  -6   2 -16 1559.75 303.594   6
  -6  -2 -15 1838.28 299.698   6
  -6   2 -15 2242.69 363.098   6
  -6  -2 -14 1318.45 280.004   6
  -6   2 -14 1471.43 291.173   6
  -6  -2 -13 9.96294 104.889   6
  -6   2 -13 156.220 98.9523   6
  -6  -2 -12 517.680 162.837   6
  -6   2 -12 537.368 197.417   6
  -6  -2 -11 2554.36 333.138   6
  -6   2 -11 2623.86 366.901   6
  -6  -2 -10 1125.19 233.951   6
  -6   2 -10 999.064 230.591   6
  -6  -2  -9 1373.88 246.330   6
  -6   2  -9 1328.55 253.786   6
  -6  -2  -8 2191.13 301.815   6
  -6   2  -8 2415.55 331.806   6
  -6   2  -8 2298.64 233.676   1
  -6  -2  -7 5468.37 453.430   6
  -6   2  -7 5411.40 445.734   6
  -6   2  -7 5101.88 359.395   1
  -6  -2  -6 3369.58 350.954   6
  -6   2  -6 3396.96 345.701   6
  -6   2  -6 3540.98 302.896   1
  -6   2  -5 2577.55 284.625   6
  -6  -2  -5 2168.76 282.538   6
  -6   2  -5 2354.25 254.003   1
  -6  -2  -5 1812.11 202.098   3
  -6  -2  -4 2857.11 334.018   6
  -6   2  -4 2971.43 303.677   6
  -6   2  -4 3011.46 288.974   1
  -6  -2  -4 2196.08 224.250   3
  -6  -2  -3 2776.68 332.106   6
  -6   2  -3 2770.28 288.731   6
  -6   2  -3 3166.87 304.833   1
  -6  -2  -3 2471.17 235.130   3
  -6  -2  -2 2008.47 282.161   6
  -6   2  -2 1548.26 222.157   6
  -6   2  -2 2105.38 256.678   1
  -6  -2  -2 2033.22 225.550   3
  -6  -2  -1 759.999 142.632   3
  -6   2  -1 614.565 159.099   1
  -6  -2  -1 1027.89 205.496   6
  -6   2  -1 574.086 138.310   6
  -6  -2   0 489.543 130.481   3
  -6  -2   0 471.994 144.836   6
  -6   2   0 254.452 110.458   1
  -6   2   0 306.930 88.6936   6
  -6  -2   1 801.945 160.078   3
  -6  -2   1 760.961 181.704   6
  -6   2   1 653.515 131.456   6
  -6   2   1 749.786 171.075   1
  -6   2   1 481.446 154.401   4
  -6  -2   2 2163.52 281.489   6
  -6   2   2 1504.46 172.630   6
  -6   2   2 1433.23 243.075   1
  -6   2   2 1436.22 244.586   4
  -6  -2   2 1786.25 237.016   3
  -6  -2   3 3980.91 384.807   6
  -6   2   3 4009.16 276.777   6
  -6   2   3 3740.26 406.290   4
  -6  -2   3 4216.83 351.051   3
  -6   2   3 4197.36 398.157   1
  -6  -2   4 3133.93 336.443   6
  -6   2   4 2500.58 341.780   4
  -6  -2   4 2716.47 302.182   3
  -6   2   4 3007.91 345.132   1
  -6   2   5 2202.52 337.162   4
  -6  -2   5 2865.29 312.472   3
  -6   2   5 2544.18 324.054   1
  -6   2   6 4211.57 421.211   1
  -6   2   6 3537.29 429.228   4
  -6  -2   6 4122.50 389.027   3
  -6   2   7 5872.42 514.583   1
  -6   2   7 4867.62 518.954   4
  -6  -2   7 6030.00 461.317   3
  -6   2   8 2810.26 370.332   1
  -6   2   8 2969.63 410.749   4
  -6  -2   8 3214.73 352.145   3
  -6  -2   9 1388.40 237.415   3
  -6   2   9 1308.87 268.134   1
  -6  -2   9 1196.72 252.254   1
  -6   2   9 845.651 235.327   4
  -6  -2  10 2029.26 295.520   3
  -6   2  10 1920.15 327.687   1
  -6  -2  10 1497.25 274.844   1
  -6   2  10 2126.50 371.179   4
  -6   2  11 3005.87 406.307   1
  -6  -2  11 2836.53 383.207   1
  -6   2  11 2946.00 438.422   4
  -6   2  12 603.938 198.912   1
  -6   2  12 585.223 207.609   4
  -6  -2  12 495.264 166.291   1
  -6   2  13 273.100 190.192   4
  -6   2  13 254.898 148.259   1
  -6  -2  13 177.843 107.958   1
  -6  -2  14 1202.16 256.071   1
  -6   2  14 1052.42 273.829   1
  -6   2  14 1661.59 375.761   4
  -6  -2  15 2356.49 390.033   1
  -6   2  15 2275.02 413.456   1
  -6   2  15 2968.14 493.561   4
  -6  -2  16 1864.16 351.013   1
  -6   2  16 1884.58 410.513   4
  -6  -2  17 848.086 246.988   1
  -6   3 -14 1206.78 265.261   6
  -6  -3 -13 1653.52 301.044   6
  -6   3 -13 1487.23 298.508   6
  -6  -3 -12 9144.79 652.635   6
  -6   3 -12 9406.51 739.916   6
   6  -3 -12 8999.57 541.580   5
  -6  -3 -11 2915.42 368.658   6
  -6   3 -11 2465.12 370.685   6
   6  -3 -11 2858.23 305.176   5
   6  -3 -10 1179.39 203.400   5
  -6  -3 -10 1120.94 249.520   6
  -6   3 -10 1120.80 262.697   6
  -6  -3  -9 2978.70 368.773   6
  -6   3  -9 3260.04 400.054   6
   6  -3  -9 2872.23 316.372   5
  -6  -3  -8 3423.09 387.417   6
  -6   3  -8 3167.02 399.620   6
   6  -3  -8 2930.49 320.494   5
  -6  -3  -7 3554.25 395.060   6
  -6   3  -7 2558.19 352.731   6
  -6   3  -6 358.500 133.349   1
  -6  -3  -6 317.882 110.897   3
  -6  -3  -6 214.664 129.599   6
  -6   3  -6 388.882 137.164   6
  -6  -3  -5 2793.33 305.474   3
  -6   3  -5 3714.09 355.059   1
  -6  -3  -5 3804.27 399.229   6
  -6   3  -5 3461.29 379.521   6
  -6  -3  -4 4230.35 392.378   3
  -6   3  -4 4831.22 420.410   1
  -6  -3  -4 5455.92 481.189   6
  -6   3  -4 5517.08 463.313   6
  -6   3  -3 8192.72 545.818   1
  -6  -3  -3 8814.57 615.692   6
  -6   3  -3 9649.41 583.624   6
  -6  -3  -2 834.735 177.667   3
  -6  -3  -2 987.714 223.112   6
  -6   3  -2 834.028 184.592   1
  -6   3  -2 1147.21 206.850   6
  -6   3  -1 8333.71 557.719   1
  -6  -3  -1 7906.51 588.250   6
  -6   3  -1 9025.47 517.466   6
  -6  -3  -1 7795.62 533.192   3
  -6   3   0 18234.3 863.273   1
  -6  -3   0 20712.5 965.993   6
  -6   3   0 19825.3 770.921   6
  -6  -3   0 18681.6 849.903   3
  -6   3   1 9903.43 631.960   1
  -6  -3   1 9531.63 659.053   6
  -6   3   1 9873.48 501.161   6
  -6  -3   1 8339.66 554.988   3
  -6  -3   2 1066.67 212.907   3
  -6  -3   2 841.671 205.522   6
  -6   3   2 996.565 214.558   1
  -6   3   3 8194.67 599.069   1
  -6  -3   3 8560.46 620.837   6
  -6  -3   3 8196.56 565.121   3
  -6   3   4 4356.68 438.574   1
  -6  -3   4 5371.29 455.896   3
  -6   3   5 3843.82 424.749   1
  -6  -3   5 4727.66 432.196   3
  -6  -3   6 416.535 140.957   3
  -6   3   6 382.248 155.140   1
  -6   3   7 2960.34 386.661   1
  -6   3   7 2943.81 432.879   4
  -6  -3   7 3199.45 369.979   3
  -6   3   8 3219.53 423.154   1
  -6   3   8 2303.67 393.556   4
  -6  -3   8 3093.97 366.269   3
  -6   3   9 4538.73 508.403   1
  -6   3   9 3409.34 489.747   4
  -6  -3   9 4215.41 438.989   3
  -6  -3  10 1154.97 230.815   3
  -6   3  10 1075.37 288.073   4
  -6   3  10 1065.95 259.842   1
  -6   3  11 3259.58 449.668   1
  -6  -3  11 2869.15 403.761   1
  -6   3  11 2665.89 444.162   4
  -6  -3  11 2859.67 387.508   3
  -6  -3  12 9417.31 737.168   1
  -6   3  12 11757.7 878.828   1
  -6   3  12 8906.70 828.664   4
  -6  -3  12 11801.7 776.095   3
  -6  -3  13 2644.23 378.328   3
  -6   3  13 3052.79 463.900   1
  -6   3  13 2360.63 437.930   4
  -6  -3  13 2497.86 384.987   1
  -6  -3  14 1849.38 326.197   3
  -6   3  14 1381.63 351.812   4
  -6  -3  14 1281.43 307.410   1
  -6  -3  15 3190.54 444.087   1
   6  -4 -12-49.5769 85.2179   5
  -6   4 -12-95.0516 130.008   6
   6  -4 -11 725.922 193.659   5
  -6   4 -11 1093.47 296.678   6
   6  -4 -10 1765.96 290.392   5
  -6  -4 -10 1383.08 278.110   6
  -6   4 -10 1227.34 303.881   6
   6  -4  -9 2241.07 324.271   5
  -6  -4  -9 2425.01 354.523   6
  -6   4  -9 2936.28 430.253   6
   6  -4  -8 448.823 170.420   5
  -6  -4  -8 531.932 178.260   6
  -6   4  -8 668.999 227.160   6
   6  -4  -7 969.273 230.875   5
  -6  -4  -7 994.594 243.901   6
  -6   4  -7 1302.75 292.431   6
   6  -4  -6 93.6831 116.536   5
  -6  -4  -6 129.255 120.709   6
  -6   4  -6 157.033 125.063   6
  -6  -4  -5 3385.05 411.106   6
  -6   4  -5 3812.15 450.297   6
   6  -4  -5 4129.11 453.708   5
   6  -4  -4 936.704 227.616   5
  -6  -4  -4 513.901 188.391   6
  -6   4  -4 535.481 170.564   6
   6  -4  -3 1861.67 323.485   5
  -6  -4  -3 1261.32 254.666   3
  -6  -4  -3 1942.53 306.733   6
  -6   4  -3 1444.18 271.348   6
   6  -4  -2 1054.97 248.982   5
  -6  -4  -2 704.675 212.074   6
  -6   4  -2 676.400 170.845   6
   6  -4  -1 2010.89 336.049   5
  -6  -4  -1 1628.13 296.516   3
  -6  -4  -1 1940.11 319.870   6
  -6  -4   0-332.063 160.559   3
  -6  -4   0-72.0235 130.315   6
  -6  -4   1 2172.92 348.886   3
  -6  -4   2 692.351 220.414   3
  -6  -4   3 1919.24 326.862   3
  -6  -4   3 1819.12 287.850   5
  -6  -4   4 887.947 208.298   3
  -6  -4   5 3854.73 465.932   3
  -6  -4   6 249.940 154.294   3
  -6  -4   7 1236.39 284.735   3
  -6  -4   8 890.108 251.784   3
  -6  -4   9 3218.52 456.157   3
  -6  -4  10 1488.49 306.390   3
  -6   4  10 1177.36 318.795   4
  -6  -4  11 775.770 232.637   3
  -6   4  11 952.831 288.521   4
   6  -5 -10 6059.83 621.582   5
   6  -5  -9 1211.44 279.190   5
  -6   5  -9 1041.40 283.319   6
   6  -5  -8 366.866 187.211   5
  -6   5  -8 212.856 162.954   6
   6  -5  -7 675.724 223.873   5
  -6  -5  -7 357.949 176.998   5
  -6   5  -7 592.633 221.933   6
  -6  -5  -6 10194.3 816.683   5
  -6   5  -6 12194.5 922.199   6
   6  -5  -6 12810.3 927.312   5
   6  -5  -5 1874.75 363.614   5
  -6  -5  -5 931.613 258.650   5
  -6   5  -5 1118.75 294.526   6
   6  -5  -4 605.443 230.316   5
  -6  -5  -4 592.982 214.005   5
   6  -5  -3 661.397 221.036   5
  -6  -5  -3 600.354 200.741   5
  -6  -5  -3 696.291 199.139   6
  -6  -5  -2 5971.14 663.312   3
  -6  -5  -2 5925.34 569.109   5
   6  -5  -2 7788.73 728.037   5
   6  -5  -1 370.610 184.405   5
  -6  -5  -1 403.961 195.459   3
  -6  -5  -1 137.047 117.170   5
   6  -5   0 2074.13 390.569   5
  -6  -5   0 1424.97 334.935   3
  -6  -5   0 1467.76 286.750   5
   6  -5   1 282.929 177.212   5
  -6  -5   1 260.344 136.252   5
  -6  -5   2 5994.52 670.974   3
   6  -5   2 7200.39 702.515   5
  -6  -5   3 1102.76 333.554   3
  -6  -5   4 246.876 173.381   3
  -6  -5   5 1409.16 387.193   3
  -6  -5   6 10434.2 896.354   3
  -6  -5   7 716.406 298.688   3
  -7   0 -13 502.056 172.822   6
  -7   0 -12-0.45288 97.1477   6
  -7   0 -11 355.163 140.647   6
  -7   0 -10-63.6088 107.207   6
  -7   0  -9 3821.11 402.754   6
  -7   0  -8-82.7789 76.9034   6
  -7   0  -7 4442.50 419.363   6
  -7   0  -6 0.36519 88.7869   6
  -7   0  -5 6565.96 527.733   1
  -7   0  -5 7477.35 526.113   6
  -7   0  -4-38.0921 84.3230   1
  -7   0  -4 43.5228 87.2953   6
  -7   0  -3 3751.48 379.621   1
  -7   0  -3 3312.32 349.234   6
  -7   0  -2-105.131 81.2579   6
  -7   0  -2-104.791 116.259   1
  -7   0  -1 1105.43 199.367   6
  -7   0  -1 917.710 205.186   1
  -7   0   0 258.567 125.316   6
  -7   0   0-49.7643 87.9476   1
  -7   0   1 1018.29 192.303   6
  -7   0   1 1165.64 230.621   1
  -7   0   2 20.7536 72.6435   6
  -7   0   2-84.8827 96.6962   1
  -7   0   3 3677.63 336.908   6
  -7   0   3 3406.00 384.040   1
  -7   0   4 17.9837 77.4332   6
  -7   0   4 9.41524 98.3880   1
  -7   0   5 7468.94 584.133   1
  -7   0   6 58.7383 92.8905   1
  -7   0   7 5446.10 512.097   1
  -7   0   8 73.6056 135.420   1
  -7   0   9 4038.75 460.270   1
  -7   0  10 89.8720 164.263   1
  -7   0  11 668.142 205.910   1
  -7   0  12 88.9146 125.447   1
  -7   1 -13 820.283 212.239   6
  -7  -1 -12 3443.33 403.145   6
  -7   1 -12 3627.55 431.536   6
  -7  -1 -11 527.069 193.000   6
  -7   1 -11 745.405 198.079   6
  -7  -1 -10 2203.34 324.698   6
  -7   1 -10 2202.04 327.986   6
  -7  -1  -9 794.068 217.841   6
  -7   1  -9 842.769 197.639   6
  -7  -1  -8 1462.41 250.519   6
  -7   1  -8 1189.41 221.670   6
  -7   1  -8 1202.94 203.038   1
  -7   1  -7 377.559 125.783   1
  -7  -1  -7 219.197 114.796   6
  -7   1  -7 311.531 109.824   6
  -7   1  -6 839.327 178.253   1
  -7  -1  -6 948.459 209.322   6
  -7   1  -6 1139.24 220.349   6
  -7   1  -5 174.850 97.7353   1
  -7  -1  -5 332.918 142.467   6
  -7   1  -5 286.508 139.565   6
  -7   1  -4 2031.95 265.045   6
  -7   1  -4 2042.97 280.110   1
  -7  -1  -4 1956.51 276.759   6
  -7   1  -3 1103.98 217.274   1
  -7  -1  -3 1323.88 218.100   6
  -7   1  -3 1342.23 210.921   6
  -7  -1  -2 4309.92 405.572   6
  -7   1  -2 4147.00 363.579   6
  -7   1  -2 4658.16 424.662   1
  -7   1  -1 964.795 193.693   1
  -7  -1  -1 972.409 203.752   6
  -7   1  -1 1044.95 183.901   6
  -7  -1   0 4467.24 407.784   6
  -7   1   0 5397.89 398.976   6
  -7   1   0 4604.20 422.570   4
  -7   1   0 4617.49 442.396   1
  -7   1   1 835.131 208.986   1
  -7  -1   1 946.957 199.031   6
  -7   1   1 1156.46 183.976   6
  -7   1   1 1308.81 228.838   4
  -7  -1   2 4626.22 407.351   6
  -7   1   2 4794.53 369.777   6
  -7   1   2 4094.08 426.819   4
  -7   1   2 4811.15 455.631   1
  -7   1   3 1482.15 272.255   1
  -7  -1   3 1528.57 231.195   6
  -7  -1   3 1029.51 228.551   1
  -7   1   3 1828.60 291.544   4
  -7   1   4 1760.81 284.621   1
  -7  -1   4 1789.91 260.390   6
  -7  -1   4 1322.80 248.120   1
  -7   1   4 2136.47 321.069   4
  -7  -1   5 227.150 118.673   6
  -7   1   5 69.9187 85.4461   4
  -7  -1   5 77.6273 77.9751   1
  -7   1   6 1127.37 230.125   1
  -7   1   6 1525.41 298.377   4
  -7  -1   6 1159.50 239.817   1
  -7   1   7 540.470 176.977   1
  -7   1   7 165.013 161.122   4
  -7  -1   7 383.019 168.687   1
  -7   1   8 1400.39 280.874   1
  -7   1   8 1870.67 369.423   4
  -7  -1   8 1531.36 288.181   1
  -7  -1   9 446.540 182.044   1
  -7   1   9 949.814 263.943   4
  -7   1   9 755.510 213.018   1
  -7  -1  10 1843.14 334.530   1
  -7   1  10 2654.83 425.112   4
  -7   1  10 2305.19 368.923   1
  -7  -1  11 737.621 238.018   1
  -7   1  11 835.386 240.725   1
  -7  -1  12 4889.18 539.806   1
  -7   1  12 4828.11 549.038   1
  -7   2 -12 1636.62 305.128   6
  -7  -2 -11 2595.70 359.835   6
  -7   2 -11 2656.59 388.708   6
  -7  -2 -10 1705.07 289.323   6
  -7   2 -10 1632.63 299.997   6
  -7  -2  -9 1546.45 271.123   6
  -7   2  -9 1437.64 273.198   6
  -7  -2  -8 587.723 178.479   6
  -7   2  -8 575.235 186.249   6
  -7  -2  -7 832.115 191.299   6
  -7   2  -7 717.312 170.799   6
  -7   2  -6 610.309 145.947   1
  -7  -2  -6 516.214 161.008   6
  -7   2  -6 506.503 155.151   6
  -7   2  -5 406.221 139.894   1
  -7  -2  -5 600.704 172.471   6
  -7   2  -5 373.889 149.117   6
  -7   2  -4 1221.40 204.714   1
  -7  -2  -4 1072.00 231.188   6
  -7   2  -4 1199.32 211.001   6
  -7  -2  -3 1782.14 278.339   6
  -7   2  -3 1566.21 249.846   1
  -7   2  -3 1160.30 204.515   6
  -7   2  -2 2767.50 299.263   6
  -7  -2  -2 2488.66 327.227   6
  -7   2  -2 3256.19 362.990   1
  -7  -2  -1 2371.94 328.409   6
  -7   2  -1 2129.29 257.364   6
  -7   2  -1 1887.63 288.402   4
  -7   2  -1 2538.19 319.104   1
  -7  -2   0 2928.61 354.533   6
  -7   2   0 2614.77 343.326   4
  -7   2   0 2492.97 332.950   1
  -7  -2   1 2420.87 335.162   6
  -7   2   1 1994.21 300.931   4
  -7   2   1 2626.45 335.109   1
  -7  -2   2 2402.88 322.546   6
  -7   2   2 2153.83 326.290   4
  -7  -2   2 2376.68 295.814   3
  -7   2   2 2615.75 341.326   1
  -7  -2   3 2336.52 317.071   6
  -7   2   3 2087.04 331.443   4
  -7  -2   3 2411.63 312.153   3
  -7   2   3 2477.48 349.363   1
  -7  -2   4 1396.92 247.918   3
  -7  -2   4 1066.80 217.891   6
  -7   2   4 934.251 234.332   4
  -7   2   4 1347.54 268.660   1
  -7   2   5 729.997 202.959   1
  -7  -2   5 632.837 173.425   3
  -7   2   5 802.160 212.487   4
  -7   2   6 692.107 209.646   1
  -7  -2   6 407.351 164.276   3
  -7   2   6 293.680 113.553   4
  -7   2   7 646.704 196.408   1
  -7  -2   7 756.364 213.863   1
  -7   2   7 648.358 203.220   4
  -7   2   8 1068.94 240.736   1
  -7  -2   8 1130.56 255.167   1
  -7   2   8 908.460 250.005   4
  -7   2   9 1473.58 297.130   1
  -7   2   9 1675.92 343.862   4
  -7  -2   9 1021.75 254.412   1
  -7   2  10 2731.44 414.784   1
  -7   2  10 2508.43 432.939   4
  -7  -2  10 2318.64 371.668   1
  -7   2  11 2411.13 423.775   4
  -7  -2  11 2612.74 398.358   1
  -7   2  12 2720.39 462.469   4
  -7   3 -11 499.660 207.531   6
  -7   3 -10 90.4468 178.592   6
  -7   3  -9 2903.23 399.761   6
  -7  -3  -8 788.266 212.756   6
  -7   3  -8 349.898 175.801   6
  -7  -3  -7 3920.69 450.247   6
  -7   3  -7 4284.22 456.350   6
  -7  -3  -6 819.854 222.253   6
  -7   3  -6 615.663 206.122   6
  -7  -3  -5 4496.25 471.704   6
  -7   3  -5 4534.45 447.867   6
  -7  -3  -4 380.102 178.264   6
  -7   3  -4 148.634 100.109   6
  -7  -3  -3 2163.90 335.179   6
  -7   3  -3 1534.58 262.644   1
  -7   3  -3 2120.92 300.501   6
  -7   3  -2 204.661 103.069   1
  -7  -3  -2 306.909 145.063   6
  -7   3  -1 176.962 102.144   1
  -7  -3  -1 140.781 134.320   6
  -7  -3   0-53.7127 116.286   6
  -7   3   0-45.2025 69.9385   1
  -7  -3   1 363.492 132.223   3
  -7  -3   1 376.185 158.733   6
  -7   3   1 278.960 124.456   1
  -7   3   1 285.183 145.599   4
  -7  -3   2 85.1242 96.1146   3
  -7  -3   2 104.846 97.6815   6
  -7   3   2 221.400 120.808   1
  -7   3   2 288.641 145.580   4
  -7  -3   3 1593.38 254.151   3
  -7   3   3 1354.49 285.167   4
  -7   3   3 1747.95 312.160   1
  -7  -3   4 340.388 166.595   3
  -7   3   4 355.772 165.750   4
  -7   3   4 263.547 157.448   1
  -7   3   5 4499.06 513.451   1
  -7   3   5 4142.39 526.969   4
  -7  -3   5 5001.19 490.953   3
  -7  -3   6 812.613 218.057   3
  -7   3   6 719.727 224.184   1
  -7   3   6 930.487 275.029   4
  -7   3   7 4210.93 519.689   1
  -7   3   7 3658.66 505.820   4
  -7  -3   7 4998.61 490.795   3
  -7  -3   8 836.059 216.234   3
  -7   3   8 814.347 256.849   1
  -7   3   8 339.873 176.778   4
  -7  -3   9 2425.96 357.998   3
  -7   3   9 2453.49 432.501   4
  -7  -3  10 441.792 184.208   3
  -7   3  10 111.070 124.083   4
  -7  -3  11 253.025 155.726   3
  -7   4  -9 422.409 194.478   6
  -7   4  -8 1145.55 277.014   6
  -7   4  -7 61.0505 124.756   6
  -7  -4  -2 2213.61 352.428   6
  -7  -4  -1-37.8441 136.505   6
  -7  -4   0 2256.15 362.532   6
  -7  -4   1 138.287 122.772   3
  -7  -4   2 1170.71 294.217   3
  -7  -4   3 1055.69 278.817   3
  -7  -4   4 1476.26 310.211   3
  -7  -4   5 261.711 144.125   3
  -7  -4   6 1386.94 290.000   3
  -7   4   6 2006.78 422.606   4
  -7  -4   7-38.7647 118.783   3
  -7  -4   8 1229.34 291.724   3
  -8   0  -8 5029.71 508.153   6
  -8   0  -7-174.998 138.793   6
  -8   0  -7 16.9837 86.3352   1
  -8   0  -6 1621.29 261.896   6
  -8   0  -6 1778.25 296.605   1
  -8   0  -5 77.8251 107.410   6
  -8   0  -5-92.5157 139.748   1
  -8   0  -4 10065.7 706.213   1
  -8   0  -4 10211.6 660.858   6
  -8   0  -3 66.5607 99.1667   6
  -8   0  -3-104.336 148.329   1
  -8   0  -2 425.713 151.425   6
  -8   0  -2 168.013 105.645   1
  -8   0  -1 316.232 163.521   6
  -8   0  -1 67.7004 114.094   1
  -8   0   0 28716.6 1244.29   1
  -8   0   1 14.7092 108.597   1
  -8   0   2 464.682 162.354   1
  -8   0   3 56.8816 131.424   1
  -8   0   4 11433.5 785.371   1
  -8   1  -8 339.016 157.526   6
  -8  -1  -7 2424.10 343.606   6
  -8   1  -7 2099.84 324.730   6
  -8  -1  -6 246.269 121.565   6
  -8   1  -6 376.757 145.525   6
  -8   1  -5 2466.25 343.005   1
  -8  -1  -5 2556.82 347.850   6
  -8   1  -5 2048.22 293.027   6
  -8   1  -4 1579.29 286.236   1
  -8  -1  -4 1506.09 266.165   6
  -8   1  -4 1267.73 233.513   6
  -8   1  -3 1754.29 301.329   1
  -8  -1  -3 2113.94 325.914   6
  -8   1  -3 1540.42 257.146   6
  -8   1  -2 564.130 182.466   1
  -8  -1  -2 861.211 213.242   6
  -8   1  -1 1162.42 242.075   1
  -8  -1  -1 452.383 166.723   1
  -8  -1  -1 1068.20 230.373   6
  -8   1   0 75.6822 110.725   1
  -8  -1   0 101.262 119.333   6
  -8  -1   0 50.2403 111.892   1
  -8   1   1 783.361 217.549   1
  -8  -1   1 951.389 209.619   6
  -8  -1   1 1107.97 238.911   1
  -8   1   2 305.824 133.049   1
  -8  -1   2 333.907 134.805   1
  -8   1   3 2537.25 366.023   1
  -8  -1   3 2468.59 360.203   1
  -8   1   4 1063.14 250.989   1
  -8   1   5 2389.71 372.530   1
  -8   2  -8 720.010 218.874   6
  -8   2  -7 3403.56 412.155   6
  -8   2  -6 2669.07 346.432   6
  -8  -2  -5 4689.29 498.105   6
  -8  -2  -4 489.480 186.494   6
  -8  -2  -3 4382.49 461.984   6
  -8   2  -3 4098.54 453.980   1
  -8  -2  -2 1858.36 315.346   6
  -8   2  -2 1976.05 319.346   1
  -8  -2  -1 3617.01 420.496   6
  -8   2  -1 3248.62 414.162   1
  -8  -2   0-133.259 109.449   6
  -8   2   0 44.2788 122.134   1
  -8  -2   1 2134.43 339.912   6
  -8   2   1 2344.26 369.811   1
  -8  -2   2 1045.79 202.612   6
  -8   2   2 1530.86 303.530   1
  -8   2   3 6600.36 615.278   1
  -8   2   4 721.553 244.313   1
  -8   2   6 2485.62 412.277   4
  -8   2   7 4856.52 596.917   4
  -8   2   8 1118.68 311.373   4
  -8   2   9 6776.42 733.519   4
  -8  -3   1 118.219 148.358   6
  -8   3   1 241.320 137.781   1
  -8   3   2 2207.42 382.884   1
   0   0   0    0.00    0.00   0
;
_shelx_hkl_checksum              51152
_olex2_submission_special_instructions 'No special instructions were received'
_oxdiff_exptl_absorpt_empirical_details
;
Empirical correction (ABSPACK) includes:
- Absorption correction using spherical harmonics
- Frame scaling
;
_oxdiff_exptl_absorpt_empirical_full_max 2.365
_oxdiff_exptl_absorpt_empirical_full_min 0.619
loop_
_space_group_symop_operation_xyz
'x, y, z'
'-x+1/2, -y, z+1/2'
'x+1/2, -y, z+1/2'
'-x, y, z'
loop_
_atom_site_label
_atom_site_type_symbol
_atom_site_fract_x
_atom_site_fract_y
_atom_site_fract_z
_atom_site_U_iso_or_equiv
_atom_site_adp_type
_atom_site_occupancy
_atom_site_site_symmetry_order
_atom_site_calc_flag
_atom_site_refinement_flags_posn
_atom_site_refinement_flags_adp
_atom_site_refinement_flags_occupancy
_atom_site_disorder_assembly
_atom_site_disorder_group
U1 U 0.500000 0.18464(18) 0.60651(6) 0.0192(3) Uani 1 2 d S T P . .
Se1 Se 0.000000 -0.1402(6) 0.52745(13) 0.0214(6) Uani 1 2 d S T P . .
Se2 Se 1.000000 0.5072(5) 0.68978(13) 0.0200(6) Uani 1 2 d S T P . .
Cu1 Cu -0.2501(3) 0.6081(4) 0.36172(12) 0.0115(4) Uani 1 1 d . . . . .
Cu2 Cu 0.000000 0.1125(5) 0.35406(18) 0.0104(5) Uani 1 2 d S T P . .
Cu3 Cu -0.500000 0.1028(5) 0.35629(18) 0.0102(5) Uani 1 2 d S T P . .
O1 O 0.500000 0.460(6) 0.5577(13) 0.042(6) Uani 1 2 d S T P . .
O2 O 0.500000 -0.084(5) 0.6554(11) 0.037(5) Uani 1 2 d S T P . .
O3 O 0.218(2) 0.062(4) 0.5346(8) 0.033(4) Uani 1 1 d . . . . .
O4 O 0.000000 -0.202(3) 0.4424(10) 0.015(4) Uani 1 2 d S T P . .
O5 O 0.777(3) 0.310(3) 0.6820(9) 0.030(4) Uani 1 1 d . . . . .
O6 O 1.000000 0.555(4) 0.7749(10) 0.019(4) Uani 1 2 d S T P . .
O7 O -0.253(2) 0.278(2) 0.4024(6) 0.011(3) Uani 1 1 d D . . . .
H7 H -0.25(4) 0.26(4) 0.449(2) 0.017 Uiso 1 1 d D U . . .
O8 O -0.500000 0.724(3) 0.4136(10) 0.013(3) Uani 1 2 d DS T P . .
H8 H -0.500000 0.66(3) 0.461(5) 0.020 Uiso 1 2 d DS U P . .
O9 O 0.000000 0.488(3) 0.3090(9) 0.012(3) Uani 1 2 d DS T P . .
H9 H 0.07(3) 0.55(7) 0.265(8) 0.019 Uiso 0.5 1 d D U P . .
O10 O -0.2482(16) -0.069(2) 0.3122(7) 0.011(2) Uani 1 1 d D . . . .
H10 H -0.26(4) -0.10(4) 0.266(3) 0.017 Uiso 1 1 d D U . . .
loop_
_atom_site_aniso_label
_atom_site_aniso_U_11
_atom_site_aniso_U_22
_atom_site_aniso_U_33
_atom_site_aniso_U_23
_atom_site_aniso_U_13
_atom_site_aniso_U_12
U1 0.0145(4) 0.0312(5) 0.0118(4) -0.0046(4) 0.000 0.000
Se1 0.0190(12) 0.0316(16) 0.0137(12) 0.0025(10) 0.000 0.000
Se2 0.0182(11) 0.0283(16) 0.0135(11) 0.0026(10) 0.000 0.000
Cu1 0.0066(9) 0.0083(10) 0.0195(11) 0.0008(8) 0.0015(8) 0.0011(6)
Cu2 0.0046(11) 0.0083(13) 0.0184(13) -0.0014(11) 0.000 0.000
Cu3 0.0040(10) 0.0083(13) 0.0183(13) -0.0023(11) 0.000 0.000
O1 0.046(14) 0.046(16) 0.033(12) 0.010(11) 0.000 0.000
O2 0.057(15) 0.034(13) 0.020(10) 0.003(9) 0.000 0.000
O3 0.026(6) 0.059(12) 0.015(7) -0.010(7) -0.003(5) -0.013(8)
O4 0.015(8) 0.015(10) 0.015(9) -0.004(7) 0.000 0.000
O5 0.033(8) 0.034(10) 0.022(8) -0.011(6) -0.003(6) -0.004(7)
O6 0.011(8) 0.021(10) 0.024(10) -0.012(8) 0.000 0.000
O7 0.007(6) 0.012(7) 0.015(6) -0.004(5) 0.004(4) -0.002(5)
O8 0.005(7) 0.016(9) 0.018(9) -0.001(7) 0.000 0.000
O9 0.006(6) 0.018(9) 0.013(8) -0.005(6) 0.000 0.000
O10 0.007(5) 0.011(6) 0.016(6) -0.002(5) -0.004(5) 0.001(4)
loop_
_atom_type_symbol
_atom_type_description
_atom_type_scat_dispersion_real
_atom_type_scat_dispersion_imag
_atom_type_scat_source
Cu Cu 0.3201 1.2651 'International Tables Vol C Tables 4.2.6.8 and 6.1.1.4'
H H 0.0000 0.0000 'International Tables Vol C Tables 4.2.6.8 and 6.1.1.4'
O O 0.0106 0.0060 'International Tables Vol C Tables 4.2.6.8 and 6.1.1.4'
Se Se -0.0929 2.2259 'International Tables Vol C Tables 4.2.6.8 and 6.1.1.4'
U U -9.6767 9.6646 'International Tables Vol C Tables 4.2.6.8 and 6.1.1.4'
loop_
_exptl_crystal_face_index_h
_exptl_crystal_face_index_k
_exptl_crystal_face_index_l
_exptl_crystal_face_perp_dist
-3 1 25 0.0213
-8 0 1 0.0487
8 0 5 0.0396
-2 5 19 0.0250
1 7 -11 0.0187
2 -4 -21 0.0323
-1 -7 10 0.0219
loop_
_geom_angle_atom_site_label_1
_geom_angle_atom_site_label_2
_geom_angle_atom_site_label_3
_geom_angle
_geom_angle_site_symmetry_1
_geom_angle_site_symmetry_3
O1 U1 O3 86.8(8) . 4_655
O1 U1 O3 86.8(8) . .
O1 U1 O5 93.7(8) . .
O1 U1 O5 93.7(8) . 4_655
O2 U1 O1 179.3(13) . .
O2 U1 O3 93.6(7) . .
O2 U1 O3 93.6(7) . 4_655
O2 U1 O5 85.8(7) . 4_655
O2 U1 O5 85.8(7) . .
O3 U1 O3 95.4(8) . 4_655
O3 U1 O5 86.3(5) 4_655 .
O3 U1 O5 178.2(6) . .
O3 U1 O5 178.2(6) 4_655 4_655
O3 U1 O5 86.3(5) . 4_655
O5 U1 O5 91.9(8) . 4_655
O3 Se1 O3 97.8(12) . 4
O4 Se1 O3 102.3(7) . .
O4 Se1 O3 102.3(7) . 4
O5 Se2 O5 100.4(11) 4_755 .
O6 Se2 O5 100.8(7) . 4_755
O6 Se2 O5 100.8(7) . .
O4 Cu1 Cu1 51.4(3) 1_565 4
O4 Cu1 O6 175.5(6) 1_565 2_564
O6 Cu1 Cu1 128.3(3) 2_564 4
O7 Cu1 Cu1 90.5(4) . 4
O7 Cu1 O4 99.4(6) . 1_565
O7 Cu1 O6 85.0(6) . 2_564
O7 Cu1 O10 175.1(5) . 1_565
O8 Cu1 Cu1 141.6(4) . 4
O8 Cu1 O4 90.2(5) . 1_565
O8 Cu1 O6 90.0(5) . 2_564
O8 Cu1 O7 96.0(7) . .
O8 Cu1 O9 179.4(7) . .
O8 Cu1 O10 86.9(7) . 1_565
O9 Cu1 Cu1 39.0(4) . 4
O9 Cu1 O4 90.3(5) . 1_565
O9 Cu1 O6 89.4(5) . 2_564
O9 Cu1 O7 83.7(7) . .
O9 Cu1 O10 93.4(6) . 1_565
O10 Cu1 Cu1 89.7(3) 1_565 4
O10 Cu1 O4 84.5(6) 1_565 1_565
O10 Cu1 O6 91.0(5) 1_565 2_564
O7 Cu2 O4 90.7(5) . .
O7 Cu2 O4 90.7(5) 4 .
O7 Cu2 O7 98.5(7) 4 .
O7 Cu2 O9 75.4(5) . .
O7 Cu2 O9 75.4(5) 4 .
O9 Cu2 O4 158.4(6) . .
O10 Cu2 O4 84.9(5) 4 .
O10 Cu2 O4 84.9(5) . .
O10 Cu2 O7 175.6(6) . 4
O10 Cu2 O7 175.6(6) 4 .
O10 Cu2 O7 81.6(5) 4 4
O10 Cu2 O7 81.6(5) . .
O10 Cu2 O9 108.8(5) 4 .
O10 Cu2 O9 108.8(5) . .
O10 Cu2 O10 97.9(7) . 4
Cu3 Cu3 Cu2 0(10) 4_455 1_455
Cu3 Cu3 O7 0(10) 4_455 .
Cu3 Cu3 O7 0(10) 4_455 4_455
Cu3 Cu3 O8 0(10) 4_455 1_545
Cu3 Cu3 O10 0(10) 4_455 4_455
Cu3 Cu3 O10 0(10) 4_455 .
O7 Cu3 Cu2 41.5(4) 4_455 1_455
O7 Cu3 Cu2 138.1(4) . 1_455
O7 Cu3 O7 96.6(7) 4_455 .
O7 Cu3 O8 103.5(5) 4_455 1_545
O7 Cu3 O8 103.5(5) . 1_545
O8 Cu3 Cu2 91.30(8) 1_545 1_455
O10 Cu3 Cu2 40.6(3) 4_455 1_455
O10 Cu3 Cu2 139.9(4) . 1_455
O10 Cu3 O7 178.5(5) 4_455 .
O10 Cu3 O7 82.0(5) . .
O10 Cu3 O7 178.5(5) . 4_455
O10 Cu3 O7 82.0(5) 4_455 4_455
O10 Cu3 O8 76.4(5) . 1_545
O10 Cu3 O8 76.4(5) 4_455 1_545
O10 Cu3 O10 99.4(7) . 4_455
Se1 O3 U1 143.3(10) . .
Se1 O4 Cu1 136.1(5) . 4_545
Se1 O4 Cu1 136.1(5) . 1_545
Se1 O4 Cu2 122.0(10) . .
Cu1 O4 Cu1 77.2(5) 1_545 4_545
Cu1 O4 Cu2 82.7(5) 4_545 .
Cu1 O4 Cu2 82.7(5) 1_545 .
Se2 O5 U1 143.0(10) . .
Se2 O6 Cu1 128.1(7) . 3_665
Se2 O6 Cu1 128.1(7) . 2_565
Cu1 O6 Cu1 76.6(6) 3_665 2_565
Cu1 O7 H7 119(10) . .
Cu2 O7 Cu1 103.8(6) . .
Cu2 O7 H7 115(10) . .
Cu3 O7 Cu1 106.8(6) 4_455 .
Cu3 O7 Cu1 106.8(6) . .
Cu3 O7 Cu2 97.6(6) . .
Cu3 O7 Cu2 97.6(6) 4_455 .
Cu3 O7 Cu3 0.0(2) 4_455 .
Cu3 O7 H7 113(10) 4_455 .
Cu3 O7 H7 113(10) . .
Cu1 O8 Cu1 103.2(9) 4_455 .
Cu1 O8 Cu3 93.6(7) . 1_565
Cu1 O8 Cu3 93.6(7) 4_455 1_565
Cu1 O8 H8 111(7) 4_455 .
Cu1 O8 H8 111(7) . .
Cu3 O8 H8 139(10) 1_565 .
Cu1 O9 Cu1 102.1(8) 4 .
Cu1 O9 Cu2 97.0(6) 4 .
Cu1 O9 Cu2 97.0(6) . .
Cu1 O9 H9 131(10) . .
Cu1 O9 H9 90(10) 4 .
Cu2 O9 H9 129(10) . .
Cu1 O10 H10 107(10) 1_545 .
Cu2 O10 Cu1 105.7(5) . 1_545
Cu2 O10 Cu3 98.7(6) . .
Cu2 O10 Cu3 98.7(6) . 4_455
Cu2 O10 H10 123(10) . .
Cu3 O10 Cu1 103.1(6) . 1_545
Cu3 O10 Cu1 103.1(6) 4_455 1_545
Cu3 O10 Cu3 0.0(2) 4_455 .
Cu3 O10 H10 117(10) 4_455 .
Cu3 O10 H10 117(10) . .
loop_
_geom_bond_atom_site_label_1
_geom_bond_atom_site_label_2
_geom_bond_distance
_geom_bond_site_symmetry_2
U1 O1 1.79(3) .
U1 O2 1.77(2) .
U1 O3 2.280(15) .
U1 O3 2.280(14) 4_655
U1 O5 2.305(15) .
U1 O5 2.306(15) 4_655
Se1 O3 1.726(17) .
Se1 O3 1.726(16) 4
Se1 O4 1.660(18) .
Se2 O5 1.731(16) 4_755
Se2 O5 1.731(16) .
Se2 O6 1.648(19) .
Cu1 Cu1 2.988(3) 4
Cu1 O4 2.394(14) 1_565
Cu1 O6 2.409(17) 2_564
Cu1 O7 1.999(14) .
Cu1 O8 1.905(12) .
Cu1 O9 1.921(11) .
Cu1 O10 2.033(13) 1_565
Cu2 O4 2.43(2) .
Cu2 O7 1.997(13) 4
Cu2 O7 1.997(13) .
Cu2 O9 2.265(19) .
Cu2 O10 1.966(11) 4
Cu2 O10 1.966(11) .
Cu3 Cu3 0.000(9) 4_455
Cu3 O7 1.975(13) .
Cu3 O7 1.975(13) 4_455
Cu3 O8 2.38(2) 1_545
Cu3 O10 1.973(11) .
Cu3 O10 1.973(11) 4_455
O7 H7 0.90(3) .
O8 H8 0.98(3) .
O9 H9 1.00(3) .
O10 H10 0.90(3) .
loop_
_geom_torsion_atom_site_label_1
_geom_torsion_atom_site_label_2
_geom_torsion_atom_site_label_3
_geom_torsion_atom_site_label_4
_geom_torsion
_geom_torsion_site_symmetry_1
_geom_torsion_site_symmetry_2
_geom_torsion_site_symmetry_3
_geom_torsion_site_symmetry_4
O3 Se1 O3 U1 110.2(15) 4 . . .
O3 Se1 O4 Cu1 65.3(15) . . . 4_545
O3 Se1 O4 Cu1 166.2(13) 4 . . 4_545
O3 Se1 O4 Cu1 -166.2(13) . . . 1_545
O3 Se1 O4 Cu1 -65.3(15) 4 . . 1_545
O3 Se1 O4 Cu2 50.5(7) 4 . . .
O3 Se1 O4 Cu2 -50.5(7) . . . .
O4 Se1 O3 U1 -145.4(15) . . . .
O5 Se2 O5 U1 -105.9(14) 4_755 . . .
O5 Se2 O6 Cu1 -103.4(10) 4_755 . . 2_565
O5 Se2 O6 Cu1 103.4(10) . . . 3_665
O5 Se2 O6 Cu1 -0.5(12) . . . 2_565
O5 Se2 O6 Cu1 0.5(12) 4_755 . . 3_665
O6 Se2 O5 U1 150.9(14) . . . .
loop_
_exptl_oxdiff_crystal_face_indexfrac_h
_exptl_oxdiff_crystal_face_indexfrac_k
_exptl_oxdiff_crystal_face_indexfrac_l
_exptl_oxdiff_crystal_face_x
_exptl_oxdiff_crystal_face_y
_exptl_oxdiff_crystal_face_z
-2.6320 1.2167 25.1936 -0.0104 -0.0042 0.9999
-8.4076 0.1667 0.5799 -0.9197 0.2163 0.3277
8.2525 0.1046 5.1923 0.9666 -0.2289 -0.1150
-2.1224 5.1811 18.9871 0.1177 0.5188 0.8467
0.8673 7.0849 -11.0871 0.2241 0.9358 -0.2721
2.3067 -4.3550 -21.0966 -0.0902 -0.4047 -0.9100
-0.7693 -7.2103 10.1697 -0.2262 -0.9456 0.2339
