#------------------------------------------------------------------------------
#$Date: 2022-02-01 10:55:15 +0200 (Tue, 01 Feb 2022) $
#$Revision: 272385 $
#$URL: file:///home/coder/svn-repositories/cod/cif/1/56/62/1566232.cif $
#------------------------------------------------------------------------------
#
# This file is available in the Crystallography Open Database (COD),
# http://www.crystallography.net/
#
# All data on this site have been placed in the public domain by the
# contributors.
#
data_1566232
loop_
_publ_author_name
'Vladislav V. Gurzhiy'
'Alina R. Izatulina'
'Maria G. Krzhizhanovskaya'
'Mikhail N. Murashko'
'Dar-ya V. Spiridonova'
'Vladimir V. Shilovskikh'
'Sergey V. Krivovichev'
_publ_section_title
;
 Thermal behavior of uranyl selenite minerals derriksite and
 demesmaekerite
;
_journal_name_full               'Journal of GeoSciences'
_journal_page_first              249
_journal_page_last               259
_journal_paper_doi               10.3190/jgeosci.315
_journal_volume                  65
_journal_year                    2020
_chemical_formula_moiety         'Cu4 H6 O14 Se2 U'
_chemical_formula_sum            'Cu4 H6 O14 Se2 U'
_chemical_formula_weight         880.16
_space_group_crystal_system      orthorhombic
_space_group_IT_number           31
_space_group_name_Hall           'P 2ac -2'
_space_group_name_H-M_alt        'P m n 21'
_atom_sites_solution_hydrogens   difmap
_cell_angle_alpha                90
_cell_angle_beta                 90
_cell_angle_gamma                90
_cell_formula_units_Z            2
_cell_length_a                   5.9843(3)
_cell_length_b                   5.5966(4)
_cell_length_c                   19.1599(10)
_cell_measurement_reflns_used    2155
_cell_measurement_temperature    360(2)
_cell_measurement_theta_max      31.2010
_cell_measurement_theta_min      3.7840
_cell_volume                     641.70(7)
_computing_cell_refinement       'CrysAlisPro 1.171.39.44a (Rigaku OD, 2018)'
_computing_data_collection       'CrysAlisPro 1.171.39.44a (Rigaku OD, 2018)'
_computing_data_reduction        'CrysAlisPro 1.171.39.44a (Rigaku OD, 2018)'
_computing_molecular_graphics    'Olex2 1.3 (Dolomanov et al., 2009)'
_computing_publication_material  'Olex2 1.3 (Dolomanov et al., 2009)'
_computing_structure_refinement  'SHELXL 2018/3 (Sheldrick, 2015)'
_computing_structure_solution    'SHELXT 2018/3 (Sheldrick, 2015)'
_diffrn_ambient_environment      air
_diffrn_ambient_temperature      360(2)
_diffrn_detector                 'CCD plate'
_diffrn_detector_area_resol_mean 10.3829
_diffrn_detector_type            Atlas
_diffrn_measured_fraction_theta_full 0.998
_diffrn_measured_fraction_theta_max 0.999
_diffrn_measurement_details
;
List of Runs (angles in degrees, time in seconds):

  # Type    Start    End  Width  t~exp~   \w     \q     \k     \f   Frames
--------------------------------------------------------------------------
  1  \w    -47.00   3.00   1.00   22.50    --  -14.99  77.00-180.00   50
  2  \w    -27.00  19.00   1.00   22.50    --  -14.99 -77.00-150.00   46
  3  \w     42.00  83.00   1.00   22.50    --   16.86 178.00 -30.00   41
  4  \w     31.00  59.00   1.00   22.50    --   16.86 -99.00 120.00   28
  5  \w     -4.00  93.00   1.00   22.50    --   16.86  38.00 120.00   97
  6  \w     -8.00  93.00   1.00   22.50    --   16.86  38.00  30.00  101
;
_diffrn_measurement_device       'four-circle diffractometer'
_diffrn_measurement_device_type  'SuperNova, Dual, Cu at home/near, Atlas'
_diffrn_measurement_method       '\w scans'
_diffrn_orient_matrix_type
'CrysAlisPro convention (1999,Acta A55,543-557)'
_diffrn_orient_matrix_UB_11      -0.1102908000
_diffrn_orient_matrix_UB_12      0.0364121000
_diffrn_orient_matrix_UB_13      -0.0083929000
_diffrn_orient_matrix_UB_21      0.0278914000
_diffrn_orient_matrix_UB_22      0.1196919000
_diffrn_orient_matrix_UB_23      0.0085098000
_diffrn_orient_matrix_UB_31      0.0332596000
_diffrn_orient_matrix_UB_32      0.0204167000
_diffrn_orient_matrix_UB_33      -0.0350307000
_diffrn_radiation_monochromator  mirror
_diffrn_radiation_probe          x-ray
_diffrn_radiation_type           'Mo K\a'
_diffrn_radiation_wavelength     0.71073
_diffrn_reflns_av_R_equivalents  0.0459
_diffrn_reflns_av_unetI/netI     0.0442
_diffrn_reflns_Laue_measured_fraction_full 0.998
_diffrn_reflns_Laue_measured_fraction_max 0.999
_diffrn_reflns_limit_h_max       7
_diffrn_reflns_limit_h_min       -6
_diffrn_reflns_limit_k_max       6
_diffrn_reflns_limit_k_min       -7
_diffrn_reflns_limit_l_max       24
_diffrn_reflns_limit_l_min       -22
_diffrn_reflns_number            5206
_diffrn_reflns_point_group_measured_fraction_full 0.973
_diffrn_reflns_point_group_measured_fraction_max 0.969
_diffrn_reflns_theta_full        25.242
_diffrn_reflns_theta_max         27.488
_diffrn_reflns_theta_min         3.567
_diffrn_source                   'micro-focus sealed X-ray tube'
_diffrn_source_type              'SuperNova (Mo) X-ray Source'
_exptl_absorpt_coefficient_mu    24.840
_exptl_absorpt_correction_T_max  0.995
_exptl_absorpt_correction_T_min  0.989
_exptl_absorpt_correction_type   analytical
_exptl_absorpt_process_details
;
CrysAlisPro 1.171.39.44a (Rigaku Oxford Diffraction, 2018)
Analytical numeric absorption correction using a multifaceted crystal
			model based on expressions derived by R.C. Clark & J.S. Reid.
(Clark, R. C. & Reid, J. S. (1995). Acta Cryst. A51, 887-897)
Empirical absorption correction using spherical harmonics,
 implemented in SCALE3 ABSPACK scaling algorithm.
;
_exptl_crystal_colour            green
_exptl_crystal_density_diffrn    4.555
_exptl_crystal_description       prism
_exptl_crystal_F_000             788
_exptl_crystal_size_max          0.108
_exptl_crystal_size_mid          0.06
_exptl_crystal_size_min          0.041
_refine_diff_density_max         1.208
_refine_diff_density_min         -1.435
_refine_diff_density_rms         0.232
_refine_ls_abs_structure_details
;
 Flack x determined using 638 quotients [(I+)-(I-)]/[(I+)+(I-)]
 (Parsons, Flack and Wagner, Acta Cryst. B69 (2013) 249-259).
;
_refine_ls_abs_structure_Flack   -0.02(3)
_refine_ls_extinction_coef       .
_refine_ls_extinction_method     none
_refine_ls_goodness_of_fit_ref   1.068
_refine_ls_hydrogen_treatment    refxyz
_refine_ls_matrix_type           full
_refine_ls_number_parameters     123
_refine_ls_number_reflns         1568
_refine_ls_number_restraints     7
_refine_ls_restrained_S_all      1.065
_refine_ls_R_factor_all          0.0497
_refine_ls_R_factor_gt           0.0472
_refine_ls_shift/su_max          0.000
_refine_ls_shift/su_mean         0.000
_refine_ls_structure_factor_coef Fsqd
_refine_ls_weighting_details
'w=1/[\s^2^(Fo^2^)+(0.0806P)^2^+0.7948P] where P=(Fo^2^+2Fc^2^)/3'
_refine_ls_weighting_scheme      calc
_refine_ls_wR_factor_gt          0.1148
_refine_ls_wR_factor_ref         0.1170
_reflns_Friedel_coverage         0.885
_reflns_Friedel_fraction_full    0.945
_reflns_Friedel_fraction_max     0.938
_reflns_number_gt                1487
_reflns_number_total             1568
_reflns_threshold_expression     'I > 2\s(I)'
_cod_data_source_file            Derriksite_SN_87C_last.cif
_cod_data_source_block           derriksite_sn_87C
_cod_original_cell_volume        641.69(6)
_cod_database_code               1566232
_chemical_oxdiff_formula         'Cu4 U Se2 O14'
_shelx_space_group_comment
;
The symmetry employed for this shelxl refinement is uniquely defined
by the following loop, which should always be used as a source of
symmetry information in preference to the above space-group names.
They are only intended as comments.
;
_reflns_odcompleteness_completeness 99.70
_reflns_odcompleteness_iscentric 1
_reflns_odcompleteness_theta     28.51
_olex2_refinement_description
;
1. Fixed Uiso
 At 1.5 times of:
  All O(H) groups, All O(H,H) groups
2. Restrained distances
 O7-H7
 0.9 with sigma of 0.02
 O8-H8
 1 with sigma of 0.02
 H8-O1_$2
 2.15 with sigma of 0.02
 O10-H10
 0.9 with sigma of 0.02
 O9-H9
 1 with sigma of 0.02
 H9-O5_$4
 2.15 with sigma of 0.02
3. Others
 Fixed Sof: H9(0.5)
;
_shelx_res_file
;
TITL Derriksite_SN_363K in Pmn2(1)
    derriksite_sn_363k.res
    created by SHELXL-2018/3 at 18:27:13 on 04-Sep-2020
REM Pmn2(1) (#31, found as Pnm2(1) in ba-c setting)
CELL 0.71073 5.984256 5.596604 19.159903 90 90 90
ZERR 2 0.000306 0.000392 0.000987 0 0 0
LATT -1
SYMM 0.5-X,-Y,0.5+Z
SYMM 0.5+X,-Y,0.5+Z
SYMM -X,+Y,+Z
SFAC Cu H O Se U
UNIT 8 12 28 4 2
EQIV $1 1+X,+Y,+Z
EQIV $2 -X,+Y,+Z
EQIV $3 -1-X,+Y,+Z
EQIV $4 0.5+X,-1-Y,0.5+Z
DFIX 0.9 O7 H7
DFIX 1 O8 H8
DFIX 2.15 H8 O1_$2
DFIX 0.9 O10 H10
DFIX 1 O9 H9
DFIX 2.15 H9 O5_$4

L.S. 20
PLAN  2
CONF
HTAB O7 O3_$2
FREE Cu1 Cu1_$3
FREE Cu2 Cu3_$1
FREE Cu2 Cu3_$2
FREE Cu2 Cu3_$3
FREE Cu2 Cu3
list 4
MORE -1
BOND $H
fmap 2
acta
OMIT -4 55
REM <olex2.extras>
REM <HklSrc "%.\\Derriksite_SN_363K.hkl">
REM </olex2.extras>

WGHT    0.080600    0.794800
FVAR       0.94299
U1    5   -0.500000   -0.183805   -0.606571    10.50000    0.01649    0.03561 =
         0.01426   -0.00588    0.00000    0.00000
SE1   4    0.000000    0.140053   -0.527499    10.50000    0.02187    0.03507 =
         0.01607    0.00254    0.00000    0.00000
SE2   4   -1.000000   -0.506150   -0.689667    10.50000    0.02049    0.03364 =
         0.01501    0.00347    0.00000    0.00000
CU1   1    0.250217   -0.610433   -0.361572    11.00000    0.00781    0.01012 =
         0.02330    0.00067    0.00169    0.00091
CU2   1    0.000000   -0.114652   -0.354156    10.50000    0.00563    0.01063 =
         0.02220   -0.00184    0.00000    0.00000
CU3   1    0.500000   -0.105652   -0.356180    10.50000    0.00502    0.00949 =
         0.02247   -0.00307    0.00000    0.00000
O1    3   -0.500000   -0.455427   -0.556940    10.50000    0.04118    0.05671 =
         0.03117    0.00691    0.00000    0.00000
O2    3   -0.500000    0.081724   -0.656564    10.50000    0.07362    0.04172 =
         0.01517    0.00867    0.00000    0.00000
O3    3   -0.218135   -0.060280   -0.534791    11.00000    0.02653    0.07012 =
         0.02617   -0.01474   -0.00426   -0.00841
O4    3    0.000000    0.199098   -0.442257    10.50000    0.01076    0.02789 =
         0.01659   -0.00005    0.00000    0.00000
O5    3   -0.780242   -0.311423   -0.681803    11.00000    0.03640    0.04181 =
         0.02664   -0.01450   -0.00272   -0.00180
O6    3   -1.000000   -0.556770   -0.773838    10.50000    0.01376    0.01953 =
         0.02701   -0.00790    0.00000    0.00000
O7    3    0.254454   -0.278243   -0.402056    11.00000    0.00754    0.01275 =
         0.02126   -0.00846    0.00351    0.00102
H7    2    0.251479   -0.262238   -0.448625    11.00000   -1.50000
O8    3    0.500000   -0.726433   -0.414009    10.50000    0.00706    0.00503 =
         0.02720   -0.00745    0.00000    0.00000
H8    2    0.500000   -0.613421   -0.454498    10.50000   -1.50000
O9    3    0.000000   -0.491692   -0.308617    10.50000    0.01225    0.01863 =
         0.01443    0.00292    0.00000    0.00000
O10   3    0.248708    0.065718   -0.312278    11.00000    0.01268    0.00900 =
         0.02170   -0.00428   -0.00142   -0.00039
H10   2    0.266042    0.089478   -0.266171    11.00000   -1.50000
H9    2   -0.073616   -0.559788   -0.265984    10.50000   -1.50000
HKLF 4




REM  Derriksite_SN_363K in Pmn2(1)
REM wR2 = 0.1170, GooF = S = 1.068, Restrained GooF = 1.065 for all data
REM R1 = 0.0472 for 1487 Fo > 4sig(Fo) and 0.0497 for all 1568 data
REM 123 parameters refined using 7 restraints

END

WGHT      0.0806      0.7948

REM Highest difference peak  1.208,  deepest hole -1.435,  1-sigma level  0.232
Q1    1  -0.5000 -0.4761 -0.6070  10.50000  0.05    1.21
Q2    1  -0.6056 -0.0675 -0.6310  11.00000  0.05    1.14
;
_shelx_res_checksum              69927
_shelx_hkl_file
;
   0   0  -5 32.2788 28.4470   4
   0   0  -4 97683.0 1595.92   4
   0   0   3 6.82550 10.8942   1
   0   0   4 89209.0 1364.36   1
   0   0   5 38.5984 26.2913   6
   0   0   5 17.1463 22.3498   1
   0   0   6 28138.6 569.131   1
   0   0   6 26532.7 551.860   6
   0   0   6 28721.4 681.934   4
   0   0   7-4.37178 16.7289   4
   0   0   7 19.7497 28.0021   6
   0   0   7 32.4969 27.2754   1
   0   0   8 16044.0 426.362   1
   0   0   8 15484.0 535.158   4
   0   0   8 15889.4 420.153   6
   0   0   9 43.2917 31.6468   1
   0   0   9-1.69449 25.0058   3
   0   0   9 58.6289 34.6815   6
   0   0   9-1.23883 22.6530   4
   0   0  10 784.744 98.1008   3
   0   0  10 669.813 83.9224   1
   0   0  10 636.968 112.663   4
   0   0  10 557.527 77.9526   6
   0   0  11 99.7185 56.4255   6
   0   0  11 53.5386 45.5757   4
   0   0  11 58.6920 37.9749   1
   0   0  12 90791.3 1569.04   1
   0   0  12 86641.0 1830.02   4
   0   0  13 57.2305 43.4504   3
   0   0  13 84.2047 52.7535   6
   0   0  13 4.92348 29.7486   1
   0   0  13 129.472 71.8341   4
   0   0  14 3675.73 240.862   6
   0   0  14 4581.38 266.627   1
   0   0  15 128.587 64.0389   6
   0   0  15 10.3758 37.8415   1
   0   0  16 23003.1 713.648   6
   0   0  16 29687.0 797.724   1
   0   0  17 80.0038 62.6535   6
   0   0  17 56.2329 61.3863   1
   0   0  18 4939.70 318.084   1
   0   0  18 3902.39 283.416   6
   0   0  19 168.103 88.6924   6
   0   0  20 7535.24 730.701   2
   0   0  20 8406.30 444.672   6
   0   0  21 87.0228 77.4472   6
   0   0  21 164.457 121.223   2
   0   0  22 345.937 104.787   6
   0   0  22 384.122 182.176   2
   0   0  23 328.131 181.427   2
   0   0  23 550.580 149.878   6
   0   0  24 13385.2 1069.94   2
   0   0  24 15611.2 671.453   6
   0   0  25 99.8885 124.895   2
   0   0  25 203.449 102.417   6
   0   0  26 1175.59 333.353   2
   0   1 -15 15095.1 753.284   4
   0   1 -14 2684.18 303.294   4
   0   1 -13 2649.65 277.870   4
   0   1 -12 702.586 139.236   4
   0  -1 -11 9262.31 370.200   3
   0  -1 -11 9586.53 372.455   1
   0   1 -11 9375.97 491.875   4
   0   1 -10 17275.0 640.027   4
   0   1 -10 14853.4 449.663   6
   0  -1 -10 16664.4 492.961   3
   0  -1 -10 16958.8 467.490   1
   0   1  -9 13976.5 554.828   4
   0   1  -9 12934.3 395.300   6
   0  -1  -9 13672.5 374.373   1
   0  -1  -9 14007.6 430.711   3
   0  -1  -8 4646.32 222.264   3
   0  -1  -8 5040.59 186.347   1
   0   1  -8 4520.06 208.189   6
   0   1  -8 4774.55 291.648   4
   0  -1  -7 13552.3 381.033   3
   0   1  -7 13199.4 361.973   6
   0  -1  -7 13247.5 302.846   1
   0  -1  -6 4261.25 133.928   1
   0   1  -6 4098.02 172.610   6
   0  -1  -6 4067.59 183.786   3
   0  -1  -5 19859.3 394.945   5
   0  -1  -5 19666.2 449.960   3
   0   1  -5 19294.5 424.138   6
   0   1  -4 14767.9 344.525   6
   0  -1  -4 15469.4 373.473   3
   0  -1  -4 15777.0 331.199   5
   0  -1  -3 21921.3 432.289   5
   0  -1  -2 10776.8 281.199   5
   0  -1  -1 13781.4 409.653   2
   0  -1  -1 13653.4 362.307   5
   0  -1   0 2187.49 139.299   5
   0  -1   0 2312.20 132.314   2
   0  -1   1 13285.1 385.481   5
   0  -1   1 12667.5 324.617   6
   0  -1   2 11552.7 288.796   6
   0  -1   2 11978.4 372.337   5
   0   1   3 19056.9 404.610   5
   0  -1   3 19223.8 397.038   6
   0  -1   3 19647.9 510.058   5
   0  -1   4 16259.9 355.161   6
   0   1   4 16133.0 349.379   5
   0  -1   4 15648.2 458.929   5
   0   1   5 18208.6 374.391   5
   0  -1   5 17752.6 388.411   6
   0  -1   6 2837.57 132.952   6
   0   1   6 2824.77 119.162   5
   0  -1   7 12380.5 327.747   6
   0  -1   7 12193.9 459.435   1
   0   1   7 12593.8 358.046   3
   0   1   7 12448.2 297.340   5
   0  -1   8 3563.06 166.750   6
   0   1   8 3677.04 145.983   5
   0   1   8 3633.31 187.213   3
   0  -1   8 3855.99 249.697   1
   0  -1   9 12617.8 359.806   6
   0   1   9 13080.7 393.022   3
   0  -1   9 12259.5 485.354   1
   0   1   9 12848.1 318.197   5
   0   1  10 11413.3 381.461   3
   0   1  10 12353.0 317.357   5
   0  -1  10 11817.4 359.500   6
   0  -1  10 12818.9 494.551   1
   0  -1  11 9242.02 423.502   1
   0  -1  11 8679.98 311.793   6
   0   1  11 8548.65 471.149   4
   0   1  11 8526.46 263.927   5
   0  -1  12 538.707 104.221   1
   0   1  12 625.037 70.5886   5
   0   1  12 681.476 136.795   4
   0  -1  12 599.469 85.1280   6
   0   1  13 1675.02 158.966   3
   0  -1  13 1907.75 153.530   6
   0  -1  13 1805.39 194.944   1
   0   1  13 1581.68 115.403   5
   0   1  14 2777.77 157.796   5
   0  -1  14 2947.95 256.984   1
   0  -1  14 2648.28 189.476   6
   0   1  15 9958.55 436.700   6
   0  -1  15 10394.6 392.992   6
   0   1  16 6392.60 353.705   6
   0  -1  16 6719.35 323.939   6
   0   1  16 8130.15 662.006   2
   0   1  17 2849.60 401.126   2
   0   1  17 2514.77 228.704   6
   0   1  17 2629.47 168.839   5
   0  -1  17 2650.36 209.769   6
   0   1  18 1114.60 115.175   5
   0   1  18 1321.12 292.287   2
   0  -1  18 1216.09 148.825   6
   0   1  18 1151.81 160.172   6
   0   1  19 8557.42 753.562   2
   0  -1  19 8494.37 409.572   6
   0   1  19 8219.39 443.589   6
   0  -1  19 8668.04 527.823   5
   0  -1  20 670.044 112.607   6
   0   1  20 891.618 154.710   6
   0   1  20 780.851 242.221   2
   0  -1  20 824.410 171.400   5
   0   1  21 2102.56 393.950   2
   0   1  21 2179.65 234.790   6
   0  -1  21 2142.37 278.436   5
   0  -1  21 2188.12 210.532   6
   0  -1  22 2288.27 431.270   2
   0  -1  22 2564.66 305.171   5
   0   1  22 2102.85 407.950   2
   0   1  22 2545.79 262.502   6
   0  -1  22 2633.70 241.172   6
   0   1  23 2447.80 451.040   2
   0  -1  23 2509.02 248.353   6
   0  -1  23 1993.89 408.918   2
   0   1  23 2866.42 285.839   6
   0   1  24 401.431 210.769   2
   0  -1  24 412.637 196.300   2
   0   1  24 132.327 72.0804   6
   0   1  25 397.052 213.260   2
   0  -1  25 97.5408 113.387   2
   0   1  25 514.170 140.449   6
   0  -1  26 372.454 199.326   2
   0   1  26 116.394 90.4519   6
   0  -1  27 1100.96 336.408   2
   0   2 -19 7478.60 631.899   4
   0   2 -18 5779.14 527.240   4
   0   2 -17 8540.54 621.402   4
   0   2 -16 3439.45 380.786   4
   0   2 -15 18358.1 866.650   4
   0  -2 -15 18649.0 677.922   3
   0   2 -14 4224.54 389.235   4
   0  -2 -14 4390.77 302.034   3
   0   2 -13 9341.02 564.878   4
   0  -2 -13 10531.3 462.871   3
   0  -2 -13 11408.6 384.028   1
   0   2 -12 757.474 110.707   6
   0   2 -12 922.837 170.377   4
   0  -2 -12 708.354 123.126   3
   0  -2 -12 831.796 87.7487   1
   0  -2 -11 17688.6 425.121   1
   0   2 -11 16750.8 530.768   6
   0  -2 -11 17850.9 579.478   3
   0  -2 -10 8192.62 248.347   1
   0   2 -10 8394.24 341.642   6
   0  -2 -10 8342.24 369.904   3
   0  -2  -9 41426.5 928.818   3
   0  -2  -9 39121.5 715.994   1
   0   2  -9 41261.7 882.925   6
   0  -2  -9 40715.8 811.132   5
   0  -2  -8 6386.20 254.990   5
   0  -2  -8 6806.72 314.701   3
   0   2  -8 6369.34 275.676   6
   0  -2  -7 38624.7 871.939   3
   0   2  -7 37853.6 810.026   6
   0  -2  -7 37915.1 778.246   5
   0  -2  -6 21931.5 528.253   5
   0   2  -6 20905.7 538.717   6
   0   2  -5 40455.2 835.651   6
   0  -2  -5 40402.3 828.106   5
   0   2  -4 6230.85 268.531   6
   0  -2  -4 6329.33 272.975   5
   0  -2  -3 39492.7 871.396   5
   0   2  -3 40474.8 855.346   6
   0  -2  -2 11110.0 411.192   5
   0   2  -2 11214.3 392.464   6
   0  -2  -2 11569.0 507.430   2
   0  -2  -1 18088.5 576.399   5
   0  -2  -1 18579.6 603.030   2
   0  -2   0 53.6573 36.0329   5
   0  -2   0 42.6175 32.1694   2
   0  -2   1 20570.7 560.719   2
   0   2   1 19741.8 627.844   2
   0  -2   1 21543.4 663.306   5
   0   2   2 13058.4 482.817   5
   0   2   2 14271.1 541.022   2
   0  -2   2 13575.4 517.301   5
   0   2   3 33634.5 947.438   2
   0  -2   3 32470.3 761.634   6
   0   2   3 34681.4 830.157   5
   0  -2   3 34363.2 903.668   5
   0  -2   4 3618.63 262.745   5
   0   2   4 3291.48 207.126   5
   0  -2   4 3291.76 193.228   6
   0   2   4 3659.35 301.805   2
   0  -2   5 45129.2 1096.99   5
   0   2   5 43643.8 928.838   5
   0  -2   5 44299.4 893.958   6
   0   2   5 44718.3 1201.03   2
   0  -2   6 21309.9 705.207   5
   0   2   6 21387.6 561.838   5
   0  -2   6 21430.9 540.959   6
   0   2   6 24227.5 847.035   2
   0  -2   7 27981.5 646.819   6
   0   2   7 28079.5 655.077   5
   0  -2   7 29278.3 844.215   5
   0  -2   8 4883.81 229.787   6
   0   2   8 4539.08 222.129   5
   0  -2   8 4928.83 321.936   5
   0   2   9 39143.3 812.876   5
   0  -2   9 39263.5 1051.32   5
   0  -2   9 40854.7 845.968   6
   0  -2  10 7221.06 293.647   6
   0   2  10 6737.38 268.269   5
   0  -2  10 6660.19 428.341   1
   0  -2  10 6350.74 387.310   5
   0   2  11 13023.2 725.000   2
   0  -2  11 12252.7 405.256   6
   0   2  11 11788.5 375.728   5
   0  -2  11 11888.6 542.604   5
   0   2  12 1265.86 238.769   2
   0  -2  12 1110.23 119.350   6
   0  -2  12 1335.94 183.450   5
   0   2  12 1104.62 105.493   5
   0   2  13 11481.1 727.416   2
   0  -2  13 10664.5 392.019   6
   0   2  13 10780.0 360.674   5
   0  -2  13 9849.00 515.025   5
   0  -2  14 2989.02 288.876   5
   0  -2  14 3256.66 212.355   6
   0   2  14 3470.33 411.267   2
   0   2  14 2245.51 160.576   5
   0  -2  15 11925.7 591.603   5
   0  -2  15 12031.9 431.955   6
   0   2  15 12094.7 795.689   2
   0   2  16 4082.37 481.052   2
   0  -2  16 4030.14 351.294   5
   0   2  16 3756.55 213.782   5
   0  -2  16 3740.33 242.530   6
   0   2  17 8392.49 717.080   2
   0  -2  17 8115.24 521.970   5
   0  -2  17 8128.68 373.495   6
   0   2  17 8638.80 339.046   5
   0  -2  18 3979.95 263.135   6
   0   2  18 3925.70 507.812   2
   0  -2  18 3989.60 370.081   5
   0  -2  19 4616.06 413.887   5
   0  -2  19 4239.27 280.881   6
   0   2  19 4007.96 323.314   6
   0   2  19 4441.41 553.433   2
   0  -2  20 1100.63 146.073   6
   0  -2  20 900.614 189.295   5
   0   2  20 986.897 166.446   6
   0   2  20 967.939 270.714   2
   0  -2  21 6145.69 355.030   6
   0  -2  21 6103.80 506.834   5
   0   2  21 6646.15 726.561   2
   0   2  21 6204.60 423.708   6
   0  -2  22 946.409 142.027   6
   0   2  22 1100.09 313.814   2
   0  -2  22 924.705 206.652   5
   0   2  22 1240.21 200.803   6
   0  -2  23 694.520 245.009   2
   0   2  23 503.172 144.807   6
   0  -2  23 757.985 203.760   5
   0   2  23 510.102 204.471   2
   0  -2  24 628.311 228.936   2
   0   2  24 240.789 102.863   6
   0   2  24 249.605 181.184   2
   0   2  25 1075.35 189.201   6
   0  -2  25 1200.59 330.673   2
   0  -2  26 1125.95 329.218   2
   0   2  26 1385.07 224.431   6
   0   3 -22 4152.20 533.877   4
   0   3 -21 1071.54 280.643   4
   0   3 -20 1136.64 271.561   4
   0   3 -19 117.056 111.462   4
   0  -3 -19 129.201 103.741   3
   0  -3 -18 650.557 153.947   3
   0   3 -18 419.539 157.597   4
   0   3 -17 971.247 221.287   4
   0  -3 -17 1216.82 198.454   3
   0   3 -16 1880.78 302.391   4
   0  -3 -16 2152.12 251.676   3
   0  -3 -15 595.254 137.199   3
   0   3 -15 422.795 143.818   4
   0  -3 -14 7297.49 430.550   3
   0   3 -14 7395.68 388.690   6
   0  -3 -13 4017.24 308.012   3
   0  -3 -13 2980.55 155.226   1
   0  -3 -12 16813.3 516.814   5
   0  -3 -12 16424.0 620.407   3
   0  -3 -11 841.152 112.613   5
   0  -3 -11 770.835 137.975   3
   0  -3 -10 8982.41 442.699   3
   0  -3 -10 8459.49 369.584   5
   0  -3  -9 1788.35 164.348   5
   0  -3  -9 1612.30 188.431   3
   0  -3  -8 3297.98 223.255   5
   0   3  -7 9.43929 32.3976   6
   0  -3  -7 1.69686 32.6703   5
   0   3  -6 1989.05 184.456   6
   0  -3  -6 1873.59 176.523   5
   0  -3  -5 378.480 92.1430   5
   0   3  -5 396.790 90.2937   6
   0   3  -4 3143.56 245.131   6
   0  -3  -4 3304.74 248.061   5
   0  -3  -3 1546.18 178.142   5
   0   3  -3 1721.44 185.290   6
   0  -3  -2 14726.0 587.556   5
   0   3  -2 15265.9 570.412   6
   0  -3  -1 1725.65 208.138   5
   0  -3  -1 2178.56 228.776   2
   0  -3   0 21909.0 767.110   5
   0  -3   0 20090.5 691.373   2
   0  -3   1 2440.27 247.508   5
   0  -3   1 2313.12 203.987   2
   0   3   1 2261.28 247.103   5
   0  -3   2 15947.7 653.618   5
   0   3   2 14579.0 619.421   2
   0   3   2 15680.9 645.763   5
   0  -3   2 13950.9 504.319   2
   0  -3   3 978.878 166.645   5
   0   3   3 1093.60 179.260   2
   0  -3   3 644.284 103.314   2
   0   3   3 1010.72 160.312   5
   0  -3   4 4181.56 333.176   5
   0   3   4 4259.13 357.692   2
   0   3   4 4363.43 308.891   5
   0   3   5 394.304 96.1817   5
   0  -3   5 312.059 102.324   5
   0  -3   6 1610.93 205.723   5
   0   3   6 1341.48 163.842   5
   0  -3   6 1306.58 150.302   6
   0  -3   7-16.3282 48.2366   6
   0   3   7 30.3627 42.2626   5
   0  -3   7 44.0271 58.0544   5
   0  -3   8 3430.47 315.127   5
   0   3   8 4005.41 395.925   2
   0  -3   8 3513.88 240.489   6
   0   3   8 3527.49 252.744   5
   0  -3   9 1639.43 222.988   5
   0   3   9 1130.08 234.839   2
   0   3   9 1228.38 147.733   5
   0  -3   9 1386.75 150.646   6
   0   3  10 6679.04 560.224   2
   0  -3  10 6815.84 335.739   6
   0   3  10 6319.94 333.136   5
   0  -3  10 6628.20 448.088   5
   0   3  11 860.613 200.828   2
   0  -3  11 978.490 178.947   5
   0  -3  11 967.108 126.782   6
   0   3  11 950.427 125.551   5
   0  -3  12 13299.7 660.950   5
   0  -3  12 13512.4 481.575   6
   0   3  12 13033.0 807.116   2
   0  -3  13 2752.52 304.016   5
   0  -3  13 2785.61 215.100   6
   0   3  13 2241.25 344.171   2
   0   3  13 2396.56 202.776   5
   0   3  14 5021.14 292.383   5
   0   3  14 6272.63 591.201   2
   0  -3  14 5865.34 450.918   5
   0  -3  14 5495.26 304.086   6
   0  -3  15 605.496 149.048   5
   0   3  15 483.377 93.4769   5
   0   3  15 851.798 242.886   2
   0  -3  15 738.812 117.928   6
   0  -3  16 1378.14 225.136   5
   0  -3  16 1707.20 174.103   6
   0   3  16 1821.98 338.664   2
   0  -3  17 745.982 115.393   6
   0   3  17 1070.85 274.788   2
   0  -3  17 1143.49 216.963   5
   0  -3  18 373.474 90.2350   6
   0   3  18 223.958 140.136   2
   0  -3  18 190.486 97.9893   5
   0  -3  19 167.385 114.174   5
   0   3  19 109.418 95.9480   2
   0  -3  19 306.460 100.531   6
   0  -3  20 1223.76 246.735   5
   0   3  20 1013.70 296.240   2
   0  -3  20 1067.29 147.755   6
   0  -3  21 532.504 172.698   5
   0   3  21 834.280 281.724   2
   0   3  22 1982.00 264.095   6
   0   3  22 2151.10 454.722   2
   0  -3  22 2313.34 337.269   5
   0  -3  22 1744.02 370.783   2
   0  -3  23-109.900 128.204   5
   0   3  23-162.813 113.404   6
   0  -3  23-24.6474 76.4163   2
   0   3  24 2747.11 320.674   6
   0   3  25 768.347 186.783   6
   0   4 -23 1674.44 344.813   4
   0   4 -22 1690.93 343.011   4
   0  -4 -21 2785.29 366.089   3
   0   4 -21 2869.15 457.515   4
   0  -4 -20 3198.91 383.675   3
   0   4 -20 2748.25 426.777   4
   0   4 -19 3254.75 463.863   4
   0  -4 -19 3469.13 378.039   3
   0   4 -18 1547.99 311.365   4
   0  -4 -18 1581.68 256.472   3
   0   4 -17 4400.32 514.756   4
   0  -4 -17 4625.77 413.563   3
   0  -4 -16 5497.23 442.416   3
   0  -4 -15 2998.69 312.807   3
   0  -4 -14 5113.72 401.386   3
   0  -4 -13 2256.83 217.123   5
   0  -4 -13 2143.62 263.493   3
   0  -4 -12 7513.01 480.529   3
   0  -4 -12 8040.51 414.920   5
   0  -4 -11 3506.11 320.087   3
   0  -4 -11 3475.81 269.866   5
   0  -4 -10 10586.0 564.266   3
   0  -4 -10 11953.7 516.469   5
   0  -4  -9 4927.06 333.157   5
   0  -4  -8 15037.2 597.168   5
   0   4  -7 12357.7 560.815   6
   0  -4  -7 12143.0 541.741   5
   0   4  -6 12096.4 556.638   6
   0  -4  -6 11518.2 542.039   5
   0  -4  -5 7723.26 447.501   5
   0  -4  -4 17230.3 694.690   5
   0  -4  -3 10439.4 544.296   5
   0  -4  -2 10069.9 541.574   5
   0  -4  -1 3549.56 329.409   5
   0  -4   0 10683.7 544.319   2
   0  -4   0 11730.4 606.940   5
   0  -4   1 2524.23 289.398   5
   0  -4   1 2550.09 239.528   2
   0  -4   2 9421.40 456.033   2
   0  -4   2 11541.4 617.051   5
   0  -4   3 9612.54 442.437   2
   0  -4   3 11749.1 625.777   5
   0  -4   4 17271.6 775.369   5
   0  -4   4 12298.9 489.991   2
   0  -4   5 3880.23 259.766   2
   0  -4   5 6320.80 463.526   5
   0  -4   6 11263.0 621.934   5
   0   4   6 11090.2 674.616   2
   0   4   7 13715.2 792.967   2
   0  -4   7 13249.7 696.882   5
   0   4   8 15659.3 861.408   2
   0  -4   8 15346.1 756.486   5
   0   4   9 4018.56 447.325   2
   0  -4   9 4119.66 389.712   5
   0  -4  10 9809.48 602.998   5
   0   4  10 9271.03 694.091   2
   0   4  11 4230.23 490.058   2
   0  -4  11 3965.97 301.889   6
   0  -4  11 4251.14 410.328   5
   0  -4  12 7326.18 529.900   5
   0  -4  12 7193.50 401.872   6
   0   4  12 7384.59 653.055   2
   0  -4  13 899.534 143.652   6
   0  -4  13 1324.16 234.845   5
   0   4  13 1217.70 297.201   2
   0  -4  14 3996.97 294.927   6
   0   4  14 4627.66 542.592   2
   0  -4  14 4360.18 418.359   5
   0  -4  15 3245.84 365.423   5
   0   4  15 2385.62 415.400   2
   0  -4  15 2628.94 238.320   6
   0  -4  16 4073.18 420.857   5
   0  -4  16 3654.20 287.190   6
   0   4  16 3733.80 519.180   2
   0   4  17 3153.90 485.063   2
   0  -4  17 3813.83 423.217   5
   0  -4  17 2933.08 255.412   6
   0  -4  18 1023.42 160.788   6
   0  -4  18 1460.84 255.368   5
   0   4  18 1356.95 340.791   2
   0   4  19 3077.61 510.577   2
   0  -4  19 3225.14 408.080   5
   0   4  20 2303.87 467.309   2
   0  -4  20 2243.71 335.716   5
   0   4  21 2050.34 440.919   2
   0  -4  21 2775.57 383.397   5
   0   4  22 1145.28 362.465   2
   0  -4  22 1412.24 299.727   5
   0  -4  23 1507.37 316.224   5
   0  -5 -22 1252.27 271.449   3
   0  -5 -21 316.324 200.399   3
   0   5 -21 154.517 135.474   4
   0  -5 -20 1411.51 278.200   3
   0   5 -20 1389.41 335.141   4
   0  -5 -19 845.989 198.850   3
   0   5 -19 923.265 276.495   4
   0  -5 -18 4125.16 425.651   3
   0   5 -18 3362.58 505.161   4
   0  -5 -17 623.657 186.722   3
   0  -5 -16 1507.14 250.147   3
   0  -5 -15 529.977 147.234   3
   0  -5 -14 1000.73 211.540   3
   0  -5 -14 1156.35 178.636   5
   0  -5 -13 119.086 68.9375   5
   0  -5 -13 15.4025 91.3469   3
   0  -5 -12 982.702 176.036   5
   0  -5 -12 813.938 181.978   3
   0  -5 -11 846.114 167.056   5
   0  -5 -11 400.809 131.113   3
   0  -5 -10 544.384 134.051   5
   0  -5  -9 330.217 115.892   5
   0  -5  -8 5359.89 401.498   5
   0  -5  -7 2861.99 292.876   5
   0  -5  -6 5646.92 423.837   5
   0  -5  -5 1039.79 188.935   5
   0  -5  -4 2710.77 306.753   5
   0  -5  -3 1802.51 251.269   5
   0  -5  -2 1936.37 260.322   5
   0  -5  -1 317.796 106.975   5
   0  -5   0 28.0903 66.0233   5
   0  -5   1 195.767 102.746   5
   0  -5   2 2563.27 316.801   5
   0  -5   3 1676.55 274.848   5
   0  -5   4 2892.21 339.013   5
   0  -5   4 2443.86 207.192   2
   0  -5   5 923.784 218.072   5
   0  -5   5 642.959 90.0622   2
   0   5   6 5903.79 530.565   2
   0  -5   6 6314.09 512.592   5
   0  -5   7 3086.27 362.270   5
   0   5   7 2803.38 375.537   2
   0  -5   8 5151.64 470.052   5
   0   5   8 5257.23 544.069   2
   0   5   9 378.353 177.117   2
   0  -5   9 700.102 191.009   5
   0  -5  10 516.504 160.446   5
   0   5  10 449.568 165.088   2
   0  -5  11 1103.67 234.948   5
   0   5  11 928.998 271.774   2
   0   5  12 629.739 236.199   2
   0  -5  12 1079.55 224.852   5
   0   5  13 3.48460 89.1287   2
   0  -5  13 25.9489 73.6234   5
   0   5  14 1823.07 385.413   2
   0  -5  14 1663.09 281.628   5
   0  -5  15 585.737 192.511   5
   0   5  15 479.380 202.232   2
   0   5  16 902.799 277.031   2
   0  -5  16 1195.02 249.369   5
   0  -5  17 602.210 186.429   5
   0   5  17 550.046 230.882   2
   0   5  18 2674.67 498.192   2
   0  -5  18 3564.97 429.760   5
   0   5  19 777.696 278.786   2
   0  -5  19 732.013 218.444   5
   0  -5  20 850.735 228.018   5
   0   5  20 887.519 333.736   2
   0  -5  21 361.702 154.435   5
   0  -6 -18 1324.82 294.975   3
   0  -6 -17 443.578 188.550   3
   0  -6 -16 549.956 179.657   3
   0  -6 -15 2571.87 356.609   3
   0  -6 -14 3081.19 386.802   3
   0  -6 -13 1688.04 281.046   3
   0  -6 -13 2083.42 276.881   5
   0  -6 -12 254.281 109.059   3
   0  -6 -12 303.996 120.431   5
   0  -6 -11 1959.01 303.081   3
   0  -6 -11 3186.88 340.959   5
   0  -6 -10 4158.00 391.308   5
   0  -6  -9 3339.38 351.118   5
   0  -6  -8 294.978 134.756   5
   0  -6  -7 2967.60 336.405   5
   0  -6  -6 1572.49 254.688   5
   0  -6  -5 3416.94 366.947   5
   0  -6  -4 568.044 171.075   5
   0  -6  -3 7945.68 572.535   5
   0  -6  -2 8750.87 606.394   5
   0  -6  -1 8132.29 587.966   5
   0  -6   0 78.4693 125.558   5
   0  -6   1 7011.59 559.424   5
   0  -6   2 8050.95 624.824   5
   0  -6   3 10015.6 681.323   5
   0  -6   4 612.833 176.518   5
   0  -6   5 2757.04 373.086   5
   0  -6   6 1764.08 309.636   5
   0  -6   7 3689.74 429.257   5
   0  -6   8 522.794 168.471   5
   0  -6   9 2947.67 390.562   5
   0   6   9 3031.38 434.587   2
   0   6  10 4109.50 511.987   2
   0  -6  10 4590.83 488.258   5
   0  -6  11 3715.52 436.929   5
   0   6  11 3080.61 475.752   2
   0  -6  12 341.629 162.689   5
   0   6  12 64.4674 102.959   2
   0   6  13 1518.82 368.234   2
   0  -6  13 1584.98 305.531   5
   0   6  14 3159.76 514.147   2
   0  -6  14 3163.58 415.094   5
   0   6  15 2698.06 476.642   2
   0  -6  15 3213.28 425.659   5
   0  -6  16 58.6072 96.3796   5
   0   6  16 430.785 209.662   2
   0   6  17 376.972 224.228   2
   0   6  18 1071.21 327.722   2
   0  -7 -12 344.284 183.485   3
   0  -7 -11 33.8326 81.6605   5
   0  -7 -11 5.68901 100.291   3
   0  -7 -10 173.196 82.0276   5
   0  -7  -9 801.954 202.493   5
   0  -7  -8 620.278 174.780   5
   0  -7  -7 6.80755 97.9615   5
   0  -7  -6 159.378 119.359   5
   0  -7  -5 1074.39 242.055   5
   0  -7  -4 152.002 116.018   5
   0  -7  -3 552.542 185.300   5
   0  -7  -2 719.116 210.695   5
   0  -7  -1 1248.59 273.366   5
   0  -7   0-42.7372 96.5156   5
   0  -7   1 1043.28 250.042   5
   0  -7   2 487.346 194.073   5
   0  -7   3 677.429 187.214   5
   0  -7   4 84.3935 103.737   5
   0  -7   5 1223.79 272.709   5
   0  -7   6 34.2767 96.3279   5
   0  -7   7 283.920 175.870   5
   0  -7   8 821.763 239.484   5
   0  -7   9 864.185 243.587   5
   1   0 -10 56.6142 41.3548   1
   1   0  -9 23076.9 790.014   4
   1   0  -9 21583.4 624.615   1
   1   0  -8-0.85642 39.0391   4
   1   0  -8 24.6978 27.0470   1
   1   0  -7 35723.6 944.065   4
   1   0  -7 34487.3 762.467   1
   1   0  -6 22.1857 25.3424   4
   1   0  -5 68196.1 1470.36   2
   1   0  -5 68002.6 1342.66   4
   1   0  -4 15.1204 12.6865   5
   1   0  -4 10.4928 29.4589   2
   1   0  -4-8.79509 19.3537   4
   1   0  -3 24750.9 580.078   4
   1   0  -3 23215.1 399.648   5
   1   0  -3 23982.3 687.057   2
   1   0  -3 22979.4 457.032   3
   1   0  -2 1.58547 13.0372   4
   1   0  -2 10.1635 11.5702   6
   1   0  -2 4.38688 25.7817   2
   1   0  -2 13.4177 13.0639   3
   1   0  -1 3150.39 142.717   4
   1   0   2 5.15577 16.1465   6
  -1   0   2 1.84969 7.87621   5
  -1   0   2-2.89572 9.29185   6
  -1   0   3 21084.9 352.795   5
  -1   0   3 20986.6 383.511   6
   1   0   3 21073.6 457.323   6
   1   0   4 9.27058 30.1015   6
  -1   0   4 3.75046 7.26558   5
   1   0   5 55524.4 974.327   4
  -1   0   5 60390.8 1004.15   1
   1   0   5 57193.1 1034.73   6
  -1   0   5 57145.1 869.017   5
  -1   0   6 30.1674 30.2974   1
   1   0   6 14.4103 18.5231   4
   1   0   6 28.4170 39.0551   6
  -1   0   6-4.20747 48.7482   2
  -1   0   6 16.1638 13.3024   5
   1   0   7 28740.3 671.758   4
   1   0   7 31266.3 688.616   6
  -1   0   7 29828.7 1027.36   2
  -1   0   7 27349.2 562.029   5
  -1   0   7 31318.8 646.720   1
   1   0   8 9.58977 18.6601   3
   1   0   8 14.4320 39.4627   6
  -1   0   8 25.3157 54.6905   2
   1   0   8-22.6079 21.4892   4
  -1   0   8 41.6183 38.6340   1
  -1   0   8-16.6464 19.8493   5
   1   0   9 18868.9 458.347   3
   1   0   9 18130.6 529.824   6
   1   0   9 16589.1 537.114   4
  -1   0   9 18438.7 840.637   2
  -1   0   9 18914.7 501.125   1
  -1   0   9 17122.0 458.980   5
   1   0  10 1.60368 26.8953   4
  -1   0  10 9.29594 26.0675   5
  -1   0  10 69.7129 84.1846   2
  -1   0  10 12.4683 30.1371   1
   1   0  10 49.0877 29.3640   1
   1   0  10 17.2921 26.7174   3
   1   0  10 14.7138 33.6229   6
   1   0  11 921.845 118.796   6
   1   0  11 1059.34 137.037   4
  -1   0  11 1100.51 167.136   4
  -1   0  11 1105.82 116.247   1
  -1   0  11 796.980 97.7169   5
   1   0  11 932.130 101.340   3
   1   0  11 888.444 108.868   1
  -1   0  11 840.381 187.966   2
  -1   0  12 3.56307 36.7067   5
   1   0  12-22.0706 30.4742   1
  -1   0  12-8.71399 24.9078   1
  -1   0  12-26.5966 34.2939   4
   1   0  12 61.4653 49.8051   6
  -1   0  12 53.1969 76.1762   2
  -1   0  12 17.5256 28.5379   6
   1   0  12 1.01213 21.4475   4
   1   0  13 808.676 113.610   1
  -1   0  13 665.021 86.0422   6
  -1   0  13 820.286 110.095   1
   1   0  13 704.686 123.849   4
  -1   0  13 617.515 98.6961   5
  -1   0  13 731.544 200.905   2
   1   0  13 715.646 114.488   6
   1   0  14 82.5818 58.4867   6
  -1   0  14 64.9042 45.7637   6
   1   0  14-12.1565 48.2934   3
   1   0  14 28.2802 42.3039   1
  -1   0  14 59.0453 47.2873   1
  -1   0  14-22.3813 78.2040   2
   1   0  14-6.08836 47.8426   4
  -1   0  14-15.2285 28.0610   5
   1   0  15 6281.40 357.183   6
  -1   0  15 6208.35 300.618   6
  -1   0  15 5964.18 341.617   5
   1   0  15 6263.81 406.904   4
  -1   0  15 7314.73 360.483   1
   1   0  15 7879.42 379.037   1
  -1   0  15 5332.60 557.786   2
   1   0  16 86.6928 80.5434   1
   1   0  16-10.2615 50.5437   6
  -1   0  16 54.5193 52.3461   6
  -1   0  16 142.476 107.465   2
  -1   0  16-16.4102 41.4982   5
  -1   0  17 12411.1 530.038   5
   1   0  17 12039.8 537.628   6
  -1   0  17 10551.5 850.178   2
  -1   0  17 12787.0 472.619   6
  -1   0  18 48.4555 50.4281   6
   1   0  18-14.0623 62.7318   6
  -1   0  18 31.5856 62.6902   5
   1   0  18 20.3176 49.3434   1
  -1   0  19 10160.2 895.811   2
  -1   0  19 12555.6 491.412   6
   1   0  19 12090.8 553.883   6
  -1   0  19 10590.1 494.000   5
   1   0  20 52.0012 78.5611   6
  -1   0  20 151.586 73.9340   6
   1   0  21 6801.83 437.764   6
  -1   0  21 6503.78 763.083   2
  -1   0  21 6957.44 380.426   6
   1   0  22-8.09423 68.7368   6
  -1   0  22 15.6614 100.594   2
  -1   0  22 155.036 83.9135   6
   1   0  23 608.026 140.473   6
  -1   0  23 631.402 117.205   6
  -1   0  23 309.188 188.703   2
  -1   0  24-339.702 211.505   2
   1   0  24-55.6171 82.6181   6
   1   0  25 617.857 155.112   6
  -1   0  25-103.454 144.199   2
  -1   0  26 21.0952 125.865   2
   1   0  26-55.6687 153.970   2
   1   0  26-81.3211 74.5393   6
   1   0  27 765.643 178.260   6
   1   1 -17 1363.84 258.399   4
   1   1 -16 4004.30 427.619   4
   1   1 -15 2723.47 341.502   4
   1   1 -14 10149.7 624.885   4
   1   1 -13 4381.22 391.091   4
  -1   1 -12 17729.1 669.099   4
   1  -1 -12 17174.0 592.384   3
   1  -1 -12 17917.1 573.947   1
   1   1 -12 18556.0 803.237   4
   1   1 -11 5411.54 397.180   4
   1  -1 -11 5646.73 282.567   1
  -1   1 -11 5729.98 339.139   4
   1  -1 -11 5862.25 310.195   3
   1   1 -10 11768.9 567.116   4
   1  -1 -10 10753.2 415.232   3
   1  -1 -10 10430.3 374.980   1
  -1   1 -10 10486.5 441.566   4
  -1   1  -9 5343.48 287.606   4
   1   1  -9 5841.38 378.644   4
   1  -1  -9 6068.11 262.533   1
   1  -1  -9 5830.67 287.925   3
  -1  -1  -9 5742.91 232.600   3
  -1   1  -9 5894.92 294.684   6
   1   1  -8 8250.49 437.422   4
  -1   1  -8 8281.04 337.658   6
  -1  -1  -8 7788.63 261.128   3
  -1   1  -8 7343.34 318.958   4
   1  -1  -8 8304.35 293.959   1
   1  -1  -8 7838.35 321.017   3
  -1   1  -7 2128.62 153.050   4
   1  -1  -7 2184.46 158.818   3
  -1   1  -7 2199.43 165.121   6
   1  -1  -7 2484.61 146.677   1
  -1  -1  -7 2140.43 123.939   3
   1   1  -6 7751.46 339.650   5
   1  -1  -6 7835.66 499.239   2
  -1  -1  -6 7191.51 221.866   3
   1  -1  -6 7676.42 289.594   3
   1  -1  -5 4535.18 361.434   2
   1  -1  -5 4112.94 197.295   3
   1  -1  -5 4413.03 120.167   5
   1   1  -5 4252.20 240.391   5
  -1  -1  -5 4221.72 151.971   3
   1   1  -4 9188.80 353.877   5
  -1  -1  -4 9543.84 289.890   5
   1  -1  -4 10511.4 537.304   2
   1  -1  -4 9734.38 246.552   5
   1  -1  -4 9303.48 306.513   3
   1  -1  -3 19268.7 714.864   2
   1  -1  -3 17904.5 445.771   3
   1   1  -3 19539.7 455.637   2
   1  -1  -3 19021.2 408.593   5
   1   1  -3 17955.6 342.277   6
  -1  -1  -3 18561.0 437.770   5
   1  -1  -2 23793.6 758.010   2
   1   1  -2 21439.1 476.223   2
  -1  -1  -2 22592.5 486.022   5
  -1  -1  -2 21213.2 402.301   1
   1  -1  -1 7731.66 376.536   2
  -1  -1  -1 7749.10 250.345   5
  -1  -1  -1 7629.57 211.083   1
   1  -1  -1 8043.33 280.865   6
   1  -1   0 25852.0 559.883   6
  -1  -1   0 25178.3 509.262   1
   1   1   0 25404.4 531.785   1
  -1  -1   0 25721.2 539.364   5
  -1  -1   1 7212.05 247.294   5
  -1  -1   1 6900.24 234.228   1
   1   1   1 7193.59 215.555   1
   1  -1   1 6623.18 238.081   6
  -1  -1   2 23367.9 537.379   5
   1   1   2 23448.8 442.353   1
   1  -1   2 22670.2 518.955   6
  -1  -1   2 22710.6 523.855   1
   1  -1   3 15448.7 405.631   6
   1   1   3 16382.1 313.318   1
  -1  -1   3 15845.9 438.068   5
  -1  -1   3 16162.1 422.120   2
  -1  -1   3 15696.4 432.851   1
  -1  -1   4 11127.5 374.055   5
  -1  -1   4 11538.0 405.666   2
  -1  -1   4 10721.9 360.045   1
   1  -1   4 10388.1 323.322   6
   1   1   5 3010.06 157.533   5
  -1  -1   5 2957.31 203.325   5
  -1  -1   5 3283.66 241.466   2
   1  -1   5 3307.79 172.175   6
  -1  -1   5 3314.29 194.976   1
  -1  -1   6 6901.00 305.364   1
   1   1   6 6932.14 245.435   5
  -1  -1   6 6972.64 159.934   6
  -1  -1   6 6519.75 379.110   2
  -1  -1   6 6834.03 321.363   5
   1  -1   6 6590.93 263.150   6
  -1  -1   7 1869.35 78.5133   6
  -1  -1   7 1663.04 162.769   5
   1  -1   7 1830.91 136.805   6
  -1  -1   7 1758.87 207.074   2
  -1  -1   7 1868.14 157.951   1
   1   1   7 1703.70 119.977   5
  -1  -1   8 6829.41 351.201   5
  -1  -1   8 7000.47 323.418   1
   1  -1   8 6956.66 283.645   6
  -1  -1   8 6674.01 182.978   6
   1   1   8 6549.54 233.689   3
   1   1   8 6752.91 252.523   5
  -1  -1   8 7098.82 457.807   2
  -1  -1   9 5386.25 426.915   2
  -1  -1   9 5705.10 329.949   5
   1   1   9 5323.46 226.159   5
   1   1   9 5587.56 225.644   3
   1  -1   9 5371.49 259.477   6
  -1  -1   9 5260.13 171.081   6
  -1  -1   9 5746.27 300.435   1
  -1  -1  10 8745.10 432.364   5
  -1  -1  10 8991.74 392.563   1
   1   1  10 8414.64 297.219   3
   1  -1  10 8104.85 335.970   6
  -1  -1  10 7861.92 556.171   2
  -1  -1  10 8063.28 235.888   6
   1   1  10 8138.81 295.891   5
  -1  -1  11 6020.88 326.548   1
  -1   1  11 6447.82 421.122   4
  -1  -1  11 5966.57 502.316   2
  -1   1  11 4986.02 133.445   5
   1  -1  11 5482.60 280.177   6
  -1  -1  11 5455.50 198.173   6
   1   1  11 5487.57 304.652   6
   1   1  11 5608.76 243.104   5
  -1   1  11 5874.08 294.800   3
   1   1  11 5749.98 251.650   3
  -1  -1  11 5741.18 358.392   5
  -1  -1  12 14585.2 598.678   5
  -1   1  12 12244.8 253.909   5
  -1   1  12 13432.1 827.725   2
   1  -1  12 13479.8 466.611   6
   1   1  12 13218.8 508.266   6
   1   1  12 13580.6 411.598   5
  -1  -1  12 13131.4 351.442   6
  -1  -1  12 14306.3 537.046   1
  -1  -1  12 12546.5 779.230   2
   1   1  13 3253.99 245.241   6
  -1  -1  13 2801.95 378.155   2
  -1   1  13 2754.53 98.9428   5
  -1  -1  13 2665.38 152.848   6
   1   1  13 3133.56 284.964   4
  -1   1  13 2338.95 350.990   2
  -1  -1  13 3058.83 279.737   5
   1   1  13 2976.56 183.206   5
   1  -1  13 2922.44 211.970   6
   1  -1  13 2452.80 233.084   1
  -1  -1  14 9641.95 516.107   5
  -1  -1  14 8616.47 689.700   2
   1   1  14 9585.39 445.533   6
   1   1  14 9358.78 349.960   5
   1   1  14 9576.75 522.035   4
   1  -1  14 8639.36 447.082   1
  -1  -1  14 9232.85 311.765   6
   1  -1  14 9167.27 399.242   6
  -1   1  14 8563.19 698.584   2
  -1   1  14 8269.95 205.090   5
   1   1  15 1753.31 167.584   3
   1  -1  15 1771.40 177.343   6
  -1  -1  15 1924.48 231.611   5
  -1   1  15 1418.69 74.3278   5
  -1  -1  15 1694.40 135.180   6
   1   1  15 1675.09 190.476   6
   1  -1  15 1710.79 205.090   1
   1   1  15 1665.75 144.795   5
  -1  -1  15 1766.34 328.999   2
  -1   1  15 1402.21 295.921   2
   1  -1  16 3467.86 261.758   6
  -1  -1  16 3612.77 203.422   6
  -1   1  16 3735.40 488.056   2
  -1  -1  16 3529.06 330.335   5
  -1  -1  16 3427.99 474.098   2
  -1   1  16 2812.20 112.863   5
   1   1  16 3377.52 216.209   5
   1   1  16 3629.71 284.142   6
  -1  -1  17 939.798 259.034   2
   1   1  17 930.339 116.115   5
  -1   1  17 728.069 227.778   2
  -1  -1  17 1004.19 189.121   5
   1  -1  17 965.622 141.286   6
   1   1  17 918.472 155.363   6
  -1  -1  17 975.840 114.410   6
  -1   1  17 828.125 89.3024   5
  -1   1  17 747.801 55.1984   5
   1  -1  18 2547.63 237.205   6
  -1   1  18 2570.36 433.559   2
  -1   1  18 2587.47 223.557   6
  -1  -1  18 2816.61 306.555   5
   1   1  18 2406.28 248.494   6
  -1  -1  18 2639.29 442.149   2
  -1   1  18 1727.02 125.396   5
  -1  -1  18 2745.96 191.311   6
  -1   1  19 239.649 80.0555   6
   1  -1  19 279.775 97.0526   6
  -1  -1  19 273.194 72.9900   6
   1   1  19 320.299 110.652   6
  -1  -1  19 169.192 92.1584   5
  -1   1  19 75.5750 104.560   2
  -1  -1  19 109.911 115.706   2
  -1   1  20 1411.36 174.866   6
  -1  -1  20 1400.03 211.232   5
   1   1  20 1278.91 190.226   6
   1  -1  20 1571.99 196.839   6
  -1  -1  20 1577.79 157.984   6
  -1  -1  20 1259.82 326.554   2
  -1   1  20 1424.01 349.043   2
  -1   1  21 1575.10 379.987   2
  -1  -1  21 1962.28 175.462   6
   1   1  21 2290.22 258.966   6
   1  -1  21 2157.05 237.954   6
  -1   1  21 2181.75 227.247   6
  -1  -1  21 1321.99 353.390   2
  -1   1  22 2239.19 235.987   6
  -1   1  22 2172.82 456.666   2
   1  -1  22 2027.38 232.028   6
  -1  -1  22 1811.84 431.336   2
   1   1  22 2181.45 258.805   6
   1  -1  23 1384.90 207.522   6
  -1   1  23 1034.86 337.674   2
  -1  -1  23 858.131 306.993   2
   1   1  23 1068.04 189.302   6
  -1   1  23 1244.01 183.833   6
   1  -1  24 3358.18 314.774   6
  -1   1  24 2541.35 526.130   2
   1   1  24 3149.82 521.308   2
   1   1  24 2938.60 310.963   6
  -1   1  24 3008.76 283.172   6
  -1  -1  24 2170.44 492.878   2
  -1   1  25 440.328 242.838   2
   1   1  25 777.976 276.862   2
   1   1  25 1022.61 204.909   6
   1  -1  25 836.435 165.098   6
   1   1  26 1970.57 267.110   6
  -1  -1  26 1894.76 492.310   2
  -1  -1  27-150.835 172.111   2
   1   1  27-101.662 115.851   6
   1   2 -21 1895.23 370.713   4
   1   2 -20 1219.44 276.486   4
   1   2 -19 451.393 175.780   4
   1   2 -18 698.154 184.932   4
   1   2 -17 944.796 225.137   4
  -1   2 -17 1149.83 217.718   4
   1   2 -16 3014.55 379.049   4
  -1   2 -16 2992.66 324.438   4
   1  -2 -16 3166.94 293.084   3
   1  -2 -15 4005.67 317.285   3
  -1   2 -15 3400.49 333.502   4
   1   2 -15 3598.48 401.759   4
  -1  -2 -14 7317.37 371.626   3
   1   2 -14 7265.02 551.910   4
  -1   2 -14 7941.59 489.631   4
   1  -2 -14 7969.53 437.334   3
  -1   2 -13 6576.52 434.274   4
   1   2 -13 7449.40 537.408   4
   1  -2 -13 7067.21 328.214   1
  -1  -2 -13 7527.93 357.487   3
   1  -2 -13 7590.81 409.560   3
   1  -2 -12 10199.7 390.577   1
  -1   2 -12 9429.38 504.233   4
   1  -2 -12 9982.23 460.568   3
  -1   2 -12 10231.5 463.530   6
   1   2 -12 10075.8 611.758   4
  -1  -2 -12 9971.06 402.182   3
  -1   2 -11 10303.6 501.677   4
  -1  -2 -11 11151.8 409.232   3
   1  -2 -11 10987.1 384.687   1
   1   2 -11 9666.03 313.201   6
   1  -2 -11 11615.3 479.305   3
  -1  -2 -10 9748.58 367.094   3
   1   2 -10 9243.10 292.132   6
   1  -2 -10 9847.13 426.490   3
   1  -2  -9 4883.04 180.055   5
   1   2  -9 5494.90 207.405   6
   1  -2  -9 5928.22 313.119   3
  -1  -2  -9 5573.15 259.611   3
   1   2  -8 3975.82 170.109   6
   1  -2  -8 3871.61 163.934   5
   1  -2  -8 4133.13 261.543   3
  -1  -2  -8 4205.60 229.188   5
  -1  -2  -8 4311.58 224.792   3
   1   2  -7 2929.79 141.741   6
  -1  -2  -7 3032.96 182.917   3
  -1   2  -7 2985.08 209.691   6
   1   2  -7 2852.95 273.425   5
   1  -2  -7 3362.01 384.299   2
   1  -2  -7 2929.76 149.864   5
   1  -2  -7 3231.07 226.627   3
  -1  -2  -7 2999.28 190.785   5
   1  -2  -6 2188.65 183.148   3
  -1   2  -6 2247.59 182.505   6
   1   2  -6 2238.72 123.193   6
   1  -2  -6 2137.70 294.036   2
   1   2  -6 2409.87 237.223   5
  -1  -2  -6 2420.01 170.446   5
  -1  -2  -6 2006.48 86.9477   1
   1  -2  -6 2352.11 146.036   5
   1  -2  -5 2431.30 165.897   5
   1   2  -5 2267.41 131.218   6
   1   2  -5 2194.10 225.559   5
   1  -2  -5 2443.50 291.461   2
  -1   2  -5 2736.69 191.907   6
  -1  -2  -5 2329.05 120.407   1
  -1  -2  -5 2415.30 169.557   5
   1  -2  -4 4468.45 240.192   5
   1  -2  -4 4842.31 400.414   2
   1   2  -4 4758.45 207.901   6
  -1  -2  -4 4195.82 195.894   1
  -1  -2  -4 4654.16 237.764   5
  -1  -2  -3 8588.20 316.097   1
   1  -2  -3 8391.66 349.398   5
   1  -2  -3 8377.89 514.769   2
  -1  -2  -3 8506.01 333.419   5
   1   2  -3 8316.46 308.105   6
  -1  -2  -2 10646.2 387.969   1
  -1  -2  -2 11044.5 392.853   5
   1  -2  -2 11112.5 412.578   5
   1  -2  -2 10535.6 552.854   2
  -1  -2  -1 10107.0 390.678   1
   1  -2  -1 10085.0 398.418   5
  -1  -2  -1 10368.4 396.129   5
   1  -2  -1 9834.93 511.798   2
   1  -2   0 12039.1 541.002   2
  -1  -2   0 12875.8 465.445   1
   1  -2   0 12692.3 461.809   5
   1  -2   0 13273.3 470.523   6
  -1  -2   0 13414.2 469.800   5
   1  -2   1 9573.57 386.079   6
  -1  -2   1 9165.32 405.218   1
   1  -2   1 9649.27 398.369   5
  -1  -2   1 9559.52 404.117   5
  -1  -2   2 12091.4 484.051   1
   1  -2   2 12960.2 439.024   6
  -1  -2   2 12527.0 485.595   5
  -1  -2   3 6601.26 357.780   1
  -1  -2   3 7389.07 377.924   5
   1  -2   3 6675.40 300.377   6
  -1  -2   4 4309.95 298.611   5
  -1  -2   4 4236.96 291.808   1
   1  -2   4 4644.75 248.978   6
   1   2   4 4617.19 241.434   5
  -1  -2   5 1638.88 123.754   2
  -1  -2   5 1878.53 198.473   1
  -1  -2   5 1912.97 204.668   5
   1  -2   5 2215.59 170.266   6
  -1   2   5 2120.33 188.297   5
   1   2   5 2073.41 156.838   5
  -1  -2   6 2005.25 219.636   5
   1  -2   6 2351.97 174.284   6
  -1  -2   6 2324.86 222.673   1
  -1   2   6 2457.85 197.293   5
   1   2   6 2658.35 176.978   5
  -1  -2   6 1881.37 164.548   2
  -1   2   7 3011.37 211.252   5
   1  -2   7 3178.19 207.291   6
  -1  -2   7 3085.10 277.308   5
  -1  -2   7 2677.85 229.127   2
   1   2   7 3180.53 195.396   5
  -1  -2   7 2870.54 252.118   1
  -1   2   8 3327.11 211.611   5
   1  -2   8 3341.67 213.054   6
   1   2   8 3427.37 202.707   5
  -1  -2   8 3112.32 158.131   6
  -1  -2   8 3315.93 273.715   1
  -1  -2   8 3708.22 306.095   5
  -1  -2   8 2874.86 265.730   2
  -1   2   9 4779.98 246.409   5
  -1  -2   9 5133.26 203.205   6
   1  -2   9 4558.05 259.992   6
  -1  -2   9 4437.91 330.250   1
  -1  -2   9 5381.09 381.652   5
   1   2   9 5179.49 254.164   5
  -1  -2   9 4458.00 364.454   2
  -1   2  10 8080.86 311.904   5
   1   2  10 7867.32 319.339   5
  -1  -2  10 7334.29 252.997   6
   1  -2  10 7333.50 338.427   6
  -1  -2  10 8879.98 501.753   5
  -1  -2  11 8057.98 582.589   2
   1  -2  11 10211.9 408.790   6
  -1   2  11 11363.6 771.069   2
  -1   2  11 10028.9 343.334   5
  -1  -2  11 9430.87 304.060   6
   1   2  11 10971.8 386.999   5
  -1  -2  11 11835.6 597.397   5
   1  -2  12 8112.44 364.360   6
  -1  -2  12 8740.51 522.494   5
  -1  -2  12 6786.76 557.762   2
  -1  -2  12 7782.45 272.962   6
  -1   2  12 7886.47 655.879   2
   1   2  12 8406.62 342.067   5
  -1   2  12 8022.39 291.613   5
  -1  -2  13 4521.48 483.761   2
  -1   2  13 5178.12 218.132   5
  -1   2  13 5372.71 556.589   2
  -1  -2  13 4785.38 213.699   6
  -1  -2  13 6095.05 445.151   5
   1   2  13 5183.11 270.156   5
   1  -2  13 4756.13 283.000   6
  -1   2  14 6599.72 243.094   5
   1  -2  14 6567.69 347.469   6
  -1  -2  14 6211.93 589.787   2
   1   2  14 7116.48 326.187   5
  -1  -2  14 6388.78 257.685   6
  -1   2  14 6630.05 634.608   2
  -1  -2  14 8293.53 535.170   5
  -1   2  15 2605.94 419.504   2
  -1   2  15 2229.31 127.627   5
  -1  -2  15 2985.29 328.530   5
   1  -2  15 2212.36 205.114   6
  -1  -2  15 2216.72 151.547   6
   1   2  15 2502.87 194.203   5
  -1  -2  15 2173.92 363.405   2
   1   2  16 2592.25 203.547   5
   1  -2  16 2500.72 224.977   6
  -1   2  16 2826.76 444.742   2
  -1   2  16 2108.58 112.959   5
  -1  -2  16 2324.00 386.773   2
  -1  -2  16 2749.73 328.033   5
  -1  -2  16 2389.25 161.034   6
  -1  -2  17 548.367 204.803   2
  -1  -2  17 702.110 96.5174   6
   1  -2  17 746.977 131.099   6
   1   2  17 638.653 138.640   6
  -1   2  17 610.871 211.893   2
  -1  -2  17 946.863 203.778   5
  -1   2  18 630.674 225.968   2
  -1  -2  18 511.394 81.3344   6
  -1  -2  18 572.339 216.685   2
   1   2  18 537.438 126.034   6
  -1  -2  18 931.514 190.847   5
   1  -2  18 659.806 123.881   6
  -1  -2  19 321.521 154.075   2
  -1  -2  19 406.825 79.2048   6
  -1  -2  19 744.258 192.591   5
   1   2  19 476.783 128.712   6
  -1   2  19 256.724 152.726   2
   1  -2  19 575.399 110.849   6
  -1  -2  20 127.555 132.535   2
   1   2  20 618.604 139.939   6
  -1   2  20 433.147 201.121   2
   1   2  20 657.027 238.043   2
   1  -2  20 625.074 125.576   6
  -1  -2  20 794.243 193.919   5
  -1   2  21 2372.01 463.859   2
  -1  -2  21 2412.90 349.776   5
   1  -2  21 1805.65 217.810   6
   1   2  21 1690.42 234.308   6
   1   2  21 1924.29 398.357   2
  -1  -2  21 1482.08 396.881   2
   1  -2  21 1893.48 274.570   5
   1   2  22 1507.65 369.518   2
   1  -2  22 1055.67 172.989   6
   1  -2  22 948.915 204.026   5
  -1   2  22 1219.26 338.645   2
  -1   2  22 720.279 152.467   6
  -1  -2  22 828.302 297.929   2
   1   2  22 826.927 176.708   6
   1   2  23 2097.47 448.675   2
   1  -2  23 1964.07 237.975   6
  -1   2  23 1565.30 212.262   6
   1  -2  23 2070.54 296.976   5
   1   2  23 2026.57 271.795   6
  -1   2  23 2232.28 472.274   2
  -1  -2  23 1359.35 385.182   2
  -1   2  24 1707.02 216.566   6
   1  -2  24 1152.16 232.464   5
   1   2  24 1727.01 416.714   2
  -1   2  24 863.852 343.006   2
   1  -2  24 1710.79 225.180   6
   1   2  24 1547.76 241.720   6
  -1  -2  24 1152.81 367.485   2
  -1  -2  25 356.092 236.497   2
  -1   2  25 911.137 170.944   6
   1   2  25 894.390 182.001   6
  -1  -2  26 670.224 312.600   2
   1   2  26 1233.14 215.184   6
   1   3 -24 140.149 163.673   4
   1   3 -23 751.519 258.288   4
   1   3 -22 292.354 173.167   4
  -1   3 -21 3952.27 480.876   4
   1   3 -21 3562.86 503.080   4
  -1   3 -20 836.527 225.474   4
   1   3 -20 799.603 251.714   4
  -1   3 -19 7384.23 611.952   4
   1   3 -19 7729.63 703.978   4
   1  -3 -19 8052.57 549.753   3
   1   3 -18 1149.16 269.438   4
   1  -3 -18 1054.78 209.681   3
  -1   3 -18 1200.27 237.387   4
   1   3 -17 7903.12 673.236   4
  -1   3 -17 7689.49 581.715   4
  -1  -3 -17 7683.23 460.429   3
   1  -3 -17 8300.25 530.403   3
  -1   3 -16 234.461 109.375   4
   1  -3 -16 553.693 145.691   3
  -1  -3 -16 596.818 140.129   3
   1   3 -16 588.318 191.777   4
  -1   3 -15 3826.34 378.897   4
  -1  -3 -15 3603.25 290.555   3
   1   3 -15 3315.80 415.629   4
   1  -3 -15 3680.74 330.515   3
  -1  -3 -14 487.404 102.923   3
   1  -3 -14 541.156 138.762   3
   1   3 -14 463.420 80.1261   6
  -1   3 -14 273.569 108.090   4
  -1  -3 -13 441.532 106.583   3
   1  -3 -13 336.440 107.764   3
   1   3 -13 381.562 73.4346   6
  -1  -3 -12 248.664 84.0446   3
   1  -3 -12 147.589 42.5204   5
   1   3 -12 84.5518 42.1478   6
   1  -3 -12 179.969 81.2239   3
  -1  -3 -11 419.079 100.366   3
   1  -3 -11 458.560 121.947   3
   1  -3 -11 531.780 78.6300   5
  -1  -3 -11 418.780 95.3973   5
   1   3 -11 575.920 88.7827   6
   1  -3 -10 333.213 64.3649   5
  -1  -3 -10 342.105 88.1507   3
  -1  -3 -10 308.732 82.5993   5
   1   3 -10 247.854 56.3302   6
   1  -3 -10 284.984 89.0885   3
  -1  -3  -9 8192.85 381.896   3
   1  -3  -9 8075.70 432.075   3
   1   3  -9 8108.54 308.445   6
  -1  -3  -9 8288.79 379.000   5
  -1   3  -9 8678.51 419.963   6
   1  -3  -9 7931.13 310.548   5
  -1  -3  -8 1310.88 110.422   1
   1  -3  -8 1597.90 192.174   3
   1   3  -8 1731.71 144.125   6
  -1   3  -8 1767.54 192.739   6
   1  -3  -8 1741.52 154.286   5
  -1  -3  -8 1748.18 176.001   5
   1  -3  -7 17976.0 973.880   2
   1  -3  -7 16091.1 529.720   5
  -1  -3  -7 14677.3 495.551   1
   1   3  -7 14883.6 477.054   6
  -1  -3  -7 15300.8 554.504   5
  -1   3  -7 17083.3 604.733   6
  -1  -3  -6 2624.59 215.892   5
   1   3  -6 2343.94 283.935   5
  -1   3  -6 2260.98 209.742   6
   1   3  -6 2366.97 181.255   6
   1  -3  -6 2506.49 209.752   5
   1  -3  -6 2939.55 368.603   2
   1   3  -5 19705.6 589.441   6
   1  -3  -5 18866.8 636.333   5
   1  -3  -5 18278.4 907.541   2
  -1  -3  -5 18754.2 621.753   5
   1  -3  -4 1443.60 169.611   5
   1   3  -4 1466.30 158.487   6
  -1  -3  -4 1529.92 166.774   5
   1  -3  -4 1277.60 240.625   2
   1   3  -3 8184.36 390.664   6
  -1  -3  -3 8001.70 404.684   5
   1  -3  -3 8349.71 423.607   5
   1  -3  -3 8030.15 550.258   2
   1   3  -2 733.874 118.034   6
  -1  -3  -2 934.543 147.024   5
   1  -3  -2 998.775 188.474   2
   1  -3  -2 976.763 142.784   5
   1  -3  -1 1682.15 192.262   5
   1  -3  -1 1334.77 209.705   2
  -1  -3  -1 1390.79 174.770   5
   1  -3   0 25.9853 44.5404   2
   1   3   0-20.3072 31.7091   2
  -1  -3   0 49.7095 50.0727   5
   1  -3   0 45.7163 65.3151   5
   1  -3   1 904.026 162.085   2
  -1  -3   1 1024.91 185.914   1
  -1  -3   1 916.771 150.452   5
   1  -3   1 944.820 147.862   5
   1   3   1 806.702 109.414   2
  -1  -3   2 762.834 158.413   1
  -1  -3   2 854.400 147.869   5
   1   3   2 842.715 137.505   5
   1   3   2 743.027 115.844   2
   1  -3   2 798.740 131.123   6
   1  -3   2 666.026 130.111   5
  -1  -3   3 8380.82 485.914   5
   1   3   3 8732.37 424.044   2
   1   3   3 8898.01 440.001   5
   1  -3   3 9140.54 434.032   6
  -1  -3   3 9016.96 562.011   1
   1  -3   3 8683.13 462.419   5
  -1  -3   4 1491.29 225.370   1
   1  -3   4 1407.38 184.197   5
   1   3   4 1461.28 172.476   5
  -1  -3   4 1290.99 195.906   5
   1   3   4 1075.58 153.939   2
   1  -3   4 1351.86 160.158   6
   1   3   5 19634.5 725.148   2
  -1  -3   5 19415.3 855.138   1
   1   3   5 19243.0 646.335   5
  -1  -3   5 18850.0 785.478   5
   1  -3   5 17974.3 702.952   5
  -1   3   5 19829.2 775.610   5
   1  -3   5 19615.7 644.106   6
   1  -3   6 2111.14 197.924   6
   1  -3   6 1812.65 212.703   5
   1   3   6 1947.58 191.997   5
  -1  -3   6 1690.00 241.575   5
  -1   3   6 1819.09 225.947   5
   1  -3   7 12544.3 579.797   5
  -1   3   7 15479.1 631.714   5
   1  -3   7 14064.9 530.923   6
  -1   3   7 17061.1 889.299   2
  -1  -3   7 15486.3 712.880   5
   1   3   7 14245.3 526.907   5
  -1  -3   8 1602.99 238.763   5
   1   3   8 1895.99 184.500   5
  -1   3   8 1768.26 298.730   2
  -1  -3   8 1340.34 142.715   2
   1  -3   8 1552.35 170.065   6
   1   3   8 1752.04 244.378   2
  -1   3   8 2186.54 225.522   5
   1  -3   8 1591.84 206.512   5
  -1   3   9 8091.25 430.679   5
   1  -3   9 6604.94 423.263   5
  -1   3   9 8356.28 657.510   2
  -1  -3   9 6077.01 363.336   2
  -1  -3   9 7203.24 502.831   5
   1   3   9 8553.35 550.281   2
   1   3   9 7397.41 368.595   5
   1  -3   9 7518.41 376.537   6
  -1  -3  10 340.974 124.881   5
   1   3  10 365.563 83.6388   5
   1  -3  10 304.720 89.4437   6
   1  -3  10 214.441 83.2698   5
  -1  -3  10 240.303 81.8716   2
   1   3  10 345.902 121.248   2
  -1   3  10 235.526 80.9705   5
  -1   3  10 470.508 171.594   2
  -1   3  11 353.513 91.6698   5
   1   3  11 420.711 90.3172   5
   1   3  11 600.654 161.866   2
  -1  -3  11 704.430 176.348   5
   1  -3  11 423.915 111.956   5
   1  -3  11 385.561 90.3697   6
  -1  -3  11 283.587 94.9118   2
  -1   3  11 536.366 183.583   2
  -1   3  12 116.513 55.4326   5
  -1   3  12 226.233 127.823   2
  -1  -3  12 348.628 133.779   5
   1  -3  12 116.169 74.8317   5
  -1  -3  12 111.660 37.9593   6
   1  -3  12 164.279 71.7397   6
  -1  -3  12 245.410 119.846   2
   1   3  12 308.624 134.251   2
  -1   3  13 416.629 171.251   2
  -1  -3  13 256.763 66.2940   6
  -1   3  13 289.618 74.7946   5
   1  -3  13 339.939 100.094   5
   1  -3  13 320.117 92.4207   6
   1   3  13 583.750 180.258   2
  -1  -3  13 397.795 133.235   2
  -1  -3  13 488.677 160.964   5
  -1   3  14 211.495 143.262   2
   1  -3  14 288.524 86.8476   6
   1   3  14 540.003 189.461   2
  -1  -3  14 227.519 60.0002   6
  -1  -3  14 427.319 170.641   2
   1  -3  14 296.328 104.739   5
  -1  -3  14 547.789 164.728   5
  -1   3  14 371.867 83.5524   5
  -1  -3  15 3677.92 403.938   5
  -1  -3  15 2943.46 392.840   2
   1  -3  15 2230.91 276.327   5
   1  -3  15 2607.28 236.818   6
   1   3  15 2879.80 410.616   2
  -1  -3  15 2502.58 187.594   6
  -1   3  15 3701.28 499.592   2
   1  -3  16 336.413 129.984   5
  -1  -3  16 202.443 65.0566   6
  -1  -3  16 481.849 172.003   5
   1   3  16 600.278 213.682   2
  -1  -3  16 229.535 144.311   2
   1  -3  16 328.516 105.026   6
  -1   3  16 425.531 188.863   2
  -1  -3  17 7517.32 595.986   5
   1  -3  17 5405.84 436.818   5
  -1   3  17 6606.62 714.644   2
   1  -3  17 5810.04 367.633   6
   1   3  17 6576.80 656.794   2
  -1  -3  17 6000.53 629.845   2
  -1  -3  17 4813.48 264.069   6
   1  -3  18 788.113 140.263   6
   1   3  18 1156.90 293.302   2
  -1  -3  18 871.812 256.891   2
  -1  -3  18 1115.69 253.200   5
   1  -3  18 593.243 158.061   5
  -1   3  18 1065.35 308.816   2
  -1  -3  19 7199.40 609.739   5
  -1   3  19 6582.98 740.554   2
   1  -3  19 4800.30 440.103   5
   1   3  19 6062.29 675.967   2
   1  -3  19 5110.67 357.095   6
  -1  -3  19 5756.20 664.323   2
   1  -3  20 562.901 124.695   6
   1   3  20 694.614 160.153   6
  -1  -3  20 658.249 193.477   5
   1  -3  20 593.781 165.819   5
   1   3  20 715.186 247.851   2
  -1  -3  20 326.561 178.470   2
  -1   3  20 923.166 288.387   2
  -1  -3  21 3760.75 457.790   5
  -1  -3  21 2270.70 455.720   2
   1   3  21 3159.79 536.297   2
   1   3  21 2393.82 292.375   6
   1  -3  21 1894.27 288.578   5
  -1   3  21 3059.49 537.857   2
   1  -3  21 2659.56 263.883   6
   1  -3  22 296.344 111.118   6
   1  -3  22 113.735 95.9481   5
  -1  -3  22 151.180 116.164   5
   1   3  22 224.732 107.603   6
  -1   3  22 299.754 194.057   2
   1   3  23 608.682 250.577   2
   1   3  23 240.293 132.056   6
   1  -3  23 274.368 129.170   5
   1   3  24-59.0279 68.9673   6
   1  -3  24 116.032 95.0598   5
  -1   3  24 253.666 105.991   6
  -1   3  25 218.041 104.193   6
   1   4 -24 1493.07 383.729   4
   1   4 -23-558.834 242.053   4
   1   4 -22 1850.80 416.443   4
   1  -4 -21 482.605 184.354   3
   1   4 -21 572.651 233.842   4
   1  -4 -20 1227.01 254.565   3
   1   4 -20 1199.52 328.054   4
  -1  -4 -20 1261.56 241.344   3
  -1   4 -20 1782.57 324.128   4
   1  -4 -19 98.2472 99.9898   3
  -1   4 -19-14.6266 95.8483   4
   1   4 -19-6.77144 99.8689   4
  -1  -4 -19 66.2000 101.683   3
   1  -4 -18 2244.00 318.275   3
   1   4 -18 1607.09 341.678   4
  -1   4 -18 1996.18 330.568   4
  -1  -4 -18 2142.54 268.289   3
   1  -4 -17 1003.54 203.950   3
  -1  -4 -17 992.469 186.615   3
  -1   4 -17 843.867 212.836   4
   1   4 -17 836.410 249.282   4
  -1  -4 -16 1799.76 242.294   3
   1  -4 -16 2074.12 272.622   3
  -1   4 -16 1415.74 272.343   4
   1  -4 -15 2178.60 295.789   3
  -1  -4 -15 1616.29 222.957   3
   1  -4 -14 3765.65 247.207   5
   1  -4 -14 3862.11 366.405   3
  -1  -4 -14 4031.17 336.130   3
   1  -4 -13 478.329 97.5767   5
  -1  -4 -13 478.107 128.405   3
  -1  -4 -13 580.580 137.108   5
   1  -4 -13 735.818 165.064   3
   1  -4 -12 5078.42 403.512   3
  -1  -4 -12 4833.91 366.193   3
   1  -4 -12 5309.25 304.273   5
  -1  -4 -12 4904.93 354.614   5
  -1  -4 -11 459.093 121.548   5
  -1  -4 -11 48.0440 25.3682   1
   1  -4 -11 455.111 123.557   3
  -1  -4 -11 340.592 98.5361   3
   1  -4 -11 711.319 115.654   5
   1  -4 -10 3949.25 346.972   3
  -1  -4 -10 3583.04 309.514   3
   1  -4 -10 4254.94 279.219   5
  -1  -4 -10 4325.95 323.452   5
   1  -4  -9 1191.90 193.903   3
  -1  -4  -9 834.893 119.329   1
  -1  -4  -9 1389.39 185.178   5
   1  -4  -9 1591.93 179.652   5
   1  -4  -8 1778.46 195.333   5
  -1  -4  -8 1462.86 194.132   1
  -1  -4  -8 1517.69 196.772   5
  -1  -4  -7 375.275 105.435   5
   1  -4  -7 493.355 111.597   5
   1  -4  -6 4130.54 318.469   5
  -1  -4  -6 3872.11 309.036   5
  -1  -4  -5 1495.98 195.165   5
   1  -4  -5 1383.73 187.931   5
   1  -4  -4 2405.61 253.181   5
   1  -4  -4 2720.24 356.470   2
  -1  -4  -4 2706.57 269.670   5
   1  -4  -3 3177.50 295.687   5
   1   4  -3 3114.30 277.316   6
   1  -4  -3 2802.80 339.126   2
  -1  -4  -3 3016.91 292.734   5
   1   4  -2 7908.41 446.852   6
   1  -4  -2 7267.40 461.593   5
   1  -4  -2 6999.57 534.969   2
  -1  -4  -2 7505.43 474.226   5
   1  -4  -1 1046.20 182.780   5
  -1  -4  -1 957.570 171.844   5
   1   4  -1 870.724 162.053   6
   1  -4  -1 793.056 181.898   2
   1  -4   0 10509.5 569.886   5
   1  -4   0 10434.8 617.729   2
  -1  -4   0 10165.7 564.039   5
  -1  -4   1 862.189 174.333   5
   1  -4   1 757.120 161.072   2
   1  -4   1 942.709 177.001   5
   1  -4   2 8318.62 513.830   5
  -1  -4   2 7316.89 496.028   5
   1  -4   2 6741.20 488.062   2
   1   4   2 7879.81 436.378   2
   1  -4   3 3085.49 315.208   5
  -1  -4   3 2974.93 315.708   5
   1   4   3 2996.94 278.937   2
   1  -4   3 2613.61 291.314   2
  -1  -4   4 2713.21 313.906   5
   1  -4   4 2894.05 300.677   5
   1   4   4 2597.25 273.484   2
   1  -4   4 2359.48 272.139   2
   1  -4   5 1013.66 189.353   5
  -1  -4   5 1047.94 197.198   5
  -1   4   6 3832.85 428.307   2
  -1   4   6 4260.02 404.596   5
   1  -4   6 4186.07 325.478   6
   1  -4   6 3629.65 350.921   5
  -1  -4   6 5105.37 436.634   5
  -1   4   7 230.072 124.283   2
   1  -4   7 318.671 117.576   5
  -1  -4   7 393.999 142.281   5
  -1   4   7 246.679 102.947   5
   1   4   7 260.934 111.794   2
   1  -4   7 331.914 99.7754   6
   1   4   8 1191.19 224.525   2
  -1   4   8 1636.24 239.654   5
  -1   4   8 1426.19 288.619   2
  -1  -4   8 1723.61 268.664   5
   1  -4   8 1465.15 222.750   5
   1  -4   8 1465.32 194.188   6
  -1   4   9 1654.49 230.544   5
   1  -4   9 1542.99 231.058   5
  -1   4   9 1634.42 323.131   2
   1  -4   9 1413.84 189.989   6
  -1  -4   9 1595.20 262.267   5
   1   4   9 1101.44 233.572   2
  -1  -4  10 4391.41 427.470   5
   1  -4  10 3480.13 345.070   5
  -1   4  10 3895.48 343.429   5
  -1   4  10 4094.48 493.342   2
   1  -4  10 4177.04 315.156   6
   1   4  10 3376.38 392.391   2
  -1   4  11 512.772 221.731   2
   1  -4  11 489.316 138.885   5
  -1  -4  11 619.832 176.088   5
  -1  -4  11 353.559 74.3984   2
   1  -4  11 476.722 124.838   6
   1   4  11 501.265 169.236   2
  -1   4  11 739.270 142.595   5
   1  -4  12 4607.30 340.497   6
  -1  -4  12 3166.92 256.173   2
  -1   4  12 3607.93 519.884   2
   1  -4  12 3651.07 364.282   5
  -1   4  12 4731.08 372.505   5
   1   4  12 3534.31 428.357   2
  -1  -4  12 4779.66 463.106   5
   1  -4  13 508.940 123.128   6
  -1   4  13 252.184 144.350   2
   1  -4  13 549.746 147.683   5
  -1  -4  13 368.168 99.4986   2
   1   4  13 369.569 167.621   2
  -1  -4  13 783.561 205.671   5
   1  -4  14 3286.24 288.906   6
   1  -4  14 2964.50 336.508   5
  -1   4  14 3336.89 505.605   2
  -1  -4  14 3639.97 409.006   5
   1   4  14 3088.73 425.997   2
  -1  -4  14 2253.99 263.771   2
  -1  -4  15 1606.65 285.627   5
  -1  -4  15 917.320 184.308   2
   1  -4  15 1261.88 178.317   6
  -1   4  15 1005.73 282.037   2
   1   4  15 1268.65 286.783   2
   1  -4  15 1365.34 238.708   5
  -1  -4  16 2119.15 329.270   5
   1  -4  16 1543.31 203.302   6
   1   4  16 1703.40 337.786   2
   1  -4  16 1125.78 222.530   5
  -1   4  16 1752.90 378.574   2
   1   4  17 640.614 232.644   2
  -1  -4  17 978.565 244.610   5
   1  -4  17 819.291 191.282   5
  -1   4  17 600.492 250.795   2
   1  -4  17 697.701 143.474   6
   1  -4  18 1756.81 226.297   6
   1  -4  18 1505.57 258.464   5
  -1   4  18 1497.35 364.254   2
   1   4  18 1877.12 390.373   2
  -1  -4  18 2443.34 372.759   5
   1  -4  19 143.239 91.1002   6
   1   4  19-75.1309 124.665   2
   1  -4  19 44.1175 96.9454   5
  -1  -4  19-48.3612 92.4992   5
  -1   4  19-275.625 178.472   2
   1  -4  20 1063.63 228.978   5
   1   4  20 1255.06 361.798   2
   1  -4  20 906.543 166.412   6
  -1  -4  20 1388.47 288.895   5
  -1   4  20 1104.81 328.888   2
   1  -4  21 552.174 172.724   5
  -1  -4  21 645.807 197.150   5
   1   4  21 115.668 131.434   2
  -1   4  21 179.838 159.840   2
   1  -4  22 1633.83 295.640   5
   1   4  22 975.772 213.955   6
   1   4  22 1119.89 326.072   2
  -1  -4  22 1571.13 315.475   5
   1  -4  23-242.334 129.382   5
   1  -4  24 1017.84 254.880   5
   1   5 -21 409.918 194.380   4
  -1  -5 -20 365.429 160.323   3
   1  -5 -20 162.285 134.564   3
   1   5 -20 599.826 234.164   4
   1  -5 -19-36.1654 117.973   3
  -1  -5 -19 241.618 143.793   3
   1   5 -19 45.2061 167.174   4
  -1   5 -18 26.1793 145.897   4
   1  -5 -18 211.696 125.493   3
  -1  -5 -18 45.6259 108.375   3
   1   5 -18-73.6151 138.795   4
  -1  -5 -17 439.783 157.501   3
   1  -5 -17 260.570 146.608   3
   1  -5 -16 589.984 170.665   3
  -1  -5 -16 228.692 110.098   3
  -1  -5 -15 1785.79 260.590   3
   1  -5 -15 1648.42 277.958   3
  -1  -5 -14 1209.29 210.509   5
  -1  -5 -14 1095.48 196.568   3
   1  -5 -14 867.571 214.052   3
  -1  -5 -13 2814.92 316.227   3
   1  -5 -13 3462.77 288.378   5
  -1  -5 -13 3184.94 321.306   5
   1  -5 -13 2690.87 343.504   3
  -1  -5 -12 732.642 162.295   5
   1  -5 -12 618.380 139.774   5
  -1  -5 -12 416.858 136.704   3
   1  -5 -12 560.888 158.083   3
   1  -5 -11 2659.01 340.955   3
  -1  -5 -11 2966.39 319.599   3
  -1  -5 -11 3374.92 331.576   5
   1  -5 -11 3357.08 294.886   5
   1  -5 -10 1175.89 224.366   3
  -1  -5 -10 1743.65 236.407   5
   1  -5 -10 1879.14 222.105   5
  -1  -5  -9 1853.64 249.383   5
   1  -5  -9 1907.49 230.153   5
   1  -5  -8 578.570 140.994   5
  -1  -5  -8 538.930 148.215   5
  -1  -5  -7 804.694 162.774   5
   1  -5  -7 729.705 162.019   5
   1  -5  -6 181.236 81.4970   5
  -1  -5  -6 187.576 98.3251   5
  -1  -5  -5 226.062 93.6112   5
   1  -5  -5 101.491 75.9545   5
  -1  -5  -4 268.382 110.602   5
   1  -5  -4 272.192 112.809   5
   1  -5  -3 3632.36 354.129   5
  -1  -5  -3 3130.87 338.971   5
  -1  -5  -2 1996.85 278.942   5
   1  -5  -2 1906.14 259.720   5
   1  -5  -1 5119.42 434.442   5
   1  -5  -1 4169.28 413.655   2
  -1  -5  -1 4153.00 390.590   5
  -1  -5   0 1172.97 211.299   5
   1  -5   0 1371.88 234.108   5
   1  -5   0 1110.84 213.064   2
   1  -5   1 4437.25 408.650   5
  -1  -5   1 4046.15 394.144   5
   1  -5   1 3442.98 365.537   2
   1  -5   2 2338.30 311.512   5
   1  -5   2 1715.15 250.279   2
  -1  -5   2 2267.89 301.755   5
  -1  -5   3 3005.65 355.593   5
   1  -5   3 3614.53 380.386   5
   1  -5   3 2369.86 292.528   2
  -1  -5   4 432.514 140.009   5
   1  -5   4 477.276 162.845   5
   1  -5   4 261.828 103.400   2
   1  -5   5 110.701 76.8043   2
  -1  -5   5 194.841 116.328   5
   1  -5   5 156.043 100.276   5
   1   5   6 303.274 123.382   2
  -1  -5   6 135.149 101.550   5
   1  -5   6 171.330 103.181   5
   1  -5   6 117.614 84.4536   2
   1   5   7 591.130 172.793   2
   1  -5   7 368.744 136.050   2
  -1  -5   7 722.360 186.742   5
   1  -5   7 745.963 177.577   5
  -1   5   8 354.877 160.999   2
  -1  -5   8 208.096 109.980   5
   1  -5   8 284.675 119.984   5
   1   5   8 284.576 128.518   2
   1   5   9 1551.70 284.051   2
  -1  -5   9 1782.28 298.518   5
  -1   5   9 1930.51 348.143   2
   1  -5   9 1706.09 275.416   5
   1   5  10 1800.63 315.168   2
  -1  -5  10 2128.41 312.242   5
   1  -5  10 1597.15 258.185   5
  -1   5  10 1304.92 314.568   2
  -1  -5  11 3751.19 425.893   5
   1  -5  11 3390.29 384.146   5
   1   5  11 3702.92 459.137   2
  -1   5  11 2779.76 472.958   2
  -1   5  12 346.995 186.549   2
   1  -5  12 694.310 166.805   6
   1  -5  12 567.890 176.852   5
  -1  -5  12 645.975 190.004   5
   1   5  12 273.222 153.246   2
   1  -5  13 2931.99 309.351   6
   1  -5  13 2304.80 320.041   5
   1   5  13 2484.73 405.399   2
  -1  -5  13 3511.12 429.370   5
  -1   5  13 3300.14 496.937   2
  -1   5  14 1150.10 318.586   2
  -1  -5  14 1906.71 318.260   5
   1  -5  14 1504.20 260.920   5
   1  -5  14 1138.76 196.348   6
   1   5  14 898.050 267.228   2
  -1   5  15 1303.96 363.703   2
   1  -5  15 1166.82 188.390   6
  -1  -5  15 1655.72 306.366   5
   1   5  15 1132.22 311.423   2
   1  -5  15 1320.32 250.549   5
   1  -5  16 281.994 110.634   6
  -1   5  16 373.376 183.840   2
  -1  -5  16 717.479 206.368   5
   1  -5  16 349.394 146.851   5
   1   5  16 95.1764 122.612   2
  -1   5  17 288.675 159.944   2
   1  -5  17 198.068 78.3937   6
  -1  -5  17 191.120 132.506   5
   1   5  17-118.018 138.422   2
   1  -5  17 337.476 154.421   5
  -1   5  18-306.250 194.754   2
   1  -5  18-99.8922 122.972   5
   1  -5  18-93.3285 106.649   6
   1   5  18 58.5856 123.067   2
  -1  -5  18 122.543 142.314   5
  -1  -5  19 437.265 153.268   5
  -1   5  19 210.742 178.978   2
   1  -5  19 274.817 139.459   5
   1   5  19-23.5399 171.628   2
  -1  -5  20 237.654 156.404   5
   1  -5  20 206.611 116.118   5
  -1  -5  21 493.559 236.538   5
  -1  -6 -18 386.573 177.470   3
  -1  -6 -17 685.993 198.602   3
  -1  -6 -16 395.391 178.210   3
   1  -6 -16 557.553 175.109   3
  -1  -6 -15 863.077 212.906   3
   1  -6 -15 678.156 210.287   3
  -1  -6 -14 75.6532 84.9225   5
   1  -6 -14 245.869 144.347   3
  -1  -6 -14 75.5478 127.264   3
  -1  -6 -13-44.6031 82.1817   5
   1  -6 -13 150.657 129.170   3
  -1  -6 -13 71.8667 87.9523   3
  -1  -6 -12 191.643 116.268   3
  -1  -6 -12 175.465 112.561   5
   1  -6 -11-48.6804 81.0585   5
  -1  -6 -11 148.595 112.234   5
  -1  -6 -11 202.202 95.7025   3
   1  -6 -11 78.0944 101.841   3
   1  -6 -10 324.499 112.148   5
   1  -6 -10 391.908 142.602   3
  -1  -6 -10 357.547 143.744   5
  -1  -6  -9 1084.05 225.415   5
   1  -6  -9 1124.12 206.026   5
  -1  -6  -8 938.908 201.197   5
   1  -6  -8 1019.23 197.731   5
  -1  -6  -7 1612.95 266.095   5
   1  -6  -7 2340.48 296.329   5
   1  -6  -6 1101.56 208.082   5
  -1  -6  -6 1427.10 241.375   5
  -1  -6  -5 2023.38 295.665   5
   1  -6  -5 2107.66 291.384   5
  -1  -6  -4 1307.20 253.111   5
   1  -6  -4 1431.83 243.681   5
  -1  -6  -3 809.689 191.596   5
   1  -6  -3 887.636 196.252   5
  -1  -6  -2 116.858 97.2460   5
   1  -6  -2 120.843 84.7293   5
  -1  -6  -1 196.510 102.346   5
   1  -6  -1 55.0148 91.6742   5
  -1  -6   0 158.516 125.792   5
   1  -6   0 123.868 84.5012   5
  -1  -6   1 413.012 153.318   5
   1  -6   1 69.7409 90.1300   5
  -1  -6   2 49.6547 74.9408   5
   1  -6   2 14.2207 86.2782   5
  -1  -6   3 1173.99 248.905   5
   1  -6   3 1453.18 274.432   5
  -1  -6   4 1133.25 246.177   5
   1  -6   4 1314.76 267.034   5
  -1  -6   5 2365.69 346.641   5
   1  -6   5 2121.29 335.677   5
  -1  -6   6 1469.63 269.789   5
   1  -6   6 1250.64 264.638   5
   1   6   7 1725.56 313.336   2
   1  -6   7 2400.58 347.779   5
  -1  -6   7 2533.39 359.633   5
  -1  -6   8 1468.46 281.459   5
   1   6   8 823.746 232.627   2
   1  -6   8 1334.88 263.266   5
   1  -6   9 650.310 199.307   5
   1   6   9 781.776 206.444   2
   1   6  10 160.246 118.105   2
  -1  -6  10 256.263 151.355   5
   1  -6  10 275.160 146.178   5
   1   6  11 139.446 108.314   2
  -1  -6  11 315.235 145.496   5
   1  -6  11 209.161 138.392   5
   1   6  12 211.874 162.316   2
  -1   6  12 132.059 132.372   2
  -1  -6  12 319.526 159.263   5
   1  -6  12 202.653 141.809   5
   1   6  13 110.432 118.957   2
  -1  -6  13 412.474 175.689   5
   1  -6  13 83.3736 137.275   5
  -1   6  13 67.4319 114.209   2
   1  -6  14 13.6530 86.2685   5
   1   6  14 203.477 147.970   2
  -1   6  14 249.777 170.353   2
  -1  -6  14 107.817 121.571   5
   1   6  15 548.501 216.074   2
  -1   6  15 422.534 209.057   2
   1  -6  15 579.272 203.492   5
  -1  -6  15 389.982 181.008   5
   1   6  16 196.863 164.443   2
  -1   6  16 833.835 291.364   2
  -1  -6  16 724.166 213.292   5
   1   6  17 479.728 223.362   2
  -1  -6  17 1197.43 282.223   5
  -1   6  17 1088.93 323.045   2
   1   6  18-73.2782 133.968   2
  -1  -7 -13-347.586 163.708   3
  -1  -7 -12 286.059 101.107   3
  -1  -7 -12 702.460 207.724   5
  -1  -7 -11 48.4583 85.7394   5
  -1  -7 -11 326.195 158.415   3
   1  -7 -10 253.821 147.741   3
  -1  -7 -10 206.593 132.138   5
  -1  -7  -9 53.3686 97.0314   5
   1  -7  -9-100.285 123.313   5
  -1  -7  -8 346.711 158.201   5
   1  -7  -8 703.226 180.955   5
  -1  -7  -7-12.2362 112.032   5
   1  -7  -7 381.951 151.537   5
  -1  -7  -6 508.479 184.301   5
   1  -7  -6 516.579 172.978   5
  -1  -7  -5 333.950 160.896   5
   1  -7  -5 447.279 169.775   5
  -1  -7  -4 537.152 187.458   5
   1  -7  -4 858.560 209.965   5
  -1  -7  -3 453.525 162.261   5
   1  -7  -3 201.128 131.005   5
  -1  -7  -2 928.056 230.631   5
   1  -7  -2 944.763 216.355   5
  -1  -7  -1 306.012 158.464   5
   1  -7  -1 179.515 97.2787   5
  -1  -7   0 1290.29 277.623   5
   1  -7   0 766.601 204.767   5
   1  -7   1 286.357 160.229   5
  -1  -7   1 242.704 169.930   5
   1  -7   2 953.174 233.537   5
  -1  -7   2 793.740 224.848   5
  -1  -7   3 118.702 106.358   5
   1  -7   3 429.863 169.042   5
   1  -7   4 432.449 181.959   5
  -1  -7   4 1010.36 264.143   5
  -1  -7   5 368.095 150.502   5
   1  -7   5 264.724 128.813   5
   1  -7   6 662.745 213.427   5
  -1  -7   6 1041.71 252.850   5
  -1  -7   7 407.984 178.276   5
   1  -7   7 272.059 166.583   5
  -1  -7   8 491.199 191.731   5
   1  -7   8 542.542 184.551   5
   1  -7   9-46.7163 117.619   5
  -1  -7   9 381.618 197.766   5
   2   0 -18 1210.67 222.750   1
   2   0 -17-39.4023 82.1937   1
   2   0 -16 5570.15 435.906   1
   2   0 -15 69.3580 86.6727   1
   2   0 -14 11253.8 573.194   1
   2   0 -13 13.8817 60.5312   1
   2   0 -12 31709.1 944.733   1
   2   0 -11-30.1067 56.3241   4
   2   0 -11 73.5660 64.1460   1
   2   0 -10 13435.4 657.548   4
   2   0  -9 8.22295 51.0194   4
   2   0  -9 49.3478 62.9598   2
   2   0  -8 6097.57 207.552   5
   2   0  -8 6686.60 416.026   4
   2   0  -8 7182.44 496.640   2
   2   0  -7 10.3081 20.2244   5
   2   0  -7 15.3950 39.6475   4
   2   0  -7 5.46793 50.9464   2
   2   0  -6 6101.05 360.572   4
   2   0  -6 5892.77 441.176   2
   2   0  -6 5538.78 196.185   5
   2   0  -5 12.3294 19.7160   5
   2   0  -5-5.46036 28.0198   4
   2   0  -5 46.6277 46.2287   2
   2   0  -4 6121.92 419.142   2
   2   0  -4 5194.55 196.096   6
   2   0  -4 5706.65 309.416   4
   2   0  -4 5426.26 184.352   5
   2   0  -3 21.9313 24.6584   6
   2   0  -3-17.9614 22.1398   3
   2   0  -3-24.7180 36.0170   2
   2   0  -3 6.84211 15.4218   5
   2   0  -3-21.5453 30.5592   4
   2   0  -2 34497.9 785.761   4
   2   0  -2 33790.0 630.707   3
   2   0  -2 33171.1 641.162   6
   2   0  -2 33030.8 631.528   5
   2   0  -1-16.6346 20.6982   3
   2   0  -1-8.65217 16.2219   5
   2   0  -1-15.4686 24.3671   4
   2   0  -1 12.3417 20.2674   6
  -2   0  -1 6.69593 21.0827   6
  -2   0   0 41490.0 710.076   3
  -2   0   0 40722.2 784.704   6
   2   0   0 43277.4 697.974   3
   2   0   0 40046.4 817.782   4
   2   0   0 42953.5 788.537   6
   2   0   1 6.30011 11.5183   3
   2   0   1 14.8669 21.3044   6
  -2   0   1 8.33613 18.3564   3
  -2   0   1-1.81705 22.2572   6
  -2   0   2 29623.1 582.729   6
   2   0   2 29983.8 650.517   6
   2   0   2 30241.7 481.102   3
  -2   0   2 31013.5 586.807   3
  -2   0   3 10.3868 21.2252   3
  -2   0   3-24.0597 18.4488   6
   2   0   3-3.43560 27.3935   6
  -2   0   4 5487.47 179.546   6
   2   0   4 5734.82 257.049   6
  -2   0   4 5881.25 221.948   3
  -2   0   5-3.12982 35.4834   2
  -2   0   5-9.17915 20.9596   3
  -2   0   5-0.70985 13.2224   6
   2   0   5-11.8564 31.1725   6
   2   0   6 4831.76 252.131   6
  -2   0   6 4702.92 169.131   6
  -2   0   6 4907.56 405.809   2
  -2   0   7 8.05538 12.7667   5
  -2   0   7 20.5605 63.0514   2
   2   0   7 12.7095 17.5218   4
  -2   0   7 17.3344 20.0577   6
   2   0   7-34.5217 37.3091   6
  -2   0   8 6429.23 239.928   6
  -2   0   8 6360.38 163.734   5
  -2   0   8 6423.61 532.101   2
   2   0   8 6651.45 247.697   4
   2   0   8 6988.90 328.672   6
  -2   0   9 11.2872 51.5529   2
   2   0   9 2.55774 17.3377   3
  -2   0   9-0.11810 10.7873   5
   2   0   9-11.1483 23.4274   4
   2   0   9-49.2165 43.9756   6
  -2   0  10 8193.83 663.696   2
   2   0  10 8375.31 329.417   4
   2   0  10 8375.94 392.321   6
  -2   0  10 8755.24 190.461   5
   2   0  10 7905.81 261.211   3
  -2   0  11 8.27501 15.0062   5
   2   0  11 6.88447 24.5098   4
   2   0  11 43.3838 50.4356   6
   2   0  11 7.42813 22.0533   3
  -2   0  11-26.6148 68.2764   2
   2   0  12 25586.6 713.966   4
   2   0  12 27969.6 803.012   6
  -2   0  12 25524.5 1303.19   2
  -2   0  12 25703.6 433.530   5
   2   0  12 27833.1 617.869   3
   2   0  13-13.8046 27.1163   3
  -2   0  13 22.9161 12.9568   5
  -2   0  13 40.3995 90.7508   2
   2   0  13 4.15601 51.8517   6
   2   0  13 26.1135 22.9973   4
   2   0  14 4810.95 310.065   4
  -2   0  14 7480.28 734.982   2
   2   0  14 7143.61 397.099   6
   2   0  14 6291.54 332.365   1
  -2   0  14 7025.27 269.518   6
  -2   0  14 5552.69 132.426   5
  -2   0  15 0.43717 32.9730   6
   2   0  15 6.52350 55.6978   6
  -2   0  15 81.0403 94.3931   2
   2   0  15-0.19013 54.8316   1
   2   0  16 5454.93 331.033   1
  -2   0  16 5357.11 665.709   2
   2   0  16 5373.13 292.070   3
  -2   0  16 5651.38 266.366   6
   2   0  16 5167.40 355.660   6
   2   0  17-20.7461 67.3752   6
  -2   0  17 172.048 150.932   2
  -2   0  17-3.38980 40.1780   6
   2   0  17-42.9717 65.7761   1
   2   0  18 815.113 156.862   6
  -2   0  18 871.211 114.686   6
  -2   0  18 846.030 296.142   2
   2   0  19-5.14493 71.2858   6
  -2   0  19 9.65176 39.9520   6
  -2   0  20 2601.57 198.244   6
  -2   0  20 2423.78 517.583   2
   2   0  20 2149.81 255.641   6
   2   0  21 33.0377 60.3169   6
  -2   0  21 465.459 272.286   2
  -2   0  22 3753.47 661.948   2
   2   0  22 3943.58 358.677   6
   2   0  23 78.5516 101.401   6
  -2   0  23 108.804 154.827   2
   2   0  24 5829.75 449.941   6
  -2   0  24 6120.22 897.920   2
   2   0  25 180.712 113.712   6
  -2   0  25-457.387 278.069   2
   2   0  26 2638.14 317.130   6
  -2   0  26 2657.50 606.680   2
   2   0  27 346.327 144.239   6
   2  -1 -20 5891.52 514.074   1
   2  -1 -19 6960.99 527.154   1
   2   1 -18 155.793 106.102   4
   2  -1 -18 83.6244 91.6812   1
   2  -1 -17 10615.9 586.174   1
   2   1 -17 11333.8 790.707   4
   2   1 -16 14318.1 856.032   4
   2  -1 -16 13307.8 635.155   1
   2   1 -15 9870.12 682.038   4
   2  -1 -15 9723.47 520.274   1
   2   1 -15 9091.75 592.536   1
   2   1 -14 4548.75 444.824   4
   2   1 -14 4098.47 376.552   1
   2  -1 -14 4758.25 335.059   1
   2   1 -13 6277.50 452.133   1
   2   1 -13 7895.47 567.480   4
   2  -1 -13 6904.72 389.404   1
   2  -1 -12 13988.4 539.912   1
   2   1 -12 12723.6 631.501   1
   2   1 -12 15265.8 764.033   4
   2  -1 -12 14146.0 555.177   3
   2  -1 -11 9002.82 417.379   3
   2   1 -11 9402.21 577.394   4
   2   1 -11 8650.04 491.082   1
   2   1 -10 9338.63 487.410   1
  -2   1 -10 10154.9 460.606   6
   2   1 -10 10513.3 585.406   4
   2  -1 -10 9556.54 416.326   3
   2   1  -9 26763.9 761.936   5
   2  -1  -9 31140.7 1249.91   2
   2   1  -9 29481.2 1001.35   4
  -2   1  -9 29585.4 816.667   6
   2  -1  -9 28602.6 765.679   3
   2   1  -8 38841.7 951.879   5
   2  -1  -8 41093.2 1428.48   2
   2   1  -8 43711.3 1203.25   4
   2  -1  -8 39938.5 925.542   3
   2   1  -7 45618.3 1156.66   2
   2  -1  -7 40812.1 1415.15   2
   2   1  -7 38098.1 935.088   5
   2   1  -7 44670.9 1184.37   4
   2  -1  -7 39237.8 897.848   3
   2   1  -6 3927.86 239.392   5
   2   1  -6 4363.12 312.576   2
   2  -1  -6 4975.42 446.926   2
   2  -1  -6 4326.69 232.720   3
   2   1  -5 20098.0 563.310   5
   2   1  -5 21516.9 720.552   2
  -2  -1  -5 18913.7 324.637   3
   2  -1  -5 19986.3 529.902   3
   2   1  -4 36688.5 581.537   6
   2  -1  -4 38486.0 1270.51   2
   2   1  -4 38456.4 1009.12   2
   2  -1  -4 37100.7 784.681   3
   2   1  -4 38300.7 818.390   5
   2   1  -3 36020.0 612.612   6
   2  -1  -3 36595.4 1181.62   2
   2   1  -3 37567.5 794.537   5
   2  -1  -3 35254.5 754.757   3
   2   1  -3 37354.4 961.800   2
   2  -1  -3 36453.6 821.381   6
  -2  -1  -3 35623.4 773.905   5
   2  -1  -2 10046.9 324.505   3
   2  -1  -2 10594.1 367.665   6
   2  -1  -2 11018.9 569.960   2
   2   1  -2 10256.7 264.355   6
  -2  -1  -2 10578.2 343.456   5
   2   1  -2 10783.0 359.147   5
   2   1  -1 5521.60 202.523   6
   2   1  -1 5865.18 241.737   1
   2  -1  -1 5983.02 259.217   6
  -2  -1  -1 5920.58 242.933   5
   2  -1   0 15791.8 460.494   6
   2   1   0 16148.6 419.671   1
   2   1   0 15965.6 403.508   6
  -2  -1   0 15766.0 430.566   5
   2   1   1 9483.90 308.559   6
  -2  -1   1 9545.51 316.327   1
  -2   1   1 9088.46 336.951   6
   2   1   1 9696.84 293.092   1
   2  -1   1 9168.78 337.123   6
  -2  -1   1 9514.53 312.300   5
  -2  -1   2 11619.1 366.522   1
  -2   1   2 11770.5 383.706   6
   2  -1   2 11101.7 382.251   6
  -2   1   2 11265.6 411.648   4
   2   1   2 12054.3 371.117   6
   2   1   2 11771.3 315.681   1
  -2  -1   2 11467.0 348.305   5
  -2  -1   3 34121.2 737.742   1
   2   1   3 32086.0 614.231   1
  -2   1   3 33136.7 834.129   4
   2   1   3 33248.3 745.853   6
  -2   1   3 33489.7 748.823   6
   2  -1   3 33040.2 748.464   6
  -2  -1   3 32601.3 694.579   5
   2   1   4 29964.7 559.587   1
   2  -1   4 29281.2 709.771   6
  -2  -1   4 30725.4 714.497   1
  -2  -1   4 31126.8 660.425   5
   2   1   4 31362.3 734.080   6
  -2   1   4 29774.0 716.649   6
  -2   1   4 32249.4 830.908   4
  -2   1   5 24900.7 649.380   6
   2   1   5 23893.7 461.359   1
  -2  -1   5 25066.3 641.549   1
   2  -1   5 24502.8 635.108   6
   2   1   5 26556.0 673.421   6
  -2  -1   5 24703.1 571.924   5
   2   1   6 4565.90 264.420   6
  -2  -1   6 4376.70 246.099   1
  -2   1   6 4316.18 252.024   6
  -2  -1   6 4495.42 326.370   2
   2  -1   6 4272.26 239.009   6
  -2  -1   6 4399.08 207.587   5
  -2  -1   7 33986.3 811.090   1
  -2  -1   7 32582.0 1039.91   2
  -2   1   7 31638.7 834.101   6
   2   1   7 33010.6 831.082   6
   2  -1   7 31411.7 777.098   6
   2   1   7 31523.0 729.119   5
  -2  -1   7 31926.0 710.493   5
  -2  -1   8 37146.7 886.848   1
   2  -1   8 35959.8 861.930   6
  -2   1   8 36333.0 936.254   6
   2   1   8 36520.3 916.829   6
  -2  -1   8 35826.5 1204.94   2
   2   1   8 35872.2 802.443   5
  -2  -1   8 35921.9 784.116   5
   2   1   9 29647.9 814.396   6
  -2   1   9 29007.0 1301.62   2
  -2  -1   9 30120.6 787.931   1
  -2  -1   9 29202.7 1122.99   2
   2  -1   9 27791.8 747.673   6
   2   1   9 27534.9 687.166   5
  -2  -1   9 28409.6 681.475   5
   2   1  10 7292.89 378.266   6
  -2  -1  10 6903.09 350.501   1
  -2  -1  10 6555.10 541.379   2
  -2   1  10 7193.37 647.187   2
   2  -1  10 6168.97 320.992   6
   2   1  10 6639.03 300.202   5
  -2  -1  10 6551.13 290.432   5
   2   1  11 5113.34 323.285   6
   2  -1  11 5013.07 294.227   6
  -2   1  11 5331.84 571.919   2
  -2  -1  11 4521.82 485.848   2
   2   1  11 4598.46 252.180   5
  -2  -1  11 4920.98 253.524   5
   2   1  11 3290.79 143.565   1
  -2  -1  12 11753.3 411.165   5
   2   1  12 12755.1 531.935   6
  -2  -1  12 11464.6 796.998   2
   2  -1  12 12109.8 477.743   6
  -2  -1  12 11077.0 215.167   6
  -2   1  12 12465.3 901.769   2
   2   1  13 7590.21 299.140   3
  -2  -1  13 7042.37 173.028   6
   2   1  13 7797.55 417.979   6
   2  -1  13 7079.23 371.439   6
  -2   1  13 8132.88 742.873   2
  -2  -1  13 6898.27 651.839   2
  -2  -1  13 6930.15 313.556   5
   2   1  14 4762.50 244.373   3
   2  -1  14 5045.64 321.377   6
  -2  -1  14 3402.97 479.480   2
  -2  -1  14 4301.95 247.464   5
  -2   1  14 4709.51 588.043   2
   2   1  14 4942.65 339.556   6
  -2  -1  14 4279.67 144.314   6
   2   1  14 4677.92 336.116   4
   2   1  15 4582.73 351.026   4
  -2  -1  15 4640.15 172.495   6
   2  -1  15 4747.02 328.162   6
   2   1  15 5550.83 371.809   6
  -2   1  15 5708.86 666.126   2
  -2  -1  15 3934.11 553.107   2
  -2  -1  15 4869.10 274.535   5
  -2  -1  16 9383.19 277.267   6
  -2  -1  16 10066.2 404.603   5
  -2  -1  16 8284.02 821.299   2
   2  -1  16 9969.99 492.860   6
   2   1  16 10182.3 524.161   6
  -2   1  16 11050.5 958.013   2
  -2  -1  17 8428.56 270.646   6
  -2  -1  17 8198.21 851.945   2
  -2  -1  17 9226.18 383.898   5
   2  -1  17 9096.86 476.402   6
   2   1  17 9386.71 507.673   6
  -2   1  18 32.9787 145.242   2
  -2  -1  18 178.792 66.2998   5
  -2  -1  18 103.335 36.1679   6
   2  -1  18 127.740 76.8325   6
   2   1  18 152.809 91.2258   6
  -2  -1  18 47.6707 101.469   2
  -2   1  19 4712.69 684.488   2
   2  -1  19 4184.76 337.998   6
  -2   1  19 4065.80 275.571   6
   2   1  19 4317.14 359.575   6
  -2  -1  19 3305.82 595.454   2
  -2  -1  19 3693.28 229.348   5
   2  -1  20 4070.99 348.460   6
   2   1  20 4241.28 361.030   6
  -2   1  20 4159.59 282.512   6
  -2   1  20 4676.13 683.688   2
  -2  -1  20 3140.24 575.778   2
   2  -1  21 6238.02 436.074   6
  -2   1  21 6364.62 363.711   6
  -2   1  21 6314.40 819.379   2
   2   1  21 5978.55 447.717   6
  -2  -1  21 6768.42 881.913   2
  -2   1  22 820.611 309.092   2
  -2   1  22 580.490 120.656   6
   2   1  22 642.866 153.063   6
  -2  -1  22 1126.99 378.780   2
   2  -1  22 657.490 158.849   6
   2  -1  23 1056.99 194.747   6
  -2   1  23 1141.74 373.364   2
   2   1  23 777.746 169.214   6
  -2  -1  23 1286.68 431.163   2
   2  -1  24 1157.68 206.326   6
   2   1  24 1113.40 207.628   6
  -2  -1  24 554.414 284.022   2
  -2  -1  25 1073.27 407.940   2
   2  -1  25 1281.77 214.276   6
   2   1  25 1187.59 216.994   6
  -2   1  25 1340.87 423.796   2
   2  -1  26 762.009 167.612   6
   2   1  26 583.513 148.237   6
   2   2 -21 1849.94 381.555   4
   2  -2 -20 2678.14 322.780   1
   2   2 -20 2747.09 434.348   4
   2  -2 -19 8400.05 540.560   1
   2   2 -19 7730.17 716.494   4
   2   2 -18 4223.33 516.065   4
   2  -2 -18 4309.63 367.030   1
   2  -2 -17 2519.84 265.104   1
   2   2 -17 2181.33 366.504   4
   2   2 -16 4764.58 510.613   4
   2  -2 -16 4381.63 332.516   1
   2  -2 -16 4736.38 374.255   3
   2   2 -15 6439.68 575.229   4
   2  -2 -15 6903.80 437.885   3
   2  -2 -15 6402.49 388.825   1
   2  -2 -14 3331.04 271.826   1
   2   2 -14 3631.58 415.335   4
   2  -2 -14 3618.11 304.351   3
  -2   2 -14 3382.41 285.385   4
   2  -2 -13 607.410 126.883   3
  -2   2 -13 646.721 115.102   4
   2   2 -13 684.260 188.153   4
   2  -2 -13 709.585 126.178   1
   2  -2 -12 1419.50 179.480   3
   2  -2 -12 1351.13 163.031   1
  -2  -2 -12 1270.72 132.639   3
  -2   2 -12 1538.60 170.613   4
   2   2 -12 1367.45 244.106   4
   2   2 -11 8609.42 590.624   4
  -2   2 -11 7387.88 359.147   4
  -2  -2 -11 7144.94 291.599   3
   2  -2 -11 7125.44 395.596   3
  -2  -2 -10 5820.42 246.352   3
  -2   2 -10 5957.17 305.296   4
   2  -2 -10 6010.18 353.901   3
   2  -2  -9 3606.49 265.093   3
   2  -2  -9 3973.57 121.570   5
  -2  -2  -9 3887.12 188.870   3
   2  -2  -8 7702.33 234.177   5
  -2   2  -8 7994.19 409.055   6
  -2  -2  -8 7265.34 263.248   3
   2  -2  -8 7793.61 381.545   3
  -2  -2  -7 16459.0 423.731   3
   2  -2  -7 14619.0 418.678   5
   2  -2  -7 18143.2 968.824   2
  -2   2  -7 17760.6 608.056   6
  -2  -2  -7 16524.5 542.682   5
   2  -2  -7 15618.0 565.589   3
   2  -2  -6 9776.10 426.912   3
   2  -2  -6 10314.0 354.448   5
   2   2  -6 9552.23 229.426   6
   2  -2  -6 10906.2 733.908   2
  -2  -2  -6 10815.1 416.234   5
   2  -2  -5 7588.37 312.209   5
   2  -2  -5 7223.33 358.609   3
   2   2  -5 7797.30 236.835   6
  -2  -2  -5 7926.67 350.905   5
   2  -2  -5 8039.35 600.172   2
   2   2  -4 7244.15 383.738   5
   2  -2  -4 8228.90 335.498   5
   2  -2  -4 8744.19 605.418   2
   2   2  -4 7541.85 290.834   2
  -2  -2  -4 8363.42 358.806   5
   2   2  -3 11598.1 486.404   5
   2  -2  -3 13493.0 744.162   2
  -2  -2  -3 12072.1 346.947   1
   2   2  -3 10395.0 368.550   2
   2   2  -3 12980.1 507.895   1
  -2  -2  -3 13527.6 459.820   5
   2   2  -2 6212.66 331.063   1
   2  -2  -2 6138.02 340.803   6
   2  -2  -2 5957.60 465.448   2
  -2  -2  -2 5832.18 246.129   1
  -2  -2  -2 6308.81 305.388   5
   2   2  -1 1481.48 156.638   1
  -2  -2  -1 1370.89 120.938   1
   2  -2  -1 1362.41 218.656   2
   2  -2  -1 1524.50 165.618   6
  -2  -2  -1 1664.52 155.245   5
  -2  -2   0 490.969 81.2978   1
   2   2   0 550.845 93.8910   1
  -2  -2   0 615.960 98.8467   5
   2  -2   0 603.518 105.901   6
   2  -2   1 1313.77 146.067   6
  -2  -2   1 1259.66 138.196   5
   2   2   1 1187.30 132.830   1
  -2  -2   1 1336.11 129.701   1
  -2  -2   2 7081.90 323.416   1
   2   2   2 8103.88 340.701   1
   2  -2   2 7379.57 344.960   6
  -2  -2   2 7746.37 353.897   5
  -2   2   3 10771.0 470.332   6
   2   2   3 11427.9 396.689   1
   2  -2   3 10777.9 423.937   6
  -2  -2   3 10500.8 416.864   1
  -2  -2   3 10640.6 434.018   5
  -2   2   4 10065.4 461.908   6
   2  -2   4 9283.13 394.014   6
  -2  -2   4 9321.75 404.918   1
  -2  -2   4 10173.6 430.514   5
  -2   2   5 7107.15 398.403   6
  -2  -2   5 6353.53 338.987   1
   2  -2   5 6658.68 331.896   6
  -2  -2   5 6852.00 356.113   5
  -2   2   6 9639.42 485.197   6
  -2  -2   6 10108.8 449.221   5
   2  -2   6 9053.96 393.931   6
  -2  -2   6 8795.08 415.506   1
   2   2   6 9750.61 383.989   5
  -2   2   7 16116.5 661.268   6
   2  -2   7 15979.6 549.068   6
  -2  -2   7 15066.8 568.034   1
   2   2   7 15576.5 507.309   5
  -2  -2   7 16419.3 603.053   5
  -2   2   8 7387.67 444.357   6
   2  -2   8 6806.69 348.604   6
  -2  -2   8 7008.39 399.960   2
   2   2   8 7090.34 329.453   5
  -2  -2   8 7213.97 396.275   5
  -2   2   9 4651.36 359.306   6
  -2  -2   9 4344.81 343.791   2
   2  -2   9 4046.97 271.900   6
   2   2   9 4213.12 253.149   5
  -2  -2   9 4360.05 314.255   5
   2  -2  10 3699.19 257.842   6
  -2  -2  10 3900.37 354.718   2
  -2   2  10 4275.46 518.751   2
  -2  -2  10 3579.88 292.071   5
  -2  -2  11 7759.99 542.788   2
   2  -2  11 7148.44 371.889   6
  -2   2  11 8292.00 734.361   2
  -2  -2  11 7083.09 425.571   5
  -2   2  12 1298.08 301.948   2
  -2  -2  12 1132.60 173.078   5
   2  -2  12 998.964 141.146   6
   2   2  12 828.746 147.078   6
  -2  -2  12 1088.44 215.609   2
  -2   2  13-74.3689 117.700   2
   2  -2  13 191.604 73.4751   6
  -2  -2  13 211.016 82.9425   5
   2   2  13 154.076 75.7676   6
  -2  -2  13 100.944 85.7613   2
  -2  -2  14 3212.94 302.585   5
   2  -2  14 3040.46 259.753   6
   2   2  14 3018.38 283.659   6
  -2   2  14 4191.04 556.647   2
  -2  -2  14 3437.31 441.842   2
  -2  -2  15 4419.82 533.437   2
  -2  -2  15 3984.39 347.729   5
   2  -2  15 4427.90 314.909   6
   2   2  15 4222.87 339.874   6
  -2   2  15 5694.03 663.252   2
   2  -2  16 3257.16 276.267   6
  -2   2  16 3662.17 545.945   2
  -2  -2  16 3861.52 517.298   2
   2   2  16 3021.22 299.245   6
  -2  -2  16 3347.29 314.384   5
  -2  -2  17 1105.20 180.368   5
   2  -2  17 1128.35 179.297   6
   2   2  17 1171.90 187.858   6
  -2  -2  17 1366.98 343.363   2
  -2   2  17 1449.27 366.315   2
   2   2  18 3715.79 343.779   6
   2  -2  18 3689.85 308.788   6
  -2   2  18 4104.80 611.084   2
  -2  -2  18 3584.21 546.328   2
  -2  -2  18 3351.67 321.849   5
   2   2  19 5295.68 421.288   6
  -2  -2  19 5544.26 707.353   2
   2  -2  19 5373.78 383.904   6
  -2   2  19 5830.83 729.581   2
  -2  -2  19 5002.86 393.252   5
  -2  -2  20 1220.96 194.211   5
   2  -2  20 1423.19 202.920   6
   2   2  20 1354.15 222.788   6
  -2  -2  20 1199.71 335.531   2
  -2   2  20 1916.73 428.708   2
   2   2  21 1657.46 243.460   6
   2  -2  21 1363.75 209.110   6
  -2  -2  21 1359.57 384.968   2
  -2   2  21 1566.06 410.570   2
   2  -2  22 879.180 173.060   6
   2   2  22 514.573 154.958   6
  -2  -2  22 888.493 323.457   2
  -2   2  22 1017.67 370.429   2
   2   2  23 2081.82 285.657   6
  -2  -2  23 981.832 355.253   2
   2  -2  23 2102.43 265.747   6
  -2   2  23 1671.41 209.506   6
  -2   2  23 2800.43 588.530   2
  -2   2  24 257.521 201.803   2
  -2  -2  24 370.984 236.774   2
   2  -2  24 229.917 117.665   6
   2   2  24 79.6276 71.8555   6
   2   2  25 279.402 130.417   6
   2  -2  25 242.909 145.319   6
   2   3 -24 6968.37 838.486   4
   2   3 -23 2575.59 496.756   4
   2   3 -22 627.434 222.098   4
   2   3 -21 2429.11 450.371   4
   2   3 -20 2600.37 453.729   4
   2   3 -19 4181.70 548.856   4
   2  -3 -19 4941.42 445.852   3
   2  -3 -18 173.196 116.592   3
  -2   3 -18 185.085 108.027   4
   2   3 -18 50.0286 132.711   4
   2  -3 -18 66.9141 63.0874   1
   2  -3 -17 1455.22 235.936   3
   2  -3 -17 1408.84 188.226   1
  -2   3 -17 1320.05 210.587   4
   2   3 -17 1155.67 285.083   4
   2  -3 -16 7112.52 498.043   3
   2  -3 -16 6748.15 415.064   1
  -2   3 -16 6633.36 471.633   4
   2   3 -16 6364.16 635.225   4
  -2  -3 -16 6004.47 362.880   3
   2  -3 -15 7889.50 433.255   1
  -2   3 -15 7919.54 496.150   4
   2   3 -15 7655.02 673.085   4
  -2  -3 -15 7095.61 378.239   3
   2  -3 -15 7921.08 509.060   3
   2  -3 -14 4127.19 306.077   1
   2   3 -14 4261.06 491.197   4
  -2   3 -14 3839.72 336.422   4
  -2  -3 -14 3796.88 265.201   3
   2  -3 -14 4263.92 365.000   3
  -2   3 -13 4368.68 351.716   4
  -2  -3 -13 4449.42 280.353   3
   2  -3 -13 4632.29 369.089   3
  -2  -3 -12 24366.4 698.919   3
   2  -3 -12 25760.2 888.279   3
   2   3 -11 5085.16 171.394   6
   2  -3 -11 5884.64 221.077   5
  -2  -3 -11 5621.41 299.706   3
   2  -3 -11 6001.90 397.161   3
   2  -3 -10 2075.93 238.115   3
   2   3 -10 1809.83 102.016   6
  -2  -3 -10 2178.82 219.170   5
   2  -3 -10 1810.08 135.272   5
  -2  -3 -10 1803.16 172.272   3
  -2  -3  -9 8289.49 376.817   3
   2  -3  -9 9252.40 347.303   5
   2   3  -9 8963.64 265.947   6
  -2  -3  -9 9178.37 448.936   5
   2  -3  -9 9360.82 492.500   3
   2  -3  -8 4933.90 358.818   3
   2   3  -8 5645.70 217.763   6
  -2  -3  -8 5712.24 347.839   5
   2  -3  -8 5777.17 288.617   5
   2  -3  -7 6564.20 331.937   5
   2  -3  -7 6836.40 412.040   3
   2   3  -7 6317.84 254.932   6
  -2  -3  -7 6859.61 377.805   5
   2  -3  -6 2045.24 193.211   5
   2   3  -6 2244.23 159.431   6
  -2  -3  -6 1947.73 125.357   1
  -2  -3  -6 2110.66 208.206   5
   2  -3  -5 10258.0 456.947   5
  -2  -3  -5 9214.74 329.315   1
   2   3  -5 10337.6 389.401   6
  -2  -3  -5 9744.07 456.897   5
   2   3  -4 13320.3 475.253   6
   2  -3  -4 14664.5 561.370   5
  -2  -3  -4 13609.1 440.340   1
   2  -3  -4 13285.7 828.370   2
  -2  -3  -4 14104.8 553.501   5
   2  -3  -3 24284.4 773.456   5
   2  -3  -3 26396.4 1132.11   2
  -2  -3  -3 25107.5 679.704   1
  -2  -3  -3 25001.0 776.939   5
   2  -3  -2 1580.08 274.395   2
   2  -3  -2 1977.02 208.771   5
  -2  -3  -2 2168.25 195.096   1
  -2  -3  -2 1975.65 208.150   5
   2  -3  -1 28595.2 860.668   5
   2  -3  -1 28293.5 1124.70   2
  -2  -3  -1 29272.5 814.045   1
  -2  -3  -1 27508.9 839.826   5
   2  -3   0 65430.1 1479.40   5
   2  -3   0 66904.7 1515.43   6
   2  -3   0 62332.8 1763.64   2
  -2  -3   0 67858.8 1452.03   1
  -2  -3   0 63944.8 1469.32   5
   2  -3   1 24784.6 814.130   6
   2  -3   1 25930.9 827.655   5
  -2  -3   1 25473.3 816.292   1
  -2  -3   1 25112.2 819.648   5
   2  -3   2 1790.14 212.804   5
   2  -3   2 1342.86 183.421   6
  -2  -3   2 1758.96 207.956   1
  -2  -3   2 1661.52 206.783   5
   2  -3   3 25844.4 812.525   6
  -2  -3   3 25620.0 868.546   5
  -2  -3   3 26871.7 879.468   1
   2  -3   4 13555.4 558.584   6
  -2  -3   4 13154.4 608.668   5
   2  -3   5 8554.93 430.834   6
  -2  -3   5 8911.41 500.836   5
   2  -3   6 2078.18 210.921   6
  -2  -3   6 2149.52 248.056   5
  -2   3   7 5872.86 578.451   2
   2  -3   7 6933.76 381.581   6
  -2  -3   7 6212.60 437.705   5
  -2   3   8 6469.71 609.654   2
   2  -3   8 5626.47 345.433   6
  -2  -3   8 5554.40 420.360   5
   2  -3   9 7008.88 392.422   6
  -2  -3   9 6893.53 477.897   5
   2  -3  10 1959.58 212.381   6
  -2   3  10 1775.73 336.292   2
  -2  -3  10 2117.60 268.684   5
  -2   3  11 6652.71 681.983   2
  -2  -3  11 4768.32 335.791   2
   2  -3  11 5436.98 349.649   6
  -2  -3  11 5551.22 444.949   5
   2  -3  12 20577.0 730.541   6
  -2  -3  12 20893.2 799.110   2
  -2  -3  12 21319.6 933.254   5
  -2   3  13 4207.59 556.048   2
  -2  -3  13 3470.16 334.172   2
   2  -3  13 3728.42 296.696   6
  -2  -3  13 3162.53 352.490   5
  -2  -3  14 3247.41 365.908   5
   2  -3  14 3016.61 278.747   6
  -2   3  14 3839.97 543.070   2
  -2  -3  14 2967.39 334.785   2
   2  -3  15 6756.71 424.321   6
  -2  -3  15 6489.77 533.660   2
  -2   3  15 8263.54 818.084   2
  -2  -3  15 6909.37 537.344   5
   2  -3  16 4393.38 341.348   6
  -2  -3  16 4199.78 450.970   2
   2   3  16 4036.46 360.531   6
  -2   3  16 5348.31 669.461   2
  -2  -3  16 4782.82 456.388   5
  -2   3  17 1033.18 308.004   2
  -2  -3  17 952.997 200.736   5
   2  -3  17 759.584 153.908   6
   2   3  17 514.756 155.261   6
  -2  -3  17 691.095 193.414   2
  -2   3  18 194.293 156.056   2
  -2  -3  18 197.855 76.8295   5
   2  -3  18 82.4933 71.4803   6
   2   3  18 239.589 89.2946   6
  -2  -3  18 213.611 123.996   2
   2   3  19 3141.00 341.134   6
   2  -3  19 3495.99 322.775   6
  -2   3  19 4571.93 658.214   2
  -2  -3  19 3095.59 453.728   2
  -2  -3  19 3771.02 413.514   5
  -2   3  20 1900.40 446.475   2
  -2  -3  20 1882.71 312.850   5
   2  -3  20 1779.03 284.243   5
   2  -3  20 1681.56 226.810   6
   2   3  20 1577.78 251.734   6
  -2   3  21 1705.68 431.272   2
   2   3  21 1877.83 445.753   2
   2  -3  21 1355.48 209.782   6
   2  -3  21 1598.38 268.327   5
   2   3  21 1243.14 225.273   6
  -2   3  22 60.3369 131.497   2
   2  -3  22 169.181 115.131   6
   2  -3  22 314.653 136.200   5
   2  -3  23 1304.07 243.343   5
   2  -3  23 1327.79 221.082   6
   2   3  23 2100.32 489.482   2
   2   3  23 1427.20 241.772   6
   2  -3  24 4442.63 463.341   5
   2  -3  24 4706.23 413.737   6
   2  -3  25 438.825 162.206   5
   2   4 -22 2144.19 456.601   4
   2  -4 -21 1486.34 320.286   3
   2   4 -21 1619.09 380.486   4
   2  -4 -20 40.8669 99.9101   3
   2   4 -20 59.9951 116.414   4
   2  -4 -19 2503.53 354.200   3
   2   4 -19 1649.60 358.965   4
  -2  -4 -18 467.904 134.035   3
   2  -4 -18 470.596 161.044   3
   2   4 -18 513.797 221.996   4
   2   4 -17 2594.65 442.164   4
  -2  -4 -17 2206.44 244.719   3
   2  -4 -17 2647.09 339.987   3
   2  -4 -16 2216.45 239.490   1
  -2   4 -16 2777.79 334.993   4
   2   4 -16 2616.60 438.378   4
  -2  -4 -16 2391.94 252.558   3
   2  -4 -16 2722.09 334.552   3
   2  -4 -15 3572.14 297.254   1
  -2   4 -15 4119.91 411.842   4
  -2  -4 -15 3614.27 306.571   3
   2  -4 -15 4609.51 422.581   3
  -2  -4 -14 82.5682 71.9582   3
   2  -4 -14 76.1561 102.919   3
  -2  -4 -13 1997.97 222.272   3
   2  -4 -13 2125.47 275.985   3
  -2  -4 -12 46.1577 76.1423   5
   2  -4 -12 47.7292 34.5795   5
   2  -4 -12 0.70181 84.9187   3
  -2  -4 -12 92.3008 71.0427   3
   2  -4 -11 1304.81 227.363   3
  -2  -4 -11 1243.78 176.448   3
  -2  -4 -11 1571.65 214.394   5
   2  -4 -11 1623.15 158.900   5
  -2  -4 -10 2626.14 251.961   3
  -2  -4 -10 3548.73 320.153   5
   2  -4 -10 3747.93 256.645   5
   2  -4 -10 3145.99 327.698   3
   2  -4  -9 4305.79 379.391   3
   2   4  -9 4472.31 252.084   6
  -2  -4  -9 4486.97 365.517   5
   2  -4  -9 5436.14 328.670   5
   2  -4  -8 1106.34 189.821   3
  -2  -4  -8 1045.59 179.087   5
   2   4  -8 1224.27 136.708   6
  -2  -4  -8 635.171 78.5567   1
   2  -4  -8 1206.60 165.032   5
  -2  -4  -7 1157.18 119.714   1
   2   4  -7 1884.60 178.618   6
  -2  -4  -7 1357.49 202.570   5
   2  -4  -7 1901.36 208.408   5
  -2  -4  -6 55.7325 59.6998   1
   2  -4  -6-10.3731 49.0007   5
  -2  -4  -6 72.5736 64.0070   5
   2   4  -6 47.5476 50.6484   6
   2  -4  -5 7104.88 435.233   5
  -2  -4  -5 7277.04 385.507   1
  -2  -4  -5 6713.65 434.480   5
   2  -4  -4 1620.99 211.374   5
  -2  -4  -4 1876.94 215.963   1
  -2  -4  -4 1486.42 205.157   5
   2  -4  -3 4252.48 347.449   5
  -2  -4  -3 3973.13 342.682   1
  -2  -4  -3 3990.33 338.980   5
   2  -4  -2 1735.23 224.137   5
  -2  -4  -2 1770.85 227.507   5
  -2  -4  -2 1759.97 230.525   1
   2  -4  -1 5715.16 411.257   5
  -2  -4  -1 4826.49 383.889   5
  -2  -4  -1 5674.69 430.808   1
  -2  -4   0 15.0374 51.0437   5
   2  -4   0 17.2983 55.5168   5
   2  -4   1 4863.08 386.349   5
   2   4   1 3818.12 237.782   2
   2  -4   1 4654.65 450.243   2
  -2  -4   1 5409.07 415.929   5
   2  -4   2 1849.19 237.439   5
   2  -4   2 1595.71 262.404   2
  -2  -4   2 1688.57 242.633   5
   2   4   2 1405.03 158.940   2
   2  -4   3 4003.77 355.022   5
   2  -4   3 3629.83 329.686   6
   2   4   3 3181.75 262.387   2
  -2  -4   3 4035.70 373.634   5
  -2  -4   4 1366.42 227.342   5
   2   4   4 1398.90 185.622   2
   2  -4   4 1838.62 230.311   6
   2  -4   4 1587.49 225.994   5
   2  -4   5 6477.79 458.358   5
   2  -4   5 6272.44 423.470   6
  -2  -4   5 6554.29 487.772   5
  -2  -4   6-95.0191 91.3692   5
   2  -4   6 135.679 97.5110   5
   2  -4   6 145.040 90.0724   6
   2  -4   7 1544.33 234.692   5
   2  -4   7 1697.75 226.533   6
  -2  -4   7 1536.29 248.491   5
   2   4   7 1698.52 242.575   2
  -2  -4   8 1239.75 220.446   5
   2  -4   8 813.669 175.277   5
   2  -4   8 985.724 170.855   6
   2   4   8 964.815 204.530   2
   2  -4   9 3775.13 369.456   5
   2   4   9 4289.98 415.080   2
   2  -4   9 4490.77 355.312   6
  -2   4   9 4424.61 535.048   2
  -2  -4   9 5005.26 452.852   5
   2  -4  10 2778.63 317.451   5
   2   4  10 2797.77 348.729   2
   2  -4  10 2984.31 293.723   6
  -2   4  10 2782.53 440.736   2
  -2  -4  10 3547.76 386.991   5
  -2   4  11 1704.23 365.727   2
  -2  -4  11 1201.85 238.259   5
   2  -4  11 1382.60 229.710   5
   2  -4  11 1441.17 202.745   6
   2   4  11 1473.08 267.700   2
  -2   4  12-55.9407 126.733   2
  -2  -4  12 73.1858 73.5545   5
   2  -4  12 71.4472 74.0213   5
   2  -4  12 63.9193 84.4022   6
   2   4  12 259.882 139.993   2
  -2   4  13 1909.80 390.695   2
  -2  -4  13 2169.84 328.628   5
   2  -4  13 1877.62 236.721   6
   2  -4  13 1518.89 243.057   5
   2   4  13 2043.88 339.932   2
  -2   4  14-216.678 148.351   2
  -2  -4  14 106.909 106.191   5
   2  -4  14-63.7747 81.6922   5
   2  -4  14 1.44784 64.6826   6
   2   4  14 88.6922 100.836   2
   2  -4  15 2861.62 348.637   5
   2   4  15 3408.20 471.568   2
   2  -4  15 2982.68 302.547   6
  -2   4  15 3431.72 556.509   2
  -2  -4  15 3588.46 429.997   5
   2  -4  16 2058.86 289.719   5
  -2  -4  16 2827.83 380.954   5
   2  -4  16 2378.81 268.456   6
  -2   4  16 2176.53 437.543   2
   2   4  16 2463.50 433.281   2
  -2   4  17 2069.13 446.601   2
   2  -4  17 1779.88 283.109   5
  -2  -4  17 2156.30 342.293   5
   2  -4  17 2048.26 266.270   6
   2   4  17 2370.84 428.915   2
  -2  -4  18 427.206 179.741   5
   2  -4  18 197.560 111.970   5
   2  -4  18 288.928 127.673   6
   2   4  18 444.818 177.346   2
  -2   4  19 2193.52 474.955   2
  -2  -4  19 2061.52 346.257   5
   2  -4  19 1613.42 276.444   5
   2   4  19 1198.99 236.802   6
   2   4  19 2162.73 449.274   2
   2  -4  19 1711.46 241.751   6
  -2   4  20 163.009 160.474   2
  -2  -4  20-392.119 167.047   5
   2  -4  20-174.257 129.067   5
   2  -4  20 91.6115 93.5458   6
   2   4  20 239.492 190.652   2
   2   4  20-146.672 108.341   6
  -2   4  21 1773.48 458.035   2
   2  -4  21 1155.26 248.649   5
   2  -4  21 1385.79 226.736   6
   2   4  21 927.168 220.646   6
   2   4  21 1549.01 398.516   2
   2  -4  22 1254.20 247.792   5
   2  -4  22 1491.05 238.365   6
   2   5 -19 467.055 223.205   4
   2   5 -18 7084.47 791.965   4
   2  -5 -18 8860.22 689.111   3
   2  -5 -17 264.857 144.905   3
  -2  -5 -16 320.562 133.663   3
   2  -5 -16 527.554 191.245   3
  -2  -5 -15 1318.41 212.362   3
   2  -5 -15 1442.36 256.509   3
  -2  -5 -14 5993.37 436.947   3
   2  -5 -14 6997.29 557.902   3
  -2  -5 -13-23.3377 84.5633   5
   2  -5 -13-52.8131 123.314   3
  -2  -5 -13-59.9456 94.0771   3
  -2  -5 -12 1479.08 231.827   5
   2  -5 -12 1240.63 236.886   3
  -2  -5 -12 1514.44 215.851   3
  -2  -5 -11 411.787 137.328   5
   2  -5 -11 825.408 142.741   5
   2  -5 -11 479.090 147.957   3
  -2  -5 -11 382.252 142.478   3
   2  -5 -10 9481.85 643.830   3
  -2  -5 -10 10545.4 616.687   5
   2  -5 -10 11254.5 539.265   5
   2  -5  -9 1636.03 260.330   3
  -2  -5  -9 1701.81 250.859   5
  -2  -5  -8 438.860 141.976   5
   2  -5  -8 688.331 146.114   5
   2  -5  -7 1215.47 193.429   5
  -2  -5  -7 1051.09 202.836   5
  -2  -5  -6 21684.7 910.396   5
   2  -5  -6 21979.1 869.067   5
   2  -5  -5 2606.11 291.909   5
  -2  -5  -5 2525.61 308.085   5
  -2  -5  -4 895.485 198.979   5
   2  -5  -4 1112.91 203.050   5
   2  -5  -3 3336.63 345.323   5
  -2  -5  -3 3198.93 342.528   5
   2  -5  -2 13727.1 714.469   5
  -2  -5  -2 13401.2 714.919   5
  -2  -5  -1 681.302 177.256   5
   2  -5  -1 633.336 168.193   5
   2  -5   0 4131.20 396.375   5
  -2  -5   0 4142.33 399.583   5
  -2  -5   1 607.460 171.684   5
   2  -5   1 533.784 156.954   5
   2  -5   2 13547.6 733.341   5
  -2  -5   2 12857.4 748.027   5
   2  -5   3 2111.27 290.618   5
  -2  -5   3 2155.66 306.908   5
   2   5   3 1581.38 206.394   2
  -2  -5   4 839.391 197.642   5
   2  -5   4 1283.38 225.924   5
   2   5   4 1258.20 191.343   2
   2  -5   5 2812.74 338.265   5
  -2  -5   5 3315.66 381.116   5
   2  -5   6 19625.5 916.850   5
   2   5   6 16967.4 815.740   2
   2  -5   7 677.175 173.171   5
   2   5   7 705.184 170.925   2
  -2  -5   8 692.529 176.831   5
   2  -5   8 535.340 144.632   6
   2  -5   8 594.072 176.155   5
   2   5   8 434.766 142.125   2
   2  -5   9 2427.18 299.241   6
   2  -5   9 1850.36 286.593   5
   2   5   9 1709.91 280.664   2
  -2  -5   9 2788.67 367.962   5
   2  -5  10 8585.28 623.226   5
   2   5  10 8627.32 662.658   2
   2  -5  10 9627.85 594.966   6
  -2  -5  11 372.705 145.025   5
   2  -5  11 447.016 158.688   5
   2  -5  11 402.817 134.109   6
   2   5  11 314.117 146.908   2
  -2   5  12 1708.17 381.810   2
   2  -5  12 1698.86 273.947   5
  -2  -5  12 1961.02 324.697   5
   2  -5  12 1636.65 238.489   6
   2   5  12 1594.82 311.090   2
  -2   5  13-210.344 157.778   2
  -2  -5  13 194.048 132.747   5
   2  -5  13 170.052 111.980   6
   2  -5  13 184.226 113.237   5
   2   5  13 35.6934 85.2893   2
   2  -5  14 5937.65 523.689   5
   2   5  14 5053.19 580.646   2
   2  -5  14 5818.11 459.030   6
  -2   5  14 5872.30 738.569   2
  -2   5  15 1625.95 416.941   2
  -2  -5  15 1892.75 331.037   5
   2  -5  15 1127.43 241.765   5
   2  -5  15 1102.03 220.065   6
   2   5  15 1399.07 322.978   2
  -2   5  16 423.375 221.268   2
  -2  -5  16 1151.30 255.358   5
   2  -5  16 711.398 195.625   5
   2   5  16 903.485 273.183   2
   2  -5  16 882.192 193.135   6
  -2   5  17 432.428 190.828   2
   2  -5  17 463.516 143.961   6
  -2  -5  17 257.867 101.829   5
   2   5  17 630.208 253.298   2
   2  -5  17 337.955 159.370   5
   2  -5  18 5849.01 546.553   5
   2  -5  18 5799.78 465.860   6
   2   5  18 6412.16 761.458   2
  -2   5  18 6215.99 787.246   2
  -2  -5  18 8068.00 701.480   5
   2  -5  19 667.073 152.855   6
  -2  -5  19 1162.43 283.058   5
   2  -5  19 1118.81 253.483   5
   2   5  19 770.315 290.058   2
  -2  -5  20-227.035 156.837   5
   2  -5  20 303.297 129.866   6
   2   5  20-120.290 152.241   2
  -2  -6 -14 1291.92 262.292   5
   2  -6 -14 1272.91 271.599   3
  -2  -6 -14 827.935 201.398   3
  -2  -6 -13 1693.43 287.365   5
   2  -6 -13 1444.47 288.794   3
  -2  -6 -13 1136.46 226.571   3
  -2  -6 -12 1236.06 250.787   5
   2  -6 -12 1090.79 247.520   3
  -2  -6 -12 950.012 202.471   3
  -2  -6 -11 309.008 128.194   5
   2  -6 -11 276.257 140.454   3
  -2  -6 -11 291.150 131.640   3
  -2  -6 -10 2093.30 324.842   5
   2  -6 -10 1734.57 284.727   3
  -2  -6  -9 1134.83 231.239   5
   2  -6  -9 1058.46 192.689   5
   2  -6  -9 567.233 169.165   3
  -2  -6  -8 271.622 131.792   5
   2  -6  -8 65.0165 82.5465   5
  -2  -6  -7-44.6466 95.9604   5
   2  -6  -7-123.808 114.180   5
  -2  -6  -6 36.3540 99.5925   5
   2  -6  -6 174.365 103.593   5
  -2  -6  -5 523.558 161.680   5
   2  -6  -5 598.633 158.679   5
  -2  -6  -4 372.785 159.203   5
   2  -6  -4 516.815 159.418   5
  -2  -6  -3 338.519 156.449   5
   2  -6  -3 504.644 168.032   5
  -2  -6  -2 932.448 221.715   5
   2  -6  -2 917.701 215.960   5
  -2  -6  -1 1626.79 281.648   5
   2  -6  -1 1242.92 244.061   5
   2  -6   0 3295.39 394.165   5
  -2  -6   0 2830.62 364.729   5
  -2  -6   1 1619.06 289.525   5
   2  -6   1 1636.09 295.372   5
  -2  -6   2 889.320 217.882   5
   2  -6   2 926.078 216.148   5
  -2  -6   3 73.3860 105.982   5
   2  -6   3 235.909 122.381   5
  -2  -6   4 446.710 170.799   5
   2  -6   4 379.065 164.812   5
  -2  -6   5 427.052 171.324   5
   2  -6   5 217.998 147.062   5
  -2  -6   6 299.421 145.844   5
   2  -6   6-224.658 127.033   5
  -2  -6   7 145.092 138.686   5
   2  -6   7-89.9679 97.6301   5
  -2  -6   8 471.613 196.569   5
   2  -6   8 254.159 105.804   5
  -2  -6   9 1417.70 284.992   5
   2  -6   9 814.951 219.536   5
  -2  -6  10 1748.36 321.275   5
   2  -6  10 2156.89 338.998   5
  -2  -6  11 1055.73 256.774   5
   2  -6  11 667.939 214.630   5
  -2  -6  12 1536.36 299.888   5
   2  -6  12 1017.70 252.988   5
  -2  -6  13 1913.10 346.404   5
   2  -6  13 1524.78 293.439   5
  -2  -6  14 1543.90 314.191   5
   2  -6  14 1643.56 307.833   5
  -2  -6  15 82.9712 132.238   5
  -2  -6  16 106.038 125.097   5
  -2  -7 -12 236.776 136.684   5
  -2  -7 -11 2331.15 362.757   5
  -2  -7 -11 1184.94 272.816   3
  -2  -7 -10 652.878 216.408   5
  -2  -7  -9 3496.74 437.753   5
  -2  -7  -8 161.125 123.050   5
  -2  -7  -7 3451.53 433.838   5
   2  -7  -7 3334.99 373.267   5
  -2  -7  -6 320.123 151.821   5
   2  -7  -6 33.4909 79.9774   5
  -2  -7  -5 3588.47 447.057   5
   2  -7  -5 4338.41 441.629   5
  -2  -7  -4 517.323 189.062   5
   2  -7  -4 751.068 205.209   5
  -2  -7  -3 4238.47 481.436   5
   2  -7  -3 4063.08 451.025   5
  -2  -7  -2 571.268 207.272   5
   2  -7  -2 332.047 157.184   5
   2  -7  -1 3665.14 443.938   5
  -2  -7  -1 3876.11 463.123   5
  -2  -7   0 198.634 113.458   5
   2  -7   0 134.649 130.838   5
   2  -7   1 3278.38 423.060   5
  -2  -7   1 2906.54 398.188   5
  -2  -7   2 273.803 171.752   5
   2  -7   2 383.652 179.332   5
   2  -7   3 4715.07 520.727   5
  -2  -7   3 5522.47 563.125   5
  -2  -7   4 751.324 227.756   5
   2  -7   4 523.120 198.339   5
   2  -7   5 2863.74 413.334   5
  -2  -7   5 3612.88 457.959   5
  -2  -7   6 301.582 146.174   5
   2  -7   6 478.532 185.714   5
   2  -7   7 3649.58 477.355   5
  -2  -7   7 4224.96 504.400   5
   3   0 -21 7305.90 645.942   1
   3   0 -20-348.300 155.543   1
   3   0 -19 10828.9 731.861   1
   3   0 -18 47.9481 111.173   1
   3   0 -17 12926.6 735.493   1
   3   0 -16 83.5107 95.3652   1
   3   0 -15 6887.06 489.635   1
   3   0 -14 130.799 86.8109   1
   3   0 -13 668.011 142.875   1
   3   0 -12 3.75401 54.6645   1
   3   0 -11 784.107 138.684   1
   3   0 -11 913.139 185.198   4
   3   0 -10-8.33384 28.1690   5
   3   0 -10 36.2353 51.8735   1
   3   0 -10-100.373 90.7254   4
   3   0  -9 11195.7 366.826   5
   3   0  -9 12395.2 653.175   4
   3   0  -9 11855.8 512.662   1
   3   0  -9 11784.7 757.707   2
   3   0  -8 60.8115 33.2004   5
   3   0  -8 33.7764 43.8742   4
   3   0  -7 18203.6 935.320   2
   3   0  -7 18974.9 756.061   4
   3   0  -7 16906.8 458.220   5
   3   0  -6 12.5923 22.9482   5
   3   0  -6 4.70641 43.6330   4
   3   0  -6 2.68360 77.2912   2
   3   0  -5 29334.0 675.388   6
   3   0  -5 32380.5 952.697   4
   3   0  -5 33313.8 1234.91   2
   3   0  -5 30096.6 657.970   5
   3   0  -4-46.0698 79.6103   2
   3   0  -4 17.1704 20.3471   5
   3   0  -4-2.15784 39.4306   4
   3   0  -4-16.9769 27.1655   6
  -3   0  -4-23.1743 33.9606   6
  -3   0  -3 13542.9 467.281   6
   3   0  -3 13792.2 553.974   4
   3   0  -3 13851.3 405.670   6
   3   0  -3 13624.8 400.689   5
   3   0  -2 22.1256 30.9424   3
   3   0  -2 13.1219 25.4702   5
   3   0  -2 5.94419 25.7780   6
   3   0  -2 19.8707 30.7024   4
  -3   0  -2-18.3495 26.9242   6
   3   0  -1 3945.92 209.651   6
  -3   0  -1 3927.71 220.560   6
   3   0  -1 4017.52 248.108   4
   3   0  -1 4167.31 176.864   3
   3   0  -1 3867.32 198.727   5
   3   0   0-3.23922 20.0704   3
   3   0   0-14.1607 29.0406   5
   3   0   0 21.4687 34.2964   6
   3   0   0 15.4378 19.2813   4
  -3   0   0 10.7635 25.9555   6
  -3   0   1 4045.19 182.588   3
  -3   0   1 3811.39 204.954   6
   3   0   1 3988.96 219.641   6
   3   0   1 3566.39 200.513   4
   3   0   1 4004.55 146.734   3
   3   0   1 4004.21 210.997   5
   3   0   2 9.13419 15.4604   3
  -3   0   2 26.1826 29.4165   3
   3   0   2 24.9206 44.1609   6
  -3   0   2-9.15235 30.3245   6
   3   0   2 17.5325 23.1701   4
   3   0   3 13112.4 446.203   6
   3   0   3 12332.5 340.478   4
  -3   0   3 12418.8 366.381   6
   3   0   3 12818.4 257.107   3
  -3   0   3 13976.6 396.702   3
   3   0   4-9.97405 11.8721   3
  -3   0   4 6.37151 25.1688   3
  -3   0   4-3.53077 20.0755   6
   3   0   4 27.8943 33.1002   6
   3   0   4-9.31221 12.8593   4
   3   0   5 27305.0 726.549   6
  -3   0   5 27021.9 579.499   6
  -3   0   5 28591.5 668.144   3
  -3   0   6 1.45545 31.4177   3
  -3   0   6-6.39008 25.1014   6
   3   0   6 36.1152 49.0589   6
  -3   0   7 14790.9 371.155   6
   3   0   7 14729.3 541.216   6
  -3   0   7 16016.8 494.529   3
   3   0   8 8.49796 12.2395   3
  -3   0   8 38.3869 45.9617   3
  -3   0   8-3.47582 23.8919   6
   3   0   8-17.9754 46.0715   6
  -3   0   9 9322.58 267.272   6
   3   0   9 9510.96 435.499   6
   3   0   9 9026.98 227.861   4
   3   0  10 14.8672 16.3226   3
   3   0  10 42.4603 49.1326   6
  -3   0  10 7.38237 102.409   2
  -3   0  10 12.4558 18.9809   6
  -3   0  11 894.999 247.689   2
  -3   0  11 815.247 75.5755   6
   3   0  11 813.596 143.658   6
   3   0  11 678.641 65.7801   3
   3   0  12 43.0972 26.1744   3
  -3   0  12 7.67795 69.2823   2
  -3   0  12-7.08116 25.3371   6
   3   0  12 37.8915 55.8449   6
  -3   0  13 837.713 84.6289   6
  -3   0  13 841.974 262.447   2
   3   0  13 736.544 141.869   6
   3   0  13 702.900 80.4425   3
   3   0  14 76.5801 43.3530   3
   3   0  14 50.1735 73.5947   6
  -3   0  14 36.7566 30.2710   6
  -3   0  15 4912.76 207.437   6
   3   0  15 5253.71 373.520   6
  -3   0  15 5030.97 238.366   6
  -3   0  15 4910.43 649.385   2
   3   0  15 4852.55 239.369   3
  -3   0  16 147.199 137.224   2
   3   0  16 75.9749 81.9038   6
  -3   0  16 0.62315 29.6604   6
  -3   0  17 9934.45 323.928   6
  -3   0  17 9193.79 967.710   2
   3   0  17 9373.64 534.383   6
  -3   0  18-299.021 203.879   2
   3   0  18 5.31975 67.2358   6
   3   0  19 6632.15 467.470   6
  -3   0  19 7585.23 929.068   2
  -3   0  20 124.895 157.976   2
   3   0  20 93.3927 88.7692   6
  -3   0  21 4868.69 793.709   2
   3   0  21 4739.75 407.282   6
  -3   0  22-8.66080 127.364   2
   3   0  22-31.7200 69.7568   6
  -3   0  23 989.534 395.046   2
   3   0  23 429.893 142.115   6
  -3   0  24 247.101 228.477   2
   3   0  24 121.296 134.117   6
  -3   0  25 857.558 395.288   2
   3   0  25 533.943 157.676   6
   3  -1 -22 2258.51 366.348   1
   3  -1 -21 1889.09 315.786   1
   3  -1 -20 1543.61 274.200   1
   3  -1 -19 232.293 102.258   1
   3  -1 -18 2380.51 308.123   1
   3   1 -18 2501.42 364.024   1
   3   1 -18 2377.33 391.951   4
   3   1 -17 560.200 151.549   1
   3   1 -17 1003.99 258.870   4
   3  -1 -17 867.636 179.247   1
   3  -1 -16 3979.50 363.343   1
   3   1 -16 3637.28 395.965   1
   3   1 -16 4036.30 473.464   4
   3   1 -15 2109.93 305.519   1
   3   1 -15 1807.94 317.592   4
   3  -1 -15 2292.62 267.234   1
   3   1 -14 8723.70 576.756   1
   3   1 -14 8256.34 648.956   4
   3  -1 -14 9193.22 506.752   1
   3   1 -13 2945.30 324.183   1
   3   1 -13 3654.67 411.595   4
   3  -1 -13 3022.71 278.667   1
   3   1 -12 13020.0 666.417   1
   3   1 -12 14285.7 800.551   4
   3  -1 -12 13755.7 600.258   1
   3   1 -11 3321.63 314.774   1
   3   1 -11 3171.76 246.778   5
   3  -1 -11 3188.22 273.941   1
   3   1 -11 3642.82 379.221   4
   3  -1 -11 3056.79 251.433   3
   3   1 -10 6409.06 361.598   5
   3   1 -10 8824.86 579.680   2
   3   1 -10 7219.68 525.262   4
   3  -1 -10 6676.09 382.050   1
   3  -1 -10 7395.13 385.833   3
   3   1 -10 7201.33 448.732   1
   3   1  -9 2884.79 238.449   5
   3  -1  -9 3149.51 249.742   1
   3   1  -9 3582.24 362.805   2
   3   1  -9 3104.38 332.726   4
   3  -1  -9 3157.76 239.735   3
   3   1  -9 2835.46 270.577   1
   3   1  -8 3986.19 269.291   5
   3  -1  -8 4649.61 296.769   1
   3   1  -8 4237.65 389.408   2
   3   1  -8 4561.87 385.892   4
   3  -1  -8 4537.33 274.855   3
   3  -1  -8 4157.28 146.753   5
   3   1  -7 1112.45 135.140   5
   3   1  -7 998.659 175.640   4
   3   1  -7 1315.11 218.976   2
   3  -1  -7 1216.93 137.714   3
   3  -1  -7 1085.54 78.6330   5
   3   1  -6 3304.08 336.906   2
   3  -1  -6 3324.68 409.421   2
   3   1  -6 3705.72 323.723   4
   3  -1  -6 3254.90 147.143   5
   3  -1  -6 3552.91 227.774   3
   3   1  -6 3571.81 236.165   5
   3  -1  -5 1532.40 270.907   2
   3   1  -5 1292.27 82.5434   6
   3   1  -5 1552.36 230.865   2
   3  -1  -5 1550.08 142.305   3
   3   1  -5 1603.15 152.547   5
   3  -1  -4 5245.63 291.732   6
   3   1  -4 5106.12 189.303   6
   3  -1  -4 5466.03 496.600   2
   3   1  -4 5239.38 418.948   2
   3  -1  -4 5355.31 260.174   3
   3   1  -4 5663.50 286.405   5
   3  -1  -3 7763.36 345.536   6
   3   1  -3 7444.94 253.812   6
   3  -1  -3 8113.46 587.745   2
   3   1  -3 7881.54 350.738   1
   3   1  -3 7728.54 332.410   5
   3  -1  -3 7302.23 296.148   3
   3   1  -2 16090.9 504.225   1
   3  -1  -2 16094.1 510.948   6
   3   1  -2 13863.7 394.040   6
  -3   1  -2 15604.3 522.925   6
  -3  -1  -2 14509.5 296.454   3
   3   1  -2 16181.7 490.253   5
   3  -1  -2 14810.1 434.754   3
   3  -1  -1 4494.71 257.760   6
  -3   1  -1 4706.53 263.630   6
   3   1  -1 4607.57 245.533   1
   3   1  -1 4653.69 211.836   6
  -3   1  -1 4353.03 218.799   4
  -3  -1  -1 4390.65 151.857   3
   3   1  -1 2916.36 199.129   5
   3  -1  -1 4231.98 209.515   3
   3  -1   0 17657.6 466.628   3
   3   1   0 18071.9 508.540   1
   3  -1   0 18066.1 557.501   6
   3   1   0 18497.3 493.807   6
  -3   1   0 18895.4 564.669   6
  -3   1   0 14940.5 492.293   4
  -3  -1   0 18500.2 523.183   5
  -3  -1   0 17958.1 400.739   3
   3  -1   1 4466.41 256.895   6
   3   1   1 4212.93 215.871   1
   3   1   1 4152.47 223.599   6
  -3   1   1 4012.13 248.103   4
  -3  -1   1 4225.48 179.944   3
  -3  -1   1 4086.08 224.623   5
  -3   1   1 3959.92 242.932   6
   3  -1   2 15531.3 517.628   6
  -3   1   2 15511.0 495.576   6
  -3   1   2 14677.3 530.640   4
   3   1   2 15098.6 484.694   6
   3   1   2 15010.9 429.295   1
  -3  -1   2 15750.8 417.751   3
  -3  -1   2 15814.7 462.802   5
   3   1   3 6703.58 259.612   1
   3   1   3 6363.59 306.220   6
   3  -1   3 6729.35 325.379   6
  -3   1   3 6712.03 308.013   6
  -3   1   3 6700.92 359.742   4
  -3  -1   3 6606.02 268.440   3
  -3  -1   3 6647.68 280.051   5
   3   1   4 6212.07 243.437   1
   3  -1   4 5722.82 305.820   6
   3   1   4 5900.44 307.663   6
  -3   1   4 6551.99 368.689   4
  -3  -1   4 6735.19 284.893   3
  -3   1   4 6076.69 291.431   6
  -3  -1   4 6146.94 270.784   5
  -3   1   5 974.948 115.247   6
   3  -1   5 724.010 116.188   6
   3   1   5 966.964 129.121   6
  -3  -1   5 1111.49 120.132   3
  -3  -1   5 844.274 100.056   5
   3   1   6 3250.52 245.905   6
  -3   1   6 3103.32 208.386   6
   3  -1   6 2772.72 222.182   6
  -3  -1   6 3671.62 229.833   3
  -3  -1   6 3163.60 185.275   5
  -3   1   7 988.669 126.746   3
  -3   1   7 1063.50 124.440   6
  -3   1   7 1459.54 201.159   4
   3  -1   7 908.169 131.895   6
   3   1   7 1002.03 138.530   6
  -3  -1   7 1233.71 140.802   3
  -3  -1   7 890.001 97.0577   5
  -3   1   8 3775.99 239.930   6
   3  -1   8 3938.41 268.192   6
   3   1   8 3979.82 282.093   6
  -3  -1   8 3529.86 193.389   5
   3   1   9 2764.03 244.636   6
  -3   1   9 3310.75 434.093   2
   3  -1   9 3019.40 242.509   6
  -3   1   9 3467.13 234.440   6
  -3  -1   9 2783.70 170.214   5
  -3   1  10 5815.89 318.224   6
   3  -1  10 5370.42 334.631   6
   3   1  10 5599.68 367.186   6
  -3   1  10 5083.83 568.890   2
  -3  -1  10 5538.37 240.153   5
  -3   1  11 3109.81 240.448   6
  -3  -1  11 3091.25 175.489   5
   3  -1  11 2887.08 254.130   6
   3   1  11 3362.19 286.369   6
  -3   1  11 2828.90 445.721   2
  -3  -1  11 2974.17 380.152   2
   3  -1  12 10856.8 501.808   6
   3   1  12 10434.2 518.022   6
  -3   1  12 10237.2 882.600   2
  -3  -1  12 10861.7 773.933   2
  -3  -1  12 10478.2 333.401   5
  -3   1  13 2121.81 418.433   2
  -3  -1  13 2400.84 382.220   2
  -3   1  13 2338.63 224.136   6
   3  -1  13 2103.04 230.250   6
   3   1  13 2601.42 263.743   6
  -3  -1  13 2248.93 146.748   5
  -3   1  14 7875.59 820.023   2
  -3   1  14 7695.34 437.990   6
   3  -1  14 7629.64 444.124   6
   3   1  14 6837.96 387.714   4
   3   1  14 7110.60 455.020   6
  -3  -1  14 7492.81 711.564   2
  -3  -1  14 7345.37 271.926   5
  -3  -1  15 1542.07 337.107   2
  -3   1  15 1417.69 364.747   2
  -3   1  15 1100.29 175.749   6
   3  -1  15 1325.67 195.433   6
   3   1  15 1405.31 205.585   6
   3   1  15 1311.01 173.646   4
  -3  -1  15 1440.61 113.780   5
  -3  -1  16 3146.94 495.465   2
  -3   1  16 3397.44 588.080   2
   3  -1  16 2729.98 282.008   6
   3   1  16 2878.21 295.477   6
  -3  -1  16 3038.71 161.523   5
  -3  -1  17 790.311 282.006   2
  -3   1  17 622.584 241.869   2
  -3  -1  17 662.491 69.7751   5
   3  -1  17 626.728 148.739   6
   3   1  17 658.738 151.664   6
  -3  -1  18 2245.21 457.404   2
  -3   1  18 2296.10 511.006   2
   3  -1  18 2088.60 253.096   6
   3   1  18 2077.89 271.211   6
  -3  -1  19 368.425 203.531   2
  -3   1  19-14.4061 122.561   2
   3  -1  19 130.079 88.5308   6
   3   1  19 151.935 82.7652   6
  -3  -1  20 1578.60 485.540   2
  -3   1  20 1069.20 387.948   2
   3  -1  20 1024.75 188.758   6
   3   1  20 827.274 177.218   6
  -3  -1  21 2090.69 496.268   2
  -3   1  21 2174.82 527.515   2
   3  -1  21 1300.18 222.310   6
   3   1  21 1466.69 243.021   6
  -3  -1  22 640.394 299.888   2
  -3   1  22 2304.00 552.772   2
   3  -1  22 1274.84 219.587   6
   3   1  22 1661.71 260.241   6
  -3  -1  23 729.926 311.376   2
  -3   1  23 656.738 321.726   2
   3  -1  23 655.954 157.231   6
   3   1  23 810.033 182.928   6
  -3  -1  24 2133.59 500.159   2
  -3   1  24 2401.36 597.106   2
   3  -1  24 2104.00 291.628   6
   3   1  24 2062.44 288.466   6
  -3  -1  25 33.3875 105.119   2
   3  -1  25 229.037 85.0662   6
   3   2 -22 1072.91 318.176   4
   3  -2 -21 1671.53 260.252   1
   3   2 -21 1953.73 417.269   4
   3   2 -20 1539.11 359.138   4
   3  -2 -20 1064.12 224.706   1
   3  -2 -19 296.614 116.339   1
   3   2 -19 117.645 109.337   4
   3  -2 -18 878.841 189.746   1
   3   2 -18 570.374 207.843   4
   3  -2 -17 896.581 175.084   1
   3   2 -17 692.114 220.550   4
   3   2 -16 2553.82 402.643   4
   3  -2 -16 2344.00 279.180   1
   3  -2 -16 2325.51 276.208   3
   3  -2 -15 2804.24 288.413   1
   3   2 -15 2882.03 413.193   4
   3  -2 -15 3227.48 311.196   3
   3  -2 -14 5672.23 405.427   1
   3   2 -14 5932.68 518.520   1
   3   2 -14 5864.35 572.614   4
   3  -2 -14 5944.54 411.798   3
   3  -2 -13 5340.64 373.183   1
   3   2 -13 5331.10 465.787   1
   3   2 -13 5301.25 521.659   4
   3  -2 -13 5315.30 377.264   3
   3   2 -12 7785.44 492.767   5
   3  -2 -12 7354.09 433.180   1
   3   2 -12 7188.67 533.547   1
   3   2 -12 8017.13 625.858   4
   3  -2 -12 7762.21 447.933   3
   3   2 -11 7322.79 518.543   1
   3   2 -11 8682.44 636.968   4
   3  -2 -11 8123.42 440.846   3
   3   2 -10 7393.05 501.802   1
   3   2 -10 7859.04 586.411   4
   3  -2 -10 6991.21 402.774   3
   3   2  -9 4251.75 367.214   1
   3  -2  -9 4336.82 302.860   3
   3  -2  -9 3930.38 157.402   5
   3  -2  -8 2852.13 164.344   5
   3   2  -8 2849.30 288.825   1
  -3   2  -8 2782.34 114.697   4
  -3  -2  -8 2147.02 100.381   3
   3  -2  -8 3052.68 245.888   3
   3  -2  -7 1962.28 150.014   5
   3   2  -7 2147.67 237.622   1
   3   2  -7 2248.32 224.640   2
  -3  -2  -7 1267.18 76.5134   3
   3  -2  -7 1907.25 189.532   3
   3   2  -6 1507.08 192.728   1
   3   2  -6 1435.93 185.994   2
   3  -2  -6 1549.10 171.664   3
   3   2  -5 1890.33 208.492   5
   3   2  -5 1818.34 209.976   1
   3   2  -5 1971.12 101.839   6
   3   2  -5 1826.28 211.609   2
  -3  -2  -5 1994.18 195.470   5
   3  -2  -5 2213.00 201.248   3
   3  -2  -4 3074.34 233.838   3
   3   2  -4 3547.44 277.206   1
   3   2  -4 3465.52 159.212   6
   3   2  -4 2569.73 251.802   2
  -3  -2  -4 3280.17 241.760   5
   3   2  -4 3142.65 262.244   5
   3  -2  -3 6599.69 341.686   3
   3   2  -3 7261.67 385.072   1
   3  -2  -3 6865.15 388.075   6
   3   2  -3 6564.94 254.221   6
  -3  -2  -3 6957.20 350.701   5
   3   2  -3 7548.16 392.716   5
   3   2  -2 7804.10 393.014   1
   3  -2  -2 7768.24 405.496   6
   3   2  -2 8064.42 310.372   6
   3  -2  -2 7106.22 582.664   2
  -3  -2  -2 8333.64 385.684   5
   3   2  -2 8639.77 410.941   5
   3   2  -1 7535.86 373.370   1
   3  -2  -1 7871.78 399.397   6
  -3   2  -1 7664.55 395.395   6
   3   2  -1 7210.30 306.626   6
  -3  -2  -1 7900.17 372.492   5
   3   2  -1 8405.85 403.530   5
   3  -2   0 9322.15 432.612   6
   3   2   0 8942.43 365.507   6
  -3   2   0 9609.73 453.130   6
  -3  -2   0 9103.57 406.563   5
   3   2   0 9728.31 408.183   1
  -3   2   1 7307.89 387.728   6
  -3  -2   1 6914.90 335.038   1
   3  -2   1 7196.05 371.409   6
   3   2   1 6663.64 325.622   6
  -3  -2   1 7050.61 347.217   5
   3   2   1 6978.81 335.140   1
  -3  -2   2 9274.01 399.181   1
  -3   2   2 9324.20 442.926   6
   3   2   2 9199.16 397.975   6
   3  -2   2 9358.06 432.710   6
  -3  -2   2 9647.90 410.312   5
   3   2   2 9755.47 387.433   1
  -3  -2   3 5537.52 303.827   1
   3  -2   3 5160.17 321.522   6
  -3   2   3 5299.51 337.852   6
   3   2   3 5240.13 312.381   6
  -3  -2   3 5128.12 296.386   5
   3   2   3 5592.29 275.482   1
  -3  -2   4 3775.58 254.939   1
  -3   2   4 3873.53 291.948   6
   3  -2   4 3706.97 268.734   6
   3   2   4 3632.72 269.612   6
  -3  -2   4 3724.15 254.333   5
   3   2   4 4059.49 227.178   1
  -3   2   5 1338.10 171.733   6
   3  -2   5 1510.62 172.252   6
  -3   2   5 1502.17 203.740   4
   3   2   5 1300.44 165.402   6
  -3  -2   5 1506.00 164.155   5
   3   2   5 1557.82 136.876   1
  -3   2   6 1650.44 203.012   6
   3  -2   6 1623.01 181.325   6
  -3   2   6 1692.02 216.583   4
   3   2   6 2086.45 208.001   6
  -3  -2   6 1656.04 166.405   5
   3   2   6 1811.93 142.942   1
   3   2   7 2590.01 162.084   1
   3  -2   7 2021.61 205.485   6
  -3   2   7 1867.77 211.205   6
   3   2   7 1941.43 213.325   6
  -3  -2   7 2262.97 194.985   5
   3   2   8 3053.87 169.646   1
   3  -2   8 2088.83 211.647   6
   3   2   8 2171.83 224.705   6
  -3   2   8 1949.65 228.992   6
  -3  -2   8 2196.72 194.630   5
  -3   2   9 3962.44 329.038   6
   3  -2   9 4189.26 301.455   6
   3   2   9 3690.12 312.710   6
  -3  -2   9 3930.27 261.349   5
   3  -2  10 5040.79 340.739   6
   3   2  10 5413.20 383.140   6
  -3   2  10 5378.66 611.436   2
  -3  -2  10 5696.24 317.870   5
   3   2  11 7808.72 462.936   6
  -3   2  11 6869.17 728.870   2
   3  -2  11 7474.43 420.853   6
  -3  -2  11 7538.44 375.975   5
   3  -2  12 5708.49 374.274   6
   3   2  12 5780.58 407.081   6
  -3   2  12 6067.74 690.733   2
  -3  -2  12 5996.74 333.873   5
   3  -2  13 3998.49 315.173   6
  -3  -2  13 4233.32 430.229   2
   3   2  13 3899.87 343.538   6
  -3   2  13 3847.57 561.553   2
  -3  -2  13 3860.23 268.597   5
   3  -2  14 5023.58 363.727   6
   3   2  14 4938.33 399.881   6
  -3   2  14 5457.22 700.295   2
  -3  -2  14 5656.11 523.527   2
  -3  -2  14 5070.84 308.388   5
  -3   2  15 2139.70 450.163   2
  -3  -2  15 1918.83 321.490   2
   3  -2  15 1866.37 225.281   6
   3   2  15 1955.85 250.880   6
  -3  -2  15 1864.74 186.319   5
  -3   2  16 2457.71 475.426   2
  -3  -2  16 2395.28 377.863   2
   3  -2  16 2012.19 242.260   6
   3   2  16 2028.25 266.151   6
  -3  -2  16 1871.50 182.259   5
  -3   2  17 713.603 264.823   2
  -3  -2  17 824.981 241.699   2
  -3  -2  17 508.497 103.515   5
   3   2  17 574.731 151.712   6
   3  -2  17 360.956 108.890   6
  -3  -2  18 803.625 262.404   2
  -3   2  18 971.959 307.180   2
  -3  -2  18 718.715 112.474   5
   3  -2  18 651.425 139.281   6
   3   2  18 624.889 157.782   6
  -3  -2  19 152.920 120.327   2
  -3   2  19 445.571 222.349   2
   3  -2  19 312.678 114.940   6
   3   2  19 130.965 91.7639   6
  -3  -2  20 644.750 250.434   2
  -3   2  20 559.348 273.462   2
   3  -2  20 485.748 143.590   6
   3   2  20 383.642 133.286   6
  -3  -2  21 1545.96 381.743   2
  -3   2  21 1674.81 460.548   2
   3  -2  21 1478.82 238.784   6
   3   2  21 1691.63 256.529   6
  -3  -2  22 799.212 295.882   2
  -3   2  22 1267.41 399.276   2
   3  -2  22 856.894 183.976   6
   3   2  22 1380.00 251.484   6
  -3   2  23 2203.99 540.300   2
   3  -2  23 1695.81 261.616   6
   3   2  23 1511.77 264.796   6
   3  -2  24 1325.30 246.162   6
   3  -2  25 900.407 209.408   6
   3   3 -22 259.036 136.150   4
   3   3 -21 3716.00 587.824   4
   3   3 -20 469.547 229.936   4
   3   3 -19 6190.75 711.559   4
   3  -3 -19 6228.07 489.134   1
   3  -3 -19 6024.03 523.049   3
   3  -3 -18 1348.50 247.804   3
   3  -3 -18 869.859 183.035   1
   3   3 -18 1182.93 315.366   4
   3  -3 -17 5846.78 444.946   1
   3   3 -17 5935.58 656.523   4
   3  -3 -17 5850.15 490.498   3
   3  -3 -16 157.169 118.329   3
   3   3 -16 467.976 192.461   4
   3  -3 -16 263.773 111.675   1
   3  -3 -15 2673.94 289.728   1
   3   3 -15 2750.81 429.206   4
   3  -3 -15 2715.56 312.038   3
   3  -3 -14 254.629 105.736   3
   3  -3 -14 157.921 72.0467   1
   3   3 -14 137.827 105.307   4
  -3  -3 -13 156.735 56.4741   3
   3  -3 -13 285.666 117.351   3
  -3   3 -13 187.928 63.4298   4
   3   3 -13 164.373 95.6932   4
  -3  -3 -12 106.193 43.1518   3
   3  -3 -12 184.122 106.359   3
  -3   3 -12 134.488 55.9720   4
  -3  -3 -11 390.790 64.0382   3
   3  -3 -11 482.484 133.895   3
   3  -3 -11 351.275 43.1817   5
  -3  -3 -10 362.632 64.8342   3
   3  -3 -10 422.719 124.294   3
   3  -3 -10 463.845 67.0801   5
   3  -3  -9 6514.74 420.616   3
  -3  -3  -9 5561.74 254.407   3
   3  -3  -9 6697.45 303.247   5
  -3  -3  -8 1305.89 123.943   3
   3  -3  -8 1349.87 145.360   5
   3  -3  -8 1449.19 204.425   3
  -3  -3  -8 1576.16 200.935   5
   3  -3  -7 12873.2 501.606   5
   3   3  -7 12694.1 325.796   6
   3   3  -7 12590.5 315.916   6
  -3  -3  -7 12686.4 565.796   5
   3  -3  -7 12976.7 603.718   3
   3  -3  -6 2049.35 230.505   3
   3  -3  -6 2033.45 197.857   5
   3   3  -6 2233.02 152.728   6
  -3  -3  -6 1874.91 219.568   5
   3  -3  -5 14059.3 627.374   3
   3  -3  -5 13669.2 556.922   5
  -3  -3  -5 15920.1 626.184   5
   3  -3  -4 1267.33 165.953   5
   3   3  -4 1049.15 92.9778   2
  -3  -3  -4 1369.32 189.459   5
   3  -3  -3 5511.53 347.719   5
  -3  -3  -3 5457.17 280.487   1
  -3  -3  -3 5746.34 364.020   5
  -3  -3  -2 747.614 135.716   5
  -3  -3  -2 795.541 118.056   1
  -3  -3  -1 715.147 134.036   5
   3  -3  -1 602.279 134.428   6
  -3  -3  -1 663.136 113.253   1
  -3  -3   0 89.8916 58.6201   5
   3  -3   0 39.0032 58.0578   6
  -3  -3   0 45.7549 46.3105   1
  -3  -3   1 511.883 119.099   5
   3  -3   1 343.131 108.773   6
  -3  -3   1 362.830 95.5602   1
  -3  -3   2 713.956 133.421   5
   3  -3   2 567.820 118.905   6
   3  -3   3 6106.72 390.126   6
  -3  -3   3 5980.98 384.031   5
  -3  -3   4 1128.20 168.305   5
   3  -3   4 982.400 158.885   6
   3  -3   5 13126.1 584.066   6
  -3  -3   5 14098.2 617.252   5
   3  -3   6 1597.96 206.499   6
  -3  -3   6 1496.02 197.385   5
   3  -3   7 11090.6 536.656   6
  -3  -3   7 11440.4 567.184   5
  -3  -3   8 1403.54 195.926   5
   3  -3   8 1431.37 191.306   6
   3  -3   9 5555.10 375.174   6
  -3  -3   9 6247.62 419.885   5
  -3  -3  10 225.030 85.3054   5
   3  -3  10 382.716 107.843   6
   3   3  10 377.244 117.755   6
  -3  -3  11 330.164 96.8336   5
   3  -3  11 281.177 92.5923   6
   3   3  11 254.223 98.1586   6
  -3   3  12 75.6890 98.2517   2
  -3  -3  12 216.426 76.0625   5
   3  -3  12 208.167 90.5316   6
   3   3  12 173.605 67.0108   6
  -3   3  13-3.52219 122.331   2
  -3  -3  13 164.808 68.7812   5
   3  -3  13 204.662 97.5093   6
   3   3  13 82.8510 64.7392   6
  -3   3  14 127.510 132.569   2
  -3  -3  14 261.604 90.2866   5
   3  -3  14 205.131 84.8774   6
   3   3  14 56.1806 75.0336   6
  -3   3  15 2549.05 494.569   2
  -3  -3  15 1723.05 229.779   5
   3  -3  15 2118.11 258.588   6
   3   3  15 1882.50 264.491   6
  -3   3  16 370.664 208.941   2
  -3  -3  16-67.9309 86.8788   5
   3  -3  16 139.693 87.9662   6
   3   3  16 175.338 94.6170   6
   3  -3  17 4207.37 369.946   6
   3   3  17 4827.03 430.891   6
  -3   3  17 4725.31 688.139   2
  -3  -3  17 4091.30 364.697   5
  -3   3  18 561.914 278.529   2
  -3  -3  18 113.709 82.5829   5
   3  -3  18 472.878 138.421   6
   3   3  18 416.123 133.708   6
   3   3  19 3866.73 420.135   6
   3  -3  19 4328.86 389.184   6
  -3   3  20 188.467 186.300   2
   3  -3  20 332.491 137.122   6
   3   3  20 444.703 149.122   6
  -3   3  21 1952.87 497.779   2
   3  -3  21 1826.05 269.504   6
   3   3  21 1750.15 286.002   6
   3  -3  22-113.984 116.937   6
   3  -3  23 542.846 159.147   6
   3  -3  24 110.870 118.318   6
   3   4 -20 1748.01 416.787   4
   3  -4 -19 214.933 143.375   3
   3   4 -19-52.7922 123.237   4
   3  -4 -18 1712.50 301.047   3
   3   4 -18 1263.02 313.431   4
   3  -4 -17 990.096 228.157   3
   3   4 -17 816.966 264.979   4
   3  -4 -16 1317.96 254.279   3
   3  -4 -16 1372.55 226.253   1
   3   4 -16 1248.02 312.659   4
   3  -4 -15 1675.98 283.034   3
   3  -4 -15 811.979 166.329   1
   3  -4 -14 2766.04 347.107   3
  -3  -4 -13 435.660 105.654   3
   3  -4 -13 908.905 209.750   3
  -3  -4 -12 2501.58 214.275   3
   3  -4 -12 3982.50 387.880   3
   3  -4 -11 613.487 170.456   3
  -3  -4 -11 247.749 90.0221   3
  -3  -4 -10 2948.67 314.412   5
   3  -4 -10 3737.27 251.500   5
   3  -4 -10 3614.63 368.141   3
  -3  -4 -10 2742.63 230.131   3
  -3  -4  -9 941.957 188.112   5
   3  -4  -9 877.353 192.779   3
   3  -4  -9 1083.21 145.595   5
   3  -4  -8 1880.18 205.684   5
   3  -4  -8 1825.67 260.882   3
  -3  -4  -8 2172.37 258.875   5
  -3  -4  -7 257.399 109.489   5
   3  -4  -7 87.1985 91.4684   3
   3  -4  -7 147.362 74.1741   5
   3  -4  -6 3773.66 321.221   5
   3  -4  -6 3659.60 372.720   3
   3   4  -6 3735.27 259.127   6
  -3  -4  -6 3882.65 347.784   5
  -3  -4  -5 772.922 163.880   5
   3  -4  -5 989.423 176.373   5
  -3  -4  -5 867.386 126.375   1
   3   4  -5 1019.76 144.023   6
   3  -4  -4 2421.61 259.586   5
  -3  -4  -4 2276.38 206.136   1
  -3  -4  -4 1886.95 255.250   5
   3  -4  -3 1957.99 240.885   5
  -3  -4  -3 1755.14 202.907   1
  -3  -4  -3 2118.35 256.224   5
   3  -4  -2 4493.12 369.107   5
  -3  -4  -2 4353.21 329.238   1
  -3  -4  -2 4759.19 384.582   5
  -3  -4  -1 577.756 143.436   5
   3  -4  -1 624.478 147.131   5
   3  -4   0 6011.59 432.101   5
   3   4   0 5063.46 235.613   2
  -3  -4   0 6368.17 450.800   5
  -3  -4   1 622.171 153.836   5
   3  -4   1 536.941 144.450   5
   3  -4   1 546.108 151.179   6
   3  -4   2 4388.21 380.004   5
   3  -4   2 4422.70 381.133   6
  -3  -4   2 4490.75 388.203   5
   3  -4   3 2171.98 273.584   5
   3  -4   3 2303.18 272.647   6
  -3  -4   3 2172.93 273.503   5
   3  -4   4 1869.06 260.128   5
   3  -4   4 2108.14 259.501   6
  -3  -4   4 1967.94 263.289   5
  -3  -4   5 871.576 185.114   5
   3  -4   5 664.578 162.790   5
   3  -4   5 759.461 167.553   6
   3  -4   6 3530.22 363.375   5
   3  -4   6 3809.86 341.509   6
  -3  -4   6 3504.37 359.530   5
  -3  -4   7 238.599 117.985   5
   3  -4   7 186.433 98.3109   6
   3  -4   8 1572.42 231.231   6
  -3  -4   8 1921.14 280.221   5
  -3  -4   9 836.332 188.772   5
   3  -4   9 1117.76 190.529   6
   3  -4  10 2953.70 304.086   6
  -3  -4  10 3048.48 353.168   5
  -3  -4  11 257.016 91.1176   5
   3  -4  11 510.836 148.707   6
   3  -4  12 2688.84 298.596   6
  -3  -4  12 2863.42 349.945   5
  -3  -4  13 267.094 117.581   5
   3  -4  13 405.066 127.951   6
  -3  -4  14 1636.21 276.596   5
   3  -4  14 2177.04 270.810   6
   3   4  14 1928.30 278.435   6
  -3   4  15 828.586 292.415   2
  -3  -4  15 658.068 148.050   5
   3  -4  15 666.410 161.864   6
   3   4  15 717.217 182.850   6
  -3   4  16 1381.30 381.858   2
  -3  -4  16 874.308 202.479   5
   3  -4  16 1235.92 247.309   5
   3  -4  16 1516.78 242.999   6
   3   4  16 604.204 162.077   6
  -3   4  17 980.884 308.769   2
  -3  -4  17 398.274 145.500   5
   3  -4  17 568.105 183.537   5
   3  -4  17 789.175 183.640   6
   3   4  17 390.840 172.463   6
  -3   4  18 1969.84 483.407   2
  -3  -4  18 1242.91 230.142   5
   3  -4  18 1512.48 279.211   5
   3  -4  18 1629.28 253.745   6
   3   4  18 1235.81 247.222   6
  -3   4  19 169.865 172.888   2
   3  -4  19 241.879 139.950   5
   3   4  19 471.886 286.774   2
   3   4  19-27.3002 78.7626   6
   3  -4  19 263.243 127.218   6
   3  -4  20 547.986 177.143   5
   3  -4  20 1082.93 221.851   6
   3   4  20 1502.42 441.499   2
   3  -4  21 279.625 128.894   6
   3  -4  22 1395.61 241.176   6
   3   5 -17 410.333 218.885   4
   3  -5 -16 462.557 223.942   3
   3  -5 -15 952.089 228.858   3
   3  -5 -14 957.863 240.238   3
   3  -5 -13 2626.16 362.622   3
  -3  -5 -12 471.456 166.081   5
   3  -5 -12 502.369 166.352   3
  -3  -5 -11 1970.56 291.577   5
  -3  -5 -11 1527.98 211.583   3
  -3  -5 -10 1321.42 244.843   5
   3  -5 -10 1402.46 268.591   3
  -3  -5 -10 859.852 157.041   3
  -3  -5  -9 1301.72 228.891   5
   3  -5  -9 1224.76 229.130   3
   3  -5  -9 1318.91 184.815   5
  -3  -5  -8 144.300 108.407   5
   3  -5  -8 316.998 139.245   3
   3  -5  -8 518.867 130.877   5
  -3  -5  -7 623.099 181.892   5
   3  -5  -7 551.418 167.357   3
   3  -5  -7 652.404 145.306   5
  -3  -5  -6 97.7645 79.4890   5
   3  -5  -6 171.981 84.3490   5
  -3  -5  -5 262.848 125.573   5
   3  -5  -5 328.936 136.662   5
  -3  -5  -4 233.929 88.9676   5
   3  -5  -4 177.584 92.6563   5
   3  -5  -3 2364.60 292.324   5
  -3  -5  -3 2006.69 279.480   5
  -3  -5  -2 1285.20 230.169   5
   3  -5  -2 1201.19 210.312   5
   3  -5  -1 3488.18 363.070   5
  -3  -5  -1 3399.72 376.336   5
  -3  -5   0 770.321 193.805   5
   3  -5   0 898.248 192.329   5
   3  -5   1 2829.85 334.601   5
  -3  -5   1 2741.79 339.532   5
  -3  -5   2 1421.94 255.606   5
   3  -5   2 1378.77 241.656   5
  -3  -5   3 1945.18 289.625   5
   3  -5   3 2149.23 295.739   5
  -3  -5   4 152.776 116.030   5
   3  -5   4 146.230 103.656   5
  -3  -5   5 337.679 141.741   5
   3  -5   5 64.9073 71.3081   5
   3  -5   5 295.824 134.698   6
  -3  -5   6 190.562 112.639   5
   3  -5   6 289.401 131.055   5
   3  -5   6 536.117 155.119   6
   3   5   6 171.161 83.6184   2
  -3  -5   7 621.573 180.098   5
   3  -5   7 684.421 196.785   5
   3  -5   7 648.328 168.297   6
   3   5   7 533.935 144.232   2
  -3  -5   8 93.0112 81.4066   5
   3  -5   8 151.139 105.708   5
   3  -5   8 62.2869 90.2704   6
   3   5   8 107.315 96.6573   2
  -3  -5   9 1412.03 277.601   5
   3  -5   9 1286.99 262.627   5
   3  -5   9 1472.59 238.165   6
   3   5   9 1466.38 255.616   2
  -3  -5  10 1326.56 257.830   5
   3  -5  10 1520.12 268.542   5
   3  -5  10 1420.52 245.745   6
   3   5  10 1254.17 252.721   2
   3  -5  11 2194.06 302.910   6
   3  -5  11 2609.02 355.600   5
  -3  -5  11 2355.90 367.334   5
   3   5  11 2512.78 361.655   2
  -3  -5  12 583.944 182.988   5
   3  -5  12 220.084 114.385   5
   3  -5  12 420.608 140.449   6
   3   5  12 347.029 151.567   2
  -3  -5  13 2307.01 356.120   5
   3  -5  13 1565.73 276.493   5
   3  -5  13 2006.42 288.466   6
   3   5  13 2137.29 358.326   2
  -3  -5  14 989.061 243.282   5
   3  -5  14 758.350 202.365   5
   3  -5  14 994.256 204.244   6
   3   5  14 936.085 262.359   2
  -3  -5  15 779.253 228.701   5
   3  -5  15 957.944 231.309   5
   3  -5  15 959.750 211.989   6
   3   5  15 969.280 275.228   2
  -3  -5  16 384.190 183.676   5
   3  -5  16 3.24374 85.1392   5
   3  -5  16 367.943 149.189   6
   3   5  16 234.704 166.426   2
   3   5  16 176.340 131.820   6
  -3  -5  17 370.050 185.796   5
   3  -5  17 213.718 129.908   5
   3  -5  17 170.262 145.967   6
   3   5  17 253.493 131.020   2
  -3  -5  18-313.334 164.816   5
   3  -5  18 77.0938 96.8404   6
   3  -5  19 115.098 102.101   6
   3   5  19-132.171 156.381   2
  -3  -6 -13 119.093 90.8538   5
  -3  -6 -12 54.5721 100.516   5
   3  -6 -12 28.2678 109.032   3
  -3  -6 -11 100.160 87.3262   5
   3  -6 -11 77.2991 110.245   3
  -3  -6 -10 298.769 147.584   5
   3  -6 -10 293.673 128.244   3
  -3  -6  -9 558.660 194.397   5
   3  -6  -9 679.140 192.793   3
  -3  -6  -8 786.209 221.019   5
   3  -6  -8 519.825 196.475   3
  -3  -6  -7 1816.74 301.748   5
   3  -6  -7 1981.48 276.855   5
  -3  -6  -6 908.908 223.051   5
   3  -6  -6 1421.72 240.610   5
  -3  -6  -5 1788.26 309.645   5
   3  -6  -5 1740.03 263.777   5
  -3  -6  -4 1130.68 266.963   5
   3  -6  -4 991.500 207.191   5
  -3  -6  -3 564.854 186.167   5
   3  -6  -3 837.160 191.882   5
  -3  -6  -2-96.3771 134.515   5
   3  -6  -2 269.888 132.688   5
  -3  -6  -1 139.327 106.098   5
   3  -6  -1 163.230 103.336   5
  -3  -6   0 102.705 99.6913   5
   3  -6   0 137.679 100.383   5
  -3  -6   1 46.1548 96.2798   5
   3  -6   1 148.166 119.732   5
  -3  -6   2 102.944 108.336   5
   3  -6   2-10.4424 80.3541   5
  -3  -6   3 515.215 164.268   5
   3  -6   3 596.609 183.790   5
  -3  -6   4 701.096 205.899   5
   3  -6   4 575.926 188.756   5
  -3  -6   5 2090.80 343.046   5
   3  -6   5 1470.86 282.929   5
   3  -6   6 1462.93 283.484   5
  -3  -6   6 1139.94 257.612   5
  -3  -6   7 2029.55 353.399   5
   3  -6   7 1613.28 295.472   5
  -3  -6   8 1253.21 286.521   5
   3  -6   8 753.826 229.211   5
  -3  -6   9 1218.87 292.842   5
   3  -6   9 727.179 221.329   5
  -3  -6  10 325.185 189.128   5
   3  -6  10 92.8624 112.716   5
  -3  -6  11 271.894 155.713   5
   3  -6  11 55.0360 125.026   5
  -3  -6  12 338.821 206.550   5
   3  -6  12 126.943 124.145   5
   3  -6  12 414.218 177.021   6
  -3  -6  13 409.846 196.441   5
   3  -6  13 145.475 122.174   6
  -3  -6  14 167.227 167.020   5
   3  -6  14 133.946 119.895   6
  -3  -6  15 834.425 253.363   5
   3  -6  15 587.933 186.350   6
   3  -7  -5 529.577 175.416   5
   3  -7  -4 781.856 201.290   5
  -3  -7  -3-16.0116 119.188   5
   3  -7  -3 106.434 89.4166   5
  -3  -7  -2 589.042 202.001   5
   3  -7  -2 573.935 208.369   5
  -3  -7  -1 198.603 131.814   5
   3  -7  -1 31.6667 113.286   5
  -3  -7   0 653.663 191.660   5
   3  -7   0 1005.84 247.635   5
   3  -7   1 296.250 143.966   5
   3  -7   2 675.115 228.774   5
   3  -7   3 193.615 134.061   5
   3  -7   4 474.849 201.160   5
   3  -7   5 250.304 132.931   5
   4   0 -23-77.1599 140.102   1
   4   0 -22-143.297 176.379   1
   4   0 -21-18.9913 145.598   1
   4   0 -20 8462.71 713.568   1
   4   0 -19 149.405 121.420   1
   4   0 -18 1889.66 302.689   1
   4   0 -17-0.48303 96.0125   1
   4   0 -16 16638.8 876.643   1
   4   0 -15 7.43727 84.0502   1
   4   0 -14 1637.31 248.137   1
   4   0 -13 33.7315 83.8694   1
   4   0 -12 46476.8 1340.29   1
   4   0 -11-12.9441 60.3941   1
   4   0 -11 61.9723 42.0308   5
   4   0 -10 147.318 85.4268   1
   4   0 -10 67.4691 40.7774   5
   4   0 -10 93.2334 91.0308   4
   4   0  -9 6.14655 30.5769   5
   4   0  -9-23.4465 70.6662   4
   4   0  -9 24.2179 52.2836   1
   4   0  -8 15790.1 641.395   1
   4   0  -8 16318.8 789.388   4
   4   0  -8 15549.9 498.192   5
   4   0  -7 42.5547 38.1657   5
   4   0  -7-33.3748 70.2265   4
   4   0  -7 125.189 75.7963   1
   4   0  -6 9265.05 374.141   6
   4   0  -6 8949.05 444.043   1
   4   0  -6 10230.6 571.059   4
   4   0  -6 9165.43 361.632   5
   4   0  -5 11.8444 32.7552   5
   4   0  -5 40.3641 50.9374   6
   4   0  -5-12.1800 54.1500   1
   4   0  -5 10.2840 50.0924   4
   4   0  -4 37726.2 980.744   1
   4   0  -4 38326.2 878.492   6
   4   0  -4 40721.2 1149.62   4
   4   0  -3-24.5873 42.2393   6
   4   0  -3 45.3012 54.4316   4
  -4   0  -3 4.86352 38.1722   6
   4   0  -2 1188.08 132.228   6
  -4   0  -2 1171.56 155.034   6
   4   0  -2 1436.81 179.669   4
   4   0  -1 61.3554 60.0109   6
   4   0  -1 45.7953 58.9220   4
  -4   0  -1 49.0230 63.0663   6
  -4   0   0 145586. 2427.44   6
   4   0   0 136144. 2536.53   4
   4   0   0 143256. 2426.53   6
   4   0   0 144168. 2400.68   5
   4   0   1 49.8909 49.5234   5
   4   0   1 34.3843 60.2583   6
   4   0   1 44.6477 51.5277   4
  -4   0   1 32.4774 52.2777   6
   4   0   2 1439.20 159.097   6
  -4   0   2 1267.69 130.940   6
   4   0   2 1299.02 132.261   4
  -4   0   3 85.5629 47.4411   3
   4   0   3-2.55013 21.8710   4
   4   0   3-12.0340 40.2573   6
  -4   0   3 95.3276 51.5458   6
  -4   0   4 36964.4 841.780   3
   4   0   4 35112.7 924.841   6
   4   0   4 34471.6 730.216   4
  -4   0   4 35474.1 791.907   6
  -4   0   5 15.4650 45.4138   3
   4   0   5-21.6857 25.0052   4
   4   0   5 15.5884 60.8970   6
  -4   0   5 49.4464 48.3645   6
   4   0   6 8949.75 430.683   6
  -4   0   6 8257.78 305.518   6
   4   0   7 28.5846 59.0313   6
  -4   0   7 31.1777 34.1376   6
  -4   0   8 12108.4 356.436   6
   4   0   8 13118.3 553.740   6
  -4   0   9 14.7418 25.1483   6
   4   0   9 36.7130 68.2980   6
  -4   0  10 188.248 34.2753   6
   4   0  10 260.498 100.874   6
  -4   0  11 30.4802 30.6540   6
   4   0  11 84.0284 88.5338   6
  -4   0  12 33106.5 635.611   6
   4   0  12 37096.3 1086.37   6
  -4   0  13-18.0144 22.0432   6
   4   0  13 48.2853 85.9777   6
   4   0  14 1095.87 194.257   6
   4   0  15 8.54307 95.9808   6
   4   0  16 11829.5 641.071   6
  -4   0  17 46.3657 105.227   2
   4   0  17-24.0874 79.8501   6
  -4   0  18 2219.75 483.068   2
   4   0  18 2182.27 278.429   6
  -4   0  19 210.657 184.020   2
   4   0  19-31.0038 71.0139   6
   4   0  20 5116.95 449.456   6
  -4   0  20 5824.48 865.445   2
  -4   0  21 136.716 183.997   2
   4   0  21 6.84936 93.9278   6
  -4   0  22 973.744 368.776   2
   4   0  22 475.835 172.320   6
  -4   0  23 91.6990 174.347   2
   4   0  23 64.3372 114.916   6
  -4   0  24 10086.2 1249.48   2
   4  -1 -23 3356.67 478.400   1
   4  -1 -22 2934.62 433.951   1
   4   1 -21 1667.39 354.888   1
   4  -1 -21 1459.24 301.685   1
   4  -1 -20 971.591 245.012   1
   4   1 -20 490.629 163.098   1
   4   1 -19 8055.48 695.121   1
   4  -1 -19 7441.82 609.643   1
   4   1 -18 988.428 252.611   1
   4  -1 -18 1030.57 222.834   1
   4   1 -17 2624.04 372.435   1
   4   1 -17 2186.11 389.683   4
   4  -1 -17 3105.33 366.751   1
   4   1 -16 3890.37 429.422   1
   4   1 -16 3862.50 499.929   4
   4  -1 -16 3769.06 380.365   1
   4   1 -15 7423.35 578.122   1
   4   1 -15 7345.74 670.279   4
   4  -1 -15 7556.70 523.871   1
   4  -1 -14 1153.51 204.537   1
   4   1 -14 1342.95 249.174   1
   4   1 -14 1386.84 276.183   4
   4   1 -13 1198.71 224.900   1
   4   1 -13 999.564 239.477   4
   4  -1 -13 1425.91 216.299   1
   4   1 -12 382.890 93.1702   5
   4   1 -12 308.427 128.237   4
   4   1 -12 214.274 101.908   1
   4  -1 -12 259.969 101.954   1
   4   1 -11 4426.96 317.198   5
   4  -1 -11 4611.33 364.826   1
   4   1 -11 5119.92 490.816   4
   4   1 -11 4888.90 409.608   1
   4   1 -10 5470.01 353.130   5
   4  -1 -10 6164.31 401.415   1
   4   1 -10 6389.30 532.977   4
   4  -1 -10 6554.11 381.975   3
   4   1 -10 6473.94 448.377   1
   4  -1 -10 5440.92 202.042   5
   4  -1  -9 6234.92 398.026   1
   4   1  -9 6267.03 513.362   4
   4   1  -9 6396.77 428.759   1
   4  -1  -9 6412.52 366.746   3
   4  -1  -9 6269.41 240.953   5
   4  -1  -8 2132.12 230.851   1
   4   1  -8 2138.49 288.518   4
   4   1  -8 2077.21 240.266   1
   4  -1  -8 2288.71 208.528   3
   4   1  -8 1941.70 318.619   2
   4  -1  -8 2005.95 137.250   5
   4   1  -7 8078.62 644.423   2
   4   1  -7 8983.45 571.247   4
   4   1  -7 8114.88 454.131   1
   4  -1  -7 8855.76 403.818   3
   4  -1  -7 7730.84 294.230   5
   4   1  -6 1938.42 301.971   2
   4   1  -6 1765.43 120.537   6
   4   1  -6 2078.42 266.979   4
   4   1  -6 1742.81 199.822   1
   4  -1  -6 1955.57 182.446   3
   4  -1  -6 1722.96 136.729   5
   4  -1  -5 8802.34 426.916   6
   4   1  -5 8554.32 297.570   6
   4   1  -5 8364.53 629.341   2
   4   1  -5 8349.26 430.126   1
   4   1  -5 9654.53 556.384   4
   4  -1  -5 7774.33 309.735   5
   4  -1  -5 8896.89 383.643   3
   4  -1  -4 5331.96 320.554   6
   4   1  -4 5501.78 244.930   6
   4   1  -4 5030.85 323.752   1
   4   1  -4 5260.41 483.595   2
   4   1  -4 5854.18 414.737   4
   4  -1  -4 4768.56 244.640   5
   4  -1  -4 5622.95 291.936   3
   4   1  -4 5816.86 321.869   5
   4  -1  -3 8726.50 408.023   6
   4   1  -3 8270.36 321.797   6
   4   1  -3 8252.78 412.939   1
   4   1  -3 8983.11 506.786   4
   4  -1  -3 8707.85 354.140   3
   4   1  -3 8572.59 392.014   5
   4  -1  -2 2907.27 232.841   6
   4   1  -2 2803.78 191.152   6
   4   1  -2 2453.85 213.564   1
   4  -1  -2 3016.14 194.295   3
   4   1  -2 3156.34 228.626   5
   4  -1  -1 4494.59 289.860   6
   4   1  -1 4216.89 240.274   6
   4   1  -1 4207.55 268.986   1
   4   1  -1 4621.01 276.982   5
   4  -1  -1 4586.86 232.103   3
  -4  -1  -1 4188.37 172.093   3
   4  -1   0 721.834 117.108   6
   4   1   0 709.132 102.810   6
  -4   1   0 565.638 107.409   6
   4   1   0 651.817 109.010   1
   4  -1   0 745.714 90.9868   3
  -4  -1   0 735.548 76.3075   3
   4   1   1 4086.41 247.350   1
   4  -1   1 3944.25 277.569   6
  -4   1   1 3863.91 264.031   6
   4   1   1 3718.43 237.836   6
  -4  -1   1 3734.33 183.545   3
   4  -1   1 3848.44 199.679   3
   4  -1   2 3410.88 258.901   6
   4   1   2 3024.93 209.747   1
  -4   1   2 3554.94 252.736   6
   4   1   2 2995.55 226.638   6
  -4  -1   2 3194.44 180.705   3
   4  -1   2 3418.34 186.138   3
   4  -1   3 6579.38 260.513   3
   4   1   3 6597.60 308.482   1
   4  -1   3 7453.04 387.554   6
  -4   1   3 7440.33 360.307   6
   4   1   3 6446.44 349.754   6
  -4  -1   3 7218.04 295.564   3
   4  -1   4 5208.31 226.435   3
   4   1   4 5504.99 271.262   1
   4  -1   4 5863.01 345.628   6
  -4   1   4 5734.72 308.033   6
   4   1   4 5193.02 316.777   6
  -4  -1   4 5865.02 275.609   3
   4   1   5 7601.66 321.200   1
   4  -1   5 7805.62 411.900   6
  -4   1   5 7547.08 359.220   6
   4   1   5 7502.18 400.238   6
  -4  -1   5 8439.38 353.157   3
   4  -1   6 1459.97 176.718   6
  -4   1   6 1368.44 144.767   6
   4   1   6 1251.01 172.644   6
  -4  -1   6 1343.32 146.483   3
  -4   1   7 7078.65 339.647   6
   4  -1   7 7788.60 416.220   6
   4   1   7 7564.55 419.196   6
  -4  -1   7 7374.90 318.954   5
  -4   1   8 1937.26 167.729   6
   4  -1   8 1777.19 205.406   6
   4   1   8 1458.99 197.546   6
  -4  -1   8 1869.82 153.674   5
  -4   1   9 5345.24 292.048   6
   4  -1   9 6072.91 384.052   6
   4   1   9 6378.67 406.082   6
  -4  -1   9 5913.05 273.676   5
  -4   1  10 4392.25 262.549   6
   4  -1  10 4140.59 324.866   6
   4   1  10 4604.61 350.186   6
  -4  -1  10 4404.33 233.978   5
  -4   1  11 4368.84 263.173   6
   4  -1  11 4573.44 344.809   6
   4   1  11 4687.63 362.132   6
  -4  -1  11 4329.31 227.777   5
  -4  -1  12 374.690 72.2166   5
  -4   1  12 206.870 64.5984   6
   4  -1  12 219.276 106.709   6
   4   1  12 528.640 129.461   6
  -4   1  13 922.479 118.147   6
   4  -1  13 617.501 141.302   6
   4   1  13 770.813 165.620   6
   4  -1  14 1275.16 201.170   6
   4   1  14 1116.65 198.320   6
   4  -1  15 5943.72 434.378   6
   4   1  15 5395.21 431.586   6
  -4   1  16 2636.51 531.962   2
   4  -1  16 3329.05 336.361   6
   4   1  16 3234.08 342.483   6
  -4   1  17 1166.34 355.680   2
   4  -1  17 1320.69 223.707   6
   4   1  17 1292.32 221.968   6
  -4   1  18 310.886 177.236   2
   4  -1  18 556.087 162.849   6
   4   1  18 708.361 182.684   6
  -4   1  19 4935.14 783.725   2
   4  -1  19 4781.31 429.390   6
   4   1  19 4671.30 424.834   6
  -4   1  20 194.415 168.109   2
  -4  -1  20 697.036 268.393   2
   4  -1  20 495.694 157.886   6
   4   1  20 491.235 154.944   6
  -4  -1  21 868.118 307.524   2
   4  -1  21 1370.45 241.521   6
   4   1  21 1311.60 253.033   6
  -4   1  22 1215.53 429.898   2
  -4  -1  22 1371.96 405.308   2
   4  -1  22 1074.22 215.170   6
   4   1  22 1268.92 243.210   6
  -4   1  23 2545.54 605.101   2
  -4  -1  23 1888.67 480.185   2
   4  -1  23 1335.77 253.419   6
  -4  -1  24 371.055 229.454   2
   4   2 -21 6054.72 762.414   4
   4  -2 -21 4768.06 518.717   1
   4   2 -20 1399.00 368.970   4
   4  -2 -20 1067.87 242.535   1
   4   2 -19 5607.67 683.075   4
   4  -2 -19 5356.47 500.636   1
   4   2 -18 4370.01 584.612   4
   4  -2 -18 3972.07 419.949   1
   4   2 -17 4919.87 548.974   1
   4   2 -17 5654.58 650.999   4
   4  -2 -17 4982.79 453.698   1
   4  -2 -16 2205.98 298.443   1
   4   2 -16 1829.47 359.777   4
   4   2 -16 2245.02 345.108   1
   4   2 -15 10433.0 745.084   1
   4  -2 -15 10387.9 634.658   1
   4   2 -15 12017.9 896.786   4
   4  -2 -15 10648.1 609.397   3
   4  -2 -14 2305.68 285.484   1
   4   2 -14 2541.86 345.678   1
   4   2 -14 2582.35 405.632   4
   4  -2 -14 2432.91 277.854   3
   4   2 -13 6244.72 531.181   1
   4  -2 -13 5633.35 430.455   1
   4   2 -13 5908.34 591.761   4
   4  -2 -13 6075.52 422.122   3
   4   2 -12 219.756 88.7266   1
   4  -2 -12 165.955 85.2305   3
   4  -2 -12 321.928 102.711   1
   4   2 -12 231.590 129.745   4
   4   2 -11 8686.71 591.801   1
   4  -2 -11 8544.73 511.721   1
   4   2 -11 8517.16 668.093   4
   4  -2 -11 8748.03 486.797   3
   4  -2 -10 2923.22 140.073   5
   4   2 -10 4281.76 396.180   1
   4   2 -10 5729.08 458.896   2
   4   2 -10 4103.94 451.556   4
   4  -2 -10 4621.66 340.177   3
   4  -2 -10 3013.45 121.575   5
   4  -2  -9 18965.3 516.333   5
   4   2  -9 20390.4 860.459   1
   4   2  -9 23055.3 929.438   2
   4   2  -9 21308.6 1028.26   4
   4  -2  -9 19432.0 452.973   5
   4  -2  -9 20103.9 723.649   3
   4   2  -8 3235.02 324.928   1
   4   2  -8 2737.37 320.398   2
   4  -2  -8 2844.79 156.741   5
   4  -2  -8 3518.39 281.728   3
   4   2  -7 18397.5 773.073   1
   4   2  -7 17153.6 836.267   2
   4  -2  -7 18449.5 659.838   3
   4   2  -6 9647.06 529.650   1
   4   2  -6 9751.64 615.057   2
   4   2  -6 9346.11 251.679   6
   4  -2  -6 9987.29 458.014   3
   4   2  -5 17178.1 422.691   6
   4  -2  -5 16891.1 601.361   3
   4   2  -5 17573.0 706.072   1
   4   2  -4 1519.90 239.127   2
   4  -2  -4 2634.98 257.749   6
   4   2  -4 2303.52 148.765   6
  -4   2  -4 2076.42 136.247   4
   4   2  -4 2128.91 232.678   1
   4  -2  -4 2334.33 208.750   3
   4  -2  -3 21845.6 769.071   6
   4   2  -3 20461.3 536.522   6
  -4   2  -3 20274.0 557.831   4
   4   2  -3 22169.2 754.048   1
   4  -2  -3 22120.0 677.499   3
   4  -2  -2 5251.96 352.754   6
   4   2  -2 4348.62 243.337   6
  -4   2  -2 4093.77 251.362   4
  -4  -2  -2 5278.19 328.578   5
   4   2  -2 4695.69 320.886   1
   4  -2  -2 4668.18 295.382   3
   4  -2  -1 8772.24 407.043   3
   4  -2  -1 8998.57 467.683   6
   4   2  -1 8517.44 360.510   6
  -4   2  -1 8587.78 393.496   4
  -4  -2  -1 8804.96 427.507   5
   4   2  -1 8185.90 419.003   1
  -4  -2   0 49.9975 55.4399   5
   4  -2   0 8.89606 45.5395   3
   4   2   0 205.094 79.2958   1
   4  -2   0 79.8034 69.6318   6
  -4   2   0 126.968 61.9696   4
   4   2   0 131.357 60.9423   6
   4  -2   1 10943.9 512.061   6
   4   2   1 11169.3 451.943   6
  -4   2   1 9449.31 470.495   4
   4   2   1 11102.4 454.692   1
  -4  -2   1 10913.0 469.649   5
   4  -2   2 6029.18 376.051   6
   4   2   2 5175.03 319.023   6
   4   2   2 5667.21 313.060   1
  -4  -2   2 6027.57 340.093   5
   4  -2   3 17302.4 665.331   6
   4   2   3 16490.1 626.121   6
   4   2   3 17151.6 556.230   1
  -4  -2   3 17240.7 601.996   5
   4   2   4 1326.68 178.127   6
   4  -2   4 1261.71 175.667   6
  -4   2   4 1126.18 177.501   4
   4   2   4 1297.45 141.525   1
  -4  -2   4 1362.80 159.629   5
   4  -2   5 18984.3 715.719   6
   4   2   5 20676.3 726.486   6
   4   2   5 19258.0 570.760   1
  -4  -2   5 19387.6 641.652   5
   4  -2   6 10063.6 507.952   6
   4   2   6 10745.3 524.507   6
   4   2   6 10016.9 378.777   1
  -4  -2   6 10011.1 441.737   5
   4  -2   7 13825.9 603.918   6
   4   2   7 13198.4 610.100   6
   4   2   7 13510.6 442.375   1
  -4  -2   7 13209.5 510.537   5
   4  -2   8 1779.96 227.265   6
   4   2   8 2194.79 253.569   6
   4   2   8 2578.43 175.213   1
  -4  -2   8 2362.82 206.798   5
   4  -2   9 19862.5 762.387   6
   4   2   9 20420.2 806.509   6
  -4  -2   9 19680.5 642.448   5
   4  -2  10 3159.57 296.287   6
   4   2  10 3777.00 338.989   6
   4   2  10 4219.97 214.832   1
  -4  -2  10 3361.50 244.101   5
   4  -2  11 5827.65 403.807   6
   4   2  11 6019.71 447.372   6
  -4  -2  11 5743.21 316.780   5
   4   2  11 6281.15 259.994   1
  -4  -2  12 485.881 90.3880   5
   4  -2  12 480.484 135.692   6
   4   2  12 634.374 155.700   6
   4  -2  13 6115.28 431.365   6
   4   2  13 6224.06 475.805   6
  -4  -2  13 6020.83 322.271   5
   4  -2  14 1698.16 232.306   6
   4   2  14 1669.49 249.605   6
  -4  -2  14 1814.18 171.601   5
   4   2  15 6301.38 486.755   6
   4  -2  15 6500.52 457.607   6
  -4  -2  15 6550.35 326.549   5
   4  -2  16 1992.91 266.802   6
   4   2  16 2044.21 288.822   6
  -4  -2  16 2077.98 178.734   5
   4  -2  17 4588.98 402.831   6
   4   2  17 4355.42 423.695   6
  -4   2  18 2904.21 625.330   2
   4  -2  18 2057.36 280.994   6
   4   2  18 2533.62 326.275   6
  -4   2  19 3287.02 632.278   2
   4  -2  19 2908.05 335.722   6
   4   2  19 2773.43 340.348   6
  -4   2  20 543.347 225.257   2
   4  -2  20 430.948 153.233   6
   4   2  20 726.305 190.059   6
  -4   2  21 3772.88 710.869   2
   4  -2  21 3673.52 395.526   6
   4   2  21 4254.00 431.225   6
   4  -2  22 910.496 213.664   6
   4   3 -20 619.098 258.466   4
   4  -3 -19-6.16845 104.714   1
   4   3 -19 11.3768 120.107   4
   4  -3 -18 488.432 173.010   3
   4  -3 -18 447.831 150.435   1
   4   3 -18 564.245 247.065   4
   4  -3 -17 727.689 197.429   3
   4   3 -17 741.062 257.520   4
   4  -3 -17 862.211 203.676   1
   4  -3 -16 1502.62 256.011   3
   4   3 -16 894.263 287.388   4
   4  -3 -16 1560.89 253.994   1
   4  -3 -15 446.554 165.355   3
   4  -3 -15 203.413 90.8080   1
   4   3 -15 320.542 180.385   4
   4  -3 -14 4529.79 402.459   1
   4   3 -14 4712.74 574.385   4
   4  -3 -14 4383.92 407.929   3
   4  -3 -13 2057.22 271.888   1
   4   3 -13 1608.64 329.767   4
   4  -3 -13 2283.04 286.757   3
   4   3 -12 10545.3 824.695   4
   4  -3 -12 8745.38 553.551   3
   4  -3 -11 642.971 155.609   3
   4   3 -11 146.837 95.0545   1
   4   3 -10 4390.89 440.515   1
   4  -3 -10 5273.02 408.206   3
   4  -3  -9 1220.72 137.108   5
   4  -3  -9 1474.59 212.622   3
   4   3  -9 1290.10 233.517   1
   4  -3  -8 1831.74 181.376   5
   4  -3  -8 1479.80 217.223   3
   4   3  -8 1681.90 268.178   1
   4   3  -7 0.37910 71.8331   1
   4  -3  -7-51.4326 74.3509   3
  -4  -3  -7 0.48369 24.8302   3
   4  -3  -7-54.3611 55.1667   5
   4   3  -7-21.9824 40.0096   2
  -4  -3  -6 667.384 154.527   5
   4  -3  -6 901.168 170.881   3
   4  -3  -6 796.255 135.516   5
   4   3  -6 885.333 79.3313   6
   4   3  -6 825.845 132.239   2
   4   3  -6 829.305 178.720   1
  -4  -3  -5 249.156 105.343   5
   4  -3  -5 189.908 83.1424   3
   4  -3  -5 211.793 79.2529   5
   4   3  -5 325.281 67.6380   6
   4   3  -5 143.518 88.0227   1
   4   3  -5 219.340 72.2065   2
   4  -3  -4 1673.36 225.369   3
   4   3  -4 1490.06 141.607   6
   4   3  -4 1437.99 213.651   1
  -4  -3  -4 1526.74 206.349   5
   4   3  -4 952.752 161.911   2
  -4  -3  -3 365.289 119.081   5
   4   3  -3 371.820 117.547   2
   4  -3  -3 350.803 117.992   3
   4   3  -3 374.307 116.032   1
   4   3  -3 331.607 82.1080   6
   4   3  -2 7801.88 482.695   1
   4  -3  -2 8124.19 507.821   6
   4   3  -2 8198.82 381.101   6
  -4  -3  -2 7914.47 466.971   5
  -4  -3  -1 1207.45 184.148   5
   4   3  -1 1014.98 174.525   1
   4  -3  -1 1247.99 198.807   6
   4   3  -1 1224.49 154.823   6
   4   3   0 11505.8 574.109   1
   4  -3   0 11999.8 615.761   6
   4   3   0 11625.0 517.934   6
  -4  -3   0 12086.1 571.366   5
   4   3   1 1313.14 188.686   1
   4   3   1 1282.40 181.647   6
   4  -3   1 1297.31 198.514   6
  -4  -3   1 1511.93 201.986   5
   4   3   2 7784.51 449.621   1
   4  -3   2 7910.65 478.569   6
   4   3   2 7504.18 428.840   6
  -4  -3   2 7500.14 451.143   5
  -4  -3   3 290.393 88.1777   5
   4   3   3 255.424 94.0899   1
   4  -3   3 217.106 95.2906   6
   4   3   3 305.954 98.0485   6
   4   3   4 2326.64 251.381   1
   4  -3   4 1727.20 230.601   6
   4   3   4 1951.60 234.284   6
  -4  -3   4 1876.15 218.376   5
  -4  -3   5 334.582 88.0755   5
   4   3   5 372.834 115.625   1
   4  -3   5 189.421 94.7234   6
   4   3   5 286.920 93.7596   6
  -4  -3   6 831.299 146.462   5
   4  -3   6 365.116 126.366   6
   4   3   6 584.176 141.564   6
  -4  -3   7 142.454 85.9912   5
   4  -3   7-46.5058 75.5558   6
   4   3   7-0.31820 78.4904   6
   4   3   8 1971.07 254.873   6
   4  -3   8 1787.41 238.941   6
  -4  -3   8 2141.12 235.917   5
  -4  -3   9 973.632 165.069   5
   4  -3   9 743.872 158.745   6
   4   3   9 812.412 180.778   6
   4  -3  10 3784.20 338.912   6
   4   3  10 3822.96 365.711   6
  -4  -3  10 4065.40 330.434   5
  -4  -3  11 520.714 124.085   5
   4  -3  11 571.429 153.236   6
   4   3  11 396.065 144.103   6
   4  -3  12 7359.39 486.389   6
   4   3  12 6862.64 524.043   6
  -4  -3  12 7948.52 461.830   5
   4  -3  13 1481.14 228.155   6
   4   3  13 1684.10 261.197   6
  -4  -3  13 1729.91 212.632   5
   4  -3  14 3072.84 331.452   6
   4   3  14 3965.88 396.555   6
  -4  -3  14 3748.11 313.470   5
  -4  -3  15 499.073 107.755   5
   4  -3  15 242.678 110.539   6
   4   3  15 461.907 145.450   6
  -4  -3  16 1034.47 159.661   5
   4  -3  16 908.346 189.392   6
   4   3  16 955.638 221.995   6
   4  -3  17 425.983 135.934   6
   4   3  17 543.007 184.166   6
   4  -3  18 164.995 87.8356   6
   4   3  18 281.311 148.569   6
   4  -3  19-82.0585 103.795   6
   4   3  19 47.5141 100.702   6
   4  -3  20 464.820 151.402   6
   4  -3  21 517.238 170.161   6
   4   4 -17 2474.68 477.870   4
   4  -4 -17 2573.63 341.102   1
   4  -4 -17 3386.05 423.748   3
   4  -4 -16 2568.22 337.781   1
   4   4 -16 3703.24 573.474   4
   4  -4 -16 3565.42 422.576   3
   4  -4 -15 2239.01 334.870   3
   4  -4 -15 1560.15 265.986   1
   4   4 -15 1393.17 348.509   4
   4   4 -14 3169.33 517.214   4
   4  -4 -14 3261.16 394.814   3
   4  -4 -13 2055.81 317.743   3
   4  -4 -12 5303.40 474.532   3
   4  -4 -11 2147.47 311.439   3
   4  -4 -10 7460.00 549.163   3
   4  -4  -9 3286.45 368.625   3
   4  -4  -8 8638.25 461.527   5
  -4  -4  -8 7654.92 536.393   5
   4  -4  -8 8224.33 576.687   3
   4  -4  -7 6721.52 421.141   5
  -4  -4  -7 6685.26 489.582   5
   4  -4  -7 6689.16 519.923   3
   4  -4  -6 5690.25 475.399   3
   4  -4  -6 6226.00 414.321   5
   4   4  -6 6569.31 309.596   6
  -4  -4  -6 5804.08 446.487   5
   4  -4  -5 4482.23 435.685   3
   4  -4  -5 4077.84 349.328   5
   4   4  -5 4968.14 295.863   6
  -4  -4  -5 4256.86 387.510   5
   4  -4  -4 9106.94 608.806   3
   4  -4  -4 8994.57 527.548   5
   4   4  -4 10467.4 470.818   6
  -4  -4  -4 9112.41 566.518   5
   4  -4  -3 5266.17 407.380   5
   4   4  -3 6299.65 379.743   6
  -4  -4  -3 5293.42 434.157   5
   4  -4  -2 5139.21 406.454   5
   4   4  -2 6159.91 400.917   6
  -4  -4  -2 5471.17 443.960   5
   4  -4  -1 2385.60 284.636   5
   4   4  -1 2943.01 286.404   6
  -4  -4  -1 2699.34 308.299   5
   4  -4   0 5997.12 454.274   5
   4  -4   0 6313.88 490.449   6
   4   4   0 6314.55 424.984   6
  -4  -4   0 6030.53 459.899   5
   4  -4   1 1741.51 252.842   5
   4  -4   1 1947.55 271.574   6
   4   4   1 1543.82 225.890   6
  -4  -4   1 2172.88 282.665   5
   4   4   2 5480.13 422.781   6
   4  -4   2 5849.59 464.540   6
  -4  -4   2 6629.87 485.798   5
   4  -4   3 5782.45 460.144   6
   4   4   3 4956.51 414.991   6
  -4  -4   3 5733.07 453.883   5
   4  -4   4 8615.19 555.532   6
   4   4   4 8015.08 529.783   6
  -4  -4   4 8096.92 548.679   5
   4  -4   5 3058.07 333.864   6
   4   4   5 2834.58 312.404   6
  -4  -4   5 3091.27 340.278   5
   4  -4   6 5804.24 450.580   6
   4   4   6 4741.70 428.589   6
  -4  -4   6 5699.56 459.562   5
   4  -4   7 5869.79 462.038   6
   4   4   7 5691.20 465.614   6
  -4  -4   7 7130.54 516.986   5
   4  -4   8 8274.05 542.098   6
   4   4   8 7026.39 545.166   6
  -4  -4   8 8002.93 556.079   5
   4  -4   9 2089.53 276.486   6
   4   4   9 1719.31 265.667   6
  -4  -4   9 2163.04 287.730   5
   4  -4  10 5296.59 434.217   6
   4   4  10 5175.01 463.891   6
  -4  -4  10 4955.89 439.333   5
   4  -4  11 2692.05 318.456   6
   4   4  11 2273.09 320.248   6
  -4  -4  11 2580.68 316.333   5
   4  -4  12 4442.96 405.525   6
   4   4  12 3723.94 421.979   6
  -4  -4  12 4241.08 409.150   5
  -4  -4  13 804.476 182.896   5
   4  -4  13 842.392 193.498   6
   4   4  13 683.560 192.520   6
   4  -4  14 2798.38 333.514   6
   4   4  14 1942.98 313.206   6
  -4  -4  14 2603.37 317.406   5
  -4  -4  15 1728.15 254.132   5
   4  -4  15 1987.08 287.253   6
   4   4  15 1670.66 291.355   6
   4  -4  16 2759.31 335.010   6
   4   4  16 2262.72 329.832   6
  -4  -4  16 2891.54 336.764   5
  -4  -4  17 1845.43 271.429   5
   4  -4  17 2331.30 315.756   6
   4   4  17 2090.45 334.917   6
   4  -4  18 670.344 183.892   6
   4  -4  19 1787.75 295.746   6
   4  -5 -14 1100.27 267.696   3
   4  -5 -13 6.60385 98.8630   3
   4  -5 -12 737.530 229.893   3
   4  -5 -11 486.825 166.793   3
  -4  -5 -10 431.391 169.812   5
   4  -5 -10 229.384 135.891   3
  -4  -5  -9 119.068 78.6478   5
   4  -5  -9 188.392 136.776   3
   4  -5  -8 3178.07 404.347   3
  -4  -5  -8 2853.68 352.595   5
  -4  -5  -7 1480.44 252.054   5
   4  -5  -7 1345.29 262.024   3
   4  -5  -7 1797.37 235.300   5
   4  -5  -6 2846.27 400.754   3
   4  -5  -6 3506.70 345.826   5
  -4  -5  -6 3446.45 391.849   5
  -4  -5  -5 676.786 182.749   5
   4  -5  -5 768.721 215.037   3
   4  -5  -5 790.540 178.709   5
  -4  -5  -4 1741.01 288.445   5
   4  -5  -4 1442.16 234.355   5
  -4  -5  -3 805.142 208.903   5
   4  -5  -3 1113.86 203.506   5
  -4  -5  -2 1009.02 218.519   5
   4  -5  -2 1298.25 226.063   5
  -4  -5  -1 247.135 132.794   5
   4  -5  -1 189.980 103.755   5
  -4  -5   0-26.9368 122.901   5
   4  -5   0 11.0274 71.5152   5
  -4  -5   1 27.1951 93.4311   5
   4  -5   1 76.0398 88.8450   5
  -4  -5   2 1413.71 254.216   5
   4  -5   2 1024.33 232.956   5
  -4  -5   3 1119.92 241.535   5
   4  -5   3 892.539 213.227   5
  -4  -5   4 1608.63 274.850   5
   4  -5   4 1596.49 275.060   6
   4  -5   4 1621.80 279.771   5
  -4  -5   5 494.977 169.815   5
   4  -5   5 463.223 173.912   5
   4  -5   5 510.452 182.949   6
   4  -5   6 3523.01 407.069   5
   4  -5   6 3463.92 389.443   6
  -4  -5   6 3099.79 386.696   5
  -4  -5   7 1631.16 290.840   5
   4  -5   7 1927.87 309.436   5
   4  -5   7 1168.41 236.522   6
   4  -5   8 2489.47 353.723   5
   4  -5   8 2779.30 351.663   6
  -4  -5   8 3023.91 391.019   5
  -4  -5   9 256.013 136.702   5
   4  -5   9 320.192 152.289   5
   4  -5   9 374.070 141.317   6
   4   5   9 117.285 82.2021   6
  -4  -5  10 135.486 76.8597   5
   4  -5  10 414.168 177.379   5
   4  -5  10 354.504 153.516   6
   4   5  10-92.4181 134.735   6
  -4  -5  11 450.614 170.216   5
   4  -5  11 552.167 177.653   5
   4  -5  11 575.322 180.641   6
   4   5  11 344.461 154.865   6
  -4  -5  12 439.249 157.293   5
   4  -5  12 470.254 175.468   5
   4  -5  12 602.532 189.121   6
   4   5  12 500.916 173.665   6
  -4  -5  13 7.29091 68.9576   5
   4  -5  13-30.9402 106.218   5
   4  -5  13 25.5350 99.3336   6
   4   5  13 273.437 175.221   2
   4   5  13 33.3134 116.410   6
  -4  -5  14 357.768 156.227   5
   4  -5  14 929.364 256.186   5
   4  -5  14 897.537 222.655   6
   4   5  14 978.961 279.034   2
   4   5  14 840.956 220.775   6
  -4  -5  15 345.284 168.596   5
   4  -5  15 380.291 166.847   6
   4   5  15 852.053 254.884   2
  -4  -5  16 619.665 214.867   5
   4  -5  16 563.529 168.862   6
  -4  -5  17 213.049 120.789   5
   4   5  17 877.456 294.403   2
  -4  -6 -11 1938.82 350.433   5
  -4  -6 -10 2374.26 376.828   5
  -4  -6  -9 2288.03 369.038   5
   4  -6  -9 2213.10 390.283   3
  -4  -6  -8 369.373 161.666   5
   4  -6  -8 289.013 201.767   3
  -4  -6  -7 1837.16 332.133   5
   4  -6  -7 1293.74 281.036   3
  -4  -6  -6 1348.64 281.127   5
   4  -6  -6 890.849 250.523   3
  -4  -6  -5 2267.08 357.923   5
   4  -6  -5 2152.77 296.159   5
  -4  -6  -4 108.453 109.123   5
   4  -6  -4 282.198 147.945   5
   4  -6  -3 4137.55 429.360   5
  -4  -6  -3 4078.78 497.547   5
   4  -6  -2 5656.79 515.073   5
  -4  -6  -2 5372.34 540.432   5
   4  -6  -1 4488.87 466.223   5
  -4  -6  -1 4941.93 528.410   5
  -4  -6   0 272.124 148.722   5
   4  -6   0 98.5137 99.5353   5
   4  -6   1 3500.38 416.822   5
  -4  -6   1 3756.80 459.061   5
   4  -6   2 4891.92 503.276   5
  -4  -6   2 5355.26 557.320   5
   4  -6   3 4215.64 474.453   5
  -4  -6   3 4667.89 524.291   5
  -4  -6   4 127.624 125.430   5
   4  -6   4 447.692 172.438   5
  -4  -6   5 1248.27 277.511   5
   4  -6   5 1343.26 276.893   5
  -4  -6   6 902.295 240.740   5
   4  -6   6 1071.05 256.879   5
  -4  -6   7 2093.83 372.598   5
   4  -6   7 2113.59 345.270   5
  -4  -6   8 203.590 132.028   5
   4  -6   8 162.312 146.314   5
  -4  -6   9 1569.10 313.292   5
   4  -6   9 1712.12 326.259   5
   4  -6   9 1675.87 300.091   6
  -4  -6  10 2016.97 369.168   5
   4  -6  10 2350.97 362.465   6
  -4  -6  11 2124.67 376.835   5
   4   6  11 1006.37 241.693   6
  -4  -6  12 289.071 160.303   5
   4  -7  -2 394.836 165.384   5
   4  -7  -1 799.533 223.916   5
   4  -7   0 186.777 140.837   5
   4  -7   1 609.098 203.844   5
   4  -7   2 63.7251 117.553   5
   5   0 -22-112.477 149.553   1
   5   0 -21 4071.05 540.769   1
   5   0 -20-23.5282 147.474   1
   5   0 -19 8080.46 711.166   1
   5   0 -18-15.7117 109.636   1
   5   0 -17 7535.37 645.352   1
   5   0 -16-77.3545 106.296   1
   5   0 -15 3485.78 411.205   1
   5   0 -14-111.188 98.8224   1
   5   0 -13 69.2193 80.2631   1
   5   0 -12 34.1226 107.202   1
   5   0 -11 499.451 134.230   1
   5   0 -10-75.4307 107.541   1
   5   0  -9 8319.47 516.087   1
   5   0  -8-26.7879 56.2308   4
   5   0  -8 7.86097 61.0953   1
   5   0  -7 13357.5 630.627   1
   5   0  -7 14880.0 793.871   4
   5   0  -6 21.9209 42.8604   5
   5   0  -6 7.73606 53.7522   6
   5   0  -6 53.3915 98.9308   4
   5   0  -6-35.3778 59.5742   1
   5   0  -5 17166.0 591.182   6
   5   0  -5 17652.2 693.267   1
   5   0  -5 19365.0 847.251   4
   5   0  -5 16507.2 590.190   5
   5   0  -4 44.5670 54.1733   1
   5   0  -4 37.1006 56.8986   6
   5   0  -4-10.3485 63.4511   4
   5   0  -3 5104.69 347.982   1
   5   0  -3 5861.25 333.198   6
   5   0  -3 5312.89 402.536   4
   5   0  -2 5.62668 45.4265   1
   5   0  -2 13.4690 52.3504   6
   5   0  -2-9.57720 43.1599   4
   5   0  -1 496.049 100.241   6
   5   0  -1 421.858 109.519   4
   5   0   0-12.3036 43.2843   4
   5   0   0 29.8679 54.2934   6
   5   0   1 511.534 99.5021   4
   5   0   1 576.575 120.154   6
   5   0   2-7.88720 38.8246   4
   5   0   2 56.7946 57.5870   6
  -5   0   2 23.6252 37.9426   6
   5   0   3 5102.21 338.349   6
  -5   0   3 4778.03 288.166   6
   5   0   4 48.9156 61.7068   6
  -5   0   4-18.4558 36.5202   6
   5   0   5 15967.0 651.973   6
  -5   0   5 15795.2 516.561   6
   5   0   6 40.4670 64.0176   6
  -5   0   6 1.20989 36.9669   6
   5   0   7 11890.5 569.858   6
  -5   0   7 11579.2 406.148   6
   5   0   8 23.8785 61.2254   6
  -5   0   8 51.0926 48.4727   6
   5   0   9 6863.58 443.447   6
  -5   0   9 6184.08 265.086   6
   5   0  10 105.491 88.9137   6
   5   0  11 687.318 153.500   6
   5   0  12 77.2258 74.0120   6
   5   0  13 240.262 114.451   6
   5   0  14 54.7572 97.8571   6
   5   0  15 1993.37 280.180   6
   5   0  16 159.747 130.352   6
   5   0  17 4142.95 415.981   6
   5   0  18 101.475 94.1703   6
   5   0  19 5237.55 479.642   6
   5   0  20 155.630 129.537   6
   5  -1 -22 1502.60 335.218   1
   5  -1 -21 1054.09 284.084   1
   5   1 -21 808.779 263.536   1
   5   1 -20 1193.33 314.780   1
   5  -1 -20 1327.96 297.794   1
   5   1 -19 181.379 163.326   1
   5  -1 -19 262.299 142.457   1
   5  -1 -18 1923.87 337.946   1
   5   1 -18 2545.11 410.143   1
   5  -1 -17 1257.34 254.324   1
   5   1 -17 872.508 228.007   1
   5   1 -16 2019.92 333.666   1
   5  -1 -16 1661.26 288.598   1
   5   1 -16 2093.72 406.504   4
   5   1 -15 1452.55 273.286   1
   5  -1 -15 1289.77 250.206   1
   5   1 -15 1461.65 323.305   4
   5   1 -14 4470.64 460.204   1
   5   1 -14 3905.57 505.037   4
   5  -1 -14 4174.60 409.632   1
   5   1 -13 1647.85 320.500   4
   5   1 -13 1554.85 270.611   1
   5  -1 -13 1503.87 249.416   1
   5  -1 -12 5490.79 460.582   1
   5   1 -12 6486.73 614.414   4
   5   1 -12 6515.78 527.240   1
   5   1 -11 1859.45 319.874   4
   5  -1 -11 1887.74 251.723   1
   5   1 -11 2141.20 290.214   1
   5  -1 -10 4372.66 374.033   1
   5   1 -10 5182.80 520.582   4
   5   1 -10 4592.17 410.672   1
   5  -1  -9 2336.20 275.070   1
   5   1  -9 2304.25 339.747   4
   5   1  -9 2441.08 294.496   1
   5  -1  -8 3275.62 313.765   1
   5   1  -8 3805.16 417.573   4
   5   1  -8 3499.76 333.175   1
   5  -1  -7 918.766 147.248   3
   5   1  -7 706.443 153.679   1
   5  -1  -7 571.268 130.831   1
   5   1  -7 732.953 94.3784   6
   5   1  -7 860.769 202.599   4
   5  -1  -6 3223.53 280.558   6
   5   1  -6 2962.14 192.360   6
   5   1  -6 3784.70 389.709   4
   5   1  -6 3234.91 298.807   1
   5  -1  -6 3335.07 260.701   3
   5   1  -5 1409.35 196.554   1
   5   1  -5 1587.90 148.747   6
   5   1  -5 1568.86 245.703   4
   5  -1  -5 1487.12 188.193   6
   5  -1  -5 1664.93 179.913   3
   5  -1  -5 1422.19 151.959   5
   5  -1  -4 3632.73 291.312   6
   5   1  -4 3479.46 229.118   6
   5   1  -4 3369.12 293.918   1
   5   1  -4 3334.61 351.216   4
   5  -1  -4 3908.85 265.222   3
   5  -1  -4 3109.91 229.251   5
   5  -1  -3 4410.94 323.731   6
   5   1  -3 4558.72 270.667   6
   5   1  -3 4179.84 319.837   1
   5   1  -3 4617.95 390.950   4
   5  -1  -3 4780.00 288.116   3
   5  -1  -2 6050.44 379.188   6
   5   1  -2 5552.41 308.458   6
   5   1  -2 5667.75 366.343   1
   5   1  -2 5723.79 431.947   4
   5  -1  -2 6269.35 320.668   3
   5  -1  -1 2332.13 236.101   6
   5   1  -1 2119.68 191.927   6
   5   1  -1 1883.94 212.114   1
   5   1  -1 2183.02 249.775   4
   5  -1  -1 2141.72 184.874   3
   5  -1   0 6406.01 397.295   6
   5   1   0 5814.25 362.283   1
   5   1   0 6145.18 348.053   6
   5   1   0 6371.72 417.554   4
   5  -1   0 7072.10 319.594   3
  -5  -1   1 963.313 115.985   3
   5  -1   1 1581.19 201.025   6
   5   1   1 1520.44 177.952   1
   5   1   1 1478.51 173.637   6
   5   1   1 1433.21 192.292   4
   5  -1   1 1858.70 153.997   3
   5   1   2 5911.68 344.254   1
   5  -1   2 6355.64 397.304   6
   5   1   2 6288.91 362.582   6
   5  -1   2 6764.47 286.807   3
  -5  -1   2 6557.39 297.074   3
   5   1   3 3664.26 260.744   1
   5  -1   3 3704.56 306.629   6
   5   1   3 3365.59 269.130   6
   5  -1   3 3767.63 204.088   3
  -5  -1   3 3613.75 224.746   3
   5   1   4 3685.27 260.797   1
   5  -1   4 3550.62 297.574   6
   5   1   4 3963.03 300.770   6
   5  -1   4 3667.06 191.013   3
  -5  -1   4 3959.31 245.666   3
   5   1   5 950.490 132.097   1
   5  -1   5 807.342 152.048   6
   5   1   5 865.670 147.398   6
   5  -1   5 818.453 84.4919   3
   5   1   6 2939.71 223.281   1
   5  -1   6 2725.75 270.898   6
   5   1   6 2596.82 257.204   6
   5  -1   6 1996.07 127.950   3
   5  -1   7 430.901 55.4524   3
   5   1   7 505.483 99.9394   1
   5  -1   7 908.199 165.971   6
  -5   1   7 823.988 122.494   6
   5   1   7 670.877 135.725   6
   5   1   8 2683.18 208.830   1
   5  -1   8 2796.90 279.918   6
   5   1   8 2885.69 281.468   6
   5   1   9 2122.43 185.062   1
   5  -1   9 2548.55 274.786   6
   5   1   9 2443.30 279.269   6
   5  -1  10 3294.17 312.362   6
   5   1  10 3587.31 335.198   6
   5  -1  11 1927.57 254.711   6
   5   1  11 2127.85 267.795   6
   5  -1  12 4364.19 388.781   6
   5   1  12 4460.01 392.779   6
   5   1  13 694.268 95.9713   1
   5  -1  13 1053.57 202.591   6
   5   1  13 1027.99 197.089   6
   5  -1  14 3507.48 358.972   6
   5   1  14 3907.10 387.222   6
   5  -1  15 611.480 173.515   6
   5   1  15 634.064 173.476   6
   5  -1  16 1582.27 261.333   6
   5   1  16 1535.38 262.201   6
   5  -1  17 531.908 167.761   6
   5   1  17 451.955 151.907   6
   5  -1  18 1354.43 252.130   6
   5   1  18 1710.65 290.318   6
   5  -1  19 123.654 113.409   6
   5   1  19 64.7691 121.498   6
   5  -1  20 863.474 218.552   6
   5   1  20 512.817 180.693   6
   5  -2 -21 1114.45 286.207   1
   5  -2 -20 1150.20 282.477   1
   5  -2 -19 443.721 157.549   1
   5   2 -19 283.635 219.962   1
   5   2 -19 377.955 225.192   4
   5  -2 -18 470.556 157.670   1
   5   2 -18 320.713 204.331   4
   5   2 -18 562.318 220.265   1
   5  -2 -17 553.664 183.144   1
   5   2 -17 186.511 130.566   1
   5   2 -17 233.400 123.810   4
   5  -2 -16 1480.44 269.737   1
   5   2 -16 1645.67 328.067   1
   5   2 -16 1305.28 340.146   4
   5   2 -15 1677.76 322.070   1
   5   2 -15 1858.82 381.655   4
   5  -2 -15 1663.31 287.610   1
   5   2 -14 3380.74 425.800   1
   5  -2 -14 2902.27 351.104   1
   5   2 -14 3529.59 501.388   4
   5   2 -13 3216.67 411.414   1
   5  -2 -13 3413.97 370.242   1
   5   2 -13 3535.76 486.812   4
   5  -2 -13 3357.91 343.396   3
   5   2 -12 4169.34 451.946   1
   5  -2 -12 3336.06 351.031   1
   5   2 -12 3040.86 439.583   4
   5  -2 -12 3957.40 356.605   3
   5   2 -11 4004.20 419.696   1
   5  -2 -11 3712.48 361.482   1
   5   2 -11 3906.81 490.633   4
   5  -2 -11 4054.96 352.033   3
   5   2 -10 3500.82 387.642   1
   5  -2 -10 3164.32 333.415   1
   5   2 -10 3115.79 423.752   4
   5  -2 -10 3443.06 313.982   3
   5   2  -9 1909.43 277.474   1
   5   2  -9 2112.91 332.070   4
   5  -2  -9 2123.02 243.602   3
   5  -2  -8 1510.91 197.103   3
   5   2  -8 1406.22 273.761   4
   5   2  -8 1649.27 253.766   1
   5  -2  -7 927.556 156.373   3
   5   2  -7 879.426 210.942   4
   5   2  -7 1062.15 192.926   1
   5  -2  -6 852.536 146.514   3
   5   2  -6 729.806 80.3340   6
   5   2  -6 860.340 211.278   4
   5   2  -6 1032.62 194.684   1
   5  -2  -5 847.024 139.756   3
   5  -2  -5 701.742 151.578   6
   5   2  -5 866.806 95.7162   6
   5   2  -5 828.445 170.278   1
   5   2  -4 2018.20 162.715   6
   5  -2  -4 1707.51 234.026   6
   5   2  -4 1894.30 238.115   1
   5  -2  -4 1970.66 203.675   3
   5  -2  -3 2834.06 287.531   6
   5   2  -3 2787.94 203.578   6
   5   2  -3 2482.38 260.599   1
   5  -2  -3 2470.70 222.018   3
   5  -2  -2 3662.54 325.517   6
   5   2  -2 3611.89 238.990   6
   5   2  -2 3974.80 318.683   1
   5  -2  -2 3560.96 266.357   3
  -5  -2  -2 2728.52 136.938   3
   5  -2  -1 3596.96 317.823   6
   5   2  -1 3691.68 255.044   6
   5   2  -1 3940.65 311.205   1
  -5  -2  -1 3333.82 170.256   3
   5  -2  -1 3556.51 262.439   3
   5  -2   0 4816.26 367.957   6
   5   2   0 4453.90 292.411   6
   5   2   0 4877.67 335.428   1
  -5  -2   0 4407.73 218.400   3
   5  -2   0 5277.21 314.896   3
   5  -2   1 3637.32 322.927   6
   5   2   1 3562.12 269.452   6
   5   2   1 3802.28 284.150   1
  -5  -2   1 3547.28 208.882   3
   5  -2   1 3684.89 261.089   3
   5  -2   2 4586.15 360.644   6
   5   2   2 4089.61 300.430   6
  -5   2   2 3805.40 332.485   4
   5   2   2 3565.12 276.089   1
  -5  -2   2 3726.01 226.008   3
   5  -2   2 3863.67 266.618   3
   5  -2   3 1879.24 184.861   3
   5  -2   3 1872.52 240.101   6
   5   2   3 2139.78 232.368   6
   5   2   3 1894.81 192.709   1
  -5  -2   3 1954.61 168.807   3
   5  -2   4 1303.27 155.686   3
   5  -2   4 1809.06 230.755   6
   5   2   4 1561.99 199.264   6
   5   2   4 1544.85 167.741   1
  -5  -2   4 1461.06 177.853   5
  -5  -2   5 746.599 130.863   5
   5   2   5 713.829 113.854   1
   5  -2   5 600.836 142.665   6
   5   2   5 858.108 153.238   6
  -5  -2   6 745.086 130.709   5
   5   2   6 725.844 109.978   1
   5  -2   6 360.899 105.628   6
   5   2   6 1002.61 184.214   6
  -5  -2   7 1059.95 149.237   5
   5   2   7 918.658 123.515   1
   5  -2   7 1213.43 195.404   6
   5   2   7 1155.71 188.574   6
   5  -2   8 1106.37 189.647   6
   5   2   8 1115.67 133.688   1
   5   2   8 1060.83 201.187   6
  -5  -2   8 1279.87 166.828   5
   5   2   9 1775.15 250.068   6
   5  -2   9 1721.11 239.846   6
   5   2   9 1541.51 154.156   1
  -5  -2   9 1534.54 175.890   5
   5  -2  10 2436.34 294.164   6
   5   2  10 2959.08 321.150   6
   5   2  10 2723.48 201.867   1
  -5  -2  10 2431.42 217.176   5
   5  -2  11 3288.87 343.485   6
   5   2  11 3571.85 362.359   6
  -5  -2  11 3713.88 264.702   5
   5  -2  12 3368.67 335.242   6
   5   2  12 3074.44 355.755   6
  -5  -2  12 3160.08 242.888   5
   5  -2  13 2189.95 283.179   6
   5   2  13 2174.32 311.215   6
  -5  -2  13 2247.51 201.956   5
   5  -2  14 2631.27 314.515   6
   5   2  14 2701.85 338.574   6
  -5  -2  14 2845.50 224.834   5
   5  -2  15 1002.95 210.404   6
   5   2  15 997.742 219.006   6
   5  -2  16 969.424 209.870   6
   5   2  16 1210.63 237.102   6
   5  -2  17 425.797 135.045   6
   5   2  17 166.501 106.622   6
   5  -2  18 256.445 131.652   6
   5   2  18 291.465 130.607   6
   5  -2  19 247.453 156.526   6
   5   2  19 455.458 162.437   6
   5  -3 -19 2953.58 403.323   1
   5  -3 -18 571.266 204.644   1
   5  -3 -17 3879.91 461.315   1
   5   3 -17 3710.87 585.652   4
   5  -3 -17 4404.75 460.987   3
   5  -3 -16 552.042 182.275   3
   5   3 -16 295.011 156.309   4
   5  -3 -16 103.041 104.766   1
   5  -3 -15 2163.03 312.551   3
   5   3 -15 1946.85 401.884   4
   5  -3 -15 1462.84 260.567   1
   5  -3 -14 186.728 122.718   3
   5   3 -14 121.309 150.592   1
   5  -3 -14 190.932 145.163   1
   5   3 -14 224.498 176.524   4
   5  -3 -13 420.281 148.268   3
   5  -3 -13 182.750 125.721   1
   5   3 -13 260.772 140.770   1
   5   3 -13 346.808 166.333   4
   5  -3 -12 91.1980 84.9383   3
   5   3 -12 45.6383 95.5940   1
   5   3 -12-19.5447 89.0065   4
   5  -3 -11 365.694 123.067   3
   5   3 -11 383.655 166.539   1
   5   3 -11 623.461 223.042   4
   5  -3 -10 139.492 82.0453   3
   5   3 -10 258.854 145.424   4
   5   3 -10 136.833 88.8079   1
   5   3  -9 2779.71 352.885   1
   5  -3  -9 3756.09 352.902   3
   5  -3  -8 883.388 176.505   3
   5   3  -8 532.908 162.340   1
   5  -3  -8 771.182 122.021   5
   5  -3  -7 5988.06 380.910   5
   5   3  -7 5640.52 490.782   1
   5  -3  -7 6054.29 439.700   3
   5   3  -6 769.298 182.069   1
   5  -3  -6 1113.01 193.564   3
   5   3  -5 6615.73 496.438   1
   5  -3  -5 7294.47 473.329   3
   5  -3  -4 684.005 157.739   3
   5   3  -4 497.856 88.4084   6
   5   3  -4 431.984 142.333   1
   5   3  -3 3322.88 341.153   1
   5  -3  -3 3464.62 356.111   6
   5   3  -3 3327.65 235.432   6
   5  -3  -3 3708.30 338.405   3
  -5  -3  -2 170.113 98.4273   5
   5  -3  -2 321.724 104.055   3
   5  -3  -2 472.435 139.957   6
   5   3  -2 221.668 97.8581   1
   5   3  -2 265.975 71.0749   6
  -5  -3  -1 1005.43 184.402   5
   5  -3  -1 684.310 136.562   3
   5  -3  -1 814.860 177.010   6
   5   3  -1 604.096 141.805   1
   5   3  -1 911.289 143.658   6
  -5  -3   0 30.3931 74.7990   5
   5  -3   0-15.9790 65.1107   6
   5   3   0 3.85339 50.6294   1
   5   3   0-57.2537 56.3514   6
  -5  -3   1 657.269 146.006   5
   5  -3   1 551.863 142.881   3
   5  -3   1 663.279 153.696   6
   5   3   1 482.308 125.459   1
   5   3   1 598.826 133.636   6
  -5  -3   2 444.120 121.958   5
   5  -3   2 286.588 119.094   6
   5   3   2 346.422 119.021   1
   5   3   2 291.216 108.042   6
   5   3   3 3310.06 307.637   1
   5  -3   3 2993.15 328.955   6
   5   3   3 3529.54 324.094   6
  -5  -3   3 2915.60 287.247   5
  -5  -3   4 491.225 126.810   5
   5  -3   4 605.943 163.857   6
   5   3   4 296.651 99.3160   1
   5   3   4 328.564 121.463   6
   5   3   5 6993.75 440.578   1
   5  -3   5 6888.80 482.110   6
   5   3   5 6643.33 467.034   6
  -5  -3   5 6804.56 438.274   5
  -5  -3   6 804.292 160.987   5
   5  -3   6 708.809 181.914   6
   5   3   6 457.129 156.887   6
   5   3   6 594.681 143.016   1
   5   3   7 6149.68 406.672   1
   5  -3   7 4981.11 423.248   6
   5   3   7 4881.65 434.504   6
  -5  -3   7 5142.52 376.272   5
  -5  -3   8 724.332 158.998   5
   5  -3   8 571.767 153.816   6
   5   3   8 720.807 162.641   1
   5   3   8 730.438 190.592   6
   5  -3   9 2888.29 323.849   6
   5   3   9 2555.43 324.333   6
  -5  -3   9 3178.30 292.498   5
  -5  -3  10 197.615 80.5821   5
   5  -3  10 157.888 95.6714   6
   5   3  10 152.999 106.007   6
  -5  -3  11 348.908 109.225   5
   5  -3  11 125.578 84.7581   6
   5   3  11 249.256 126.947   6
  -5  -3  12 74.8602 60.9486   5
   5  -3  12 38.6843 90.2237   6
   5   3  12 19.8946 108.330   6
  -5  -3  13 270.145 72.7921   5
   5  -3  13 309.873 141.728   6
  -5  -3  14 104.272 64.1195   5
   5  -3  14 165.053 99.7824   6
   5   3  14 215.842 133.022   6
   5  -3  15 946.025 209.981   6
   5   3  15 1581.88 278.957   6
   5  -3  16 312.189 139.613   6
   5   3  16 218.437 133.437   6
   5  -3  17 3232.62 373.273   6
   5   3  17 2924.75 382.336   6
   5  -4 -17 101.906 98.7282   1
   5  -4 -16 761.808 221.472   1
   5  -4 -15 445.216 173.303   3
   5  -4 -15 605.664 186.783   1
   5  -4 -14 2130.42 333.623   3
   5  -4 -14 1709.63 303.104   1
   5   4 -14 2080.67 440.126   4
   5  -4 -13 588.342 203.991   3
   5   4 -13-29.8004 129.808   4
   5   4 -12 2504.85 465.843   4
   5  -4 -12 3095.51 396.540   3
   5  -4 -11 410.568 174.088   3
   5  -4 -10 2558.26 343.442   3
   5  -4  -9 693.909 192.114   3
   5  -4  -8 1047.50 223.975   3
   5  -4  -7 151.167 107.372   3
   5  -4  -6 1884.05 292.866   3
   5  -4  -6 1703.48 221.466   5
  -5  -4  -5 620.674 175.258   5
   5  -4  -5 744.163 183.951   3
   5  -4  -5 412.142 119.421   5
  -5  -4  -4 1193.50 238.505   5
   5  -4  -4 1136.45 229.356   3
   5  -4  -4 1307.11 210.583   5
  -5  -4  -3 1198.41 226.821   5
   5  -4  -3 1309.81 256.693   3
   5  -4  -3 1135.04 206.435   5
   5  -4  -2 3669.68 423.656   3
   5  -4  -2 3087.49 333.141   5
   5   4  -2 4059.46 322.308   6
  -5  -4  -2 3357.85 368.806   5
  -5  -4  -1 393.792 140.971   5
   5  -4  -1 145.780 92.4111   3
   5  -4  -1 386.428 156.504   6
   5   4  -1 462.482 122.915   6
   5  -4   0 3903.29 418.588   6
   5   4   0 4651.09 387.974   6
  -5  -4   0 4334.21 416.989   5
  -5  -4   1 513.755 165.767   5
   5  -4   1 486.972 170.291   6
   5   4   1 445.615 148.171   6
   5  -4   2 3378.96 375.298   6
   5   4   2 3669.03 367.201   6
  -5  -4   2 3852.86 389.304   5
  -5  -4   3 976.150 198.807   5
   5  -4   3 1002.27 210.582   6
   5   4   3 1458.09 243.994   6
  -5  -4   4 1406.04 236.230   5
   5  -4   4 1462.85 247.976   6
   5   4   4 1356.43 247.987   6
  -5  -4   5 279.666 102.251   5
   5  -4   5 367.681 138.118   6
   5   4   5 516.368 166.168   6
  -5  -4   6 1729.72 263.148   5
   5  -4   6 2057.29 284.061   6
   5   4   6 1703.05 285.010   6
  -5  -4   7 1.56854 88.3781   5
   5  -4   7 305.639 133.398   6
   5   4   7 157.956 102.202   6
  -5  -4   8 750.103 180.505   5
   5  -4   8 708.190 174.640   6
   5   4   8 784.580 208.077   6
  -5  -4   9 593.989 158.839   5
   5  -4   9 627.117 179.193   6
   5   4   9 436.355 174.829   6
  -5  -4  10 1593.51 245.405   5
   5  -4  10 2173.80 302.501   6
   5   4  10 1504.12 285.057   6
  -5  -4  11 114.203 100.809   5
   5  -4  11 63.7170 134.253   6
   5   4  11 86.4793 135.143   6
  -5  -4  12 2124.63 278.385   5
   5  -4  12 1869.55 286.254   6
   5   4  12 1970.39 336.821   6
  -5  -4  13 152.744 62.9193   5
   5  -4  13 386.599 159.472   6
   5   4  13 353.150 176.092   6
  -5  -4  14 1499.32 227.710   5
   5  -4  14 1881.08 292.218   6
   5   4  14 1667.51 303.697   6
  -5  -4  15 391.690 121.548   5
   5  -4  15 487.432 168.327   6
   5   4  15 528.893 201.045   6
   5  -5 -11 2113.04 357.803   3
   5  -5 -10 965.027 251.231   3
   5  -5  -9 731.977 206.482   3
   5  -5  -8 116.237 139.599   3
  -5  -5  -7 427.234 165.970   5
   5  -5  -7 543.463 220.814   3
  -5  -5  -6 252.621 150.401   5
   5  -5  -6 51.0499 162.209   3
  -5  -5  -5-5.49517 81.3343   5
   5  -5  -5-15.8639 152.755   3
  -5  -5  -4 267.182 148.561   5
   5  -5  -4-55.5644 216.230   3
   5  -5  -4 237.386 114.338   5
  -5  -5  -3 1710.29 300.831   5
   5  -5  -3 1574.28 316.354   3
   5  -5  -3 1712.69 263.464   5
  -5  -5  -2 495.379 190.524   5
   5  -5  -2 390.541 174.891   3
   5  -5  -2 698.516 177.117   5
  -5  -5  -1 2455.14 355.807   5
   5  -5  -1 1818.86 287.171   5
  -5  -5   0 675.342 202.500   5
   5  -5   0 562.471 186.708   5
   5   5   0 569.857 182.455   6
  -5  -5   1 1757.68 314.526   5
   5  -5   1 2189.53 314.279   5
   5   5   1 2309.10 337.759   6
  -5  -5   2 974.842 253.193   5
   5  -5   2 881.914 208.069   5
   5   5   2 1190.24 259.924   6
  -5  -5   3 1633.55 301.254   5
   5  -5   3 1215.53 250.170   5
   5  -5   3 1271.03 268.267   6
   5   5   3 1114.08 218.970   6
  -5  -5   4 61.5415 92.5755   5
   5  -5   4 102.471 87.7953   5
   5  -5   4 53.5913 113.502   6
   5   5   4 41.3371 112.011   6
  -5  -5   5-98.8347 132.131   5
   5  -5   5-43.3052 108.151   5
   5  -5   5 138.423 133.548   6
   5   5   5-39.6322 96.5674   6
  -5  -5   6 66.4734 103.247   5
   5  -5   6 66.7997 112.027   5
   5  -5   6-60.0135 107.808   6
   5   5   6-17.8545 135.879   6
  -5  -5   7 189.726 84.5622   5
   5  -5   7 394.347 165.447   5
   5  -5   7 241.447 137.290   6
   5   5   7 42.8554 156.352   6
  -5  -5   8 88.9883 89.1446   5
   5  -5   8 218.583 142.337   5
   5  -5   8 110.942 104.290   6
   5   5   8-62.7593 92.0296   6
  -5  -5   9 742.495 193.600   5
   5  -5   9 392.100 198.389   5
   5  -5   9 827.669 212.514   6
   5   5   9 412.842 165.341   6
  -5  -5  10 318.550 134.645   5
   5  -5  10 235.397 135.980   5
   5  -5  10 670.014 190.858   6
   5   5  10 718.576 239.476   6
  -5  -5  11 1535.91 280.183   5
   5  -5  11 1247.17 287.015   5
   5  -5  11 1822.43 312.508   6
   5   5  11 1322.01 288.537   6
  -5  -5  12 193.765 139.722   5
   5   5  12 524.328 184.516   6
  -5  -5  13 1427.34 272.529   5
  -5  -5  14 544.968 175.251   5
   5  -6  -4 335.177 197.686   3
   5  -6  -3 189.988 200.127   3
   5  -6  -2 130.766 112.840   5
   5  -6  -1 325.882 145.837   5
   5  -6   0-50.7425 100.874   5
   5  -6   1-46.6809 95.9119   5
   5  -6   2-19.5222 99.2856   5
   5  -6   3 688.067 193.600   5
   5  -6   4 284.991 135.421   5
   5   6   4 452.789 148.070   6
   5  -6   5 1118.36 264.373   5
   5   6   5 604.540 224.185   6
   5   6   6 171.956 143.364   6
   5   6   7 569.195 201.268   6
   5   6   8 390.904 180.854   6
   6   0 -17-343.955 173.796   1
   6   0 -16 2819.73 410.158   1
   6   0 -15 82.0947 105.436   1
   6   0 -14 4119.27 453.818   1
   6   0 -13 23.7065 80.9583   1
   6   0 -12 10245.9 682.148   1
   6   0 -11 41.5018 92.1893   1
   6   0 -10 4021.42 396.131   1
   6   0  -9-100.260 108.400   1
   6   0  -8 1853.88 266.274   1
   6   0  -7-97.0117 112.439   1
   6   0  -6 899.262 139.173   6
   6   0  -6 739.053 162.512   1
   6   0  -5-14.3943 44.3799   6
   6   0  -5 24.4314 61.5689   1
   6   0  -4 2107.80 218.937   6
   6   0  -4 1538.01 217.524   1
   6   0  -3 68.2505 72.1784   6
   6   0  -3-64.9837 69.5000   1
   6   0  -2 7353.16 461.008   1
   6   0  -2 7619.09 434.129   6
   6   0  -1 31.0569 75.1898   1
   6   0  -1-75.1413 76.1826   6
   6   0   0 10880.4 557.002   1
   6   0   0 11654.7 563.626   6
   6   0   1 21.6993 69.3999   6
   6   0   2 7541.42 454.544   6
   6   0   3-18.6941 59.7007   6
   6   0   4 1637.52 218.754   6
   6   0   5-1.48456 79.5521   6
   6   0   6 424.072 125.892   6
   6   0   7-38.6878 92.3379   6
   6   0   8 1745.96 248.313   6
   6   0   9 8.33992 74.3735   6
   6   0  10 2189.07 285.560   6
   6   0  11-52.6352 82.1306   6
   6   0  12 8310.35 583.346   6
   6   0  13 8.21185 79.5894   6
   6   0  14 3104.80 362.653   6
   6   0  15-43.4020 95.8471   6
   6   0  16 1827.98 285.838   6
   6   0  17-7.62067 115.346   6
   6  -1 -18 60.8092 130.708   1
   6   1 -17 4043.87 522.620   1
   6  -1 -17 4589.97 520.597   1
   6   1 -16 4739.91 553.950   1
   6  -1 -16 5032.51 522.663   1
   6   1 -15 3378.42 438.803   1
   6  -1 -15 3755.81 438.191   1
   6  -1 -14 1212.32 268.277   1
   6   1 -14 1236.16 298.079   4
   6   1 -14 1807.88 337.169   1
   6   1 -13 3809.02 527.051   4
   6  -1 -13 2877.10 366.567   1
   6   1 -13 3541.91 445.821   1
   6   1 -12 5356.69 602.428   4
   6  -1 -12 5239.40 480.016   1
   6   1 -12 5209.64 505.930   1
   6  -1 -11 3262.73 374.357   1
   6   1 -11 3680.84 486.456   4
   6   1 -11 3569.34 410.670   1
   6  -1 -10 2946.57 343.704   1
   6   1 -10 2868.30 414.508   4
   6   1 -10 2592.74 328.907   1
   6  -1  -9 6803.21 510.696   1
   6   1  -9 7849.48 667.003   4
   6   1  -9 8016.34 569.550   1
   6  -1  -8 9389.19 587.316   1
   6   1  -8 10543.6 760.763   4
   6   1  -8 9872.58 614.535   1
   6  -1  -7 8800.42 554.828   1
   6   1  -7 9928.35 718.233   4
   6   1  -7 9504.52 594.594   1
   6   1  -6 1151.46 205.335   1
   6  -1  -6 1160.43 211.624   1
   6  -1  -6 1351.32 202.621   6
   6   1  -6 1366.50 264.117   4
   6  -1  -5 4933.37 387.487   6
   6   1  -5 4900.55 298.988   6
   6   1  -5 5672.56 510.161   4
   6   1  -5 4963.52 402.707   1
   6  -1  -4 9409.79 524.992   6
   6   1  -4 9497.57 437.208   6
   6   1  -4 9186.32 633.849   4
   6   1  -4 9990.15 563.112   1
   6  -1  -3 9710.65 533.308   6
   6   1  -3 9578.53 454.738   6
   6   1  -3 10007.0 552.971   1
   6   1  -3 9255.41 615.133   4
   6  -1  -2 3107.31 300.045   6
   6   1  -2 2816.39 245.171   6
   6   1  -2 2414.52 266.601   1
   6   1  -2 2857.79 327.970   4
   6  -1  -1 2716.37 286.241   6
   6   1  -1 2652.65 247.000   6
   6   1  -1 2512.35 271.602   1
   6   1  -1 2414.75 295.202   4
   6  -1  -1 2696.51 232.604   3
   6  -1   0 5636.27 412.076   6
   6   1   0 5720.25 365.369   6
   6   1   0 5840.70 400.799   1
   6   1   0 5577.68 425.060   4
   6  -1   0 6729.28 346.963   3
   6  -1   1 3868.08 342.249   6
   6   1   1 3754.20 300.795   6
   6   1   1 3730.99 316.132   1
   6   1   1 3538.57 329.816   4
   6  -1   1 4038.33 260.271   3
   6  -1   2 3193.46 307.199   6
   6   1   2 2734.46 268.415   1
   6   1   2 2815.44 270.026   6
   6   1   2 3001.32 287.176   4
   6  -1   2 3214.09 218.768   3
   6  -1   3 7940.22 492.139   6
   6   1   3 7802.50 447.260   1
   6   1   3 7281.14 450.052   6
   6   1   3 7515.92 443.868   4
   6  -1   3 8261.36 347.884   3
   6   1   4 7567.03 432.135   1
   6  -1   4 8527.76 518.460   6
   6   1   4 7832.25 469.069   6
   6   1   4 7581.70 422.254   4
   6   1   5 6278.19 388.023   1
   6  -1   5 6621.32 464.737   6
   6   1   5 6239.14 436.273   6
   6   1   5 6117.56 355.625   4
   6  -1   6 953.904 188.959   6
   6   1   6 1203.24 168.447   1
   6   1   6 1145.45 189.793   6
   6   1   7 6290.46 382.463   1
   6  -1   7 7243.10 492.142   6
   6   1   7 6431.20 456.390   6
   6   1   8 8384.26 432.507   1
   6  -1   8 8862.49 554.875   6
   6   1   8 8493.74 536.033   6
   6   1   9 7486.19 399.349   1
   6  -1   9 7938.54 530.165   6
   6   1   9 7238.30 514.016   6
   6   1  10 1791.98 186.224   1
   6   1  10 2240.40 297.547   6
   6  -1  10 1477.75 229.951   6
   6   1  11 1284.79 159.503   1
   6  -1  11 1495.99 250.927   6
   6   1  11 1707.85 269.450   6
   6  -1  12 3755.93 393.402   6
   6   1  12 3838.25 396.045   6
   6  -1  13 2813.66 338.737   6
   6   1  13 3028.13 361.972   6
   6  -1  14 1318.29 241.520   6
   6   1  14 1169.45 233.664   6
   6  -1  15 1708.14 296.001   6
   6   1  15 2172.87 316.137   6
   6  -1  16 3340.44 403.373   6
   6   1  16 4236.12 442.223   6
   6  -2 -17 615.165 199.092   1
   6  -2 -16 1672.79 308.135   1
   6   2 -16 1097.41 301.943   4
   6   2 -15 2890.05 435.640   1
   6   2 -15 1877.68 387.066   4
   6  -2 -15 2627.31 377.544   1
   6   2 -14 1231.65 321.912   4
   6   2 -14 1159.21 276.100   1
   6  -2 -14 876.128 204.346   1
   6   2 -13 344.722 167.364   1
   6   2 -13 144.719 163.306   4
   6  -2 -13 93.9727 111.679   1
   6   2 -12 636.424 198.686   1
   6   2 -12 647.859 233.109   4
   6  -2 -12 358.609 146.695   1
   6   2 -11 2370.60 357.983   1
   6  -2 -11 2074.98 308.134   1
   6   2 -11 2079.01 389.526   4
   6  -2 -10 1517.70 236.732   3
   6   2 -10 1407.91 275.450   1
   6  -2 -10 1497.51 266.437   1
   6   2 -10 1307.73 304.796   4
   6   2  -9 1009.92 230.112   1
   6  -2  -9 1015.65 186.193   3
   6  -2  -9 1030.37 210.747   1
   6   2  -9 848.497 230.853   4
   6   2  -8 2215.21 364.281   4
   6  -2  -8 2337.40 270.938   3
   6   2  -8 2394.09 325.878   1
   6   2  -7 4480.81 507.730   4
   6  -2  -7 4873.93 374.672   3
   6   2  -7 4951.58 452.742   1
   6   2  -6 3360.96 424.954   4
   6  -2  -6 2814.97 289.662   3
   6   2  -6 3024.49 346.141   1
   6  -2  -5 2409.51 291.362   6
   6   2  -5 2000.28 324.192   4
   6  -2  -5 2175.00 242.428   3
   6   2  -5 1986.83 275.284   1
   6  -2  -4 2329.07 299.062   6
   6   2  -4 1920.02 304.052   4
   6  -2  -4 1893.15 228.464   3
   6   2  -4 1956.63 267.490   1
   6  -2  -3 3062.02 330.469   6
   6   2  -3 2914.91 233.004   6
   6   2  -3 2805.02 366.360   4
   6   2  -3 3268.76 332.523   1
   6  -2  -3 3575.55 289.251   3
   6  -2  -2 1104.27 174.592   3
   6   2  -2 1496.19 216.356   1
   6  -2  -2 1181.81 203.899   6
   6   2  -2 1222.06 162.084   6
   6   2  -2 988.351 211.190   4
   6  -2  -1 776.202 136.371   3
   6   2  -1 625.133 151.880   1
   6  -2  -1 581.617 149.080   6
   6   2  -1 600.530 125.406   6
   6  -2   0 367.592 104.447   3
   6   2   0 207.070 90.0990   1
   6  -2   0 264.931 124.859   6
   6   2   0 314.024 96.0107   6
   6  -2   1 793.500 137.195   3
   6   2   1 346.503 108.534   1
   6  -2   1 773.854 175.104   6
   6   2   1 629.061 136.157   6
   6  -2   2 1235.26 154.256   3
   6   2   2 1392.84 202.613   1
   6   2   2 1767.08 221.230   6
   6  -2   2 1675.42 244.425   6
   6  -2   3 2426.66 297.554   6
   6   2   3 2362.26 253.623   6
   6   2   3 2365.43 247.483   1
   6  -2   3 1805.71 180.717   3
   6  -2   4 2205.34 290.868   6
   6   2   4 2399.55 269.514   6
   6   2   4 2225.75 235.579   1
   6  -2   4 1594.35 168.432   3
   6   2   5 1815.09 240.034   6
   6  -2   5 2124.92 273.882   6
   6   2   5 1818.09 208.672   1
   6  -2   5 1288.96 150.899   3
   6  -2   6 2445.48 294.520   6
   6   2   6 2374.71 280.537   6
   6   2   6 2262.69 225.388   1
   6  -2   7 4782.78 414.148   6
   6   2   7 4284.01 387.270   6
   6   2   7 3828.69 294.606   1
   6  -2   8 1675.35 261.335   6
   6   2   8 1703.34 186.704   1
   6   2   8 1538.37 255.315   6
   6  -2   9 1217.96 234.002   6
   6   2   9 1059.73 215.401   6
   6  -2  10 667.294 178.596   6
   6   2  10 821.577 179.810   6
   6  -2  11 1753.06 275.830   6
   6   2  11 1873.91 293.569   6
   6  -2  12 292.890 163.268   6
   6   2  12 316.803 155.887   6
   6  -2  13-91.8016 119.447   6
   6   2  13 305.644 156.888   6
   6  -2  14 831.852 193.998   6
   6   2  14 847.065 211.073   6
   6  -2  15 1468.24 276.123   6
   6   2  15 1898.01 291.167   6
   6   2  16 1053.69 236.276   6
   6  -3 -16 2162.59 342.268   1
   6  -3 -15 2273.53 354.984   1
   6  -3 -14 1370.95 268.626   3
   6  -3 -14 1118.44 271.911   1
   6   3 -14 980.556 297.883   4
   6  -3 -13 2073.38 320.261   3
   6   3 -13 1803.00 363.601   1
   6  -3 -13 1735.39 312.071   1
   6   3 -13 1891.51 404.039   4
   6  -3 -12 8106.26 649.286   1
   6   3 -12 8629.21 733.013   1
   6   3 -12 8199.15 810.999   4
   6  -3 -12 10402.3 670.322   3
   6   3 -11 2238.41 420.575   4
   6   3 -11 2261.49 370.873   1
   6  -3 -11 2633.91 336.052   3
   6  -3 -10 885.473 202.499   3
   6   3 -10 605.172 198.185   1
   6   3 -10 752.267 243.722   4
   6   3  -9 3133.46 404.088   1
   6   3  -9 2950.44 460.039   4
   6  -3  -9 3037.99 348.004   3
   6   3  -8 2810.18 381.478   1
   6   3  -8 2233.76 390.647   4
   6  -3  -8 2586.53 308.227   3
   6   3  -7 2553.74 348.154   1
   6   3  -7 2558.89 415.506   4
   6  -3  -7 2498.55 299.848   3
   6  -3  -6 492.667 161.568   3
   6   3  -6 365.834 152.603   1
   6   3  -5 3722.11 400.605   1
   6  -3  -5 3137.04 321.640   3
   6   3  -4 4734.58 438.127   1
   6  -3  -4 4882.04 402.809   3
   6   3  -3 6388.12 495.901   1
   6  -3  -3 6718.75 535.731   6
   6  -3  -3 6718.76 471.528   3
   6  -3  -2 493.903 156.634   3
   6   3  -2 749.541 181.492   1
   6  -3  -2 613.050 173.636   6
   6   3  -1 7762.52 526.295   1
   6  -3  -1 7573.77 571.904   6
   6   3  -1 7724.01 428.678   6
   6  -3  -1 6851.80 456.707   3
   6   3   0 15950.2 758.315   1
   6  -3   0 18279.0 877.547   6
   6   3   0 16494.3 677.945   6
   6  -3   0 16385.6 724.577   3
   6   3   1 6421.43 464.145   1
   6  -3   1 6760.24 527.983   6
   6   3   1 6431.84 431.005   6
   6  -3   1 6824.96 454.894   3
   6  -3   2 313.357 139.929   3
   6   3   2 436.462 144.905   1
   6  -3   2 387.326 163.627   6
   6   3   2 413.313 129.819   6
   6   3   3 6751.60 465.427   1
   6  -3   3 7284.08 539.783   6
   6   3   3 6694.29 469.785   6
   6  -3   3 5471.28 415.414   3
   6   3   4 3981.23 359.715   1
   6  -3   4 4627.03 427.932   6
   6   3   4 4887.96 412.276   6
   6   3   5 2419.12 277.031   1
   6  -3   5 1706.52 229.233   3
   6  -3   5 2697.78 325.767   6
   6   3   5 2623.25 312.249   6
   6  -3   6 240.575 76.9787   3
   6   3   6 353.882 110.340   1
   6  -3   6 288.572 127.419   6
   6   3   6 318.040 125.007   6
   6  -3   7 2546.99 332.244   6
   6   3   7 2101.27 312.652   6
  -6  -3   7 2320.93 264.252   5
   6  -3   8 2950.14 354.299   6
   6   3   8 2474.58 337.404   6
  -6  -3   8 2684.09 285.029   5
   6  -3   9 2159.27 318.370   6
   6   3   9 2194.35 313.034   6
  -6  -3   9 2408.25 258.644   5
  -6  -3  10 705.578 149.299   5
   6  -3  10 473.728 154.662   6
   6   3  10 561.223 177.221   6
   6  -3  11 2370.00 319.476   6
   6   3  11 2250.89 336.930   6
  -6  -3  11 2093.57 240.503   5
   6  -3  12 7010.88 552.063   6
   6   3  12 7366.37 612.568   6
  -6  -3  12 6685.90 425.087   5
   6  -3  13 808.024 220.762   6
   6   3  13 1166.26 237.284   6
   6   3  14 1088.18 253.071   6
   6  -4 -13 786.498 222.759   1
   6  -4 -12 31.4044 118.140   3
   6  -4 -11 1440.37 290.542   3
   6   4 -11 1305.69 347.001   4
   6  -4 -10 1317.41 299.085   3
   6   4 -10 1812.76 428.482   4
   6  -4  -9 2144.12 336.340   3
   6  -4  -8 496.439 182.793   3
   6  -4  -7 955.829 234.902   3
   6  -4  -6 54.1948 129.012   3
   6  -4  -5 2648.10 360.497   3
   6  -4  -4 578.242 176.485   3
   6  -4  -4 685.256 168.724   5
   6  -4  -3 1404.38 268.651   3
   6  -4  -3 1259.67 226.424   5
   6  -4  -2 792.494 199.923   3
   6  -4  -1 1378.87 274.270   3
   6  -4  -1 2010.44 312.823   6
  -6  -4   0 99.9921 100.693   5
   6  -4   0-85.1551 154.458   3
   6  -4   0-10.0665 102.955   6
  -6  -4   1 1773.11 283.884   5
   6  -4   1 987.157 220.948   3
   6  -4   1 1515.83 276.982   6
  -6  -4   2 456.425 174.908   5
   6  -4   2 254.389 147.882   3
   6  -4   2 610.938 193.450   6
   6   4   2 588.258 163.586   6
  -6  -4   3 1229.09 246.277   5
   6  -4   3 1084.19 237.366   3
   6  -4   3 1279.46 255.590   6
   6   4   3 1442.58 259.595   6
  -6  -4   4 552.496 171.918   5
   6  -4   4 375.365 158.178   6
   6   4   4 620.907 187.800   6
   6   4   5 2778.04 362.302   6
   6  -4   5 2663.51 353.619   6
  -6  -4   5 2693.35 332.153   5
  -6  -4   6 54.7038 102.562   5
   6  -4   6-22.0027 84.6284   6
   6   4   6 198.819 135.104   6
  -6  -4   7 1028.44 211.520   5
   6  -4   7 894.387 214.082   6
   6   4   7 850.470 242.824   6
  -6  -4   8 336.717 134.859   5
   6  -4   8 341.976 147.480   6
   6   4   8 403.791 163.381   6
  -6  -4   9 2021.53 276.901   5
   6  -4   9 2110.10 323.767   6
   6   4   9 2014.84 326.674   6
  -6  -4  10 1067.50 205.805   5
   6  -4  10 776.030 204.127   6
   6   4  10 1332.14 281.082   6
  -6  -4  11 563.854 156.920   5
   6   4  11 564.944 210.306   6
  -6  -4  12-198.005 100.818   5
   6   4  12-7.68325 86.0067   6
   6  -5  -7 799.200 302.930   3
   6  -5  -6 9851.72 816.969   3
   6  -5  -5 1101.10 315.375   3
   6  -5  -4 248.001 163.411   3
   6  -5  -3 844.813 278.064   3
   6  -5  -2 4791.35 468.588   5
   6  -5  -2 4272.05 554.723   3
  -6  -5  -2 4764.58 528.760   5
  -6  -5  -1 359.596 153.940   5
   6  -5  -1-149.925 188.384   3
   6  -5  -1 216.296 137.520   5
  -6  -5   0 1517.70 296.609   5
   6  -5   0 892.494 262.652   3
   6  -5   0 1391.36 263.264   5
  -6  -5   1 835.719 240.547   5
   6  -5   1 329.901 203.785   3
   6  -5   1 319.973 145.659   5
   6  -5   2 4611.42 483.289   5
   6  -5   2 4136.89 537.603   3
  -6  -5   3 394.125 159.224   5
   6  -5   3 534.027 168.016   5
   6  -5   3 567.998 197.218   6
  -6  -5   4 298.035 161.958   5
   6  -5   4 650.554 206.849   5
  -6  -5   5 1203.79 249.205   5
   6  -5   5 819.583 241.108   5
   6   5   5 1246.34 287.101   6
   6  -5   6 6511.94 618.207   5
   6   5   6 8078.46 700.329   6
  -6  -5   6 7603.07 644.890   5
  -6  -5   7 464.029 194.517   5
   6   5   7 303.055 164.597   6
  -6  -5   8 494.353 203.167   5
   6   5   8 25.6471 97.3988   6
  -6  -5   9 933.566 226.952   5
   6   5   9 923.202 267.218   6
  -6  -5  10 3978.95 462.659   5
   7   0 -12 22.1542 103.250   1
   7   0 -11 647.496 188.591   1
   7   0 -10-37.9340 86.3876   1
   7   0  -9 2868.76 364.640   1
   7   0  -8-38.7671 99.1895   1
   7   0  -7 3907.15 407.589   1
   7   0  -6-38.8639 80.3229   1
   7   0  -5 5710.80 485.090   1
   7   0  -4 38.8622 69.9990   6
   7   0  -4-63.0536 84.3501   1
   7   0  -3 2979.73 296.131   6
   7   0  -3 2551.34 315.778   1
   7   0  -2 163.257 97.2480   6
   7   0  -2-28.1017 80.0491   1
   7   0  -1 681.795 160.313   6
   7   0  -1 942.252 189.786   1
   7   0   0-78.4139 74.8003   1
   7   0   0 7.05453 66.4222   6
   7   0   1 514.222 161.953   1
   7   0   1 751.091 155.799   6
   7   0   2-12.0215 63.4601   1
   7   0   2-200.054 103.588   6
   7   0   3 2356.71 305.719   1
   7   0   3 2833.06 316.154   6
   7   0   4 15.9185 76.9065   1
   7   0   4 80.4644 73.7790   6
   7   0   5 5076.03 426.695   6
   7   0   6-37.2458 77.0107   6
   7   0   7 3742.94 372.102   6
   7   0   8-15.8561 77.8956   6
   7   0   9 2521.50 320.387   6
   7   0  10 76.4441 95.9535   6
   7   0  11 260.153 133.313   6
   7   0  12 70.3903 111.441   6
   7   0  13 404.909 188.795   6
   7  -1 -12 3474.28 442.831   1
   7   1 -12 4133.80 496.107   1
   7   1 -11 1006.06 247.144   1
   7  -1 -11 864.726 222.446   1
   7   1 -10 1821.20 300.049   1
   7   1 -10 2494.49 419.207   4
   7  -1 -10 1829.51 303.463   1
   7   1  -9 846.102 205.736   1
   7   1  -9 706.207 221.811   4
   7  -1  -9 675.098 191.840   1
   7   1  -8 1187.16 232.842   1
   7   1  -8 1382.75 297.898   4
   7  -1  -8 1084.05 238.483   1
   7   1  -7 328.427 138.643   1
   7   1  -7 319.336 143.093   4
   7  -1  -7 63.1058 113.324   1
   7   1  -6 1020.78 214.025   1
   7   1  -6 1137.70 255.912   4
   7  -1  -6 975.858 207.653   1
   7   1  -5 81.1593 70.5733   1
   7  -1  -5 263.537 115.115   1
   7  -1  -5 184.503 104.658   6
   7   1  -5 127.915 63.0520   4
   7   1  -4 1436.01 240.379   1
   7  -1  -4 1311.93 237.788   1
   7  -1  -4 1400.11 224.712   6
   7   1  -4 1158.56 237.058   4
   7   1  -3 980.513 201.694   1
   7  -1  -3 904.674 200.432   1
   7  -1  -3 1192.88 197.093   6
   7   1  -3 997.545 219.872   4
   7  -1  -2 3309.67 341.677   6
   7   1  -2 3508.25 307.052   6
   7   1  -2 3426.10 384.583   4
   7   1  -2 3645.54 364.337   1
   7   1  -1 816.823 185.608   1
   7  -1  -1 897.435 189.374   6
   7   1  -1 894.100 161.642   6
   7   1  -1 633.709 158.391   4
   7  -1   0 3884.78 370.180   6
   7   1   0 4173.57 350.032   6
   7   1   0 3381.23 356.677   4
   7   1   0 3594.71 357.963   1
   7  -1   1 718.844 183.782   6
   7   1   1 903.452 161.706   6
   7   1   1 816.675 184.883   1
   7  -1   2 3474.51 351.979   6
   7   1   2 3349.07 319.571   6
   7   1   2 3344.25 356.186   1
   7  -1   3 1429.54 244.812   6
   7   1   3 1078.51 199.864   6
   7   1   3 1065.47 198.336   1
   7  -1   4 1523.66 237.428   6
   7   1   4 1311.13 215.167   6
   7   1   4 1717.11 241.900   1
   7  -1   5 165.112 105.506   6
   7   1   5 199.582 112.763   6
   7   1   5 166.600 80.2872   1
   7  -1   6 617.553 174.939   6
   7   1   6 881.076 193.421   6
   7   1   6 697.527 156.801   1
   7  -1   7 290.213 124.633   6
   7   1   7 406.690 147.260   6
   7   1   7 195.773 98.4748   1
   7  -1   8 984.067 223.570   6
   7   1   8 624.470 166.544   6
   7   1   8 919.818 169.354   1
   7  -1   9 455.428 179.842   6
   7   1   9 481.547 155.435   6
   7  -1  10 1274.14 255.661   6
   7   1  10 1302.80 254.373   6
   7  -1  11 568.200 182.080   6
   7   1  11 537.561 187.301   6
   7  -1  12 2428.22 338.119   6
   7   1  12 2533.62 351.433   6
   7   1  13 642.764 187.914   6
   7   2 -13 1311.24 338.416   4
   7   2 -12 1522.02 343.641   4
   7   2 -11 2039.20 391.622   4
   7  -2 -11 1475.32 305.579   1
   7   2 -10 1955.69 339.182   1
   7  -2 -10 1755.92 326.875   1
   7   2 -10 1893.53 378.719   4
   7   2  -9 799.166 231.230   1
   7  -2  -9 818.672 225.854   1
   7   2  -9 778.318 239.132   4
   7  -2  -8 667.587 190.282   1
   7   2  -8 931.140 274.833   4
   7   2  -8 925.518 226.424   1
   7  -2  -7 463.497 184.253   1
   7   2  -7 203.933 95.1164   4
   7   2  -7 711.469 203.687   1
   7  -2  -6 541.171 166.261   3
   7   2  -6 381.937 168.840   4
   7   2  -6 534.307 174.621   1
   7  -2  -5 454.493 146.242   3
   7   2  -5 204.800 146.297   4
   7  -2  -4 763.173 166.590   3
   7  -2  -4 1038.55 220.916   6
   7   2  -4 1046.13 221.308   1
   7   2  -4 862.454 221.074   4
   7  -2  -3 1564.81 228.693   3
   7  -2  -3 1809.18 289.329   6
   7   2  -3 1339.47 244.743   1
   7   2  -3 1490.21 279.803   4
   7   2  -2 2068.56 285.315   1
   7  -2  -2 1772.46 268.836   6
   7   2  -2 1938.54 324.370   4
   7  -2  -2 2324.50 252.792   3
   7  -2  -1 1677.60 279.421   6
   7   2  -1 1745.79 291.104   4
   7   2  -1 2111.98 289.166   1
   7  -2   0 2462.49 321.223   6
   7   2   0 1852.63 294.541   4
   7   2   0 2145.82 291.696   1
   7   2   1 1834.46 235.843   6
   7   2   1 1530.06 238.378   1
   7  -2   1 2020.09 298.838   6
   7   2   1 1951.91 289.861   4
   7  -2   2 1922.23 302.385   6
   7   2   2 1901.96 250.522   6
   7   2   2 2107.71 269.248   1
   7   2   3 1072.90 191.088   1
   7  -2   3 1215.09 237.485   6
   7   2   3 952.305 184.547   6
   7   2   4 838.596 176.211   1
   7  -2   4 975.208 227.777   6
   7   2   4 924.957 184.394   6
   7   2   5 352.881 124.353   1
   7  -2   5 381.147 157.114   6
   7   2   5 361.532 141.465   6
   7   2   6 513.162 122.471   1
   7  -2   6 451.801 158.414   6
   7   2   6 613.529 172.382   6
   7  -2   7 535.144 166.847   6
   7   2   7 577.110 171.693   6
   7  -2   8 637.366 189.341   6
   7   2   8 624.427 192.254   6
   7  -2   9 1112.16 231.886   6
   7   2   9 1065.93 241.688   6
   7  -2  10 1557.82 278.116   6
   7   2  10 1170.91 249.021   6
   7  -2  11 1992.40 316.653   6
   7   2  11 1708.55 299.622   6
   7   2  12 1347.08 283.218   6
   7  -3 -11 377.290 178.806   3
   7  -3 -10 146.540 113.013   3
   7   3 -10 160.535 136.262   4
   7  -3  -9 2437.78 337.254   3
   7   3  -9 1965.01 395.760   4
   7  -3  -8 465.425 167.791   3
   7   3  -8 519.071 218.557   4
   7   3  -8 492.356 204.734   1
   7   3  -7 3569.57 455.531   1
   7   3  -7 2985.69 472.197   4
   7  -3  -7 3623.95 380.024   3
   7  -3  -6 597.677 162.362   3
   7   3  -6 556.093 204.155   4
   7   3  -6 371.130 153.932   1
   7   3  -5 3423.40 439.857   1
   7   3  -5 3492.61 491.102   4
   7  -3  -5 3396.27 368.823   3
   7  -3  -4 292.707 147.232   3
   7   3  -4 159.422 122.728   1
   7   3  -4 254.596 134.719   4
   7  -3  -3 1448.95 234.501   3
   7   3  -3 1197.52 255.058   1
   7  -3  -3 1589.75 287.041   6
   7   3  -3 1655.10 324.907   4
   7  -3  -2 206.360 102.946   3
   7   3  -2 297.393 155.422   1
   7  -3  -2 413.959 148.839   6
   7   3  -2 375.874 161.290   4
   7   3  -1 182.588 105.801   1
   7  -3  -1 421.098 174.242   6
   7   3   0 133.278 88.1689   1
   7  -3   0 102.419 126.552   6
   7   3   1 79.5880 76.6591   1
   7  -3   1 284.275 145.143   6
   7   3   2 204.927 98.5287   1
   7  -3   2 84.9517 114.646   6
   7   3   3 1142.83 210.367   1
   7  -3   3 1441.72 266.916   6
   7   3   3 1927.27 269.117   6
   7  -3   4 236.767 131.427   6
   7   3   4 273.859 130.908   6
   7  -3   5 3808.38 434.518   6
   7   3   5 3271.43 375.544   6
   7  -3   6 248.697 133.896   6
   7   3   6 392.971 140.612   6
   7  -3   7 2831.44 380.312   6
   7   3   7 2530.64 354.474   6
   7  -3   8 502.820 176.084   6
   7   3   8 334.124 195.974   6
   7   3   9 1440.45 289.849   6
   7   3  10-98.9071 117.839   6
   7   3  11-103.230 117.909   6
   7  -4  -8 514.480 157.314   3
   7  -4  -7 197.044 145.761   3
   7   4  -7-28.6891 108.825   4
   7  -4  -6 1490.66 295.419   3
   7   4  -6 949.311 253.468   1
   7   4  -6 1409.14 374.520   4
   7  -4  -5 569.595 204.898   3
   7   4  -5-5.87042 99.0068   1
   7  -4  -4 1311.88 265.871   3
   7   4  -4 448.002 176.676   1
   7  -4  -3 802.101 232.194   3
   7   4  -3 429.943 185.030   1
   7  -4  -2 959.977 256.060   3
   7   4  -2 562.238 185.710   1
   7  -4  -1 422.796 172.270   3
   7   4  -1-130.812 110.828   1
   7  -4   0 1500.53 299.319   6
   7   4   0 1235.36 249.242   1
   7  -4   1 222.081 182.854   6
   7  -4   2 1329.22 281.033   6
   7   4   7-210.338 175.845   6
   7   4   8 532.673 170.568   6
   7   4   9-17.0007 112.476   6
   8   0  -4 8825.30 644.562   1
   8   0  -3-24.8349 95.0092   1
   8   0  -2 253.541 143.093   1
   8   0  -1 198.184 113.576   1
   8   0   0 21143.2 974.847   1
   8   0   1 247.729 138.749   6
   8   0   1-63.3053 96.1871   1
   8   0   2 434.950 156.966   6
   8   0   2 473.629 153.998   1
   8   0   3-3.33015 115.121   6
   8   0   3 66.2261 110.023   1
   8   0   4 7066.94 533.642   1
   8   0   4 7559.98 560.876   6
   8   0   5 24.6676 85.5513   1
   8   0   5-195.774 141.844   6
   8   0   6 873.714 190.792   1
   8   0   6 885.462 211.707   6
   8   0   7 78.8214 87.7125   1
   8   0   7-138.359 144.369   6
   8   0   8 4208.29 458.901   6
   8   1  -5 1742.45 305.587   1
   8   1  -4 832.178 221.453   1
   8   1  -3 1313.19 276.782   1
   8  -1  -3 1698.06 290.849   1
   8   1  -2 56.7119 118.767   1
   8  -1  -2 251.754 145.292   1
   8   1  -1 877.196 189.382   1
   8  -1  -1 1035.55 243.052   1
   8  -1  -1 694.922 156.805   6
   8   1   0-94.6472 96.3129   1
   8  -1   0 10.0347 89.6390   1
   8  -1   0 192.119 124.775   6
   8   1   1 557.860 169.168   1
   8  -1   1 334.426 145.580   1
   8  -1   1 597.444 175.946   6
   8   1   2 482.487 156.616   1
   8  -1   2 439.923 140.315   6
   8   1   3 980.124 210.851   1
   8  -1   3 1784.74 297.691   6
   8   1   3 1454.57 244.053   6
   8  -1   4 680.394 212.008   6
   8   1   4 584.371 156.324   6
   8   1   4 930.253 213.889   1
   8  -1   5 1519.91 258.578   6
   8   1   5 1776.84 277.109   6
   8   1   5 1764.71 283.984   1
   8  -1   6 161.868 132.087   6
   8   1   6 356.823 154.579   6
   8  -1   7 2140.75 331.656   6
   8   1   7 1683.88 293.096   6
   8   1   8 708.760 206.854   6
   8   2  -9 4191.72 574.849   4
   8   2  -8 982.618 290.136   4
   8   2  -7 4583.99 582.512   4
   8   2  -6 1625.33 335.996   4
   8   2  -4 681.648 227.967   1
   8   2  -3 5685.27 542.687   1
   8  -2  -2 1071.10 241.528   6
   8   2  -2 1459.95 285.447   1
   8  -2  -1 2166.35 335.953   6
   8   2  -1 2250.98 331.779   1
   8  -2   0-135.152 141.469   6
   8   2   0 385.803 161.399   1
   8  -2   1 2502.03 360.437   6
   8   2   1 3078.85 381.713   1
   8   2   2 2174.23 309.732   1
   8  -2   2 1261.97 257.033   6
   8  -2   3 4016.91 443.157   6
   8   2   3 5089.55 469.811   1
   8  -2   4 550.412 202.068   6
   8  -2   5 3647.98 432.779   6
   8   2   6 2275.13 317.602   6
   8   2   7 3223.00 398.201   6
   8   2   8 348.453 160.649   6
   8   3  -2 1704.03 308.113   1
   8  -3  -2 1621.13 321.197   6
   8   3  -1 256.620 133.302   1
   8  -3  -1 342.529 158.552   6
   0   0   0    0.00    0.00   0

TITL Derriksite_SN_363K in Pmn2(1)
REM Pmn2(1) (#31, found as Pnm2(1) in ba-c setting)
CELL 0.71073   5.984256   5.596604  19.159903  90.0000  90.0000  90.0000
ZERR    2.00   0.000306   0.000392   0.000987   0.0000   0.0000   0.0000
LATT -1
SYMM -x+1/2,-y, z+1/2
SYMM  x+1/2,-y, z+1/2
SYMM -x, y, z
SFAC O Cu Se U
UNIT 30.00 8.00 4.00 2.00
TREF
HKLF 4
END
;
_shelx_hkl_checksum              40088
_olex2_submission_special_instructions 'No special instructions were received'
_oxdiff_exptl_absorpt_empirical_details
;
Empirical correction (ABSPACK) includes:
- Absorption correction using spherical harmonics
- Frame scaling
;
_oxdiff_exptl_absorpt_empirical_full_max 2.695
_oxdiff_exptl_absorpt_empirical_full_min 0.561
loop_
_space_group_symop_operation_xyz
'x, y, z'
'-x+1/2, -y, z+1/2'
'x+1/2, -y, z+1/2'
'-x, y, z'
loop_
_atom_site_label
_atom_site_type_symbol
_atom_site_fract_x
_atom_site_fract_y
_atom_site_fract_z
_atom_site_U_iso_or_equiv
_atom_site_adp_type
_atom_site_occupancy
_atom_site_site_symmetry_order
_atom_site_calc_flag
_atom_site_refinement_flags_posn
_atom_site_refinement_flags_adp
_atom_site_refinement_flags_occupancy
_atom_site_disorder_assembly
_atom_site_disorder_group
U1 U -0.500000 -0.1838(2) -0.60657(6) 0.0221(3) Uani 1 2 d S T P . .
Se1 Se 0.000000 0.1401(6) -0.52750(15) 0.0243(7) Uani 1 2 d S T P . .
Se2 Se -1.000000 -0.5061(6) -0.68967(14) 0.0230(6) Uani 1 2 d S T P . .
Cu1 Cu 0.2502(3) -0.6104(4) -0.36157(13) 0.0137(5) Uani 1 1 d . . . . .
Cu2 Cu 0.000000 -0.1147(5) -0.35416(19) 0.0128(6) Uani 1 2 d S T P . .
Cu3 Cu 0.500000 -0.1057(5) -0.35618(19) 0.0123(6) Uani 1 2 d S T P . .
O1 O -0.500000 -0.455(6) -0.5569(14) 0.043(6) Uani 1 2 d S T P . .
O2 O -0.500000 0.082(5) -0.6566(11) 0.044(7) Uani 1 2 d S T P . .
O3 O -0.218(3) -0.060(4) -0.5348(9) 0.041(5) Uani 1 1 d . . . . .
O4 O 0.000000 0.199(4) -0.4423(10) 0.018(4) Uani 1 2 d S T P . .
O5 O -0.780(3) -0.311(3) -0.6818(10) 0.035(4) Uani 1 1 d . . . . .
O6 O -1.000000 -0.557(4) -0.7738(11) 0.020(4) Uani 1 2 d S T P . .
O7 O 0.254(2) -0.278(3) -0.4021(7) 0.014(3) Uani 1 1 d D . . . .
H7 H 0.25(4) -0.26(5) -0.449(2) 0.021 Uiso 1 1 d D U . . .
O8 O 0.500000 -0.726(3) -0.4140(11) 0.013(3) Uani 1 2 d DS T P . .
H8 H 0.500000 -0.61(3) -0.454(5) 0.020 Uiso 1 2 d DS U P . .
O9 O 0.000000 -0.492(3) -0.3086(10) 0.015(3) Uani 1 2 d DS T P . .
O10 O 0.2487(18) 0.066(2) -0.3123(8) 0.014(3) Uani 1 1 d D . . . .
H10 H 0.27(4) 0.09(5) -0.266(3) 0.022 Uiso 1 1 d D U . . .
H9 H -0.07(4) -0.56(7) -0.266(11) 0.022 Uiso 0.5 1 d D U P . .
loop_
_atom_site_aniso_label
_atom_site_aniso_U_11
_atom_site_aniso_U_22
_atom_site_aniso_U_33
_atom_site_aniso_U_23
_atom_site_aniso_U_13
_atom_site_aniso_U_12
U1 0.0165(4) 0.0356(6) 0.0143(4) -0.0059(4) 0.000 0.000
Se1 0.0219(13) 0.0351(18) 0.0161(13) 0.0025(11) 0.000 0.000
Se2 0.0205(12) 0.0336(17) 0.0150(12) 0.0035(11) 0.000 0.000
Cu1 0.0078(9) 0.0101(10) 0.0233(12) 0.0007(9) 0.0017(9) 0.0009(7)
Cu2 0.0056(12) 0.0106(14) 0.0222(15) -0.0018(12) 0.000 0.000
Cu3 0.0050(11) 0.0095(13) 0.0225(15) -0.0031(12) 0.000 0.000
O1 0.041(14) 0.057(18) 0.031(12) 0.007(12) 0.000 0.000
O2 0.074(18) 0.042(15) 0.015(11) 0.009(10) 0.000 0.000
O3 0.027(7) 0.070(14) 0.026(9) -0.015(9) -0.004(6) -0.008(9)
O4 0.011(8) 0.028(12) 0.017(10) 0.000(8) 0.000 0.000
O5 0.036(8) 0.042(11) 0.027(9) -0.015(7) -0.003(7) -0.002(7)
O6 0.014(9) 0.020(10) 0.027(10) -0.008(8) 0.000 0.000
O7 0.008(6) 0.013(7) 0.021(7) -0.008(5) 0.004(4) 0.001(5)
O8 0.007(8) 0.005(8) 0.027(10) -0.007(7) 0.000 0.000
O9 0.012(7) 0.019(9) 0.014(8) 0.003(7) 0.000 0.000
O10 0.013(6) 0.009(6) 0.022(6) -0.004(5) -0.001(5) 0.000(4)
loop_
_atom_type_symbol
_atom_type_description
_atom_type_scat_dispersion_real
_atom_type_scat_dispersion_imag
_atom_type_scat_source
Cu Cu 0.3201 1.2651 'International Tables Vol C Tables 4.2.6.8 and 6.1.1.4'
H H 0.0000 0.0000 'International Tables Vol C Tables 4.2.6.8 and 6.1.1.4'
O O 0.0106 0.0060 'International Tables Vol C Tables 4.2.6.8 and 6.1.1.4'
Se Se -0.0929 2.2259 'International Tables Vol C Tables 4.2.6.8 and 6.1.1.4'
U U -9.6767 9.6646 'International Tables Vol C Tables 4.2.6.8 and 6.1.1.4'
loop_
_exptl_crystal_face_index_h
_exptl_crystal_face_index_k
_exptl_crystal_face_index_l
_exptl_crystal_face_perp_dist
-3 1 25 0.0213
-8 0 1 0.0487
8 0 5 0.0396
-2 5 19 0.0250
1 7 -11 0.0187
2 -4 -21 0.0323
-1 -7 10 0.0219
loop_
_geom_angle_atom_site_label_1
_geom_angle_atom_site_label_2
_geom_angle_atom_site_label_3
_geom_angle
_geom_angle_site_symmetry_1
_geom_angle_site_symmetry_3
O1 U1 O3 86.4(9) . 4_455
O1 U1 O3 86.4(9) . .
O1 U1 O5 93.9(9) . .
O1 U1 O5 93.9(9) . 4_455
O2 U1 O1 179.2(14) . .
O2 U1 O3 94.1(8) . .
O2 U1 O3 94.1(8) . 4_455
O2 U1 O5 85.5(7) . 4_455
O2 U1 O5 85.5(7) . .
O3 U1 O3 95.2(9) . 4_455
O3 U1 O5 86.2(6) 4_455 .
O3 U1 O5 178.6(6) . .
O3 U1 O5 178.6(6) 4_455 4_455
O3 U1 O5 86.2(6) . 4_455
O5 U1 O5 92.4(8) . 4_455
O3 Se1 O3 98.2(14) . 4
O4 Se1 O3 102.0(8) . 4
O4 Se1 O3 102.0(8) . .
O5 Se2 O5 100.2(12) 4_355 .
O6 Se2 O5 101.3(8) . .
O6 Se2 O5 101.3(8) . 4_355
Cu1 Cu1 Cu1 180.0 4_655 4
O4 Cu1 Cu1 51.4(3) 1_545 4
O4 Cu1 Cu1 128.6(3) 1_545 4_655
O4 Cu1 O6 175.6(6) 1_545 2_445
O6 Cu1 Cu1 127.8(3) 2_445 4
O6 Cu1 Cu1 52.2(3) 2_445 4_655
O7 Cu1 Cu1 90.7(4) . 4
O7 Cu1 Cu1 89.3(4) . 4_655
O7 Cu1 O4 99.8(6) . 1_545
O7 Cu1 O6 84.5(6) . 2_445
O7 Cu1 O10 175.1(6) . 1_545
O8 Cu1 Cu1 38.7(4) . 4_655
O8 Cu1 Cu1 141.3(4) . 4
O8 Cu1 O4 89.9(5) . 1_545
O8 Cu1 O6 90.8(5) . 2_445
O8 Cu1 O7 95.8(7) . .
O8 Cu1 O9 179.6(7) . .
O8 Cu1 O10 86.9(7) . 1_545
O9 Cu1 Cu1 141.0(5) . 4_655
O9 Cu1 Cu1 39.0(5) . 4
O9 Cu1 O4 90.4(6) . 1_545
O9 Cu1 O6 88.9(6) . 2_445
O9 Cu1 O7 83.9(7) . .
O9 Cu1 O10 93.4(7) . 1_545
O10 Cu1 Cu1 90.3(3) 1_545 4_655
O10 Cu1 Cu1 89.7(3) 1_545 4
O10 Cu1 O4 84.3(6) 1_545 1_545
O10 Cu1 O6 91.4(6) 1_545 2_445
O7 Cu2 O4 90.7(5) . .
O7 Cu2 O4 90.7(5) 4 .
O7 Cu2 O7 99.2(8) . 4
O7 Cu2 O9 75.7(5) 4 .
O7 Cu2 O9 75.7(5) . .
O9 Cu2 O4 158.6(7) . .
O10 Cu2 O4 85.0(5) 4 .
O10 Cu2 O4 85.0(5) . .
O10 Cu2 O7 81.2(5) . .
O10 Cu2 O7 175.7(6) 4 .
O10 Cu2 O7 81.2(5) 4 4
O10 Cu2 O7 175.7(6) . 4
O10 Cu2 O9 108.5(5) . .
O10 Cu2 O9 108.5(5) 4 .
O10 Cu2 O10 98.2(7) . 4
O7 Cu3 Cu2 138.1(4) . 1_655
O7 Cu3 Cu2 41.4(4) 4_655 1_655
O7 Cu3 O7 96.7(8) . 4_655
O7 Cu3 O8 103.2(5) . 1_565
O7 Cu3 O8 103.2(5) 4_655 1_565
O7 Cu3 O10 178.5(6) 4_655 .
O7 Cu3 O10 81.9(5) . .
O7 Cu3 O10 81.9(5) 4_655 4_655
O7 Cu3 O10 178.5(6) . 4_655
O8 Cu3 Cu2 91.20(9) 1_565 1_655
O10 Cu3 Cu2 40.6(4) 4_655 1_655
O10 Cu3 Cu2 139.9(4) . 1_655
O10 Cu3 O8 76.5(5) . 1_565
O10 Cu3 O8 76.5(5) 4_655 1_565
O10 Cu3 O10 99.4(7) . 4_655
Se1 O3 U1 143.5(12) . .
Se1 O4 Cu1 136.0(6) . 1_565
Se1 O4 Cu1 136.0(6) . 4_565
Se1 O4 Cu2 122.4(11) . .
Cu1 O4 Cu1 77.1(6) 1_565 4_565
Cu1 O4 Cu2 82.8(6) 4_565 .
Cu1 O4 Cu2 82.8(6) 1_565 .
Se2 O5 U1 143.5(11) . .
Se2 O6 Cu1 127.8(8) . 3_344
Se2 O6 Cu1 127.8(8) . 2_444
Cu1 O6 Cu1 75.7(6) 3_344 2_444
Cu1 O7 H7 118(10) . .
Cu2 O7 Cu1 103.7(6) . .
Cu2 O7 H7 113(10) . .
Cu3 O7 Cu1 106.9(7) . .
Cu3 O7 Cu2 98.0(6) . .
Cu3 O7 H7 114(10) . .
Cu1 O8 Cu1 102.7(9) 4_655 .
Cu1 O8 Cu3 93.3(7) 4_655 1_545
Cu1 O8 Cu3 93.3(7) . 1_545
Cu1 O8 H8 101(6) 4_655 .
Cu1 O8 H8 101(6) . .
Cu3 O8 H8 157(10) 1_545 .
Cu1 O9 Cu1 102.0(9) . 4
Cu1 O9 Cu2 96.7(6) . .
Cu1 O9 Cu2 96.7(6) 4 .
Cu1 O9 H9 130(10) . .
Cu1 O9 H9 88(10) 4 .
Cu2 O9 H9 131(10) . .
Cu1 O10 H10 109(10) 1_565 .
Cu2 O10 Cu1 105.6(6) . 1_565
Cu2 O10 Cu3 98.8(6) . .
Cu2 O10 H10 124(10) . .
Cu3 O10 Cu1 103.3(6) . 1_565
Cu3 O10 H10 114(10) . .
loop_
_geom_bond_atom_site_label_1
_geom_bond_atom_site_label_2
_geom_bond_distance
_geom_bond_site_symmetry_2
U1 O1 1.79(3) .
U1 O2 1.77(3) .
U1 O3 2.284(16) .
U1 O3 2.284(16) 4_455
U1 O5 2.324(17) .
U1 O5 2.324(17) 4_455
Se1 O3 1.726(19) 4
Se1 O3 1.726(19) .
Se1 O4 1.67(2) .
Se2 O5 1.715(18) 4_355
Se2 O5 1.715(18) .
Se2 O6 1.64(2) .
Cu1 Cu1 2.990(4) 4_655
Cu1 Cu1 2.995(4) 4
Cu1 O4 2.402(16) 1_545
Cu1 O6 2.436(18) 2_445
Cu1 O7 2.015(15) .
Cu1 O8 1.914(12) .
Cu1 O9 1.927(13) .
Cu1 O10 2.044(14) 1_545
Cu2 O4 2.44(2) .
Cu2 O7 2.000(13) .
Cu2 O7 2.000(13) 4
Cu2 O9 2.283(19) .
Cu2 O10 1.969(12) 4
Cu2 O10 1.969(12) .
Cu3 O7 1.966(14) .
Cu3 O7 1.966(13) 4_655
Cu3 O8 2.39(2) 1_565
Cu3 O10 1.972(12) .
Cu3 O10 1.972(12) 4_655
O7 H7 0.90(3) .
O8 H8 1.00(3) .
O9 H9 1.00(3) .
O10 H10 0.90(3) .
loop_
_geom_torsion_atom_site_label_1
_geom_torsion_atom_site_label_2
_geom_torsion_atom_site_label_3
_geom_torsion_atom_site_label_4
_geom_torsion
_geom_torsion_site_symmetry_1
_geom_torsion_site_symmetry_2
_geom_torsion_site_symmetry_3
_geom_torsion_site_symmetry_4
O3 Se1 O3 U1 -109.6(17) 4 . . .
O3 Se1 O4 Cu1 -65.6(16) . . . 4_565
O3 Se1 O4 Cu1 -166.9(14) 4 . . 4_565
O3 Se1 O4 Cu1 166.9(14) . . . 1_565
O3 Se1 O4 Cu1 65.6(16) 4 . . 1_565
O3 Se1 O4 Cu2 -50.6(7) 4 . . .
O3 Se1 O4 Cu2 50.6(7) . . . .
O4 Se1 O3 U1 146.1(17) . . . .
O5 Se2 O5 U1 106.0(16) 4_355 . . .
O5 Se2 O6 Cu1 102.4(11) 4_355 . . 2_444
O5 Se2 O6 Cu1 -102.4(11) . . . 3_344
O5 Se2 O6 Cu1 -0.5(13) . . . 2_444
O5 Se2 O6 Cu1 0.5(13) 4_355 . . 3_344
O6 Se2 O5 U1 -150.1(15) . . . .
loop_
_exptl_oxdiff_crystal_face_indexfrac_h
_exptl_oxdiff_crystal_face_indexfrac_k
_exptl_oxdiff_crystal_face_indexfrac_l
_exptl_oxdiff_crystal_face_x
_exptl_oxdiff_crystal_face_y
_exptl_oxdiff_crystal_face_z
-2.6320 1.2167 25.1936 -0.0104 -0.0042 0.9999
-8.4076 0.1667 0.5799 -0.9197 0.2163 0.3277
8.2525 0.1046 5.1923 0.9666 -0.2289 -0.1150
-2.1224 5.1811 18.9871 0.1177 0.5188 0.8467
0.8673 7.0849 -11.0871 0.2241 0.9358 -0.2721
2.3067 -4.3550 -21.0966 -0.0902 -0.4047 -0.9100
-0.7693 -7.2103 10.1697 -0.2262 -0.9456 0.2339
