#------------------------------------------------------------------------------
#$Date: 2022-02-04 02:48:43 +0200 (Fri, 04 Feb 2022) $
#$Revision: 272529 $
#$URL: file:///home/coder/svn-repositories/cod/cif/1/56/62/1566297.cif $
#------------------------------------------------------------------------------
#
# This file is available in the Crystallography Open Database (COD),
# http://www.crystallography.net/
#
# All data on this site have been placed in the public domain by the
# contributors.
#
data_1566297
loop_
_publ_author_name
'Chen, De-Li'
'Chen, Mei-Ying'
'Hou, Yong'
'Wang, Can-Hong'
'Sun, Zhao-Cui'
'Yang, Yun'
'Liang, Han-Qiao'
'Ma, Guo-Xu'
'Xu, Xu-Dong'
'Wei, Jian-He'
_publ_section_title
;
 Cadinane-Type Sesquiterpenoids with Cytotoxic Activity from the Infected
 Stems of the Semi-mangrove <i>Hibiscus tiliaceus</i>.
;
_journal_issue                   1
_journal_name_full               'Journal of natural products'
_journal_page_first              127
_journal_page_last               135
_journal_paper_doi               10.1021/acs.jnatprod.1c00849
_journal_volume                  85
_journal_year                    2022
_chemical_absolute_configuration ad
_chemical_formula_moiety         'C16 H18 O4'
_chemical_formula_sum            'C16 H18 O4'
_chemical_formula_weight         274.30
_space_group_crystal_system      monoclinic
_space_group_IT_number           4
_space_group_name_Hall           'P 2yb'
_space_group_name_H-M_alt        'P 1 21 1'
_atom_sites_solution_hydrogens   geom
_atom_sites_solution_primary     direct
_audit_creation_date             2021-08-30
_audit_creation_method
;
Olex2 1.3-alpha
(compiled 2020.09.11 svn.r3730fd0d for OlexSys, GUI svn.r6159)
;
_cell_angle_alpha                90
_cell_angle_beta                 99.486(2)
_cell_angle_gamma                90
_cell_formula_units_Z            2
_cell_length_a                   4.70500(10)
_cell_length_b                   12.2221(3)
_cell_length_c                   12.1951(3)
_cell_measurement_reflns_used    5976
_cell_measurement_temperature    100.01(10)
_cell_measurement_theta_max      75.7740
_cell_measurement_theta_min      3.6090
_cell_volume                     691.69(3)
_computing_cell_refinement       'CrysAlisPro 1.171.41.95a (Rigaku OD, 2021)'
_computing_data_collection       'CrysAlisPro 1.171.41.95a (Rigaku OD, 2021)'
_computing_data_reduction        'CrysAlisPro 1.171.41.95a (Rigaku OD, 2021)'
_computing_molecular_graphics    'Olex2 1.3-alpha (Dolomanov et al., 2009)'
_computing_publication_material  'Olex2 1.3-alpha (Dolomanov et al., 2009)'
_computing_structure_refinement  'SHELXL 2018/3 (Sheldrick, 2015)'
_computing_structure_solution    'SHELXS  (Sheldrick, 2008)'
_diffrn_ambient_environment      N~2~
_diffrn_ambient_temperature      100.01(10)
_diffrn_detector                 'Hybrid Pixel Array Detector'
_diffrn_detector_area_resol_mean 10.0000
_diffrn_detector_type            HyPix
_diffrn_measured_fraction_theta_full 1.000
_diffrn_measured_fraction_theta_max 0.981
_diffrn_measurement_details
;
List of Runs (angles in degrees, time in seconds):

  # Type    Start    End  Width  t~exp~   \w     \q     \k     \f   Frames
--------------------------------------------------------------------------
  1  \w     34.00 108.00   0.50    0.05    --   47.51  57.00 150.00  148
  2  \w     25.00  81.00   0.50    0.05    --   47.51  77.00  60.00  112
  3  \w     43.00  93.00   0.50    0.05    --   47.51  37.00  60.00  100
  4  \w     51.00  97.00   0.50    0.05    --   47.51  29.00  -0.00   92
  5  \w   -104.00 -76.00   0.50    0.05    --  -47.51 -29.00-161.00   56
  6  \w    -68.00 -29.00   0.50    0.05    -- -101.00  61.00 -90.00   78
  7  \w   -113.00 -73.00   0.50    0.05    --  -47.51 -57.00  60.00   80
  8  \w    -68.00 -32.00   0.50    0.05    --  -47.51 -57.00  60.00   72
  9  \w     -2.00  23.00   0.50    0.05    --  -47.51  29.00  -0.00   50
 10  \w    121.00 146.00   0.50    0.05    --  106.68  29.00  -0.00   50
 11  \w    142.00 174.00   0.50    0.05    --  106.68  15.00 -30.00   64
 12  \w     94.00 135.00   0.50    0.05    --  106.68  15.00 -30.00   82
 13  \w     35.00  65.00   0.50    0.05    --  106.68 -61.00 -90.00   60
 14  \w     39.00  64.00   0.50    0.05    --  106.68 -61.00 -60.00   50
 15  \w     35.00  67.00   0.50    0.05    --  106.68 -61.00 -30.00   64
 16  \w     36.00  62.00   0.50    0.05    --  106.68 -61.00  30.00   52
 17  \w     35.00  71.00   0.50    0.05    --  106.68 -61.00  60.00   72
 18  \w     35.00  67.00   0.50    0.05    --  106.68 -61.00  90.00   64
 19  \w    -25.00  40.00   0.50    0.05    --   47.51 -37.00  60.00  130
 20  \w    -24.00  10.00   0.50    0.05    --   47.51 -29.00-161.00   68
 21  \w     37.00 106.00   0.50    0.05    --  106.68-125.00-180.00  138
 22  \w     50.00  94.00   0.50    0.05    --  106.68 -94.00-120.00   88
 23  \w     80.00 105.00   0.50    0.05    --  106.68 -94.00  30.00   50
 24  \w     43.00  68.00   0.50    0.05    --  106.68 -94.00  30.00   50
 25  \w   -119.00 -75.00   0.50    0.05    --  -47.51-125.00   0.00   88
 26  \w   -109.00 -78.00   0.50    0.05    -- -101.00 -77.00  90.00   62
 27  \w   -103.00 -78.00   0.50    0.05    -- -101.00 -77.00 120.00   50
 28  \w   -103.00 -78.00   0.50    0.05    -- -101.00 -77.00 150.00   50
 29  \w   -171.00-117.00   0.50    0.05    -- -101.00 -77.00 150.00  108
 30  \w   -153.00-128.00   0.50    0.05    -- -101.00 -77.00 120.00   50
 31  \w   -169.00-134.00   0.50    0.05    -- -101.00 -77.00  90.00   70
 32  \w   -166.00-138.00   0.50    0.05    -- -101.00 -64.00  56.80   56
 33  \w   -173.00-145.00   0.50    0.05    -- -101.00 -77.00  60.00   56
 34  \w   -173.00-147.00   0.50    0.05    -- -101.00 -61.00 120.00   52
 35  \w   -162.00 -82.00   0.50    0.05    -- -101.00 -71.00  76.31  160
 36  \w   -120.00 -82.00   0.50    0.05    -- -101.00 -77.00  60.00   76
 37  \w   -112.00 -85.00   0.50    0.05    -- -101.00 -61.00  90.00   54
 38  \w   -111.00 -84.00   0.50    0.05    -- -101.00 -64.00  56.80   54
 39  \w   -111.00 -84.00   0.50    0.05    -- -101.00 -61.00 120.00   54
 40  \w   -109.00 -84.00   0.50    0.05    -- -101.00 -61.00 150.00   50
 41  \w   -122.00 -84.00   0.50    0.05    -- -101.00 -61.00 135.97   76
 42  \w   -126.00 -88.00   0.50    0.05    -- -101.00 -45.00 150.00   76
 43  \w   -116.00 -87.00   0.50    0.05    -- -101.00 -43.00 132.62   58
 44  \w   -171.00-132.00   0.50    0.05    -- -101.00 -61.00 135.97   78
 45  \w   -122.00 -92.00   0.50    0.05    -- -101.00 -43.00  94.12   60
 46  \w   -155.00-129.00   0.50    0.05    -- -101.00 -29.00-161.00   52
 47  \w   -166.00-139.00   0.50    0.05    -- -101.00 -61.00-180.00   54
 48  \w   -120.00 -84.00   0.50    0.05    -- -101.00 -61.00-180.00   72
;
_diffrn_measurement_device       'four-circle diffractometer'
_diffrn_measurement_device_type  'XtaLAB Synergy R, HyPix'
_diffrn_measurement_method       '\w scans'
_diffrn_orient_matrix_type
'CrysAlisPro convention (1999,Acta A55,543-557)'
_diffrn_orient_matrix_UB_11      0.0127388000
_diffrn_orient_matrix_UB_12      -0.0074880000
_diffrn_orient_matrix_UB_13      0.1268290000
_diffrn_orient_matrix_UB_21      0.3077230000
_diffrn_orient_matrix_UB_22      0.0472690000
_diffrn_orient_matrix_UB_23      0.0179279000
_diffrn_orient_matrix_UB_31      -0.1237148000
_diffrn_orient_matrix_UB_32      0.1166207000
_diffrn_orient_matrix_UB_33      0.0009655000
_diffrn_radiation_monochromator  mirror
_diffrn_radiation_probe          x-ray
_diffrn_radiation_type           'Cu K\a'
_diffrn_radiation_wavelength     1.54184
_diffrn_reflns_av_R_equivalents  0.0363
_diffrn_reflns_av_unetI/netI     0.0319
_diffrn_reflns_Laue_measured_fraction_full 1.000
_diffrn_reflns_Laue_measured_fraction_max 0.981
_diffrn_reflns_limit_h_max       5
_diffrn_reflns_limit_h_min       -5
_diffrn_reflns_limit_k_max       15
_diffrn_reflns_limit_k_min       -14
_diffrn_reflns_limit_l_max       14
_diffrn_reflns_limit_l_min       -15
_diffrn_reflns_number            7745
_diffrn_reflns_point_group_measured_fraction_full 0.972
_diffrn_reflns_point_group_measured_fraction_max 0.937
_diffrn_reflns_theta_full        67.684
_diffrn_reflns_theta_max         74.478
_diffrn_reflns_theta_min         3.675
_diffrn_source                   'Rotating-anode X-ray tube'
_diffrn_source_type              'PhotonJet R (Cu) X-ray Source'
_exptl_absorpt_coefficient_mu    0.771
_exptl_absorpt_correction_T_max  1.00000
_exptl_absorpt_correction_T_min  0.76073
_exptl_absorpt_correction_type   multi-scan
_exptl_absorpt_process_details
;
CrysAlisPro 1.171.41.95a (Rigaku Oxford Diffraction, 2021)
Empirical absorption correction using spherical harmonics,
implemented in SCALE3 ABSPACK scaling algorithm.
;
_exptl_crystal_colour            'clear light colourless'
_exptl_crystal_colour_lustre     clear
_exptl_crystal_colour_modifier   light
_exptl_crystal_colour_primary    colourless
_exptl_crystal_density_diffrn    1.317
_exptl_crystal_description       block
_exptl_crystal_F_000             292
_exptl_crystal_size_max          0.16
_exptl_crystal_size_mid          0.05
_exptl_crystal_size_min          0.02
_refine_diff_density_max         0.181
_refine_diff_density_min         -0.207
_refine_diff_density_rms         0.047
_refine_ls_abs_structure_details
;
 Flack x determined using 1093 quotients [(I+)-(I-)]/[(I+)+(I-)]
 (Parsons, Flack and Wagner, Acta Cryst. B69 (2013) 249-259).
;
_refine_ls_abs_structure_Flack   0.18(11)
_refine_ls_extinction_method     none
_refine_ls_goodness_of_fit_ref   1.056
_refine_ls_hydrogen_treatment    constr
_refine_ls_matrix_type           full
_refine_ls_number_parameters     187
_refine_ls_number_reflns         2650
_refine_ls_number_restraints     1
_refine_ls_restrained_S_all      1.056
_refine_ls_R_factor_all          0.0393
_refine_ls_R_factor_gt           0.0378
_refine_ls_shift/su_max          0.000
_refine_ls_shift/su_mean         0.000
_refine_ls_structure_factor_coef Fsqd
_refine_ls_weighting_details
'w=1/[\s^2^(Fo^2^)+(0.0772P)^2^+0.0232P] where P=(Fo^2^+2Fc^2^)/3'
_refine_ls_weighting_scheme      calc
_refine_ls_wR_factor_gt          0.1042
_refine_ls_wR_factor_ref         0.1056
_reflns_Friedel_coverage         0.821
_reflns_Friedel_fraction_full    0.941
_reflns_Friedel_fraction_max     0.888
_reflns_number_gt                2511
_reflns_number_total             2650
_reflns_threshold_expression     'I > 2\s(I)'
_cod_data_source_file            np1c00849_si_004.cif
_cod_data_source_block           hjxc_a_4_4_auto
_cod_database_code               1566297
_shelx_shelxl_version_number     2018/3
_chemical_oxdiff_formula         C16H18O4
_shelx_space_group_comment
;
The symmetry employed for this shelxl refinement is uniquely defined
by the following loop, which should always be used as a source of
symmetry information in preference to the above space-group names.
They are only intended as comments.
;
_shelx_estimated_absorpt_t_max   0.985
_shelx_estimated_absorpt_t_min   0.887
_reflns_odcompleteness_completeness 100.00
_reflns_odcompleteness_iscentric 1
_reflns_odcompleteness_theta     66.97
_olex2_refinement_description
;
1. Fixed Uiso
 At 1.2 times of:
  All C(H) groups
 At 1.5 times of:
  All C(H,H,H) groups, All O(H) groups
2.a Ternary CH refined with riding coordinates:
 C11(H11)
2.b Aromatic/amide H refined with riding coordinates:
 C3(H3A), C5(H5), C14(H14)
2.c Idealised Me refined as rotating group:
 C12(H12A,H12B,H12C), C13(H13A,H13B,H13C), C15(H15A,H15B,H15C), C16(H16A,H16B,
 H16C)
2.d Idealised tetrahedral OH refined as rotating group:
 O2(H2), O3(H3)
;
_shelx_res_file
;
TITL hjxc_a_4_4_auto_a.res in P2(1)
    hjxc_a_4_4_auto.res
    created by SHELXL-2018/3 at 16:33:54 on 30-Aug-2021
REM Old TITL HJXC_A_4_4_auto in P2(1)/m
REM SHELXT solution in P2(1)
REM R1 0.091, Rweak 0.019, Alpha 0.001, Orientation as input
REM Flack x = 0.138 ( 0.096 ) from Parsons' quotients
REM Formula found by SHELXT: C16 O4
CELL 1.54184 4.705 12.2221 12.1951 90 99.486 90
ZERR 2 0.0001 0.0003 0.0003 0 0.002 0
LATT -1
SYMM -X,0.5+Y,-Z
SFAC C H O
UNIT 32 36 8
EQIV $1 -X,0.5+Y,1-Z

L.S. 4
PLAN  5
SIZE 0.02 0.05 0.16
TEMP -173
HTAB O3 O1_$1
HTAB O2 O1
HTAB C14 O4
CONF
MORE -1
BOND $H
fmap 2
acta
SHEL 999 0.8
REM <olex2.extras>
REM <HklSrc "%.\\HJXC_A_4_4_auto.hkl">
REM </olex2.extras>

WGHT    0.077200    0.023200
FVAR       1.06714
O1    3   -0.141133    0.281087    0.397636    11.00000    0.02484    0.02047 =
         0.02920    0.00285    0.00783   -0.00281
O2    3    0.094547    0.207582    0.242803    11.00000    0.03190    0.01586 =
         0.03547   -0.00102    0.01314   -0.00398
AFIX 147
H2    2   -0.006124    0.206635    0.293638    11.00000   -1.50000
AFIX   0
O3    3    0.500063    0.758578    0.448703    11.00000    0.02755    0.01734 =
         0.02781   -0.00429    0.00977   -0.00264
AFIX 147
H3    2    0.368726    0.749061    0.486782    11.00000   -1.50000
AFIX   0
O4    3    0.208689    0.572621    0.477826    11.00000    0.02964    0.02239 =
         0.02712   -0.00253    0.01328   -0.00139
C1    1    0.188383    0.389042    0.316405    11.00000    0.01969    0.01820 =
         0.02423    0.00256    0.00443    0.00136
C2    1    0.223857    0.305666    0.241321    11.00000    0.02124    0.01705 =
         0.02816    0.00124    0.00441    0.00100
C3    1    0.388148    0.321097    0.155789    11.00000    0.02221    0.01818 =
         0.02638   -0.00249    0.00596    0.00130
AFIX  43
H3A   2    0.407674    0.262437    0.106464    11.00000   -1.20000
AFIX   0
C4    1    0.519930    0.418694    0.142346    11.00000    0.02034    0.01977 =
         0.02354    0.00029    0.00380    0.00287
C5    1    0.664337    0.603539    0.216314    11.00000    0.02192    0.01960 =
         0.02289    0.00117    0.00632    0.00035
AFIX  43
H5    2    0.775641    0.611373    0.158485    11.00000   -1.20000
AFIX   0
C6    1    0.663513    0.687923    0.290069    11.00000    0.02058    0.01733 =
         0.02638    0.00099    0.00374   -0.00052
C7    1    0.500155    0.674340    0.376451    11.00000    0.02133    0.01715 =
         0.02387   -0.00202    0.00307    0.00225
C8    1    0.352700    0.577923    0.387527    11.00000    0.02062    0.01813 =
         0.02416    0.00156    0.00565    0.00135
C9    1    0.344906    0.490983    0.310264    11.00000    0.01916    0.01725 =
         0.02414    0.00152    0.00353    0.00270
C10   1    0.507763    0.504978    0.221648    11.00000    0.01874    0.01718 =
         0.02506    0.00148    0.00293    0.00169
C11   1    0.671001    0.437152    0.042456    11.00000    0.02825    0.02098 =
         0.02533   -0.00349    0.00985   -0.00226
AFIX  13
H11   2    0.861061    0.472655    0.069614    11.00000   -1.20000
AFIX   0
C12   1    0.491820    0.515901   -0.040739    11.00000    0.04350    0.02489 =
         0.02762    0.00114    0.01010   -0.00304
AFIX 137
H12A  2    0.306264    0.481904   -0.070173    11.00000   -1.50000
H12B  2    0.596725    0.531495   -0.102038    11.00000   -1.50000
H12C  2    0.458755    0.584280   -0.002804    11.00000   -1.50000
AFIX   0
C13   1    0.727378    0.331670   -0.018273    11.00000    0.03130    0.02605 =
         0.03015   -0.00671    0.01198   -0.00234
AFIX 137
H13A  2    0.834747    0.280196    0.034675    11.00000   -1.50000
H13B  2    0.840206    0.348547   -0.076888    11.00000   -1.50000
H13C  2    0.543255    0.298771   -0.051463    11.00000   -1.50000
AFIX   0
C14   1   -0.012729    0.370349    0.392478    11.00000    0.02259    0.02022 =
         0.02583    0.00161    0.00401    0.00165
AFIX  43
H14   2   -0.048840    0.428120    0.440455    11.00000   -1.20000
AFIX   0
C15   1    0.828886    0.791645    0.282688    11.00000    0.02772    0.02103 =
         0.02624   -0.00181    0.00755   -0.00488
AFIX 137
H15A  2    0.694375    0.851462    0.258522    11.00000   -1.50000
H15B  2    0.960433    0.782310    0.228888    11.00000   -1.50000
H15C  2    0.940045    0.809024    0.355825    11.00000   -1.50000
AFIX   0
C16   1    0.395079    0.539450    0.577997    11.00000    0.05269    0.02193 =
         0.02736    0.00148    0.01246    0.00222
AFIX 137
H16A  2    0.459294    0.464051    0.569816    11.00000   -1.50000
H16B  2    0.289891    0.543695    0.640860    11.00000   -1.50000
H16C  2    0.562931    0.588024    0.591502    11.00000   -1.50000
AFIX   0
HKLF 4




REM  hjxc_a_4_4_auto_a.res in P2(1)
REM wR2 = 0.1056, GooF = S = 1.056, Restrained GooF = 1.056 for all data
REM R1 = 0.0378 for 2511 Fo > 4sig(Fo) and 0.0393 for all 2650 data
REM 187 parameters refined using 1 restraints

END

WGHT      0.0772      0.0232

REM Highest difference peak  0.181,  deepest hole -0.207,  1-sigma level  0.047
Q1    1   0.5872  0.4269  0.0879  11.00000  0.05    0.18
Q2    1   0.5549  0.6834  0.3212  11.00000  0.05    0.17
Q3    1   0.3244  0.3257  0.3142  11.00000  0.05    0.17
Q4    1  -0.0401  0.1999  0.1586  11.00000  0.05    0.16
Q5    1   0.0959  0.3718  0.2456  11.00000  0.05    0.16
;
_shelx_res_checksum              66824
_shelx_hkl_file
;
   0   0   1 1232.15   37.38
   0   0  -1 1207.87   37.36
   0   0  -1 1266.61   37.33
   0   0   1 1291.63   37.34
   0   0  -2  115.61    3.58
   0   0   2  128.37    3.64
   0   0   2   92.23    3.43
   0   0  -3  509.93   15.79
   0   0   3  512.39   15.97
   0   0   3  518.97   15.86
   0   0  -3  505.48   15.93
   0   0   4  358.54   11.75
   0   0  -4  351.74   11.70
   0   0   4  365.98   11.59
   0   0   5  591.93   18.84
   0   0   5  584.13   18.62
   0   0  -6  263.56    8.95
   0   0  -6  292.58    9.29
   0   0  -7   77.05    3.46
   0   0  -7   96.97    4.40
   0   0  -8   44.18    3.39
   0   0  -8   44.85    3.02
   0   0  -9   76.22    4.17
   0   0  -9   78.51    4.77
   0   0  -9   70.36    4.40
   0   0   9   74.67    4.72
   0   0 -10    0.29    1.28
   0   0  10   -0.32    1.29
   0   0 -10    0.80    1.45
   0   0 -11  309.19   12.12
   0   0 -11  310.11   12.45
   0   0  11  291.48   11.86
   0   0 -12   98.10    5.29
   0   0 -12  123.34    6.84
   0   0 -12  110.47    6.36
   0   0  12  115.35    6.71
   0   0  12  105.57    6.00
   0   0 -13  227.64    9.59
   0   0  13  224.02    9.52
   0   0 -14   21.46    2.38
   0   0  14   21.72    2.37
   0   1   0    4.46    0.35
   0  -1   0    0.13    0.15
   0  -1   1 3729.69  110.66
   0  -1  -1 3542.40  110.64
   0   1  -1 3897.19  110.66
   0  -1   1 3748.57  110.70
   0   1   1 3580.11  110.66
   0  -1  -1 3848.29  110.66
   0  -1   2  425.79   12.78
   0   1  -2  411.78   12.75
   0  -1  -2  410.93   12.68
   0  -1  -2  404.54   12.79
   0  -1   2  420.43   12.82
   0  -1   3   63.11    2.46
   0  -1   3   55.89    2.48
   0   1  -3   57.56    2.35
   0  -1  -3   60.21    2.37
   0   1  -3   56.76    1.97
   0  -1  -3   57.16    2.47
   0  -1  -4  108.80    4.20
   0   1  -4  106.57    3.91
   0  -1  -4  114.80    4.05
   0  -1   4  114.60    4.11
   0  -1   4  108.32    4.25
   0   1  -4  100.07    3.53
   0  -1  -5  381.19   11.51
   0  -1   5  378.00   11.86
   0   1  -5  347.13   11.23
   0  -1   5  352.00   11.54
   0   1  -5  329.04   10.80
   0   1  -6  219.55    6.57
   0  -1   6  232.90    7.18
   0  -1  -6  219.70    7.07
   0  -1  -7  397.42   13.00
   0   1  -7  405.97   13.31
   0  -1   7  404.08   13.16
   0  -1  -7  412.72   13.65
   0   1  -8  111.07    4.97
   0  -1  -8  109.24    5.57
   0   1  -8  125.40    5.46
   0   1  -8  111.59    5.09
   0  -1  -8  128.15    5.73
   0   1   8  109.44    5.50
   0  -1  -8  106.52    4.99
   0  -1  -8  101.11    4.76
   0   1  -8  107.77    5.61
   0   1  -9    7.43    1.51
   0  -1  -9    7.11    1.66
   0   1   9    9.47    1.70
   0  -1  -9    8.39    1.83
   0   1  -9    9.33    1.70
   0  -1  -9    7.47    1.78
   0   1  -9    8.80    2.25
   0  -1  10  116.35    6.38
   0  -1 -10  103.97    5.26
   0   1 -10   96.87    4.96
   0   1 -10  113.00    6.18
   0   1 -10   94.84    5.51
   0  -1 -10  120.60    6.25
   0   1  10  108.00    5.88
   0  -1 -10  105.12    5.94
   0   1  11  296.58   12.03
   0   1 -11  306.04   11.47
   0  -1 -11  309.93   12.81
   0   1 -11  320.57   12.71
   0  -1 -11  307.90   12.46
   0  -1  11  317.45   12.78
   0  -1  12  601.59   21.34
   0  -1 -12  629.96   21.78
   0  -1 -12  568.86   21.02
   0   1 -12  625.49   21.54
   0   1 -12  569.94   19.85
   0  -1  12  563.25   21.43
   0  -1  13  161.15    7.13
   0  -1  13  153.29    7.27
   0  -1 -13  126.95    5.81
   0   1 -13  126.56    5.94
   0  -1 -13  157.34    7.40
   0  -1  14   21.09    2.28
   0   1 -14   20.76    1.76
   0   2   0  554.47   17.00
   0   2   0  544.38   16.85
   0  -2   0  566.16   16.74
   0  -2   1 1709.29   48.36
   0  -2  -1 1596.63   48.46
   0   2   1 1572.47   48.35
   0   2  -1 1587.29   48.49
   0  -2   2  741.11   21.94
   0  -2  -2  714.47   21.86
   0  -2  -2  700.21   21.88
   0   2  -2  759.34   22.08
   0   2  -2  723.44   21.91
   0  -2   2  712.31   21.96
   0   2   2  701.66   21.93
   0  -2   3  250.38    8.28
   0   2   3  245.59    8.38
   0  -2  -3  250.15    8.29
   0   2  -3  259.94    8.33
   0  -2  -3  249.83    8.13
   0   2  -3  252.47    8.32
   0  -2   3  266.55    8.36
   0  -2   4  201.68    7.29
   0  -2   4  223.41    7.48
   0   2   4  214.38    7.47
   0  -2  -4  216.51    7.20
   0   2  -4  218.77    7.33
   0  -2   5   23.08    1.69
   0   2  -5   24.14    1.65
   0  -2  -5   24.97    1.75
   0  -2   6  287.68   10.16
   0   2  -6  289.67    9.85
   0  -2  -6  298.51   10.03
   0   2  -6  298.55   10.17
   0   2  -7  427.10   14.62
   0  -2  -7  462.85   15.58
   0  -2   7  480.16   15.43
   0   2  -7  477.26   15.33
   0  -2  -8  172.36    6.86
   0   2  -8  170.34    6.83
   0  -2  -8  153.93    7.26
   0  -2  -8  170.92    7.08
   0  -2  -8  178.42    7.57
   0   2   8  159.50    7.12
   0   2  -8  168.02    6.92
   0  -2  -8  169.42    6.78
   0  -2   8  175.84    7.02
   0   2  -9   11.84    1.77
   0  -2  -9    9.26    1.92
   0  -2  -9   12.10    1.90
   0  -2  -9   12.32    2.10
   0   2  -9   13.17    1.81
   0   2   9   14.01    1.89
   0   2  10   35.89    3.12
   0   2 -10   35.92    2.84
   0   2  10   31.11    2.68
   0   2 -10   37.12    3.24
   0  -2  10   46.81    4.00
   0  -2 -10   31.73    3.20
   0  -2 -10   35.61    2.96
   0  -2 -10   38.12    3.51
   0   2 -11  254.39   10.82
   0  -2 -11  236.15   10.53
   0  -2  11  252.44   10.85
   0  -2 -11  207.30   10.07
   0  -2 -11  210.04    8.90
   0   2 -11  248.58    9.54
   0  -2 -11  227.40   10.11
   0   2  11  227.88    9.53
   0  -2  12   26.99    3.17
   0  -2  12   32.67    3.41
   0   2 -12   28.39    3.39
   0   2  12   26.56    3.24
   0   2 -12   35.02    3.07
   0  -2 -12   31.36    3.44
   0  -2  13   28.47    2.92
   0  -2  13   26.56    2.87
   0   2 -13   25.70    2.44
   0   2  13   31.24    3.11
   0  -2 -13   26.49    2.22
   0  -2 -13   30.05    3.08
   0   2 -13   29.95    3.04
   0   2 -13   23.80    2.31
   0   2  14   14.45    1.92
   0   2 -14   10.21    1.26
   0  -2  14   11.95    1.74
   0   3   0    0.84    0.58
   0  -3   0    0.01    0.41
   0   3   1  159.21    5.38
   0   3  -1  159.04    5.47
   0   3  -2  318.95    9.89
   0  -3  -2  293.68    9.54
   0  -3   2  285.92    9.67
   0  -3   2  305.30    9.30
   0   3  -3 1300.21   40.83
   0  -3   3 1384.45   41.43
   0   3  -4  664.26   19.78
   0  -3   4  613.27   19.56
   0   3  -4  597.56   19.09
   0  -3  -4  636.33   19.38
   0   3  -5  312.32   10.29
   0   3  -5  298.80    9.87
   0  -3  -5  297.49   10.04
   0  -3   5  302.07   10.29
   0   3  -6  439.51   14.85
   0  -3   6  458.67   15.30
   0  -3  -6  472.63   15.11
   0  -3  -6  474.95   15.95
   0   3  -6  474.33   15.13
   0   3  -7  443.62   15.41
   0  -3  -7  472.06   15.67
   0  -3  -7  469.24   15.75
   0  -3   7  480.25   15.97
   0  -3  -7  487.43   16.52
   0  -3  -7  489.46   15.72
   0   3  -7  465.51   15.55
   0   3  -7  508.13   16.00
   0  -3  -8  339.05   12.04
   0  -3  -8  341.46   11.96
   0  -3  -8  330.07   12.66
   0   3  -8  360.73   12.45
   0   3  -8  332.01   12.78
   0   3  -8  327.93   11.80
   0   3  -8  365.50   12.26
   0  -3  -8  324.73   12.59
   0  -3   8  354.65   12.34
   0   3  -8  336.02   11.88
   0  -3  -9   32.93    2.93
   0   3  -9   39.69    3.44
   0   3   9   34.61    2.81
   0  -3  -9   32.14    2.75
   0   3  -9   35.92    2.88
   0  -3  -9   34.76    3.15
   0   3  -9   42.58    3.26
   0  -3 -10   67.74    4.62
   0  -3 -10   58.25    4.53
   0   3 -10   68.81    4.89
   0  -3 -10   58.67    3.82
   0  -3 -10   67.12    4.75
   0   3 -10   73.32    4.84
   0   3 -10   68.86    4.36
   0   3 -10   58.21    3.85
   0   3  10   59.04    3.86
   0   3 -11   26.69    2.92
   0  -3 -11   25.73    2.91
   0   3 -11   23.93    3.16
   0   3  11   24.59    3.13
   0  -3 -11   20.31    2.35
   0   3 -11   29.14    3.27
   0  -3 -11   20.71    2.91
   0  -3  11   26.91    3.17
   0  -3  11   27.79    3.39
   0  -3 -11   18.53    2.74
   0   3  11   22.59    2.42
   0   3 -12   77.94    4.49
   0   3  12   74.99    5.11
   0  -3 -12   84.09    5.28
   0  -3  12   82.23    5.15
   0   3 -12   84.36    5.33
   0   3 -12   79.77    4.62
   0   3 -12   82.06    5.34
   0  -3  12   88.75    5.53
   0  -3 -13   94.07    5.15
   0   3  13   81.87    4.96
   0   3 -13   84.76    4.47
   0  -3  13   92.77    5.06
   0  -3  13   99.83    5.36
   0   3 -13   80.84   12.56
   0  -3  13   88.13    4.93
   0   3 -13  100.57    5.29
   0  -3  14    3.10    1.08
   0   3 -14    1.46    0.87
   0  -3  14    1.11    0.96
   0   4   0 2304.48   68.81
   0  -4   0 2291.83   68.61
   0   4  -1  477.37   15.27
   0  -4  -1  503.17   15.27
   0   4   1  488.74   15.18
   0  -4   2  604.89   18.49
   0   4   2  579.21   18.52
   0   4  -2  624.52   19.08
   0  -4   2  568.24   18.80
   0  -4  -2  587.22   18.63
   0  -4   3  173.78    6.44
   0  -4  -3  193.24    6.82
   0   4  -3  193.73    6.71
   0  -4  -3  174.04    6.25
   0   4  -4  365.08    8.01
   0  -4  -4  360.41    8.38
   0  -4   4  338.26    7.68
   0  -4  -5  394.72   13.36
   0  -4  -5  372.84   12.47
   0  -4   5  376.85   12.79
   0   4  -5  387.63   12.87
   0  -4  -6  323.65   11.80
   0   4  -6  332.39   11.15
   0  -4   6  320.18   11.17
   0  -4  -6  314.28   10.84
   0   4  -6  311.16   11.19
   0   4  -6  313.06   11.15
   0  -4  -7   18.28    1.84
   0  -4   7   17.79    1.92
   0   4  -7   18.96    1.94
   0  -4  -7   17.71    2.26
   0   4  -7   20.34    2.22
   0  -4  -7   20.19    1.99
   0   4  -7   19.19    2.07
   0   4  -7   17.54    1.77
   0   4  -7   17.72    2.07
   0  -4  -7   21.81    2.42
   0  -4   8  121.64    5.47
   0  -4  -8  109.65    5.23
   0  -4  -8  112.23    5.15
   0  -4  -8  117.16    6.06
   0   4  -8  123.37    5.68
   0   4  -8  100.21    5.62
   0   4  -8  115.03    5.46
   0  -4  -8  106.44    5.78
   0   4   8  110.29    5.35
   0   4  -9   29.35    3.11
   0  -4  -9   29.12    2.94
   0  -4  -9   30.48    2.92
   0  -4   9   29.39    2.72
   0   4  -9   33.20    3.09
   0  -4  -9   26.53    2.93
   0   4   9   30.48    2.83
   0   4  -9   31.20    3.14
   0  -4  -9   32.28    2.65
   0  -4  -9   33.05    2.73
   0   4 -10   63.21    4.69
   0  -4 -10   66.80    4.70
   0  -4  10   62.23    4.58
   0   4  10   61.40    4.04
   0  -4 -10   61.90    3.95
   0  -4  10   76.59    5.19
   0   4 -10   69.40    4.81
   0   4 -10   72.14    4.50
   0   4 -11    1.16    1.87
   0   4 -11    1.50    1.66
   0   4 -11   -0.48    1.82
   0  -4  11   -0.33    1.39
   0  -4 -11    0.16    1.61
   0   4  11   -1.77    1.93
   0   4  11   -0.65    1.37
   0   4 -11    0.17    1.67
   0  -4 -11   -0.94    1.40
   0  -4 -12   24.88    2.82
   0  -4  12   24.89    2.75
   0   4  12   24.19    2.75
   0   4 -12   24.33    2.92
   0   4  12   22.22    2.25
   0   4 -12   24.91    2.85
   0   4 -12   28.85    2.76
   0   4 -12   23.49    2.62
   0  -4  13   10.61    1.75
   0   4 -13    9.15    1.58
   0  -4 -13   10.16    1.66
   0  -4  13   10.86    1.70
   0  -4  14    0.50    0.87
   0  -5   0   -0.22    0.46
   0   5   0   -0.31    0.65
   0  -5  -1  187.65    6.29
   0   5   1  186.65    6.26
   0  -5   1  188.71    6.53
   0   5  -1  171.26    6.32
   0  -5  -2   91.07    3.14
   0  -5   2  113.66    4.14
   0  -5  -2  118.81    3.97
   0   5   2  118.65    3.78
   0  -5   2  117.30    3.80
   0  -5  -2  133.48    4.21
   0   5   3  114.57    4.40
   0  -5  -3  117.08    4.58
   0  -5  -3  131.68    5.04
   0  -5   3  114.98    4.77
   0   5  -3  128.13    5.14
   0  -5   4  423.97   14.24
   0   5  -4  433.00   14.50
   0  -5  -4  436.15   14.65
   0   5  -5  232.59    8.96
   0  -5  -5  249.29    8.65
   0   5  -5  263.00    9.24
   0  -5   5  243.29    8.95
   0  -5  -5  254.62    9.50
   0  -5  -6  245.99   10.41
   0  -5   6  276.95    9.76
   0  -5  -6  284.58   10.43
   0  -5  -6  276.88    9.36
   0   5  -6  244.09    9.89
   0   5  -6  255.62    9.72
   0   5   6  256.34    9.74
   0   5  -7   79.63    4.34
   0  -5   7   81.81    4.14
   0  -5  -7   83.88    4.74
   0   5   7   75.17    4.28
   0  -5  -7   68.71    3.83
   0  -5  -7   74.60    4.70
   0  -5  -7   77.15    3.88
   0   5  -7   70.28    4.28
   0  -5  -8  176.18    8.03
   0   5  -8  147.71    7.34
   0   5  -8  156.32    7.56
   0  -5  -8  160.90    6.70
   0  -5  -8  161.86    6.75
   0  -5  -8  156.37    7.43
   0  -5  -8  158.49    7.79
   0  -5  -8  167.97    6.95
   0   5  -8  178.43    7.40
   0   5   8  175.91    7.31
   0  -5   8  164.24    7.04
   0  -5   9   68.87    4.55
   0   5   9   57.34    4.16
   0   5  -9   72.30    4.37
   0  -5  -9   61.30    4.34
   0   5  -9   79.20    4.58
   0  -5  -9   71.22    4.04
   0   5   9   69.93    4.33
   0  -5  -9   62.61    4.68
   0   5  -9   64.67    4.47
   0  -5   9   61.26    4.03
   0  -5  -9   64.85    3.86
   0   5  -9   59.09    4.34
   0  -5  -9   54.83    4.38
   0  -5 -10   80.50    5.09
   0   5 -10   83.69    5.26
   0  -5  10   76.17    5.01
   0   5  10   84.17    4.82
   0   5 -10   86.39    4.91
   0  -5 -10   74.29    5.35
   0  -5 -10   78.42    4.48
   0   5 -10   85.92    5.17
   0   5  10   73.64    4.85
   0   5 -10   82.60    4.94
   0   5  11    3.54    1.73
   0   5 -11    2.00    1.33
   0  -5 -11    2.87    1.50
   0   5 -11    4.14    1.69
   0   5 -11    4.84    1.85
   0  -5 -11    2.33    1.36
   0  -5  11    2.14    1.29
   0   5 -11    6.35    1.97
   0  -5  11    2.68    1.78
   0   5 -12   14.07    2.05
   0  -5 -12   14.46    1.97
   0  -5  12   13.12    1.91
   0   5  12   12.06    1.91
   0   5 -12   12.14    2.14
   0  -5  12   16.13    2.37
   0   5 -13   -0.25    1.08
   0  -5  13    0.96    1.07
   0  -5  13    2.09    1.20
   0  -5  14   20.03    1.60
   0   6   0   18.66    1.42
   0  -6   0   26.20    1.94
   0   6  -1  770.21   23.70
   0  -6   1  770.98   24.01
   0   6   1  785.04   23.53
   0  -6  -1  720.58   23.47
   0  -6  -2  600.19   18.61
   0   6   2  583.86   18.22
   0  -6   2  551.19   18.35
   0  -6   2  574.06   18.75
   0  -6  -2  601.31   18.55
   0  -6  -3  545.61   17.40
   0   6   3  519.11   16.69
   0  -6   3  532.83   17.30
   0  -6  -3  523.12   16.99
   0  -6   4   26.83    2.00
   0  -6  -4   25.88    2.23
   0   6   4   20.53    1.59
   0   6  -4   19.44    1.99
   0   6   5   27.56    2.48
   0   6  -5   23.81    2.30
   0  -6  -5   35.79    2.76
   0  -6  -5   35.19    2.16
   0   6   5   22.25    1.79
   0  -6   5   31.35    2.32
   0   6  -5   27.41    2.44
   0   6   6    1.00    1.52
   0  -6  -6    0.87    1.09
   0   6  -6    1.07    1.30
   0  -6  -6    1.03    1.35
   0  -6   6    1.69    1.09
   0   6  -6    0.35    1.05
   0   6  -6    0.63    0.91
   0  -6  -6    0.30    1.26
   0   6   6    0.19    0.71
   0  -6  -7    5.78    1.88
   0  -6   7    4.74    1.36
   0  -6  -7    5.24    1.35
   0  -6  -7    3.13    1.55
   0   6   7    3.51    1.93
   0  -6  -7    5.26    1.42
   0   6  -7    4.58    1.83
   0   6  -7    4.42    1.66
   0   6  -7    4.97    1.36
   0   6  -7    3.36    1.50
   0   6  -7    3.56    1.29
   0   6  -8    8.31    2.16
   0  -6  -8    4.75    1.71
   0  -6  -8    5.60    1.55
   0   6  -8    4.19    1.41
   0   6   8    5.29    2.01
   0   6  -8    4.53    1.82
   0  -6  -8    6.64    1.90
   0  -6   8    7.11    1.58
   0   6  -9    3.51    1.33
   0   6  -9    2.90    1.77
   0  -6   9    2.41    1.26
   0  -6  -9    3.14    1.45
   0  -6  -9   -0.81    1.84
   0  -6  -9    2.67    1.76
   0   6   9    2.60    1.27
   0   6  -9    5.73    2.06
   0   6  -9    5.12    1.67
   0  -6  -9    2.50    1.57
   0   6   9    4.09    1.96
   0  -6  10    6.05    1.87
   0   6 -10    8.05    2.12
   0   6 -10    5.18    1.76
   0   6 -10    5.78    2.07
   0   6  10    5.88    2.13
   0  -6 -10    7.30    1.74
   0  -6  11    1.80    1.53
   0   6 -11    5.39    1.58
   0   6 -11    6.14    1.85
   0  -6 -11    3.85    1.42
   0   6  11    1.31    1.97
   0  -6  12   11.45    1.98
   0   6 -12    7.66    1.64
   0  -6  13    0.77    0.97
   0  -7   0    0.09    0.90
   0   7   0    0.62    0.75
   0  -7  -1   71.25    3.49
   0  -7  -1   79.61    4.26
   0  -7   1   72.59    3.66
   0   7   1   77.13    3.25
   0   7  -1   73.45    3.36
   0  -7  -2  196.96    6.75
   0   7   2  174.10    6.19
   0  -7   2  175.34    6.82
   0  -7   2  154.93    6.34
   0  -7  -2  181.09    7.65
   0  -7  -2  169.83    6.47
   0  -7  -3  741.14   25.38
   0  -7   3  777.16   24.27
   0  -7  -3  786.15   23.97
   0  -7  -3  779.78   24.25
   0   7   3  704.24   23.37
   0   7  -4  382.53   13.69
   0  -7  -4  412.97   14.73
   0   7   4  354.46   12.46
   0  -7  -4  407.64   13.72
   0   7  -4  388.06   13.39
   0  -7   4  396.99   13.37
   0   7  -4  378.25   13.37
   0   7  -4  379.30   14.14
   0  -7  -5  246.58   10.74
   0  -7  -5  244.96   10.00
   0   7  -5  243.17   10.33
   0  -7  -5  271.80    9.27
   0   7  -5  250.27    9.69
   0  -7   5  253.02    9.59
   0  -7  -6   42.63    2.77
   0  -7   6   40.39    2.98
   0   7   6   37.12    3.45
   0   7  -6   38.88    3.32
   0   7  -6   38.71    3.37
   0  -7  -6   33.19    3.17
   0   7  -6   39.12    3.19
   0   7  -7   40.84    3.41
   0  -7  -7   42.21    3.96
   0   7  -7   36.16    3.30
   0   7  -7   48.90    3.61
   0   7   7   48.33    3.72
   0  -7   7   35.42    2.94
   0  -7  -7   44.61    3.73
   0  -7  -8   67.37    4.04
   0  -7  -8   68.80    4.95
   0   7   8   85.19    4.98
   0   7  -8   82.19    4.67
   0   7  -8   66.35    4.22
   0  -7   8   65.93    4.20
   0   7  -8   70.31    4.50
   0  -7  -8   66.36    5.05
   0   7   9   83.96    4.99
   0  -7  -9   80.66    4.44
   0   7  -9   63.36    4.31
   0  -7  -9   69.82    5.09
   0   7  -9   78.98    4.71
   0  -7  -9   68.17    5.13
   0  -7   9   91.86    5.43
   0  -7  10   36.29    3.46
   0  -7 -10   37.00    2.84
   0   7 -10   36.87    3.22
   0   7  10   36.57    3.32
   0  -7  11  126.92    6.32
   0   7  11  117.14    5.68
   0   7 -11  120.34    5.60
   0  -7  12    8.97    1.70
   0  -7  12   12.98    1.82
   0  -7  13   10.93    1.34
   0  -7  13    9.71    1.26
   0   7  13   10.34    1.28
   0   8   0  274.28    9.76
   0  -8   0  275.39   10.75
   0  -8  -1   97.52    5.06
   0   8  -1   87.11    4.84
   0   8  -1   82.36    4.20
   0   8   1   92.08    3.81
   0  -8   1   83.63    4.28
   0   8   1   89.56    4.78
   0   8   1   78.85    4.19
   0   8   1   78.59    4.54
   0  -8  -1   98.79    4.31
   0   8  -2   20.59    2.09
   0  -8  -2   19.14    2.46
   0   8   2   18.77    1.54
   0   8   2   21.58    2.35
   0  -8  -2   23.39    2.00
   0  -8   2   23.69    2.16
   0   8   2   22.06    2.13
   0   8  -2   20.96    2.14
   0   8   2   22.99    2.25
   0   8   3   28.03    2.67
   0   8  -3   31.43    2.65
   0   8  -3   30.35    2.88
   0  -8   3   34.13    2.55
   0  -8  -3   34.86    3.22
   0   8   3   29.75    2.55
   0   8   3   28.85    2.69
   0   8  -3   28.88    2.52
   0  -8  -3   37.63    2.51
   0   8  -4  194.85    7.82
   0   8  -4  184.82    8.02
   0   8   4  180.21    7.72
   0  -8  -4  175.01    7.64
   0  -8   4  194.10    7.70
   0   8  -4  187.20    8.51
   0  -8  -4  203.79    9.15
   0   8   4  188.21    7.95
   0  -8   5    0.73    1.08
   0  -8  -5   -0.51    1.33
   0   8  -5    0.63    1.16
   0   8  -5    0.11    1.53
   0  -8  -5    0.19    1.52
   0   8  -6   26.69    2.89
   0  -8   6   27.33    2.56
   0  -8  -6   25.55    2.81
   0   8  -6   23.63    2.80
   0  -8   7   68.52    4.29
   0  -8  -7   63.05    4.70
   0  -8  -7   67.86    5.25
   0   8  -7   80.57    4.72
   0   8   7   85.51    5.07
   0   8  -7   84.72    5.11
   0  -8  -8  149.21    8.65
   0  -8  -8  146.00    8.19
   0   8  -8  175.25    8.06
   0   8  -8  204.26    8.09
   0   8   8  213.93    8.51
   0   8  -9  173.54    7.57
   0  -8   9  170.64    8.21
   0  -8  -9  166.27    7.18
   0   8   9  182.02    7.93
   0   8 -10   21.06    2.51
   0  -8  10   20.05    2.47
   0   8  10   23.02    2.80
   0  -8 -10   23.76    2.23
   0  -8  11    9.58    1.65
   0  -8  11   10.36    1.80
   0   8  11   10.74    1.95
   0  -8  12    6.58    1.18
   0  -8  12    7.55    1.34
   0  -8  12    5.61    1.23
   0   8  12    6.10    1.33
   0  -9   0   -0.50    0.98
   0   9   0   -0.09    1.11
   0   9   0   -0.27    0.96
   0  -9   0    0.92    1.01
   0   9   0    0.39    0.88
   0   9   0   -1.11    1.30
   0  -9  -1    6.52    1.33
   0  -9  -1    7.00    1.67
   0   9  -1    6.93    1.58
   0   9  -1    7.60    1.59
   0  -9   1    7.90    1.51
   0   9   1    6.54    1.64
   0   9   1    9.27    1.62
   0   9   1    8.28    1.55
   0   9  -1    9.69    1.58
   0  -9   2  316.68   11.47
   0   9   2  315.66   11.98
   0   9  -2  296.42   11.18
   0   9   2  306.12   11.25
   0   9  -2  298.68   11.50
   0   9   2  293.63   11.38
   0   9   2  296.48   10.96
   0  -9  -2  326.51   11.18
   0  -9  -2  302.31   12.50
   0   9  -3   41.07    3.26
   0  -9   3   49.61    3.32
   0  -9  -3   49.89    3.15
   0   9   3   45.29    3.42
   0   9   3   47.82    3.55
   0   9  -3   44.18    3.39
   0   9   3   45.31    3.45
   0  -9  -3   48.79    4.08
   0   9  -3   50.65    3.90
   0  -9   4   98.36    4.99
   0   9   4   99.89    5.33
   0   9  -4   91.32    5.23
   0   9  -4   92.62    5.72
   0  -9  -4   95.20    6.15
   0   9   4   88.19    5.05
   0   9   5   30.84    3.14
   0  -9  -5   29.66    3.58
   0   9  -5   30.19    3.04
   0   9   5   34.40    3.32
   0   9  -5   35.33    3.46
   0  -9   5   31.61    2.77
   0   9   6   35.68    3.36
   0  -9  -6   31.85    3.70
   0   9  -6   36.96    3.49
   0  -9   7    6.63    1.64
   0   9  -7    7.53    1.74
   0   9   7    6.65    2.26
   0   9   8   35.28    3.38
   0   9   8   40.31    3.76
   0   9  -8   38.12    3.23
   0  -9   8   37.47    3.39
   0  -9   9  233.80    9.89
   0  -9  -9  257.56    9.20
   0   9   9  263.70    9.70
   0   9  -9  217.75    9.27
   0  -9  10  205.55    8.48
   0  -9  10  194.19    8.51
   0  -9  11  226.98    8.42
   0   9  11  243.06    8.19
   0   9  12   16.34    1.32
   0  -9  12   13.42    1.32
   0  10   0  444.83   15.67
   0 -10   0  452.86   15.76
   0  10   0  428.87   15.76
   0 -10  -1  805.91   29.08
   0 -10   1  837.67   28.40
   0  10   1  868.84   27.97
   0  10   1  906.40   29.27
   0  10   1  857.04   28.12
   0  10  -1  865.38   28.13
   0  10  -1  961.50   29.71
   0  10  -1  859.07   28.44
   0 -10  -1  883.61   28.08
   0 -10  -2  868.57   26.62
   0  10   2  821.77   26.69
   0 -10   2  805.12   26.84
   0  10   2  805.80   27.47
   0 -10  -2  767.17   28.02
   0  10  -2  835.01   26.76
   0  10  -2  798.50   27.06
   0  10   2  807.67   26.37
   0 -10   3   82.73    4.74
   0  10   3   90.67    5.11
   0  10   3   90.58    5.19
   0  10  -3   90.89    5.13
   0  10   3   80.96    4.50
   0  10  -3   95.58    5.01
   0 -10  -3   89.88    5.93
   0  10   3   87.10    4.83
   0  10  -3  100.47    5.76
   0 -10  -4  135.27    7.86
   0  10  -4  147.01    7.02
   0  10   4  144.85    6.58
   0  10   4  129.78    6.04
   0  10  -4  151.37    7.57
   0  10   4  140.78    6.73
   0 -10  -5   13.39    2.55
   0  10  -5   15.41    2.42
   0  10  -5   14.12    2.39
   0  10   5   16.67    2.67
   0  10   5   15.60    2.28
   0  10  -6   11.59    2.18
   0  10   6   13.34    2.26
   0  10   6   11.24    2.43
   0  10   7   10.86    2.32
   0  10  -7   11.90    2.01
   0 -10   8    9.92    1.66
   0  10  -8   12.88    1.81
   0 -10  -8    9.42    1.83
   0  10   8    8.71    2.21
   0  10   9   56.65    3.46
   0  10   9   56.61    3.34
   0  10  -9   45.07    2.94
   0 -10   9   45.51    3.16
   0 -10  10  169.60    7.17
   0  10  10  214.82    7.33
   0 -10  11   74.53    3.45
   0  10  11   79.81    3.16
   0 -10  11   75.42    3.54
   0  11   0    0.76    1.06
   0  11   0   -0.30    1.41
   0  11   0    1.00    1.86
   0  11   0   -0.16    1.05
   0 -11   0   -0.87    1.26
   0  11   1  439.98   16.24
   0  11  -1  472.15   16.76
   0  11   1  443.91   15.10
   0 -11   1  415.60   15.19
   0  11  -1  434.66   15.22
   0  11  -1  430.25   15.69
   0  11  -1  415.59   15.40
   0 -11   2  219.66    8.90
   0  11   2  231.96    8.88
   0  11  -2  226.19    9.22
   0  11   2  217.40    9.44
   0  11   2  220.58    8.59
   0  11  -2  233.64    8.94
   0  11  -3  142.07    7.09
   0  11   3  135.48    6.04
   0 -11  -3  109.41    6.81
   0  11   3  125.83    6.40
   0  11   3  111.58    5.49
   0  11  -3  126.71    6.32
   0  11  -4   49.89    3.85
   0  11   4   57.28    3.78
   0  11  -4   58.58    4.34
   0  11  -5   58.73    4.24
   0  11   5   50.05    3.83
   0  11  -5   51.37    3.85
   0  11   5   51.95    3.61
   0  11  -6   72.95    4.69
   0  11   6   72.45    4.17
   0  11   6   73.74    4.43
   0  11  -7    1.42    1.06
   0  11   7    2.22    1.62
   0  11   7    1.52    1.83
   0  11  -8   13.26    1.72
   0  11   8   14.78    2.12
   0  11   9   13.68    1.87
   0 -11   9    9.97    1.29
   0 -11  10    3.56    0.86
   0  12   0   92.41    5.20
   0  12   0   77.03    4.27
   0  12   0   82.74    4.84
   0  12  -1   14.27    2.63
   0  12  -1   10.72    1.67
   0  12  -1   13.86    2.13
   0  12   1   12.90    2.05
   0  12   1   11.79    2.45
   0  12   1   12.61    1.83
   0  12  -1   13.28    2.11
   0  12   2   89.98    5.16
   0  12  -2   79.01    4.69
   0  12  -3   32.75    2.92
   0  12  -4    2.18    1.35
   0  12   4    3.25    1.45
   0  12  -5   76.44    4.62
   0  12   5   62.69    3.72
   0  12  -6  200.65    8.52
   0 -12   7    3.04    0.94
   0  12  -7    3.75    1.15
   0 -12   8    3.69    0.85
   0  12  -8    3.17    0.83
   0  13   0    0.13    0.99
   0  13   0    0.21    1.75
   0  13   1   35.38    3.10
   0  13  -1   44.99    3.36
   0  13  -1   37.58    3.18
   0  13   1   35.73    2.98
   0  13   2   50.63    3.60
   0  13  -2   61.63    4.02
   0  13   3   55.73    3.65
   0  13  -4   83.74    4.72
   0  13  -5   64.36    3.83
   0  13  -6  140.44    6.02
   0  13  -7   85.33    3.85
   0  13   8    6.27    0.87
   0  14   0   12.30    1.88
   0  14   0   12.78    1.63
   0  14  -1    2.75    1.04
   0  14   1    2.19    1.41
   0  14  -2    0.83    0.98
   0  14   2    1.86    1.25
   0  14   3    4.75    1.33
   0  14   4    6.32    1.29
   0  14  -4    6.43    1.25
   0  14  -5   25.85    1.94
   0  14   5   20.37    1.70
   0  14  -6   27.89    1.72
   0  14   6   23.10    1.53
   0  15  -2    8.09    1.03
   0  15  -3   39.89    2.20
   1   0 -15    1.10    0.88
   1   0 -14    0.98    1.31
   1   0 -14    0.76    1.17
   1   0 -13  174.57    8.22
  -1   0  13  162.14    8.04
   1   0 -13  174.40    7.92
  -1   0  12   12.89    2.42
   1   0 -12   13.68    2.47
  -1   0  12   11.75    2.27
  -1   0  11    0.77    1.16
   1   0 -11    0.65    1.52
  -1   0  11    0.17    1.32
   1   0 -11    0.94    1.34
  -1   0  11    1.44    1.62
  -1   0  11    0.14    1.06
  -1   0  10   99.73    5.77
   1   0 -10  107.09    5.74
  -1   0  10   96.19    5.29
  -1   0  10   96.71    5.68
  -1   0   9   60.11    4.12
  -1   0   9   62.20    4.19
  -1   0   9   53.23    3.51
  -1   0   8    9.21    1.67
  -1   0   8    8.97    1.72
   1   0  -8    9.26    1.73
   1   0  -8   10.16    1.89
   1   0  -7    1.06    1.23
  -1   0   7    0.76    0.92
  -1   0   7    0.11    0.87
   1   0  -6  418.73   14.30
   1   0  -5  211.33    7.61
  -1   0   5  201.75    7.30
  -1   0   4   72.11    3.08
   1   0  -4   74.38    3.28
  -1   0   3    4.03    0.91
  -1   0   3    5.50    0.82
   1   0  -2  352.26   11.00
  -1   0   2  355.35   11.08
  -1   0   2  361.91   11.55
   1   0  -1  138.98    4.40
  -1   0   1  128.23    4.22
  -1   0   1  134.85    4.32
  -1   0   0 3054.18   91.25
  -1   0   0 3085.20   91.76
  -1   0  -1  370.03   11.47
  -1   0  -1  344.24   10.97
  -1   0  -2  369.07   11.91
  -1   0  -2  353.28   11.67
  -1   0  -2  375.09   11.80
  -1   0  -3  335.77   11.03
  -1   0  -3  329.85   10.83
  -1   0  -4   37.16    2.00
  -1   0  -4   36.17    2.30
  -1   0  -5   10.02    1.16
   1   0   5   13.49    1.71
  -1   0  -5   13.59    1.54
  -1   0  -5   12.37    1.64
  -1   0  -6    1.32    0.66
   1   0   6    1.67    1.28
  -1   0  -6    1.43    1.02
   1   0   7  219.44    8.76
  -1   0  -7  196.67    8.64
  -1   0  -7  215.45    8.44
  -1   0  -7  200.07    7.87
  -1   0  -7  200.92    7.90
  -1   0  -7  188.86    8.41
  -1   0  -7  214.37    7.94
  -1   0  -8  482.97   16.44
  -1   0  -8  439.20   17.09
  -1   0  -8  478.28   17.03
  -1   0  -8  486.38   16.38
  -1   0  -8  455.76   17.37
  -1   0  -9  241.33    9.35
  -1   0  -9  237.93   10.49
  -1   0  -9  246.15    9.46
  -1   0  -9  233.38   10.21
  -1   0  -9  225.12    8.89
  -1   0  -9  233.46    9.91
  -1   0 -10   37.79    3.07
  -1   0 -10   28.67    3.03
  -1   0 -10   37.86    3.34
  -1   0 -10   42.73    3.90
  -1   0 -11   18.51    2.32
   1   0  11   20.14    2.57
  -1   0 -11   24.15    3.20
  -1   0 -12  269.67    9.84
   1   0  13  201.95    8.61
  -1   0 -13  197.34    7.66
   1   0  14  137.72    5.57
  -1   0 -14  125.19    4.86
  -1   0 -14  127.55    4.93
   1  -1 -15   14.03    1.51
   1  -1 -14    9.70    1.75
   1   1 -14    4.97    1.48
  -1  -1  13    6.50    1.79
  -1  -1  13    6.04    1.74
   1   1 -13    7.51    1.96
   1  -1 -13    4.71    1.86
   1  -1 -13    4.85    1.63
   1  -1 -12   10.04    2.10
  -1  -1  12   10.75    2.18
  -1  -1  12   10.02    1.94
   1   1 -12   11.35    2.38
  -1  -1  12   10.53    2.40
  -1   1  12    9.32    1.97
   1   1 -11   26.44    3.09
  -1   1  11   26.75    3.04
   1   1 -11   18.18    2.41
  -1   1  11   22.61    2.93
  -1  -1  11   23.74    3.01
  -1  -1  11   20.01    2.76
  -1  -1  11   24.61    2.55
   1  -1 -11   21.87    2.80
   1  -1 -11   21.22    2.76
  -1  -1  11   22.39    2.91
  -1   1  11   21.39    2.35
  -1  -1  11   26.24    2.86
  -1  -1  10   32.23    3.34
  -1  -1  10   36.69    3.46
   1   1 -10   32.67    2.75
   1   1 -10   40.34    3.43
  -1   1  10   40.62    3.48
   1  -1 -10   37.84    3.38
  -1   1  10   28.77    2.83
  -1  -1   9   16.47    2.34
  -1   1   9   18.03    2.11
  -1  -1   9   18.58    2.42
   1   1  -9   17.11    1.98
   1   1  -9   13.82    1.81
  -1   1   9   16.82    2.23
  -1  -1   8   30.27    2.51
  -1   1   8   31.45    2.87
  -1  -1   8   31.95    2.92
  -1   1   8   32.30    2.85
   1  -1  -8   29.78    2.66
  -1  -1   8   32.50    2.93
   1  -1  -8   34.76    2.89
   1   1  -8   29.01    2.81
   1  -1  -7  269.72    9.93
  -1   1   7  255.17   10.02
  -1  -1   7  254.97    9.99
   1  -1  -6  399.57   13.39
  -1   1   6  377.21   12.97
   1  -1  -5 2551.13   75.38
  -1   1   5 2437.99   75.04
   1  -1  -4 1011.27   31.52
  -1   1   4 1032.32   31.32
  -1   1   3 1128.75   34.34
   1   1  -3 1116.62   34.38
  -1  -1   3 1161.18   34.85
  -1  -1   3 1138.13   34.48
  -1  -1   2  662.33   20.96
   1   1  -2  684.43   20.94
  -1  -1   2  684.05   21.28
  -1   1   2  699.55   20.78
   1   1  -1  781.37   23.61
  -1   1   1  784.48   23.25
   1  -1  -1  763.68   23.26
  -1  -1   0  623.97   19.27
  -1  -1   0  631.01   19.61
  -1   1   0  637.65   19.06
  -1   1  -1 4964.42  149.19
  -1  -1  -1 5080.45  149.65
  -1  -1  -1 5035.63  149.67
  -1   1  -2 9911.69  292.28
  -1   1  -2 9901.26  292.41
   1   1   2 9720.04  291.78
  -1  -1  -2 9970.25  292.69
  -1  -1  -2 9999.00  292.61
  -1   1  -3  604.18   19.34
  -1  -1  -3  633.75   19.55
  -1  -1  -4   29.48    1.97
  -1   1  -4   26.67    1.89
  -1  -1  -4   27.66    2.03
  -1  -1  -4   27.59    2.00
  -1  -1  -5   10.31    1.47
   1  -1   5   11.89    1.59
  -1  -1  -5   10.44    1.57
  -1  -1  -5   10.39    1.27
  -1   1  -5    6.57    1.27
  -1  -1  -6   51.96    3.14
  -1  -1  -6   38.65    2.71
  -1   1  -6   48.55    2.92
  -1  -1  -6   41.51    2.71
   1  -1   6   50.92    3.22
  -1  -1  -6   50.75    2.98
  -1  -1  -6   43.78    2.66
  -1   1  -7   77.55    4.61
  -1  -1  -7   81.75    4.38
  -1  -1  -7   78.00    3.82
  -1  -1  -7   82.59    4.20
  -1  -1  -7   78.03    4.08
  -1  -1  -7   76.25    3.94
  -1   1  -7   76.31    4.00
  -1   1  -7   69.24    3.89
  -1   1  -7   64.97    3.86
  -1   1  -7   83.12    4.30
   1  -1   7   87.77    4.62
  -1  -1  -7   75.25    4.01
  -1  -1  -7   73.29    4.50
  -1  -1  -7   72.50    4.43
   1  -1   8   49.10    3.69
  -1  -1  -8   47.67    3.27
  -1   1  -8   45.15    3.13
  -1   1  -8   43.26    3.02
  -1   1  -8   42.66    3.15
  -1  -1  -8   46.66    3.25
  -1  -1  -8   40.74    3.54
  -1   1  -8   41.76    3.25
  -1  -1  -8   40.40    3.52
  -1   1  -8   45.29    3.72
  -1  -1  -8   42.16    3.43
  -1  -1  -8   43.76    3.12
  -1  -1  -9   37.56    3.20
  -1  -1  -9   38.28    3.05
  -1   1  -9   38.44    2.84
  -1  -1  -9   36.13    3.54
  -1   1  -9   36.62    3.14
  -1   1  -9   42.00    3.27
  -1  -1  -9   33.97    3.30
  -1   1  -9   34.43    3.03
  -1   1 -10   36.63    2.84
   1   1  10   36.36    3.26
  -1  -1 -10   41.74    3.95
  -1  -1 -10   39.91    3.42
  -1   1 -10   40.86    3.28
  -1  -1 -10   41.35    3.15
  -1  -1 -10   36.61    3.47
  -1   1 -11   30.27    2.80
  -1  -1 -11   29.29    2.66
  -1  -1 -11   34.71    3.65
   1  -1  11   31.69    3.39
  -1   1 -12   71.49    4.04
  -1  -1 -12   71.73    3.87
   1  -1  13  106.94    5.59
  -1  -1 -13  106.32    4.84
  -1   1 -13  108.43    4.95
  -1   1 -14  112.70    4.43
   1   1  14  114.87    4.96
   1  -1  14  115.75    4.92
  -1  -1 -14  109.90    4.31
  -1   1 -14  109.02    4.38
   1   2 -15    8.52    1.14
   1  -2 -15    8.42    1.12
   1   2 -14   12.58    1.91
   1  -2 -14   16.28    2.06
   1   2 -14   15.31    2.01
  -1  -2  13    3.54    1.30
   1  -2 -13    1.58    1.36
  -1  -2  13    1.73    1.40
   1  -2 -13    2.98    1.64
   1   2 -13    2.13    1.62
   1   2 -13    0.60    1.49
  -1  -2  13    3.21    1.50
  -1   2  13    1.68    1.42
  -1   2  13    1.35    1.29
  -1  -2  12   43.39    3.80
   1   2 -12   33.35    2.72
  -1   2  12   32.74    3.59
  -1  -2  12   42.83    3.94
   1   2 -12   41.67    3.79
   1  -2 -12   40.48    3.44
  -1  -2  12   39.02    3.42
   1  -2 -11  804.76   27.06
   1   2 -11  885.65   27.83
   1   2 -11  792.81   25.85
  -1  -2  11  823.52   27.74
  -1   2  11  690.27   27.35
  -1   2  11  811.25   27.07
  -1  -2  11  795.06   27.33
   1  -2 -11  755.93   27.28
  -1  -2  11  719.75   27.45
  -1  -2  11  853.32   28.03
  -1  -2  11  807.63   27.00
  -1   2  11  846.36   27.94
  -1   2  10  742.70   25.56
   1   2 -10  787.82   26.20
  -1   2  10  807.13   26.82
   1  -2 -10  842.12   27.42
  -1  -2  10  777.16   26.14
   1   2 -10  774.64   25.58
   1  -2 -10  790.31   26.57
  -1  -2  10  806.63   27.23
  -1   2  10  795.71   27.21
  -1  -2   9  165.60    7.81
   1  -2  -9  169.58    7.44
  -1   2   9  149.60    6.77
  -1   2   9  170.78    7.87
   1   2  -9  149.14    6.75
  -1   2   9  168.53    7.62
   1   2  -9  160.89    6.80
  -1  -2   9  167.29    7.17
  -1  -2   8    9.51    1.67
   1   2  -8    6.75    1.43
   1  -2  -8    7.65    1.61
   1   2  -8    7.32    1.71
  -1   2   8    7.71    1.72
  -1   2   8    8.05    1.59
  -1  -2   8    7.93    1.66
  -1  -2   8    6.99    1.60
  -1   2   8    6.81    1.57
   1   2  -8    5.96    1.41
  -1  -2   7   43.37    3.28
  -1  -2   7   52.79    3.13
   1  -2  -7   52.95    3.36
  -1   2   7   45.84    3.31
   1   2  -7   53.55    3.22
  -1  -2   7   47.75    3.35
   1   2  -7   53.31    3.35
   1  -2  -6  185.49    7.24
  -1  -2   6  177.27    7.08
   1   2  -6  193.16    7.34
   1  -2  -5  890.97   28.56
   1   2  -5  933.58   28.65
   1   2  -4   40.17    2.28
   1  -2  -4   43.88    2.32
  -1  -2   3  268.38    8.80
   1   2  -3  250.10    8.49
  -1   2   3  250.07    8.77
  -1   2   2  214.09    7.62
   1   2  -2  224.57    7.50
  -1  -2   2  239.82    7.72
  -1  -2   1  362.10   11.25
   1   2  -1  334.15   11.01
  -1  -2   0 2065.39   61.36
   1   2   0 2012.18   61.13
   1   2   0 2032.95   61.14
  -1  -2  -1 2242.96   67.29
  -1   2  -1 2279.04   67.36
   1  -2   1 2212.05   66.45
  -1  -2  -1 2291.66   67.36
   1   2   1 2245.80   66.96
  -1  -2  -1 2307.83   67.46
   1   2   2 2815.58   84.64
  -1  -2  -2 2804.88   85.32
  -1  -2  -2 2868.07   85.36
   1  -2   2 2861.58   84.56
  -1   2  -2 2817.45   85.35
  -1  -2  -3 2117.12   64.24
   1  -2   3 2193.45   63.80
  -1  -2  -3 2241.57   64.76
  -1  -2  -3 2141.29   64.61
  -1   2  -3 1989.15   64.00
  -1  -2  -4  532.25   16.83
  -1   2  -4  483.10   16.16
   1  -2   4  514.78   15.94
  -1  -2  -4  511.34   16.35
  -1   2  -5  445.95   15.16
   1   2   5  509.35   15.91
  -1  -2  -5  455.05   15.36
  -1  -2  -5  474.79   15.73
   1  -2   5  458.82   15.63
  -1   2  -6  753.31   24.32
  -1  -2  -6  754.11   24.69
  -1  -2  -6  731.76   24.29
  -1   2  -6  745.51   24.34
  -1  -2  -6  756.85   24.96
   1   2   6  834.37   25.20
   1  -2   6  796.94   24.97
  -1  -2  -6  805.93   24.60
  -1  -2  -6  725.60   24.25
   1  -2   7  144.01    6.37
  -1  -2  -7  131.30    6.41
  -1   2  -7  134.78    5.78
  -1   2  -7  121.27    6.14
  -1   2  -7  132.33    5.66
  -1  -2  -7  127.37    6.34
  -1   2  -7  132.70    5.75
  -1  -2  -7  134.45    5.81
  -1  -2  -7  136.67    6.28
  -1  -2  -7  128.05    5.77
   1   2   7  147.43    6.52
  -1  -2  -7  130.42    5.65
  -1   2  -7  102.38    5.57
  -1   2  -7  128.55    6.46
  -1  -2  -7  144.90    5.98
  -1  -2  -7  129.47    5.73
  -1   2  -8   73.72    3.95
  -1   2  -8   64.25    4.36
  -1  -2  -8   60.77    4.42
  -1  -2  -8   71.77    4.49
  -1   2  -8   68.13    3.97
  -1  -2  -8   69.13    4.00
  -1  -2  -8   57.68    3.70
  -1  -2  -8   74.24    4.14
   1  -2   8   72.90    4.49
   1   2   8   80.82    4.78
  -1   2  -8   73.36    4.79
  -1   2  -8   77.32    4.16
  -1  -2  -8   64.34    3.81
  -1   2  -8   54.27    3.87
  -1   2  -9  105.45    6.24
  -1  -2  -9   99.32    5.99
  -1   2  -9  101.06    5.05
  -1   2  -9  101.65    5.94
  -1   2  -9  104.24    5.31
  -1  -2  -9   92.20    5.67
  -1  -2  -9  106.68    5.19
  -1  -2  -9  108.73    5.45
  -1   2 -10   37.50    3.19
  -1  -2 -10   39.83    3.80
  -1   2 -10   37.58    2.89
  -1  -2 -10   31.24    3.24
  -1   2 -10   32.91    3.66
  -1  -2 -10   34.54    2.90
  -1  -2 -10   36.24    3.22
   1  -2  11   24.01    3.03
  -1  -2 -11   20.55    2.56
  -1   2 -11   23.04    3.17
  -1   2 -11   20.97    2.83
  -1  -2 -11   20.94    2.98
  -1   2 -11   21.82    2.49
  -1  -2 -11   20.93    2.24
  -1   2 -12   36.40    3.16
  -1   2 -12   37.14    2.79
   1  -2  12   42.42    3.48
   1  -2  13   10.94    1.79
  -1  -2 -13    8.55    1.58
   1   2  13   11.31    1.94
  -1   2 -13   11.39    1.75
   1   2  14   53.00    2.94
  -1   2 -14   59.73    2.73
  -1   2 -14   55.64    2.61
   1  -2  14   48.89    2.84
   1  -3 -14    1.51    1.04
   1   3 -14    1.41    1.08
  -1  -3  13   14.08    2.08
   1  -3 -13   11.47    2.00
  -1  -3  13   13.10    2.05
   1   3 -13   13.24    2.23
  -1   3  13   11.59    1.79
  -1   3  13   12.47    2.07
  -1  -3  12   41.39    3.58
  -1   3  12   34.48    3.42
  -1  -3  12   41.37    3.40
   1  -3 -12   34.46    3.09
  -1  -3  12   35.40    3.48
  -1   3  12   39.46    3.08
   1  -3 -11   59.55    4.16
   1   3 -11   57.76    3.66
  -1  -3  11   56.58    4.53
  -1   3  11   52.27    4.44
   1   3 -11   63.50    3.93
   1  -3 -11   60.45    4.66
  -1   3  11   63.97    4.64
  -1   3  10  260.97   10.58
   1  -3 -10  265.97   10.96
  -1  -3  10  296.32   11.97
  -1  -3  10  259.99   11.66
   1   3 -10  310.21   10.81
  -1  -3  10  270.99   10.91
  -1  -3  10  274.52   11.64
   1   3 -10  286.46   10.47
  -1   3  10  258.11   11.60
  -1   3  10  285.02   11.73
  -1  -3   9  290.07   11.99
  -1  -3   9  304.27   12.08
  -1   3   9  281.82   10.98
   1   3  -9  300.80   10.90
   1  -3  -9  286.79   11.29
  -1   3   9  292.74   11.92
  -1   3   9  301.14   11.61
   1   3  -9  277.79   10.96
  -1  -3   9  298.63   11.35
   1   3  -9  315.55   11.11
  -1  -3   8   68.62    3.90
  -1   3   8   62.38    3.81
   1   3  -8   63.58    4.15
   1   3  -8   66.93    3.83
  -1  -3   8   66.84    4.28
  -1   3   8   60.85    4.19
  -1  -3   8   60.77    4.15
   1   3  -8   69.00    3.95
  -1   3   8   62.32    3.98
   1   3  -7   55.62    3.32
  -1  -3   7   41.44    3.34
  -1  -3   7   46.57    3.05
   1   3  -7   44.75    2.94
   1  -3  -7   45.31    3.10
   1   3  -7   49.39    3.27
  -1  -3   7   47.41    3.34
  -1   3   7   42.85    3.30
   1   3  -6   59.07    3.48
  -1  -3   6   60.33    3.35
   1  -3  -6   54.08    3.19
   1   3  -6   56.06    3.23
  -1  -3   5  614.30   20.42
   1  -3  -5  641.24   20.42
   1   3  -5  651.07   20.48
   1   3  -5  633.26   20.73
  -1  -3   4  711.80   22.55
   1   3  -4  704.05   22.49
   1  -3  -4  697.86   22.36
  -1   3   4  685.99   22.71
   1   3  -4  729.10   22.44
   1   3  -4  745.71   22.98
  -1  -3   4  727.17   22.76
   1   3  -3  674.31   20.49
   1   3  -3  688.62   20.32
  -1   3   3  636.56   20.52
   1  -3  -3  627.22   19.53
  -1  -3   3  714.16   20.63
   1  -3  -3  673.40   20.29
  -1  -3   2  166.02    5.70
   1   3  -2  149.16    5.56
   1   3  -2  153.14    5.95
  -1  -3   1  733.26   22.43
   1   3  -1  727.10   22.47
   1   3  -1  698.37   22.22
  -1  -3   0 1021.68   31.58
   1   3   0 1027.62   31.39
  -1   3  -1   37.95    2.04
  -1  -3  -1   44.85    2.38
  -1  -3  -1   41.95    2.10
   1  -3   1   39.09    1.52
  -1  -3  -1   40.47    2.19
   1   3   1   47.28    2.12
  -1  -3  -1   39.69    2.03
  -1  -3  -2  465.49   14.48
  -1   3  -2  465.58   14.63
   1  -3   2  436.22   13.85
  -1  -3  -2  448.21   14.56
  -1  -3  -2  472.03   14.74
   1  -3   3  304.13    9.76
  -1  -3  -3  301.88   10.49
  -1   3  -3  306.76   10.50
  -1  -3  -3  314.53   10.66
  -1  -3  -3  318.59   10.85
   1  -3   4   62.98    3.18
  -1  -3  -4   60.78    3.09
  -1  -3  -4   63.21    3.46
  -1  -3  -4   60.99    3.36
   1  -3   4   61.33    2.64
   1   3   4   69.30    3.31
   1   3   5  119.56    5.11
   1  -3   5  109.45    4.96
  -1  -3  -5  112.84    5.23
  -1  -3  -5  112.85    4.79
   1  -3   5  106.23    4.29
  -1  -3  -5  116.21    5.24
  -1  -3  -6  157.85    6.40
  -1   3  -6  151.70    5.96
   1  -3   6  171.69    6.87
  -1   3  -6  156.10    6.41
  -1  -3  -6  148.96    6.25
  -1  -3  -6  176.11    6.63
  -1   3  -6  158.59    6.37
  -1  -3  -6  170.17    6.98
  -1   3  -6  139.63    6.54
   1   3   6  172.24    6.95
   1  -3   7   54.56    3.61
  -1  -3  -7   53.59    3.37
  -1  -3  -7   49.83    3.09
  -1   3  -7   48.33    3.11
  -1   3  -7   40.75    3.19
  -1  -3  -7   44.88    3.28
  -1  -3  -7   47.49    3.16
  -1  -3  -7   50.56    3.32
  -1  -3  -7   43.98    2.86
   1   3   7   52.40    3.60
  -1  -3  -7   47.30    3.65
  -1   3  -7   47.98    3.70
  -1   3  -7   49.03    3.23
  -1   3  -7   37.96    3.21
  -1  -3  -8  113.09    5.20
  -1   3  -8  117.76    6.37
  -1  -3  -8  117.28    5.48
  -1  -3  -8   98.15    5.87
  -1  -3  -8  110.81    5.92
  -1  -3  -8   93.17    5.22
  -1   3  -8   98.47    5.74
  -1   3  -8  105.38    5.31
  -1  -3  -8  112.06    5.32
  -1   3  -8   96.39    5.44
  -1   3  -8  114.48    5.29
  -1  -3  -8  108.95    5.39
  -1  -3  -9   45.79    3.98
  -1   3  -9   45.57    3.49
  -1  -3  -9   45.72    3.25
  -1   3  -9   38.74    3.67
  -1   3  -9   49.04    3.39
  -1  -3  -9   40.15    3.73
  -1  -3  -9   44.92    3.46
  -1   3  -9   51.82    4.25
  -1  -3  -9   52.87    3.71
  -1   3 -10   14.36    2.04
  -1  -3 -10   17.08    2.46
  -1   3 -10   16.90    2.78
  -1  -3 -10   17.69    2.12
  -1   3 -10   11.55    2.35
  -1  -3 -10   14.67    2.48
  -1   3 -10   17.03    2.67
  -1   3 -10   14.84    2.34
  -1  -3 -10   15.80    2.60
  -1  -3 -10   13.81    2.34
  -1   3 -11   24.75    2.66
  -1   3 -11   23.46    3.04
  -1  -3 -11   21.35    2.19
  -1   3 -11   29.15    3.11
  -1  -3 -11   25.21    2.69
  -1  -3 -11   26.64    3.04
  -1   3 -12    8.49    1.98
   1  -3  12    9.11    1.94
   1  -3  13   16.41    1.89
  -1   3 -13   13.27    1.80
   1   3  13   12.61    1.76
  -1   3 -13   10.74    1.70
   1  -3  13   11.90    1.69
   1   4 -14   27.14    2.28
   1  -4 -14   26.02    2.02
  -1  -4  13   27.20    2.79
  -1   4  13   19.84    2.12
  -1  -4  13   24.29    2.49
   1  -4 -13   22.98    2.40
   1   4 -13   24.15    2.60
   1   4 -13   23.63    2.44
   1   4 -12  102.40    5.75
  -1   4  12   96.80    5.02
   1   4 -12   99.66    5.59
   1  -4 -12   99.02    5.58
  -1  -4  12  110.57    6.10
  -1  -4  12   98.14    5.62
  -1  -4  12   97.22    5.62
  -1  -4  12  101.58    5.69
  -1   4  12   90.51    5.48
  -1  -4  11   37.84    3.54
  -1  -4  11   35.52    3.20
   1   4 -11   30.89    2.76
  -1   4  11   37.83    3.29
   1   4 -11   39.15    3.61
  -1   4  11   32.56    3.32
  -1  -4  11   43.63    3.80
  -1   4  10   12.51    2.21
   1   4 -10   17.09    2.66
  -1   4  10   12.37    2.38
  -1  -4  10   18.33    2.56
  -1  -4  10   16.94    2.51
  -1   4  10   13.49    2.24
  -1  -4  10   16.69    2.42
  -1  -4  10   16.25    2.21
   1   4 -10   15.62    2.34
   1  -4 -10   17.80    2.68
   1   4 -10   14.63    2.16
   1  -4 -10   11.82    2.06
  -1  -4   9   49.22    3.97
  -1   4   9   49.81    3.91
  -1  -4   9   56.71    4.20
  -1  -4   9   52.63    3.68
  -1   4   9   44.22    3.83
  -1   4   9   58.90    3.96
   1   4  -9   47.72    3.50
   1  -4  -9   57.95    4.36
   1   4  -9   53.34    3.59
   1   4  -9   55.52    3.76
  -1  -4   9   61.28    4.32
  -1  -4   8   55.32    3.56
   1   4  -8   44.69    3.22
  -1  -4   8   55.47    3.88
  -1  -4   8   53.07    3.87
  -1   4   8   49.33    3.65
   1   4  -8   55.65    3.59
   1   4  -8   52.62    3.57
  -1   4   8   54.16    3.64
  -1   4   8   46.88    3.88
  -1  -4   8   55.40    3.91
   1   4  -8   49.42    3.36
   1   4  -8   53.38    3.77
  -1  -4   7  127.49    6.28
  -1  -4   7  133.81    6.36
  -1   4   7  128.56    6.29
   1   4  -7  132.91    5.84
   1   4  -7  126.08    6.15
   1   4  -7  144.16    6.29
   1   4  -7  139.32    5.99
  -1   4   7  129.15    6.32
   1   4  -7  139.17    6.08
  -1  -4   7  145.61    6.56
   1  -4  -7  130.61    5.99
  -1  -4   7  154.27    6.31
  -1   4   7  135.91    6.03
  -1  -4   6   32.00    2.64
  -1  -4   6   36.78    2.71
  -1   4   6   34.36    2.65
   1   4  -6   41.10    2.88
   1  -4  -6   35.60    2.45
  -1  -4   6   34.64    2.58
   1   4  -6   35.27    2.48
  -1  -4   5   13.74    1.67
   1   4  -5   10.86    1.42
  -1   4   5   12.04    1.58
   1   4  -5   11.86    1.85
   1  -4  -5   14.87    1.53
  -1  -4   5   13.01    1.51
   1  -4  -4  129.09    4.97
  -1  -4   4  128.85    5.19
   1   4  -4  121.10    5.21
   1   4  -4  131.45    5.01
  -1  -4   4  129.62    5.31
  -1   4   4  116.83    5.09
   1   4  -4  138.47    5.67
   1  -4  -3  815.35   24.36
  -1  -4   3  825.78   24.63
   1  -4  -3  755.83   23.69
   1   4  -3  844.05   24.40
  -1   4   3  722.87   24.46
   1   4  -3  794.63   24.73
  -1  -4   3  849.00   24.97
   1   4  -2  228.69    8.24
   1  -4  -2  221.66    7.07
  -1  -4   2  238.70    7.97
  -1  -4   1  131.09    5.12
   1   4  -1  134.85    5.26
  -1  -4   0  417.86   14.05
   1   4   0  437.02   13.98
  -1  -4  -1  208.55    7.19
   1   4   1  212.78    7.25
   1  -4   1  187.68    6.55
   1   4   1  224.59    7.25
  -1  -4  -1  200.89    7.25
  -1  -4  -1  213.70    7.61
  -1  -4  -2  934.06   28.05
  -1  -4  -2  878.89   27.67
  -1   4  -2  863.60   27.67
   1  -4   2  869.25   27.14
  -1  -4  -2  943.99   28.51
  -1  -4  -2  935.04   27.84
  -1  -4  -3  257.81    8.87
  -1   4  -3  243.09    8.83
   1  -4   3  246.15    8.20
  -1  -4  -3  253.77    8.91
  -1  -4  -3  270.14    9.24
  -1  -4  -4  143.13    6.21
   1  -4   4  130.07    4.95
   1   4   4  152.99    5.65
  -1  -4  -4  143.46    6.02
  -1   4  -4  134.39    5.64
  -1  -4  -4  134.55    5.72
   1  -4   4  145.46    5.61
   1  -4   5  186.63    7.11
  -1   4  -5  159.77    7.10
  -1  -4  -5  174.51    7.53
  -1   4  -5  179.19    6.88
  -1  -4  -5  188.75    7.55
   1  -4   5  168.57    6.32
   1   4   5  186.52    7.09
  -1  -4  -5  186.05    6.95
  -1  -4  -6   34.58    2.91
  -1   4  -6   34.35    2.93
  -1  -4  -6   42.78    3.21
   1  -4   6   39.51    2.90
  -1   4  -6   36.86    2.70
  -1  -4  -6   42.17    2.82
   1  -4   6   33.51    2.20
  -1  -4  -6   35.61    2.55
   1   4   6   41.96    2.95
  -1  -4  -6   37.26    2.52
  -1   4  -6   35.54    2.69
  -1  -4  -7   73.24    4.42
  -1   4  -7   64.99    4.30
   1   4   7   74.68    4.32
  -1   4  -7   72.05    4.06
   1  -4   7   73.60    4.25
  -1   4  -7   62.85    4.24
  -1   4  -7   76.84    4.07
  -1  -4  -7   76.00    4.12
   1   4   7   63.73    3.84
  -1  -4  -7   72.91    4.06
  -1  -4  -7   69.31    3.84
  -1  -4  -7   67.67    4.48
  -1  -4  -7   80.54    4.66
  -1  -4  -7   64.97    3.66
  -1   4  -7   71.07    4.58
   1   4   8  288.16   11.49
  -1  -4  -8  294.01   12.64
  -1   4  -8  323.55   12.76
  -1   4  -8  339.91   11.96
  -1  -4  -8  344.78   12.03
  -1  -4  -8  324.10   12.96
  -1  -4  -8  336.58   12.10
  -1  -4  -8  286.82   12.24
  -1  -4  -8  338.52   11.74
  -1   4  -8  346.11   12.17
  -1  -4  -8  349.49   12.17
  -1   4  -8  303.02   12.77
  -1   4  -8  321.57   12.94
  -1   4  -9  399.19   13.71
  -1  -4  -9  367.52   13.03
  -1   4  -9  362.61   14.32
  -1   4  -9  380.68   13.33
  -1   4  -9  367.94   14.58
  -1  -4  -9  318.41   14.07
  -1  -4  -9  382.18   13.44
  -1  -4  -9  380.84   13.54
  -1  -4  -9  347.08   14.35
  -1   4  -9  331.77   14.27
  -1   4 -10   43.27    3.91
  -1  -4 -10   49.67    3.28
  -1  -4 -10   42.37    3.89
  -1   4 -10   55.38    3.56
  -1  -4 -10   54.94    3.79
  -1  -4 -10   46.24    4.05
  -1   4 -10   52.14    3.79
  -1   4 -10   55.06    4.31
  -1  -4 -10   40.03    3.79
  -1   4 -11   19.43    2.67
  -1  -4 -11   19.55    2.48
   1  -4  12   24.49    2.76
  -1  -4 -12   25.54    2.39
  -1   4 -12   24.87    2.57
   1  -4  12   25.64   12.05
  -1   4 -12   29.10    2.66
   1  -4  13    7.01    1.20
  -1   4 -13    8.33    1.43
   1  -4  13    7.65    1.37
  -1   4 -13    9.20    1.49
  -1  -5  14   89.80    4.08
  -1  -5  13    0.73    1.09
  -1  -5  13    1.23    1.11
   1  -5 -13    0.25    0.84
   1   5 -13    0.10    1.14
  -1   5  13   -0.07    1.37
  -1  -5  13    0.22    1.12
  -1   5  12   17.27    2.30
   1  -5 -12   13.88    1.94
  -1  -5  12   18.78    2.41
   1   5 -12   14.96    2.27
  -1  -5  12   20.62    2.58
  -1   5  11   91.30    5.30
   1   5 -11   90.95    4.86
  -1   5  11  112.53    5.45
  -1  -5  11  106.43    6.01
   1  -5 -11   92.35    5.38
   1   5 -11  107.21    5.82
   1   5 -11   99.16    5.47
  -1  -5  11   94.46    5.46
  -1  -5  10   96.27    5.55
   1   5 -10  101.90    5.70
   1  -5 -10   72.09    5.24
  -1  -5  10   93.67    5.23
  -1   5  10   86.08    5.22
   1   5 -10   85.32    4.81
   1  -5 -10   87.10    5.69
  -1  -5  10  104.91    5.88
  -1   5  10  106.64    5.34
  -1   5  10   72.27    4.99
   1   5  -9   55.07    3.79
  -1  -5   9   66.42    4.15
  -1  -5   9   62.44    4.40
  -1   5   9   49.86    3.98
   1   5  -9   63.88    3.98
  -1  -5   9   64.38    4.49
   1  -5  -9   67.39    4.74
  -1   5   9   59.59    4.15
  -1   5   9   48.73    3.94
  -1  -5   9   59.64    4.29
  -1  -5   8  185.66    7.77
   1   5  -8  189.11    7.55
  -1  -5   8  192.03    8.25
  -1  -5   8  180.81    8.06
  -1   5   8  180.94    7.71
   1   5  -8  193.37    7.76
  -1   5   8  151.05    7.58
   1   5  -8  167.31    7.56
  -1  -5   8  162.53    7.93
  -1   5   8  158.09    7.73
   1   5  -8  168.68    7.78
   1   5  -8  180.59    7.73
   1   5  -7   11.10    1.97
  -1   5   7   10.81    1.68
   1   5  -7   12.15    1.83
   1   5  -7   12.90    1.86
   1   5  -7   10.92    1.74
  -1  -5   7   14.26    1.94
  -1  -5   7   12.72    1.90
  -1   5   7   11.32    1.75
  -1   5   7   10.95    1.99
  -1  -5   7   13.36    1.93
   1   5  -7   11.85    1.95
  -1   5   6   98.73    5.08
   1   5  -6  116.21    5.00
   1   5  -6  109.92    5.08
  -1  -5   6  125.72    5.46
   1   5  -6  128.50    5.73
  -1  -5   6   98.19    5.27
  -1  -5   6  117.55    5.39
  -1   5   6  103.06    5.27
   1   5  -6  106.02    5.21
   1  -5  -6  113.01    4.96
   1   5  -5   47.00    2.61
  -1   5   5   39.67    2.63
  -1  -5   5   50.41    3.08
  -1  -5   5   46.47    2.79
   1   5  -5   56.18    3.42
   1  -5  -5   41.90    2.53
  -1  -5   4  302.49   10.28
  -1  -5   4  324.89   10.83
   1  -5  -4  300.12   10.02
   1   5  -4  306.06   10.05
  -1  -5   3 1443.06   44.52
   1   5  -3 1473.64   43.72
   1  -5  -3 1407.09   43.66
   1   5  -2  875.54   25.91
   1  -5  -2  834.64   25.88
   1  -5  -2  824.66   25.79
  -1  -5   2  859.17   26.70
   1   5  -2  893.55   27.16
  -1  -5   1 1845.14   57.52
   1   5  -1 1976.57   57.77
   1   5  -1 1859.54   57.38
   1   5   0  697.73   22.40
  -1  -5   0  715.02   22.75
   1   5   0  718.37   22.57
  -1  -5  -1  146.36    5.60
  -1  -5  -1  160.66    6.10
   1   5   1  149.62    5.63
  -1  -5  -1  144.74    5.57
   1  -5   1  132.35    4.97
  -1   5  -2   73.25    3.15
   1   5   2   82.95    3.66
  -1  -5  -2   74.95    3.97
  -1  -5  -2   81.73    3.74
   1  -5   2   76.81    3.02
  -1  -5  -2   81.06    3.64
  -1  -5  -2   69.15    3.13
   1  -5   3  258.85    8.76
  -1  -5  -3  276.46    9.88
  -1  -5  -3  251.57    9.07
   1  -5   3  252.41    8.39
  -1  -5  -3  242.58    8.83
  -1   5  -3  233.05    8.72
   1   5   3  258.37    8.66
  -1  -5  -3  271.96    9.49
   1  -5   4   75.40    3.48
   1  -5   4   70.06    3.08
  -1   5  -4   67.39    3.49
   1   5   4   72.93    3.38
  -1  -5  -4   68.68    3.58
  -1   5  -4   71.16    3.65
  -1  -5  -4   81.15    4.14
   1   5   5   13.36    1.60
  -1  -5  -5   13.36    1.71
  -1   5  -5   15.02    1.72
  -1   5  -5   12.53    1.73
   1  -5   5   12.98    1.61
  -1  -5  -5   10.27    1.81
  -1   5  -5   16.34    1.86
  -1  -5  -5   12.64    1.73
  -1  -5  -5   13.20    1.91
  -1  -5  -5   12.30    1.50
  -1   5  -5   12.46    1.85
   1  -5   5   13.11    1.30
  -1  -5  -6   30.39    2.93
  -1  -5  -6   27.57    2.79
  -1   5  -6   30.04    2.60
   1   5   6   29.12    2.43
  -1  -5  -6   31.65    2.43
  -1  -5  -6   27.70    2.58
   1   5   6   30.56    2.66
  -1   5  -6   31.86    2.66
  -1   5  -6   31.27    2.64
  -1  -5  -6   28.80    2.53
  -1   5  -6   28.68    2.85
  -1   5  -6   29.60    2.70
  -1   5  -6   34.20    2.65
  -1  -5  -6   25.23    2.15
   1  -5   6   30.76    2.53
  -1   5  -7   16.90    2.25
  -1  -5  -7   16.50    2.20
  -1   5  -7   17.64    2.29
  -1  -5  -7   16.28    1.76
  -1   5  -7   17.31    2.19
  -1   5  -7   19.05    2.30
  -1  -5  -7   14.95    2.03
  -1  -5  -7   20.63    2.36
  -1  -5  -7   15.59    2.23
  -1   5  -7   18.70    2.36
  -1  -5  -7   19.88    2.27
  -1   5  -7   18.42    2.30
   1   5   7   16.44    2.24
  -1  -5  -7   18.63    2.23
  -1  -5  -7   17.42    2.51
  -1   5  -7   20.55    2.63
  -1  -5  -8   35.71    3.35
  -1  -5  -8   39.56    2.95
  -1  -5  -8   35.48    3.09
  -1   5  -8   39.27    3.26
  -1   5  -8   34.33    3.30
  -1  -5  -8   39.03    3.28
  -1  -5  -8   46.97    3.31
  -1   5  -8   35.86    3.35
  -1   5  -8   41.81    3.27
  -1  -5  -8   37.34    3.59
   1   5   8   38.24    3.17
  -1  -5  -8   32.54    3.21
  -1   5  -8   41.41    3.53
  -1  -5  -8   38.93    3.47
  -1  -5  -9   46.22    3.11
  -1  -5  -9   43.70    3.40
  -1  -5  -9   47.57    3.59
  -1   5  -9   48.32    3.51
  -1   5  -9   44.61    3.58
  -1   5  -9   38.91    3.58
  -1  -5  -9   41.15    3.81
   1   5   9   37.44    3.12
  -1  -5  -9   46.63    3.45
  -1  -5  -9   34.83    3.29
  -1  -5 -10    5.16    1.89
  -1   5 -10    5.16    2.06
  -1  -5 -10    6.00    1.49
   1  -5  11    6.41    1.54
  -1  -5 -11    5.80    1.74
  -1   5 -11    7.18    1.95
   1  -5  12    9.29    1.43
  -1  -5 -12    8.72    1.65
  -1   5 -12    9.39    1.76
  -1   5 -12   10.06    1.85
  -1   5 -13    7.43    1.24
   1  -5  13    7.33    1.26
  -1   6  14   49.34    2.41
  -1  -6  13   30.08    2.47
  -1   6  13   36.18    2.46
  -1  -6  12    6.37    1.65
  -1  -6  12    6.22    1.56
   1   6 -12    5.69    1.51
  -1   6  12    7.31    1.90
  -1  -6  12    5.81    1.58
   1   6 -11   14.95    2.21
  -1  -6  11   15.21    2.51
   1   6 -11   12.07    2.03
  -1   6  11   20.07    2.64
  -1  -6  11   14.95    2.39
   1   6 -10   36.82    3.14
   1   6 -10   45.16    3.65
   1   6 -10   45.56    3.41
  -1   6  10   51.08    3.76
  -1  -6  10   46.63    3.89
   1   6  -9   39.57    3.31
   1   6  -9   45.83    3.69
   1  -6  -9   41.97    4.01
   1   6  -9   55.09    3.72
  -1  -6   9   51.34    3.73
   1   6  -9   54.76    3.91
   1  -6  -9   45.79    3.99
  -1  -6   9   54.21    4.09
  -1   6   9   50.79    3.90
  -1   6   8   30.35    3.18
  -1  -6   8   29.86    2.84
   1   6  -8   29.03    2.88
  -1  -6   8   31.74    3.11
  -1   6   8   29.05    2.97
   1   6  -8   33.48    2.99
   1   6  -8   28.35    2.80
   1  -6  -8   31.86    3.25
   1   6  -7   61.75    4.11
   1   6  -7   49.23    3.58
  -1   6   7   45.62    3.34
  -1  -6   7   56.77    3.96
  -1   6   7   65.47    4.17
  -1  -6   7   65.95    3.98
   1   6  -7   57.37    3.89
   1   6  -7   68.04    3.91
   1  -6  -7   66.92    4.37
   1   6  -6   84.14    4.48
   1   6  -6   66.18    3.84
  -1  -6   6   62.90    3.98
   1   6  -6   58.14    3.65
  -1   6   6   51.80    3.34
  -1  -6   6   72.54    4.03
   1   6  -6   68.54    4.05
  -1   6   5    9.71    1.23
  -1   6   5   12.59    1.90
   1   6  -5   13.20    1.76
   1   6  -5   13.01    1.78
  -1  -6   5   14.46    1.90
  -1  -6   5   11.32    1.56
   1   6  -5   13.65    2.06
   1   6  -5   12.02    1.75
  -1  -6   4   69.72    3.80
   1   6  -3  257.39    9.46
   1   6  -3  233.57    8.84
  -1  -6   3  232.96    9.01
   1   6  -2  731.18   22.62
  -1  -6   2  666.98   22.05
   1   6  -2  652.71   22.01
   1  -6  -2  700.53   21.26
   1   6  -1  188.26    7.28
  -1  -6   1  181.80    7.06
   1   6  -1  182.85    6.95
   1   6   0   76.62    3.79
  -1  -6   0   72.73    3.77
   1   6   0   73.30    3.54
   1  -6   1  146.02    5.56
  -1  -6  -1  164.18    6.25
   1   6   1  164.21    6.16
  -1  -6  -1  157.03    6.57
   1  -6   2    7.15    0.97
  -1  -6  -2    9.58    1.43
   1   6   2    9.56    1.42
  -1  -6  -2   10.61    1.39
  -1  -6  -2    6.50    1.47
   1  -6   3  122.68    4.54
  -1  -6  -3  131.41    5.53
   1   6   3  128.51    5.19
  -1  -6  -3  123.14    5.18
  -1   6  -3  116.42    5.06
  -1   6  -3  123.68    5.15
   1   6   3  110.96    4.40
  -1   6  -3  133.67    5.64
  -1  -6  -3  129.34    5.93
  -1   6  -4   28.67    2.43
   1   6   4   25.58    1.87
  -1  -6  -4   34.02    2.73
   1   6   4   33.29    2.41
  -1   6  -4   28.55    2.43
  -1   6  -4   26.61    2.30
   1   6   4   29.45    2.56
  -1   6  -4   32.10    2.78
  -1   6  -4   28.41    1.98
   1   6   5   22.70    2.50
  -1   6  -5   24.16    2.46
  -1   6  -5   19.93    1.87
  -1  -6  -5   24.62    2.64
  -1   6  -5   24.31    2.35
  -1  -6  -5   27.21    2.74
   1   6   5   25.16    2.24
  -1  -6  -5   24.34    2.30
  -1   6  -5   23.27    2.34
  -1   6  -5   18.55    2.00
  -1   6  -6  114.17    5.78
  -1  -6  -6  133.34    5.78
  -1  -6  -6  126.23    6.70
  -1  -6  -6  142.00    6.93
  -1   6  -6  133.22    6.21
  -1  -6  -6  140.58    6.02
  -1   6  -6  130.14    6.10
  -1   6  -6  144.57    6.19
   1   6   6  125.50    6.17
  -1   6  -6  140.83    6.74
  -1  -6  -6  127.33    5.67
  -1  -6  -7   20.47    2.71
  -1   6  -7   20.23    2.51
  -1  -6  -7   25.41    3.05
   1   6   7   25.40    2.82
  -1   6  -7   24.31    2.64
  -1   6  -7   21.05    2.60
  -1  -6  -7   27.89    2.69
  -1  -6  -7   23.05    2.34
  -1  -6  -8   23.06    2.70
   1   6   8   26.32    2.88
  -1  -6  -8   22.05    2.95
  -1  -6  -8   25.80    2.45
  -1   6  -8   26.71    2.94
  -1  -6  -8   26.55    2.73
  -1  -6  -8   30.62    2.96
  -1  -6  -8   25.38    2.91
  -1  -6  -9    9.67    2.25
  -1  -6  -9   12.22    2.20
  -1  -6  -9   12.31    1.85
  -1  -6  -9   11.23    1.98
  -1  -6  -9   11.50    1.96
  -1  -6  -9   11.09    2.23
  -1  -6 -10  158.59    6.93
  -1   6 -10  161.98    7.25
  -1  -6 -10  164.44    7.07
  -1  -6 -11   61.62    3.71
  -1   6 -11   61.75    3.90
   1  -6  12   16.62    1.99
  -1   6 -12   16.29    1.86
  -1  -6 -12   15.04    1.67
   1  -6  13    8.44    1.11
  -1   6 -13    9.69    1.11
  -1   7  13   17.00    1.69
  -1  -7  13   16.39    1.63
  -1  -7  13   19.32    1.77
  -1  -7  13   15.16    1.57
  -1  -7  12   -0.34    1.02
  -1  -7  12    1.03    1.19
  -1  -7  12    0.11    1.00
  -1   7  12    1.19    1.54
  -1   7  11   31.21    3.02
  -1  -7  11   33.24    3.14
  -1  -7  11   30.04    2.92
  -1  -7  10    3.80    1.74
  -1  -7  10    5.27    1.60
   1   7 -10    3.16    1.38
   1   7 -10    4.26    1.27
  -1   7  10    4.97    2.14
  -1  -7   9  164.47    7.74
  -1   7   9  182.81    7.51
   1   7  -9  150.92    7.07
   1  -7  -9  134.71    7.53
   1   7  -9  152.48    7.40
   1   7  -9  168.15    7.11
   1  -7  -9  139.08    8.05
  -1  -7   9  140.19    7.10
   1  -7  -8  272.78   12.44
   1   7  -8  283.60   11.23
  -1  -7   8  307.33   11.64
   1   7  -8  306.22   11.81
   1   7  -8  327.83   11.49
   1  -7  -8  274.24   11.82
   1   7  -8  276.33   11.85
  -1  -7   8  290.32   11.89
   1   7  -7  169.73    7.79
  -1  -7   7  157.47    7.65
   1   7  -7  179.48    7.48
   1   7  -7  173.34    7.74
   1  -7  -7  152.98    7.67
  -1  -7   7  176.58    7.62
   1   7  -7  161.36    7.99
   1   7  -6  100.51    5.31
   1  -7  -6   82.51    4.91
  -1  -7   6   82.51    4.81
   1   7  -6   88.31    4.96
  -1   7   6   84.75    4.70
  -1  -7   6   89.86    4.85
   1   7  -5   14.30    1.95
   1   7  -5   16.19    2.27
  -1  -7   5   16.79    2.07
   1   7  -5   11.10    1.87
  -1   7   5   13.77    1.97
  -1   7   5   12.66    2.05
   1  -7  -5   14.84    2.01
  -1   7   4  283.92   10.44
   1   7  -4  289.98   10.62
   1   7  -4  288.09   10.38
  -1  -7   4  303.38   10.79
  -1   7   4  254.85   10.80
  -1   7   4  259.11   10.10
   1  -7  -4  288.32   10.43
  -1   7   4  279.92   11.16
   1   7  -3  206.67    7.95
  -1   7   3  158.46    7.01
   1   7  -3  186.91    7.27
   1   7  -3  174.99    7.22
  -1  -7   3  196.87    7.60
  -1   7   3  170.80    7.72
   1   7  -3  171.72    7.10
   1  -7  -3  180.92    6.93
  -1  -7   2  441.24   15.60
   1   7  -2  463.92   15.65
   1   7  -1    3.36    1.15
  -1  -7   1    1.33    0.88
   1   7   0    1.28    0.99
  -1  -7   0    1.41    1.07
  -1  -7   0    0.50    0.90
   1   7   1  274.14    9.53
  -1  -7  -1  279.06    9.72
  -1  -7  -1  248.93   10.03
   1  -7   1  249.49    8.97
  -1   7  -2   27.57    2.47
  -1  -7  -2   30.70    2.76
  -1   7  -2   30.03    2.75
   1   7   2   36.74    2.43
  -1  -7  -2   36.90    2.54
  -1   7  -2   26.09    2.32
   1   7   3  240.90    9.29
  -1   7  -3  246.53    9.34
  -1   7  -3  231.92    9.81
  -1  -7  -3  260.48    9.73
   1   7   3  265.63    9.38
  -1   7  -3  220.03    9.34
  -1   7  -3  250.57    9.33
  -1   7  -3  282.63   10.07
  -1  -7  -3  269.20    9.59
  -1  -7  -3  260.23   10.40
   1   7   4   50.55    3.44
   1   7   4   56.35    3.30
  -1   7  -4   62.34    4.01
  -1   7  -4   55.45    3.57
  -1   7  -4   49.01    3.56
  -1  -7  -4   58.52    3.79
  -1  -7  -4   53.08    4.01
  -1   7  -5  138.92    6.43
   1   7   5  143.31    6.16
  -1  -7  -5  147.02    7.01
  -1  -7  -5  155.01    6.35
  -1   7  -5  133.74    6.25
  -1   7  -5  155.41    7.10
  -1   7  -6    1.40    1.03
  -1  -7  -6    0.81    1.38
   1   7   6    1.81    1.10
  -1  -7  -6    0.84    1.26
  -1   7  -6    0.92    1.56
  -1  -7  -6    1.90    1.43
  -1   7  -6    2.55    1.62
  -1  -7  -6    1.80    1.46
  -1  -7  -6    1.46    1.01
  -1  -7  -7   22.60    2.96
  -1  -7  -7   23.32    2.41
   1   7   7   21.56    2.28
  -1  -7  -7   24.78    2.99
  -1  -7  -7   25.34    2.61
  -1   7  -7   25.84    2.74
  -1  -7  -8    9.06    2.04
  -1  -7  -8    9.87    2.22
  -1   7  -8    8.14    2.20
  -1  -7  -8   10.79    1.95
  -1  -7  -8   11.58    1.84
  -1  -7  -8   12.36    2.29
  -1  -7  -9   62.69    3.99
  -1  -7  -9   64.03    4.14
  -1   7  -9   65.69    4.23
   1   7  10   39.76    2.98
  -1  -7 -10   44.94    3.26
  -1   7 -10   43.61    3.36
  -1  -7 -10   44.61    3.13
   1   7  11   39.56    2.58
  -1  -7 -11   41.63    2.85
  -1   7 -11   44.17    3.03
   1  -7  11   49.08    3.48
   1  -7  12    1.05    0.93
  -1   7 -12    0.29    1.09
  -1   8  13   17.30    1.36
  -1  -8  12   11.37    1.58
  -1  -8  12    9.94    1.44
  -1  -8  12   14.03    1.56
  -1  -8  12   11.81    1.61
  -1   8  12   12.83    1.77
  -1  -8  11    7.87    1.68
  -1  -8  11    7.57    1.57
  -1   8  11    7.50    2.01
  -1  -8  11    8.44    1.63
  -1  -8  11    8.73    1.77
  -1  -8  10  200.34    8.55
  -1   8  10  223.85    8.54
  -1  -8  10  195.11    8.73
  -1  -8   9  598.02   20.84
  -1  -8   9  614.36   21.32
   1   8  -9  565.88   20.64
   1   8  -8  282.15   11.60
  -1  -8   8  292.05   11.19
   1  -8  -8  236.39   11.82
  -1  -8   8  313.06   12.02
   1  -8  -8  234.59   11.05
  -1  -8   8  295.89   11.44
   1   8  -8  290.80   11.35
   1   8  -7  128.44    6.92
   1   8  -7  139.42    6.78
  -1  -8   7  135.10    6.53
  -1  -8   7  138.25    7.00
  -1   8   7  136.70    6.51
  -1  -8   7  124.20    6.43
   1  -8  -7  115.96    6.44
  -1  -8   6   24.25    2.69
  -1  -8   6   20.12    2.40
   1   8  -6   23.98    2.68
   1  -8  -6   21.30    2.38
  -1   8   6   19.50    2.53
   1   8  -6   20.02    2.63
   1   8  -5   18.09    2.34
   1   8  -5   16.00    2.33
  -1  -8   5   19.55    2.25
  -1   8   5   16.82    2.44
   1   8  -5   17.59    2.47
  -1   8   5   18.25    2.31
  -1   8   5   17.81    2.44
  -1  -8   5   21.45    2.38
  -1   8   4    8.52    1.71
   1   8  -4   10.20    2.01
   1   8  -4   14.17    2.52
   1   8  -4    8.90    2.00
  -1  -8   4   11.77    1.87
  -1   8   4    9.49    1.80
  -1   8   4    8.84    1.94
  -1   8   4    9.91    1.90
  -1   8   3   66.24    3.99
   1   8  -3   66.35    3.96
  -1   8   3   67.35    4.39
   1   8  -3   74.08    3.97
  -1   8   3   57.38    3.65
   1   8  -3   77.05    4.62
  -1  -8   3   81.51    4.31
  -1   8   3   64.45    4.31
  -1  -8   2   47.66    3.03
  -1   8   2   43.84    3.42
   1   8  -2   60.09    3.35
   1   8  -2   50.60    3.34
  -1   8   2   48.85    3.33
  -1  -8   2   62.38    3.66
   1   8  -2   55.55    3.77
  -1   8   2   44.80    3.01
  -1   8   2   46.44    3.59
  -1   8   1   81.86    4.40
  -1   8   1   89.46    5.07
   1   8  -1   97.12    4.44
  -1   8   1   87.55    4.93
   1   8  -1   99.15    5.06
  -1  -8   1   84.48    4.47
  -1   8   0   60.25    3.88
   1   8   0   57.35    3.71
  -1  -8   0   55.26    3.42
   1   8   0   64.18    3.37
  -1  -8   0   55.05    3.55
  -1   8  -1   34.35    2.89
  -1   8  -1   31.93    2.81
   1   8   1   36.59    2.80
   1   8   1   37.96    2.57
  -1   8  -1   29.44    2.34
  -1  -8  -1   31.66    2.82
  -1  -8  -1   36.35    2.68
   1   8   2  192.51    7.79
  -1  -8  -2  180.89    8.49
  -1  -8  -2  212.16    8.09
   1   8   2  204.81    7.72
  -1   8  -2  180.29    7.77
  -1   8  -2  194.95    8.51
  -1   8  -2  204.62    8.42
  -1   8  -2  194.57    7.80
   1   8   3  224.99    8.86
  -1   8  -3  226.50    9.33
  -1   8  -3  214.52    9.46
  -1   8  -3  214.91    8.77
  -1   8  -3  214.38    8.75
   1   8   3  249.32    8.82
  -1  -8  -3  246.36    9.10
  -1  -8  -3  220.44    9.87
   1   8   4 1169.83   35.97
  -1   8  -4 1060.70   36.67
   1   8   4 1149.35   35.70
  -1  -8  -4 1125.01   36.47
  -1   8  -4 1149.98   36.04
  -1  -8  -4 1078.33   37.36
   1   8   5   59.72    3.93
  -1  -8  -5   54.34    4.13
   1   8   5   54.83    3.51
  -1  -8  -5   57.23    4.51
  -1   8  -5   58.16    4.11
  -1  -8  -5   60.00    3.83
  -1   8  -5   69.16    4.22
  -1   8  -6  104.68    5.53
  -1  -8  -6  111.36    5.47
   1   8   6  106.72    5.57
  -1  -8  -6   89.80    5.83
  -1  -8  -6  102.32    4.96
  -1   8  -6  100.32    5.59
  -1  -8  -7    9.13    1.71
  -1   8  -7   11.73    2.29
  -1  -8  -7    8.78    1.81
  -1  -8  -7    9.83    2.17
  -1   8  -7    7.98    1.58
  -1  -8  -7    8.32    2.08
   1   8   7   10.38    2.25
   1   8   8   47.11    3.60
  -1  -8  -8   51.75    3.58
  -1  -8  -8   47.99    3.19
   1   8   9    4.70    1.76
  -1  -8  -9    1.21    1.56
  -1  -8  -9    3.81    1.75
   1   8  10   20.71    2.10
   1  -8  10   23.82    2.56
  -1  -8 -10   21.89    2.25
   1   8  11   15.52    1.48
   1  -8  11   18.11    1.99
  -1  -8 -11   17.43    1.67
   1  -8  12    2.81    0.78
   1  -8  12    2.69    0.73
  -1  -9  12    3.65    0.82
  -1  -9  12    4.11    0.92
  -1  -9  12    6.23    1.08
  -1  -9  12    4.28    0.91
  -1  -9  11    1.89    1.06
  -1  -9  11    1.41    0.94
  -1  -9  11    1.98    1.12
  -1   9  11    2.14    1.48
  -1  -9  11    1.82    0.99
  -1  -9  10   60.98    3.73
  -1  -9  10   72.73    4.20
   1   9 -10   67.28    3.80
  -1  -9  10   73.87    4.49
   1   9  -9   26.66    2.65
  -1  -9   9   30.60    2.91
  -1  -9   8  263.99   10.88
   1   9  -8  247.76   10.87
   1   9  -8  273.62   10.77
   1   9  -7   82.22    5.18
  -1  -9   7   73.63    4.74
   1  -9  -7   61.25    5.25
  -1  -9   7   69.65    4.54
   1   9  -7   83.96    4.97
  -1   9   7   83.57    4.88
  -1   9   6  218.38    9.07
   1   9  -6  228.22   10.08
  -1  -9   6  218.52    9.27
   1   9  -6  255.84    9.83
  -1  -9   6  232.46    9.34
  -1   9   6  190.72    8.30
  -1   9   6  233.82    9.15
   1  -9  -6  174.35    9.84
  -1   9   5   17.28    2.61
   1   9  -5   20.46    2.62
   1   9  -5   20.57    2.74
   1   9  -5   25.59    2.93
  -1   9   5   19.75    2.57
  -1  -9   5   21.18    2.47
  -1   9   4   14.42    2.35
  -1  -9   4   19.67    2.33
  -1   9   4   18.69    2.35
  -1   9   4   17.24    2.34
  -1   9   3   39.45    3.33
   1   9  -3   46.61    3.47
   1   9  -3   51.92    3.96
  -1   9   3   45.69    3.74
  -1  -9   3   49.21    3.55
  -1   9   3   38.80    3.07
  -1   9   2  164.53    7.31
  -1   9   2  153.06    7.83
  -1  -9   2  187.41    7.89
   1   9  -2  186.53    8.26
  -1   9   2  170.21    8.14
   1   9  -2  172.58    7.23
   1   9  -2  180.63    7.48
   1   9  -1  120.17    5.36
   1   9  -1  115.17    5.53
  -1   9   1  117.63    6.03
  -1  -9   1   96.17    5.34
  -1  -9   1  128.09    5.74
   1   9  -1  110.78    5.48
   1   9  -1  121.07    6.13
  -1   9   1  105.94    5.90
  -1  -9   0   21.05    2.36
  -1   9   0   24.40    2.54
  -1  -9   0   21.98    2.32
   1   9   0   20.18    2.04
   1   9   0   22.36    2.54
  -1  -9  -1   90.25    5.27
  -1   9  -1   95.32    5.24
  -1   9  -1   96.69    4.90
  -1  -9  -1  109.24    5.09
  -1   9  -1   75.36    4.42
   1   9   1   92.32    5.03
  -1   9  -1   90.12    5.28
   1   9   1   96.17    4.58
  -1   9  -2  360.25   13.55
  -1   9  -2  340.61   13.85
  -1  -9  -2  327.85   13.97
   1   9   2  372.33   12.80
  -1  -9  -2  386.27   13.37
  -1   9  -2  372.55   13.15
  -1   9  -3 1083.65   33.64
  -1   9  -3 1048.66   34.01
  -1  -9  -3  955.64   34.79
  -1  -9  -3 1109.45   33.83
  -1   9  -3  990.77   34.53
   1   9   3 1034.74   33.09
   1   9   3 1055.99   33.56
   1   9   4  210.45   16.50
  -1   9  -4  188.28    8.25
  -1  -9  -4  179.45    9.09
  -1   9  -4  201.77    8.94
   1   9   4  183.36    7.56
   1   9   5  285.70   10.65
  -1  -9  -5  236.29   11.57
  -1  -9  -5  293.47   10.61
  -1   9  -5  264.17   11.23
  -1   9  -5  254.41   10.58
  -1   9  -6   99.10    5.26
   1   9   6   96.30    5.13
  -1  -9  -6   87.50    4.70
  -1  -9  -6   90.40    4.95
  -1   9  -6   90.91    5.33
   1   9   7   46.36    3.50
  -1   9  -7   37.93    3.15
  -1  -9  -7   43.93    3.37
  -1   9  -7   44.47    3.52
  -1  -9  -7   42.26    3.01
  -1  -9  -8    4.12    1.74
   1   9   8    3.83    1.74
   1   9   9   16.47    2.05
  -1  -9  -9   17.06    2.15
  -1  -9  -9   15.14    1.93
   1  -9   9   17.35    2.19
   1   9  10   21.83    1.83
   1  -9  10   23.98    2.23
  -1  -9 -10   22.95    1.99
   1  -9  11    4.64    0.94
   1   9  11    4.46    1.12
   1  -9  11    4.60    0.95
  -1 -10  11   41.91    2.54
  -1 -10  11   46.70    2.63
  -1 -10  10    0.23    0.75
  -1 -10  10   -0.09    0.92
  -1 -10  10    0.63    0.93
   1  10 -10    0.51    0.70
  -1 -10   9   36.35    3.03
   1  10  -9   33.71    2.73
  -1 -10   9   30.91    2.54
  -1 -10   9   35.28    2.84
  -1 -10   8   46.94    3.59
  -1 -10   8   51.33    3.47
   1  10  -8   51.73    3.73
  -1  10   8   51.62    3.78
  -1 -10   7  101.35    5.62
   1  10  -7  114.65    5.87
  -1  10   7  100.74    5.48
   1  10  -7  105.00    5.97
  -1  10   6   22.29    2.94
   1  10  -6   22.92    2.85
   1  10  -6   24.63    2.84
  -1 -10   6   17.89    2.31
  -1  10   6   18.44    2.60
  -1  10   5    7.75    2.25
  -1 -10   5    7.27    1.52
   1 -10  -5    5.72    1.97
   1  10  -5    8.65    2.07
  -1  10   5    8.02    2.08
  -1 -10   5    8.64    1.88
  -1  10   4   26.26    2.99
  -1 -10   4   25.32    2.71
  -1  10   4   27.27    2.95
   1 -10  -4   26.06    3.13
   1  10  -4   27.88    2.88
  -1  10   3    1.69    1.87
   1  10  -3    2.75    1.87
  -1  10   3    1.36    1.41
   1  10  -3    2.08    1.36
   1  10  -3    1.48    1.39
   1 -10  -3    1.28    1.49
  -1 -10   3    1.54    1.27
  -1  10   2    9.10    2.03
  -1 -10   2    9.77    1.86
  -1 -10   2   10.41    1.94
   1  10  -2    9.55    1.92
   1  10  -2    9.47    2.10
   1 -10  -2    5.19    1.65
   1  10  -2    7.69    2.07
   1  10  -2    8.01    1.70
   1  10  -1   38.36    3.24
  -1  10   1   35.50    3.38
   1  10  -1   39.66    3.36
  -1 -10   1   39.07    3.15
   1  10  -1   34.19    2.76
  -1 -10   1   41.78    3.42
   1  10  -1   38.74    3.18
  -1  10   1   34.88    3.30
   1  10   0   68.41    4.22
   1  10   0   63.06    4.22
  -1 -10   0   74.41    4.25
   1  10   0   72.06    4.20
   1  10   0   68.96    4.26
  -1 -10   0   53.46    3.99
   1  10   0   61.48    3.68
  -1  10   0   67.73    4.41
  -1  10  -1  198.07    8.43
  -1 -10  -1  208.36    8.31
  -1 -10  -1  159.41    8.36
   1  10   1  194.78    8.04
   1  10   1  202.39    8.33
  -1  10  -1  174.35    8.60
  -1  10  -1  206.20    8.23
   1  10   1  178.89    7.55
   1  10   1  198.73    8.42
  -1  10  -2   82.43    4.71
  -1  10  -2   81.52    4.72
  -1 -10  -2   64.66    4.90
   1  10   2   73.88    4.39
  -1  10  -2   79.09    5.12
  -1 -10  -2   80.32    4.59
   1  10   2   88.66    4.88
  -1 -10  -3   50.87    4.39
  -1 -10  -3   63.07    4.05
  -1  10  -3   64.78    4.63
   1  10   3   68.27    4.34
  -1  10  -3   65.07    4.15
  -1  10  -4    7.28    1.87
  -1 -10  -4    4.11    1.60
   1  10   4    7.14    2.09
   1  10   5    7.80    2.16
  -1 -10  -5    4.75    1.30
   1  10   5    7.05    2.19
  -1  10  -5    6.76    1.72
   1  10   6   40.59    3.25
  -1  10  -6   33.61    3.17
   1  10   6   42.70    3.54
  -1 -10  -6   39.91    2.89
   1  10   7   19.32    2.29
  -1  10  -7   15.39    2.00
  -1 -10  -7   17.71    2.21
   1  10   7   17.37    2.55
   1  10   8   28.05    2.43
   1 -10   8   25.76    2.45
  -1 -10  -8   23.51    2.24
  -1 -10  -8   32.49    2.67
   1  10   8   29.36    2.74
  -1 -10  -9    8.42    1.49
   1 -10   9   10.11    1.41
  -1 -10  -9    8.60    1.30
   1  10   9    9.76    1.77
  -1 -10 -10   54.02    2.64
   1  10  10   61.23    2.96
  -1 -11  10    6.24    1.11
  -1 -11  10    8.49    1.14
   1  11  -9   23.57    1.97
  -1 -11   9   20.42    1.81
  -1 -11   9   26.64    2.45
  -1 -11   9   23.56    2.11
  -1 -11   8   32.88    2.52
  -1 -11   8   37.89    2.95
  -1 -11   7   53.91    3.69
  -1 -11   7   47.74    3.23
   1  11  -7   63.93    3.97
   1  11  -7   59.67    4.00
   1  11  -6    2.54    1.54
  -1 -11   6    1.51    1.05
  -1  11   5   22.72    2.91
   1  11  -5   28.23    3.10
   1  11  -4  358.40   13.60
  -1 -11   3  165.62    7.35
   1  11  -3  174.59    7.53
   1  11  -3  176.87    8.21
   1  11  -3  164.84    7.25
  -1 -11   3  162.17    7.45
  -1  11   3  156.73    7.80
   1  11  -2  171.32    7.74
  -1  11   2  163.12    8.29
   1  11  -2  182.29    8.46
  -1 -11   2  179.93    7.85
   1  11  -2  185.95    7.94
   1  11  -2  172.70    7.65
  -1 -11   2  172.48    8.09
  -1 -11   1  177.25    7.73
   1  11  -1  176.13    7.73
   1  11  -1  170.21    8.08
  -1  11   1  160.51    8.16
   1  11  -1  178.61    7.68
  -1 -11   1  166.55    7.96
   1  11  -1  176.79    7.60
   1  11   0  465.44   17.22
  -1  11   0  444.79   17.58
  -1 -11   0  481.02   16.87
   1  11   0  495.92   16.83
   1  11   0  472.37   16.65
  -1 -11   0  469.14   17.33
   1  11   0  495.60   16.91
  -1  11   0  462.35   16.73
  -1  11   0  488.83   17.00
   1  11   1  328.34   12.09
  -1 -11  -1  305.76   11.92
   1  11   1  317.47   11.82
   1  11   1  319.43   12.08
  -1  11  -1  316.39   11.94
   1  11   1  306.44   12.05
  -1 -11  -2   47.55    4.08
  -1  11  -2   61.67    4.00
  -1  11  -2   58.46    4.35
  -1 -11  -2   46.70    3.53
   1  11   2   57.95    3.83
   1  11   2   66.70    4.14
  -1  11  -3   59.05    4.38
   1  11   3   61.15    4.09
   1  11   3   54.15    3.84
  -1  11  -4  133.63    7.06
   1  11   4  143.87    6.62
  -1  11  -5   50.12    3.82
  -1 -11  -5   49.96    3.03
   1  11   5   48.75    3.68
  -1  11  -6   11.41    1.84
   1  11   6   12.51    2.21
  -1 -11  -6   14.45    1.66
   1  11   7   36.31    2.93
  -1 -11  -7   37.78    2.61
  -1  11  -7   33.48    2.67
  -1 -11  -8    2.26    1.01
   1  11   8    3.31    1.42
  -1 -11  -8    2.57    1.21
  -1 -11  -9    2.67    0.97
   1  11   9    3.47    1.12
  -1 -12   9    8.15    1.08
   1  12  -9    8.83    1.02
  -1 -12   9   10.76    1.27
  -1 -12   8    3.21    1.01
  -1 -12   8    3.46    0.96
   1  12  -8    2.51    0.86
  -1 -12   7    3.30    1.09
   1  12  -7    3.76    1.19
  -1 -12   7    5.91    1.40
   1  12  -6    4.25    1.46
  -1 -12   6    1.86    1.11
   1  12  -5   31.27    2.78
  -1 -12   5   27.58    2.43
   1  12  -4   53.21    3.66
   1  12  -3   50.27    3.81
   1  12  -3   50.71    3.50
   1  12  -3   40.49    3.31
  -1  12   3   40.56    3.48
   1  12  -2    3.50    1.93
   1  12  -2    4.25    1.39
  -1  12   2    2.97    1.37
   1  12  -2    2.50    1.29
   1  12  -2    2.75    1.74
  -1  12   1  259.33   10.30
  -1  12   1  247.40   11.01
   1  12  -1  276.77   10.53
   1  12  -1  267.79   10.37
   1  12  -1  272.91   10.30
   1  12  -1  277.75   10.99
   1  12   0  572.02   18.61
  -1  12   0  500.02   19.31
   1  12   0  542.09   18.29
   1  12   0  540.32   18.34
  -1  12   0  536.80   18.43
   1  12   0  514.26   18.67
  -1  12  -1  164.60    7.31
   1  12   1  172.07    7.21
   1  12   1  173.16    7.41
  -1  12  -2  174.19    7.43
   1  12   2  170.00    7.41
   1  12   2  168.86    7.21
  -1  12  -2  182.58    8.34
   1  12   3   67.98    4.17
  -1  12  -3   80.12    4.91
   1  12   3   75.05    4.10
   1  12   3   73.19    4.28
  -1  12  -4   26.62    2.81
   1  12   4   27.74    2.52
   1  12   4   30.76    2.81
  -1 -12  -4   27.29    2.14
  -1 -12  -5   34.29    2.32
   1  12   5   33.83    2.76
  -1  12  -5   31.87    2.88
   1  12   6   14.79    1.92
  -1 -12  -6   17.59    1.74
  -1  12  -6   14.83    1.80
  -1  12  -7   27.61    2.02
  -1 -12  -7   30.42    2.17
   1  12   8  151.49    5.52
   1  13  -7   46.91    2.62
  -1 -13   7   41.32    2.45
  -1 -13   6   25.96    2.04
   1  13  -6   31.75    2.36
  -1 -13   5   37.67    2.51
   1  13  -4   14.08    1.81
  -1  13   4   16.93    2.10
   1  13  -3    1.81    1.13
   1  13  -3    2.96    1.20
  -1  13   3    2.67    1.49
  -1  13   2   12.88    2.03
   1  13  -2   14.18    1.77
   1  13  -2   17.77    2.05
   1  13  -2   14.20    2.05
   1  13  -1    1.04    1.54
  -1  13   1   -0.45    1.55
   1  13  -1    0.46    0.91
   1  13  -1    0.85    1.42
  -1  13   1   -0.13    1.12
   1  13   0   28.35    2.60
  -1  13   0   23.39    2.55
  -1  13   0   21.17    2.48
   1  13   0   22.99    2.27
  -1  13  -1   57.49    3.64
   1  13   1   69.20    3.82
   1  13   1   64.91    3.56
  -1  13  -2    5.24    1.50
   1  13   2    4.99    1.44
   1  13   2    4.26    1.57
   1  13   3    6.94    1.66
  -1  13  -3   10.53    1.81
  -1 -13  -4   21.01    1.66
   1  13   4   19.60    2.00
  -1  13  -4   17.13    2.09
  -1 -13  -5    4.09    1.00
  -1  13  -5    4.78    1.16
   1  13   5    3.92    1.16
  -1  13  -6    0.90    0.67
   1  13   6    0.80    0.78
  -1  14   6   15.01    1.22
   1  14  -6   17.77    1.32
  -1  14   5   65.23    3.01
  -1  14   4   48.10    2.69
   1  14  -4   56.01    3.01
  -1  14   3   11.83    1.54
   1  14  -3   11.81    1.43
  -1  14   2    7.18    1.42
   1  14  -2    8.23    1.22
  -1  14   1   51.25    2.95
  -1  14   0   64.95    3.72
   1  14   1   93.92    4.14
  -1  14  -1   89.96    4.65
   1  14   2   15.35    1.61
  -1 -14  -2   13.50    1.22
   1  14   3    2.81    1.02
  -1  14  -3    2.50    1.01
  -1  14  -4   10.14    1.33
   1  14   4    9.91    1.10
   2   0 -15    1.91    0.76
   2   0 -14    1.07    1.05
   2   0 -14    0.31    1.16
   2   0 -13    0.12    1.27
   2   0 -12   15.51    2.36
  -2   0  11   18.19    2.78
  -2   0  11   21.95    2.55
   2   0 -10   -0.62    1.47
  -2   0  10    1.70    1.09
  -2   0  10    1.57    1.46
   2   0 -10    0.33    1.36
  -2   0  10    0.18    1.26
  -2   0  10    0.26    1.05
  -2   0  10    1.16    1.16
   2   0  -9   68.32    4.50
  -2   0   9   74.08    4.84
  -2   0   9   63.85    4.13
  -2   0   9   67.83    4.79
  -2   0   9   62.71    4.56
  -2   0   9   62.73    4.28
   2   0  -9   80.99    4.85
  -2   0   9   66.61    4.31
   2   0  -8  196.84    8.52
  -2   0   8  206.95    8.99
  -2   0   8  191.48    8.31
  -2   0   8  186.68    8.84
  -2   0   8  204.53    8.63
  -2   0   8  199.84    8.68
  -2   0   8  202.70    8.09
  -2   0   8  190.84    8.03
   2   0  -8  231.28    9.07
  -2   0   8  212.14    8.53
   2   0  -7   53.98    3.54
  -2   0   7   57.15    3.89
  -2   0   7   53.62    3.53
  -2   0   7   64.84    3.92
  -2   0   7   58.76    3.81
  -2   0   7   56.41    3.48
   2   0  -7   67.47    3.97
  -2   0   7   51.23    3.76
  -2   0   7   57.76    3.69
  -2   0   7   64.64    3.40
  -2   0   6  205.91    8.66
   2   0  -6  211.16    8.30
  -2   0   6  195.87    8.48
  -2   0   6  201.09    8.33
  -2   0   6  212.38    7.72
  -2   0   5 2265.36   69.14
   2   0  -5 2322.12   69.78
  -2   0   5 2265.66   70.20
   2   0  -4  545.53   17.16
  -2   0   4  547.05   17.34
   2   0  -3 1349.84   39.07
  -2   0   3 1233.90   38.58
  -2   0   3 1337.06   39.11
  -2   0   2  357.75   11.30
   2   0  -2  360.08   11.50
  -2   0   2  355.82   11.07
   2   0  -1    0.32    0.75
  -2   0   1    1.77    0.53
  -2   0   0   29.64    1.65
  -2   0   0   32.62    1.36
  -2   0  -1   72.77    3.14
  -2   0  -1   84.69    4.06
  -2   0  -2   20.81    1.95
  -2   0  -2   16.07    1.49
  -2   0  -3   61.48    3.64
  -2   0  -3   67.17    3.20
  -2   0  -4  381.63   14.38
  -2   0  -4  397.88   13.60
  -2   0  -5    9.85    1.60
  -2   0  -5   12.82    1.64
  -2   0  -5    9.87    1.82
  -2   0  -5   13.62    1.72
  -2   0  -5   11.75    1.68
  -2   0  -5   10.32    1.54
  -2   0  -5   12.57    1.85
  -2   0  -6   63.15    4.17
  -2   0  -6   56.51    3.53
  -2   0  -6   53.43    3.47
  -2   0  -6   51.15    3.40
  -2   0  -6   57.56    3.36
  -2   0  -6   49.47    3.35
   2   0   7   21.00    2.68
  -2   0  -7   14.02    2.36
  -2   0  -7   15.51    2.14
  -2   0  -7   17.23    2.32
  -2   0  -7   13.22    1.80
  -2   0  -7   13.84    1.96
   2   0   8  172.04    8.34
  -2   0  -8  179.48    7.54
  -2   0  -8  168.70    7.38
   2   0   9   11.20    2.24
  -2   0  -9    7.43    2.08
  -2   0  -9    6.42    1.86
  -2   0  -9    6.70    1.80
  -2   0 -10  245.31    9.65
  -2   0 -10  234.92    9.17
  -2   0 -11   13.65    2.05
  -2   0 -11   11.86    1.68
  -2   0 -12   27.27    2.20
  -2   0 -12   30.73    2.52
   2   0  13   15.18    1.63
  -2   0 -13   16.76    1.51
   2   1 -15  127.96    5.00
   2  -1 -15  128.00    5.03
   2  -1 -14    6.65    1.52
   2   1 -14    5.72    1.39
  -2   1  14    5.34    1.19
   2  -1 -14    8.02    1.35
   2   1 -13   33.21    2.96
   2  -1 -13   24.56    2.54
   2  -1 -12   63.05    4.22
   2   1 -12   67.99    4.51
  -2  -1  12   55.01    3.97
  -2  -1  11   32.25    2.89
  -2  -1  11   29.77    3.08
  -2  -1  11   33.21    3.01
  -2   1  11   30.46    3.30
  -2  -1  11   29.69    3.26
  -2   1  11   28.98    2.69
   2  -1 -10   25.27    3.00
  -2  -1  10   23.06    2.54
  -2  -1  10   27.28    2.94
  -2   1  10   23.44    2.56
  -2  -1  10   27.44    2.82
  -2   1  10   22.55    2.88
  -2  -1  10   23.82    2.95
  -2  -1  10   27.04    2.58
  -2   1  10   26.31    2.79
   2   1 -10   24.97    2.91
   2   1 -10   27.26    3.08
   2   1  -9   29.74    3.07
  -2  -1   9   30.05    3.12
  -2  -1   9   32.63    2.93
   2  -1  -9   28.29    3.02
  -2  -1   9   32.62    3.08
  -2   1   9   28.21    2.77
  -2  -1   9   29.08    2.87
  -2  -1   9   27.42    3.02
  -2  -1   9   24.60    2.42
  -2  -1   9   28.81    2.63
  -2  -1   9   31.36    2.81
   2  -1  -9   30.82    2.99
   2  -1  -8   32.92    2.91
   2  -1  -8   43.40    3.38
  -2  -1   8   40.55    3.15
  -2  -1   8   35.59    3.26
  -2   1   8   31.71    2.63
  -2   1   8   34.53    2.99
  -2  -1   8   35.63    2.90
  -2   1   8   36.82    2.95
  -2  -1   8   31.38    2.97
  -2  -1   8   32.88    3.15
  -2  -1   8   38.73    3.15
   2   1  -8   35.66    3.08
  -2  -1   8   38.81    3.39
  -2  -1   8   35.29    2.82
  -2   1   8   34.66    3.04
  -2  -1   8   42.53    3.34
  -2  -1   7   58.26    3.28
   2  -1  -7   50.60    3.32
   2   1  -7   44.23    3.28
  -2   1   7   52.71    3.73
  -2  -1   7   54.34    3.52
  -2   1   7   44.13    3.12
  -2  -1   7   49.19    3.56
  -2   1   7   48.36    3.43
  -2   1   7   49.23    3.38
  -2  -1   7   50.15    3.57
   2  -1  -7   58.35    3.67
  -2  -1   7   48.53    3.30
  -2  -1   7   49.49    3.49
  -2  -1   7   50.92    3.62
  -2  -1   7   50.93    3.73
  -2   1   7   46.26    3.35
  -2  -1   7   47.58    3.57
  -2  -1   6   13.26    1.81
  -2  -1   6   14.53    1.59
  -2  -1   6   12.45    1.76
  -2  -1   6   13.28    1.77
  -2  -1   6   13.60    1.78
  -2  -1   6   14.59    1.95
   2  -1  -6   12.94    1.80
  -2  -1   6   11.44    1.81
  -2   1   6   12.76    1.47
  -2  -1   5   41.34    2.44
  -2  -1   5   38.73    2.83
   2  -1  -5   39.05    2.64
  -2   1   5   38.35    2.22
  -2  -1   4  880.05   27.84
   2   1  -4  924.01   27.82
  -2   1   4  884.14   27.62
   2  -1  -3  302.56    9.72
   2   1  -3  306.86   10.21
  -2  -1   3  311.02   10.20
  -2   1   3  312.64    9.90
  -2  -1   2  487.37   15.35
   2  -1  -2  487.23   15.09
  -2  -1   2  495.73   15.20
   2   1  -2  513.31   15.60
  -2   1   2  470.16   14.92
  -2   1   1  151.68    5.08
  -2  -1   1  156.54    5.43
   2   1  -1  167.78    5.82
   2  -1  -1  163.29    5.42
  -2  -1   1  150.66    5.41
  -2  -1   0   13.26    1.16
   2   1   0   13.74    1.40
  -2   1   0   12.58    1.10
  -2   1  -1  142.89    5.17
  -2  -1  -2   31.70    2.43
  -2  -1  -2   37.53    2.16
  -2   1  -2   34.26    2.02
  -2  -1  -3   39.79    2.43
  -2   1  -3   38.96    2.32
  -2  -1  -3   36.72    2.70
  -2  -1  -4  318.52   12.07
  -2   1  -4  317.26   11.53
  -2   1  -4  318.82   11.24
  -2  -1  -4  351.59   11.50
  -2   1  -4  335.89   11.31
  -2  -1  -4  317.57   11.38
  -2  -1  -5  337.62   13.00
  -2   1  -5  340.17   11.99
  -2  -1  -5  350.99   12.06
  -2  -1  -5  336.25   12.13
  -2   1  -5  352.73   12.38
  -2  -1  -5  375.30   12.44
  -2  -1  -5  331.64   12.00
  -2   1  -5  334.07   12.16
  -2  -1  -5  353.58   12.08
  -2  -1  -5  353.91   12.32
   2  -1   6  112.57    5.62
  -2  -1  -6   98.66    4.82
  -2  -1  -6   92.26    5.39
  -2  -1  -6  100.61    4.88
  -2  -1  -6  107.80    4.93
  -2  -1  -6   84.73    4.56
  -2  -1  -6   95.91    5.21
  -2   1  -6   93.07    4.68
  -2   1  -6   95.69    4.91
  -2   1  -6   94.48    4.90
  -2   1  -6   99.39    4.77
  -2  -1  -7  284.46   10.49
   2  -1   7  318.26   11.67
  -2  -1  -7  248.59   11.29
  -2  -1  -7  291.27   10.58
  -2  -1  -7  290.62   10.52
  -2   1  -7  290.00   10.47
  -2   1  -7  303.41   10.67
  -2  -1  -7  230.44    9.92
  -2   1  -7  246.31   10.31
  -2   1  -7  262.97   10.36
  -2   1  -8   85.01    5.82
  -2  -1  -8   91.05    5.86
  -2  -1  -8  109.48    5.40
  -2   1  -8  100.61    5.21
  -2   1  -8  109.74    5.49
  -2   1  -8  111.94    5.39
  -2   1  -8   82.58    5.04
   2  -1   8  102.52    5.97
   2  -1   9   29.44    3.23
  -2   1  -9   28.92    2.82
  -2  -1  -9   20.35    2.82
   2   1   9   28.72    3.27
  -2  -1  -9   34.38    3.10
  -2   1  -9   31.24    3.07
  -2   1  -9   24.43    3.10
  -2   1 -10   41.48    3.35
  -2  -1 -10   39.92    3.25
  -2  -1 -10   33.02    2.83
  -2   1 -10   35.34    2.94
  -2  -1 -11   27.16    2.44
  -2   1 -11   23.87    2.45
  -2  -1 -11   20.67    1.96
  -2   1 -11   21.26    2.09
  -2  -1 -12   11.96    1.54
  -2   1 -12   10.47    1.56
   2  -1  13   20.87    1.81
   2   1  13   20.23    1.77
  -2   1 -13   23.42    1.70
  -2  -1 -13   24.51    1.72
   2   2 -14   10.88    1.65
   2   2 -14   11.35    1.64
   2  -2 -14   10.31    1.59
  -2   2  14   12.94    1.47
   2   2 -13   20.97    2.43
   2  -2 -13   19.74    2.12
  -2  -2  12    4.62    1.58
   2   2 -12    5.17    1.86
   2  -2 -12    8.09    1.77
  -2   2  12    5.93    1.65
  -2  -2  11   25.72    3.12
   2  -2 -11   24.14    2.68
  -2  -2  11   22.15    2.54
  -2  -2  11   21.92    2.70
  -2  -2  11   22.16    2.62
  -2   2  11   22.53    2.85
  -2   2  11   25.89    2.69
  -2  -2  11   22.41    2.80
   2   2 -10   10.23    1.96
   2   2 -10   10.75    2.25
  -2  -2  10   11.11    2.25
  -2  -2  10   10.13    1.97
  -2  -2  10   11.52    2.00
  -2  -2  10   10.81    2.08
  -2   2  10    8.95    1.57
  -2  -2  10   10.00    1.69
   2   2 -10    9.62    2.04
   2  -2 -10    7.88    2.00
  -2  -2  10   11.51    2.13
  -2   2  10    8.10    1.93
  -2  -2  10   10.50    1.94
  -2  -2  10   11.34    1.91
  -2   2  10   11.51   14.26
   2   2  -9   22.28    2.72
   2   2  -9   19.83    2.60
  -2  -2   9   23.47    2.88
  -2  -2   9   24.25    2.67
  -2   2   9   21.95    2.30
   2  -2  -9   24.53    2.80
  -2  -2   9   18.75    2.54
  -2   2   9   20.93    2.70
  -2  -2   9   20.61    2.66
  -2  -2   9   21.64    2.43
   2   2  -9   22.90    2.78
  -2  -2   9   25.06    2.65
  -2  -2   9   23.05    2.53
   2  -2  -9   17.80    2.32
   2  -2  -8  144.45    7.10
   2   2  -8  169.09    7.66
  -2  -2   8  164.08    7.89
  -2   2   8  166.81    7.92
  -2  -2   8  167.44    7.89
  -2  -2   8  162.92    7.70
  -2  -2   8  179.11    7.93
   2   2  -8  194.89    7.95
  -2   2   8  166.01    8.01
   2  -2  -8  184.69    7.87
  -2   2   8  152.37    7.17
  -2  -2   8  166.63    7.67
  -2  -2   8  166.85    7.94
  -2   2   8  161.89    7.48
  -2  -2   8  180.68    7.37
   2  -2  -7   45.64    3.26
   2   2  -7   55.09    3.64
  -2  -2   7   60.12    3.92
  -2   2   7   49.79    3.46
   2  -2  -7   68.52    3.99
   2   2  -7   62.21    3.85
  -2  -2   7   64.97    3.61
  -2  -2   7   58.60    4.01
  -2  -2   7   64.44    4.07
  -2  -2   7   56.55    3.87
  -2  -2   7   56.99    3.87
  -2   2   7   54.30    3.77
  -2   2   7   60.16    4.04
  -2  -2   6   49.41    3.48
   2  -2  -6   53.18    3.30
   2   2  -6   54.86    3.30
  -2   2   6   44.96    3.34
  -2  -2   6   49.77    3.38
  -2  -2   6   50.13    3.07
  -2  -2   6   45.35    3.39
  -2  -2   6   50.76    3.51
   2  -2  -5  208.43    8.12
   2   2  -5  217.64    8.17
  -2  -2   5  215.04    8.51
  -2   2   5  202.71    8.49
  -2  -2   5  217.24    7.96
   2   2  -4   35.33    2.23
  -2  -2   4   36.81    2.28
  -2  -2   3 1243.56   38.24
   2   2  -3 1243.93   38.22
  -2  -2   2  205.62    7.12
   2   2  -2  209.02    7.42
  -2  -2   2  208.01    7.34
  -2  -2   1 1374.84   39.76
  -2  -2   1 1333.37   39.88
   2   2  -1 1353.94   40.08
   2  -2  -1 1235.25   39.23
   2   2   0    5.95    1.28
  -2  -2   0    2.09    0.87
  -2  -2  -1  491.49   15.34
   2   2   1  459.49   15.13
  -2   2  -2  172.40    6.87
  -2  -2  -2  175.95    6.83
  -2  -2  -2  174.40    6.86
   2   2   2  152.20    5.57
  -2   2  -3  952.07   31.40
  -2  -2  -3  992.96   30.67
  -2  -2  -3  955.99   31.37
  -2  -2  -3 1015.89   31.50
  -2  -2  -4  524.40   17.57
  -2   2  -4  526.64   18.25
  -2  -2  -4  514.58   18.17
  -2   2  -4  524.76   17.32
  -2   2  -4  521.21   17.67
  -2  -2  -4  546.07   17.50
  -2   2  -4  509.91   17.56
  -2   2  -4  528.10   17.58
  -2  -2  -4  520.93   17.47
  -2  -2  -4  562.29   18.27
  -2  -2  -5   40.78    3.13
  -2  -2  -5   35.49    2.74
  -2  -2  -5   41.96    2.88
  -2   2  -5   37.26    2.73
  -2   2  -5   44.56    2.94
  -2   2  -5   40.70    2.98
  -2   2  -5   40.95    2.88
  -2   2  -5   39.85    3.00
  -2  -2  -5   44.21    2.93
  -2  -2  -5   40.59    3.22
  -2  -2  -5   44.32    2.89
  -2  -2  -5   41.22    3.13
  -2   2  -5   46.49    3.40
   2   2   6   61.21    4.06
   2  -2   6   56.51    3.84
  -2  -2  -6   51.05    3.71
  -2   2  -6   50.58    3.85
  -2  -2  -6   52.58    3.39
  -2  -2  -6   46.83    3.29
  -2  -2  -6   52.72    3.40
  -2   2  -6   44.80    3.17
  -2  -2  -6   48.69    3.81
  -2   2  -6   45.02    3.42
  -2   2  -6   50.32    3.40
  -2  -2  -6   51.49    3.41
  -2  -2  -7    0.32    1.42
   2  -2   7   -0.30    1.32
   2   2   7    1.42    1.57
  -2  -2  -7    2.03    1.52
  -2   2  -7    0.52    1.29
  -2  -2  -7    1.85    1.36
  -2   2  -7    0.11    1.49
  -2  -2  -7    1.20    1.33
  -2   2  -7    0.12    1.36
  -2   2  -8    7.19    1.90
  -2  -2  -8   11.63    2.16
  -2   2  -8   11.46    2.09
  -2  -2  -8   10.51    2.09
  -2   2  -8   12.12    2.24
   2   2   8   13.15    2.38
  -2   2  -8   12.93    2.21
   2  -2   8   10.11    2.15
   2  -2   9   12.03    2.29
   2   2   9   13.78    2.40
  -2   2  -9    9.73    2.08
  -2  -2  -9    9.29    2.04
  -2  -2  -9   13.22    2.30
  -2   2  -9   11.13    2.33
  -2   2  -9   11.56    2.14
  -2   2  -9    8.71    1.92
  -2  -2 -10    3.06    1.67
  -2   2 -10    2.93    1.85
  -2  -2 -10    4.67    1.50
  -2   2 -10    4.14    1.66
  -2   2 -11   32.29    2.76
  -2  -2 -11   33.03    2.63
  -2   2 -11   28.70    2.40
  -2  -2 -12    2.66    1.04
  -2   2 -12    3.21    1.29
   2  -2  13    2.09    0.76
   2   2  13    2.34    0.78
  -2  -2 -13    3.95    0.95
   2   3 -14   37.58    2.54
   2  -3 -14   40.64    2.63
  -2   3  14   35.42    2.24
  -2  -3  13   11.64    1.76
  -2   3  13   16.41    2.05
  -2  -3  12   76.43    4.51
  -2  -3  12   74.46    4.54
  -2  -3  12   64.93    4.12
  -2   3  12   60.93    3.86
   2  -3 -12   60.78    3.86
  -2  -3  11   94.68    5.61
  -2  -3  11   80.06    4.92
  -2  -3  11   87.11    5.24
  -2  -3  11   86.67    5.23
   2  -3 -11   71.62    4.53
  -2   3  11   81.12    4.86
  -2  -3  10  194.57    8.97
  -2  -3  10  173.53    8.76
   2   3 -10  163.96    8.12
  -2  -3  10  200.43    8.82
  -2  -3  10  195.46    8.54
  -2  -3  10  178.51    8.13
  -2   3  10  150.89    8.40
  -2  -3  10  192.00    8.69
   2  -3 -10  182.47    7.97
  -2  -3  10  189.61    8.28
  -2  -3  10  192.93    8.58
  -2   3  10  186.78    8.02
  -2  -3   9  282.83   12.09
   2  -3  -9  294.81   11.79
   2   3  -9  304.04   11.85
  -2  -3   9  292.33   12.01
  -2   3   9  274.86   12.09
  -2  -3   9  307.40   12.09
  -2  -3   9  280.80   12.12
  -2  -3   9  317.09   11.68
   2   3  -9  283.86   11.72
   2  -3  -8  582.32   19.58
   2   3  -8  589.97   19.61
  -2   3   8  527.12   19.91
  -2  -3   8  581.88   19.96
  -2  -3   8  555.23   20.01
  -2  -3   8  588.54   19.31
  -2  -3   8  528.08   19.75
  -2  -3   8  577.25   19.91
  -2   3   8  554.46   19.48
   2   3  -8  571.04   19.73
   2  -3  -8  485.97   18.70
   2   3  -7   57.29    3.83
  -2  -3   7   67.97    3.89
  -2  -3   7   60.47    4.06
  -2  -3   7   60.91    4.12
  -2  -3   7   56.48    4.05
   2   3  -7   68.64    4.04
  -2  -3   7   54.21    3.95
  -2  -3   7   61.19    4.12
  -2   3   7   57.22    4.01
   2  -3  -7   68.27    4.09
  -2   3   7   64.78    4.29
   2   3  -7   65.00    4.19
   2   3  -6   34.45    2.72
  -2  -3   6   36.44    2.95
   2   3  -6   43.39    2.92
  -2   3   6   41.89    3.17
  -2  -3   6   40.48    3.08
  -2  -3   6   39.79    2.81
   2  -3  -6   38.69    2.86
  -2  -3   6   36.16    3.04
  -2   3   6   34.62    2.99
  -2  -3   6   31.52    2.80
  -2  -3   5   55.50    3.55
  -2  -3   5   53.08    3.60
   2  -3  -5   62.81    3.40
   2   3  -5   63.59    3.37
   2   3  -5   63.67    3.42
  -2  -3   5   62.90    3.44
  -2  -3   4    5.09    1.22
   2   3  -4    3.27    1.12
   2   3  -3   91.76    4.20
  -2  -3   3  102.38    4.38
  -2  -3   2  367.16   12.03
   2   3  -2  358.35   11.93
  -2  -3   2  336.26   11.63
   2   3  -1  170.25    6.45
  -2  -3   1  167.58    6.20
   2   3   0   92.94    4.14
  -2  -3   0   90.37    3.92
   2   3   0   89.41    4.03
  -2  -3  -1  219.22    8.01
   2   3   1  244.62    8.40
  -2  -3  -1  216.48    8.60
   2   3   1  218.44    7.81
  -2  -3  -2  229.18    8.63
  -2   3  -2  235.29    8.71
   2   3   2  215.26    7.50
  -2  -3  -3 2262.38   67.27
  -2   3  -3 2148.67   66.94
  -2  -3  -3 2143.59   66.94
  -2  -3  -3 2254.41   66.35
  -2   3  -3 2137.73   66.52
  -2   3  -3 2183.77   66.47
  -2  -3  -3 2117.40   66.31
  -2  -3  -3 2171.91   66.43
  -2  -3  -4 1862.79   55.42
  -2  -3  -4 1733.02   54.46
  -2  -3  -4 1752.21   55.16
  -2   3  -4 1751.45   54.24
  -2   3  -4 1768.13   54.67
  -2   3  -4 1771.69   54.53
  -2   3  -4 1786.21   54.76
  -2   3  -4 1754.85   55.14
  -2  -3  -4 1748.17   54.42
  -2   3  -5  360.09   13.80
  -2  -3  -5  362.04   13.84
  -2  -3  -5  380.90   13.22
  -2  -3  -5  370.87   12.98
  -2   3  -5  375.31   13.04
  -2   3  -5  366.54   13.30
  -2   3  -5  356.24   13.34
  -2  -3  -5  361.85   13.05
  -2  -3  -5  392.39   13.98
   2   3   6   50.54    3.73
   2  -3   6   46.57    3.52
  -2  -3  -6   43.41    3.60
  -2  -3  -6   45.79    3.21
  -2   3  -6   47.05    3.70
  -2   3  -6   50.29    3.37
  -2  -3  -6   42.93    3.22
  -2   3  -6   39.64    3.31
  -2  -3  -6   44.22    3.19
  -2  -3  -6   40.65    3.42
   2   3   7  121.77    6.31
   2  -3   7  112.99    6.04
  -2  -3  -7  100.71    5.96
  -2   3  -7  101.50    6.18
  -2   3  -7  120.06    5.61
  -2  -3  -7   95.42    5.99
  -2  -3  -7  120.45    5.87
  -2  -3  -7  126.30    5.70
  -2   3  -7  102.70    5.67
  -2  -3  -7   90.07    5.60
  -2   3  -8   28.56    3.27
  -2  -3  -8   30.30    2.90
  -2   3  -8   29.37    3.01
  -2   3  -8   26.92    2.84
  -2  -3  -8   25.85    2.84
   2   3   8   33.64    3.42
  -2   3  -8   27.89    2.96
   2  -3   8   29.33    3.11
  -2  -3  -8   21.58    2.82
  -2   3  -9   30.03    3.35
  -2  -3  -9   34.69    3.05
  -2   3  -9   37.88    3.36
  -2   3  -9   36.45    3.12
  -2  -3  -9   29.62    3.25
  -2   3  -9   30.34    3.02
  -2  -3 -10    3.28    1.92
  -2  -3 -10    3.60    1.68
  -2   3 -10    2.98    1.72
  -2   3 -10    2.40    1.86
  -2   3 -10    3.45    1.63
  -2  -3 -11   39.21    2.99
  -2  -3 -11   39.97    2.81
  -2   3 -11   41.92    3.09
  -2   3 -11   39.63    3.07
  -2   3 -11   36.60    9.22
  -2  -3 -12   11.48    1.29
   2  -4 -14   12.02    1.24
  -2   4  14   13.32    1.39
   2   4 -14   13.08    1.49
   2  -4 -13   27.03    2.37
   2   4 -13   26.42    2.51
  -2  -4  13   29.15    2.54
  -2   4  13   29.63    2.45
  -2  -4  12    4.38    1.40
   2   4 -12    5.05    1.78
  -2  -4  12    4.50    1.54
  -2  -4  12    5.13    1.49
  -2  -4  11   74.91    4.95
  -2  -4  11   72.98    4.74
  -2  -4  11   65.61    4.47
  -2  -4  11   71.19    4.44
  -2   4  11   74.16    4.46
  -2  -4  11   72.89    4.67
  -2  -4  10   58.65    4.36
  -2   4  10   47.14    4.04
  -2  -4  10   69.84    4.60
  -2  -4  10   53.00    4.31
  -2   4  10   61.70    4.17
  -2  -4  10   65.29    4.50
  -2   4  10   57.20    4.10
   2   4 -10   54.75    4.35
   2   4 -10   49.85    3.97
  -2  -4   9  393.64   14.03
  -2  -4   9  361.96   14.37
   2   4  -9  363.73   13.94
  -2  -4   9  367.68   14.32
  -2   4   9  326.58   14.15
  -2  -4   9  361.46   14.44
  -2  -4   9  378.23   14.45
  -2  -4   9  371.42   14.36
  -2   4   9  363.86   13.58
   2  -4  -9  353.28   13.84
   2   4  -9  370.08   14.21
   2   4  -9  382.38   14.29
   2   4  -8 1117.59   36.82
  -2  -4   8 1099.51   37.07
   2  -4  -8 1083.16   36.43
  -2  -4   8 1127.24   37.13
  -2   4   8 1037.10   36.99
  -2  -4   8 1116.49   37.23
   2   4  -8 1129.54   36.54
  -2  -4   8 1229.92   36.88
  -2  -4   8 1175.34   37.33
  -2   4   8 1151.20   36.97
   2   4  -8 1205.64   37.22
   2   4  -7  124.68    6.25
  -2  -4   7  119.25    6.37
  -2  -4   7  132.89    6.61
   2  -4  -7  127.96    6.17
   2   4  -7  147.09    6.42
  -2  -4   7  144.87    6.46
  -2   4   7  131.91    6.64
  -2  -4   7  136.19    6.68
  -2   4   7  127.68    6.55
   2   4  -7  144.50    6.80
   2   4  -6   31.60    2.68
  -2  -4   6   39.05    3.09
   2   4  -6   40.59    2.86
  -2  -4   6   40.66    3.06
   2  -4  -6   37.91    2.82
  -2   4   6   35.60    2.96
  -2  -4   6   27.84    2.65
  -2  -4   6   34.19    3.03
  -2   4   6   31.74    2.98
   2   4  -6   42.84    3.43
  -2   4   5   17.28    2.15
  -2  -4   5   17.58    2.03
  -2  -4   5   18.85    2.09
   2  -4  -5   18.59    1.92
   2   4  -5   19.22    1.90
   2   4  -5   22.29    2.05
  -2  -4   5   16.99    1.91
  -2  -4   5   19.94    2.13
  -2  -4   4  331.24   11.28
  -2  -4   4  313.80   11.41
  -2  -4   4  294.40   11.26
  -2  -4   4  291.65   11.35
   2   4  -4  296.95   10.97
   2  -4  -4  300.88   10.76
   2   4  -4  310.46   10.79
   2   4  -4  328.22   11.82
   2   4  -3   70.11    3.73
  -2  -4   3   84.60    4.04
   2   4  -3   78.77    4.30
  -2  -4   2  146.30    6.04
   2   4  -2  145.13    5.94
   2   4  -2  149.62    6.38
  -2  -4   1  354.86   12.11
   2   4  -1  362.07   12.37
   2   4  -1  358.05   12.50
   2   4   0  834.22   25.67
  -2  -4   0  794.04   25.38
  -2  -4   0  763.51   25.96
   2   4   0  808.41   25.47
   2   4   1 1101.63   33.82
  -2  -4  -1 1045.51   33.51
   2   4   1 1099.52   33.35
  -2  -4  -1 1034.16   34.16
  -2   4  -2    1.96    1.07
   2   4   2    1.64    1.27
  -2  -4  -2    3.19    1.22
  -2  -4  -3  108.90    4.97
  -2  -4  -3  117.55    5.69
  -2  -4  -3  118.45    5.43
  -2   4  -3  108.07    5.25
  -2  -4  -3  107.71    5.03
  -2   4  -3  111.57    4.90
  -2   4  -3  108.09    5.12
  -2   4  -3  122.18    5.05
  -2  -4  -3  110.80    5.04
  -2  -4  -4  593.33   19.92
  -2   4  -4  554.93   19.35
  -2  -4  -4  560.00   19.48
  -2  -4  -4  563.46   18.83
  -2  -4  -4  544.60   18.86
  -2   4  -4  559.10   18.73
  -2   4  -4  580.24   18.78
  -2   4  -4  579.63   19.30
  -2  -4  -4  572.05   18.95
   2   4   5   24.38    2.53
   2  -4   5   23.82    2.50
  -2  -4  -5   23.21    2.63
  -2   4  -5   21.57    2.42
  -2  -4  -5   24.49    2.59
  -2  -4  -5   24.46    2.28
  -2  -4  -5   20.95    2.29
  -2   4  -5   23.79    2.36
  -2  -4  -5   25.49    2.52
  -2   4  -5   25.98    2.68
  -2  -4  -5   23.97    2.31
  -2  -4  -5   20.53    2.52
  -2  -4  -6   11.83    2.02
   2  -4   6   11.33    1.89
  -2  -4  -6   13.59    2.07
  -2   4  -6   14.19    2.10
  -2  -4  -6   11.33    2.02
  -2   4  -6   14.80    2.12
  -2  -4  -6   16.50    2.27
  -2  -4  -6   14.16    2.21
  -2   4  -6   12.58    2.04
  -2   4  -6   12.49    2.16
   2   4   6   12.96    2.14
  -2  -4  -6   13.33    1.90
   2  -4   7    6.88    1.86
   2   4   7    3.83    1.61
  -2   4  -7    4.89    1.59
  -2  -4  -7    4.24    1.51
  -2  -4  -7    5.10    1.76
  -2  -4  -7    5.95    1.64
  -2   4  -7    5.83    1.83
  -2   4  -7    7.10    1.90
  -2  -4  -7    4.45    1.78
  -2   4  -7    3.49    1.86
  -2  -4  -7    4.19    1.49
   2   4   8   55.13    4.25
   2  -4   8   58.81    4.31
  -2  -4  -8   49.79    4.27
  -2  -4  -8   69.53    4.28
  -2   4  -8   51.84    4.34
  -2  -4  -8   68.85    4.04
  -2   4  -8   54.43    3.95
  -2   4  -8   69.18    4.18
  -2  -4  -8   52.93    3.97
  -2   4  -8   59.64    4.34
  -2  -4  -9   32.60    3.12
  -2  -4  -9   32.95    2.92
  -2   4  -9   31.13    3.08
  -2   4  -9   29.89    2.97
  -2   4  -9   29.93    2.94
  -2  -4 -10   18.07    2.48
  -2  -4 -10   20.52    2.30
  -2   4 -10   22.16    2.57
  -2   4 -10   19.87    2.48
  -2   4 -10   17.62    2.23
  -2  -4 -11    9.54    1.55
  -2   4 -11   11.04    1.87
  -2  -4 -11   10.21    1.79
   2  -4  12   32.75    2.29
  -2   4 -12   45.77    2.58
   2   5 -14   37.52    2.18
  -2   5  14   37.30    2.05
  -2  -5  14   41.03    2.24
  -2  -5  13   20.27    1.93
  -2  -5  13   20.20    2.00
  -2   5  13   20.10    2.03
   2   5 -13   17.05    1.93
  -2  -5  12   40.51    3.19
  -2  -5  12   37.32    3.05
  -2   5  12   40.26    3.08
   2   5 -12   38.06    3.15
  -2  -5  11   18.99    2.53
  -2  -5  11   16.12    2.33
  -2  -5  11   16.78    2.51
  -2  -5  11   14.84    2.16
  -2  -5  11   21.06    2.56
  -2  -5  11   17.53    2.38
  -2   5  11   21.38    2.71
  -2  -5  10   24.64    2.94
  -2  -5  10   29.52    3.11
  -2  -5  10   25.81    2.99
  -2  -5  10   28.40    3.10
  -2  -5  10   28.17    3.02
  -2   5  10   31.50    3.20
  -2  -5   9   50.11    4.00
  -2   5   9   50.32    3.68
  -2  -5   9   47.36    3.90
  -2  -5   9   49.39    4.00
  -2   5   9   49.04    3.87
   2   5  -9   42.06    3.70
   2   5  -9   43.26    3.76
   2   5  -8  105.32    5.72
  -2  -5   8  103.70    5.82
  -2  -5   8  113.94    6.10
  -2  -5   8  111.59    6.08
   2   5  -8   96.40    5.14
  -2  -5   8  102.52    5.93
  -2   5   8  108.98    5.67
   2  -5  -8   93.97    5.32
   2   5  -8   95.94    5.29
  -2   5   8  107.85    5.67
   2   5  -8  111.73    6.04
   2   5  -7   49.21    3.42
   2   5  -7   47.91    3.56
  -2  -5   7   43.80    3.55
  -2   5   7   55.57    3.79
   2  -5  -7   45.01    3.33
  -2  -5   7   51.28    3.86
   2   5  -7   44.19    3.21
  -2  -5   7   57.07    4.01
  -2   5   7   54.06    4.08
   2   5  -7   55.64    4.08
   2   5  -6   20.38    2.19
  -2  -5   6   18.95    2.20
   2   5  -6   19.58    2.09
  -2  -5   6   18.67    2.28
  -2  -5   6   19.97    2.37
  -2   5   6   17.61    2.14
   2   5  -6   18.42    2.01
  -2  -5   6   22.10    2.43
   2  -5  -6   17.50    1.99
   2   5  -5  129.78    6.11
  -2  -5   5  128.29    6.24
  -2   5   5  134.65    6.40
  -2  -5   5  149.97    6.73
  -2  -5   5  146.77    6.63
   2  -5  -5  141.46    5.98
  -2  -5   5  134.85    6.60
   2   5  -5  161.32    6.18
   2   5  -5  145.53    6.33
   2   5  -5  133.64    5.90
  -2   5   5  145.59    6.92
  -2  -5   5  167.15    6.82
   2   5  -4   12.02    2.06
  -2   5   4   13.10    1.96
  -2  -5   4   16.12    1.95
  -2  -5   4   14.47    1.85
  -2  -5   4   15.08    1.86
  -2  -5   4   12.26    1.73
   2   5  -4   12.70    1.47
   2  -5  -4    8.17    1.36
   2   5  -4   11.74    1.72
  -2   5   4   11.74    1.66
  -2   5   4   10.95    1.82
  -2  -5   3  116.23    5.48
  -2  -5   3  102.78    5.27
   2   5  -3  114.20    5.19
  -2  -5   3  123.70    5.50
   2   5  -3  120.85    5.73
   2   5  -2   77.41    3.98
  -2  -5   2   76.57    4.06
   2   5  -2   81.18    4.34
  -2  -5   1   31.37    2.27
   2   5  -1   24.80    2.23
  -2  -5   1   30.24    2.49
   2   5  -1   34.64    2.59
   2   5   0  531.35   17.48
  -2  -5   0  515.96   17.23
  -2   5   0  500.64   17.35
  -2  -5   0  494.49   17.73
   2   5   0  551.04   17.44
   2   5   1   17.99    1.73
  -2  -5  -1   22.45    2.20
  -2   5  -1   19.70    1.94
  -2   5  -1   19.49    2.04
  -2  -5  -1   22.26    2.09
  -2  -5  -2   -0.25    0.91
  -2   5  -2    0.09    0.89
  -2  -5  -2    0.12    1.06
  -2   5  -2   -0.14    1.24
  -2  -5  -2   -0.39    0.85
  -2   5  -2    0.28    1.08
  -2  -5  -3   23.29    2.06
  -2   5  -3   21.49    2.04
  -2   5  -3   25.17    2.27
  -2   5  -3   21.40    2.01
  -2   5  -3   24.17    2.17
  -2   5  -3   22.07    2.27
  -2  -5  -3   23.37    2.10
  -2  -5  -3   21.87    2.08
   2   5   4    3.06    1.14
  -2   5  -4    3.21    1.10
  -2  -5  -4    2.13    1.06
  -2  -5  -4    3.91    1.17
   2   5   4    3.00    1.48
  -2  -5  -4    2.59    1.14
  -2   5  -4    2.86    1.52
  -2   5  -4    3.35    1.31
  -2   5  -4    4.51    1.47
  -2  -5  -4    3.20    1.54
   2  -5   4    3.48    1.17
  -2  -5  -4    2.62    1.31
  -2  -5  -4    2.42    1.18
   2   5   5   45.05    3.22
   2  -5   5   40.36    3.12
  -2  -5  -5   44.80    3.67
  -2   5  -5   37.96    3.14
  -2  -5  -5   41.40    3.35
  -2  -5  -5   44.76    3.15
  -2  -5  -5   47.37    3.31
  -2   5  -5   43.08    3.20
  -2  -5  -5   50.47    3.42
  -2   5  -5   43.85    3.10
  -2   5  -5   47.83    3.65
  -2  -5  -5   48.67    3.31
  -2  -5  -6   17.95    2.28
  -2   5  -6   16.00    2.17
   2  -5   6   15.93    2.17
  -2   5  -6   14.66    2.18
  -2  -5  -6   10.97    2.10
  -2   5  -6   15.52    2.21
  -2  -5  -6   17.94    2.36
  -2  -5  -6   13.10    2.06
   2   5   6   13.42    2.02
  -2  -5  -6   18.74    2.24
  -2   5  -6   20.34    2.78
   2   5   7   32.20    3.09
  -2   5  -7   31.28    3.19
  -2  -5  -7   34.95    3.31
  -2  -5  -7   47.29    3.59
  -2  -5  -7   39.92    3.28
  -2   5  -7   40.89    3.26
  -2  -5  -7   38.69    3.33
  -2   5  -7   39.63    3.35
   2  -5   7   37.19    3.25
  -2   5  -7   40.99    3.71
  -2  -5  -7   40.77    3.18
  -2  -5  -7   34.60    3.55
  -2   5  -8   16.38    2.30
  -2  -5  -8   22.40    2.72
  -2  -5  -8   19.21    2.50
  -2  -5  -8   15.75    2.33
  -2   5  -8   21.59    2.57
  -2   5  -8   23.18    2.73
  -2  -5  -8   16.04    2.44
  -2   5  -8   19.71    2.78
  -2  -5  -9   33.78    3.16
  -2  -5  -9   36.76    3.30
  -2  -5  -9   34.52    2.95
  -2   5  -9   35.44    3.26
  -2   5  -9   33.80    3.08
  -2   5  -9   29.06    2.91
  -2   5  -9   33.74    3.01
  -2  -5 -10   33.49    2.63
  -2  -5 -10   33.48    2.92
  -2   5 -10   33.21    2.87
  -2   5 -10   29.74    2.74
  -2  -5 -11  206.16    7.65
  -2  -5 -11  185.58    7.21
  -2   5 -11  213.01    7.70
  -2   5 -11  198.14    7.56
   2  -5  12   24.22    1.92
  -2   5 -12   25.42    1.81
  -2  -6  13    9.94    1.38
  -2   6  13   10.93    1.57
  -2  -6  12   15.82    1.96
  -2  -6  12   11.76    1.84
  -2  -6  12   13.38    1.86
  -2   6  12   14.10    2.12
   2   6 -12   13.34    1.84
  -2  -6  11   43.91    3.45
  -2  -6  11   39.96    3.36
   2   6 -11   35.95    2.90
  -2  -6  11   37.06    3.09
  -2  -6  11   40.58    3.37
   2   6 -11   38.37    3.17
  -2   6  11   41.92    3.35
  -2  -6  10    0.31    1.42
  -2  -6  10    1.60    1.39
  -2  -6  10    1.46    1.33
  -2   6  10    3.02    2.13
   2   6  -9  146.93    7.58
  -2  -6   9  168.14    7.92
  -2  -6   9  169.73    8.03
  -2  -6   9  163.55    7.99
  -2  -6   9  169.96    8.09
   2   6  -9  139.71    6.84
  -2  -6   9  161.49    8.01
  -2   6   9  180.35    7.71
   2   6  -9  155.26    7.49
   2   6  -8  235.04   10.00
  -2  -6   8  239.40   10.34
  -2  -6   8  254.06   10.69
  -2  -6   8  240.82   10.58
   2   6  -8  233.62    9.68
   2   6  -8  262.04   10.68
   2   6  -7  938.79   32.14
  -2  -6   7  915.24   32.38
  -2   6   7 1005.01   32.16
  -2  -6   7  977.29   32.91
  -2  -6   7 1036.91   33.20
   2   6  -7  977.97   32.06
   2   6  -6  331.24   12.63
  -2  -6   6  315.77   12.74
  -2  -6   6  369.05   13.54
  -2  -6   6  350.05   13.29
  -2  -6   6  355.35   13.47
   2   6  -6  354.63   12.75
   2   6  -6  344.67   12.45
  -2   6   6  347.91   12.80
   2   6  -6  335.72   12.14
  -2   6   6  355.70   12.78
   2   6  -5  239.46    9.63
  -2   6   5  237.04   10.55
  -2  -6   5  268.95   10.51
  -2  -6   5  266.58   10.34
   2   6  -5  258.51    9.35
  -2  -6   5  252.68   10.34
   2   6  -5  259.15   10.04
  -2   6   5  255.85    9.98
   2   6  -5  245.25    9.53
  -2   6   5  252.50   10.28
   2   6  -5  290.22   10.95
   2   6  -4   14.51    2.28
   2   6  -4   12.56    1.59
  -2  -6   4   14.81    1.94
  -2  -6   4   13.19    1.77
  -2  -6   4   12.53    1.80
  -2  -6   4   14.83    2.02
   2   6  -4   13.24    1.90
   2   6  -4   12.73    1.45
   2   6  -4   12.59    1.76
  -2   6   4   12.94    2.15
  -2   6   4   13.30    2.08
  -2   6   3   36.76    3.28
  -2  -6   3   34.68    2.71
  -2  -6   3   42.76    3.08
  -2  -6   3   39.14    2.93
   2   6  -3   39.37    2.31
   2   6  -3   38.43    2.79
   2   6  -3   37.98    2.74
  -2   6   3   37.86    2.57
  -2  -6   3   46.81    3.16
  -2   6   3   34.66    2.92
   2   6  -3   44.56    3.40
  -2  -6   2  500.55   18.00
   2   6  -2  534.94   18.04
  -2  -6   2  561.19   18.39
  -2  -6   2  528.21   18.28
  -2  -6   2  555.43   18.33
  -2   6   2  524.44   17.79
  -2  -6   2  496.09   18.20
  -2  -6   2  538.77   17.90
   2   6  -2  587.56   18.72
  -2  -6   1  701.04   21.95
  -2   6   1  554.02   21.76
  -2  -6   1  622.83   21.67
  -2  -6   1  704.54   21.64
  -2   6   1  667.12   21.55
  -2  -6   1  626.93   21.67
  -2  -6   1  637.38   21.98
   2   6  -1  725.26   22.02
   2   6   0  172.03    6.75
   2   6   0  156.45    6.50
  -2   6   0  163.38    6.49
  -2  -6   0  161.53    6.81
  -2  -6   0  156.44    7.04
   2   6   1  211.14    7.77
  -2  -6  -1  188.21    8.34
  -2  -6  -1  203.03    8.03
  -2   6  -1  188.29    7.42
   2   6   1  196.44    7.81
  -2   6  -1  205.85    7.88
  -2  -6  -1  215.24    8.27
  -2   6  -1  177.60    8.05
  -2  -6  -2   95.82    5.45
  -2   6  -2   82.96    4.91
  -2  -6  -2  105.93    5.01
  -2   6  -2   96.56    4.58
  -2   6  -2   99.17    4.75
  -2   6  -2  117.07    5.27
   2   6   2  121.47    5.42
  -2  -6  -2  115.86    5.33
  -2  -6  -2  108.52    4.94
  -2  -6  -3   24.32    2.74
  -2   6  -3   21.89    2.22
  -2  -6  -3   24.61    2.36
   2   6   3   32.71    2.76
  -2   6  -3   21.15    2.43
  -2   6  -3   24.68    2.20
  -2   6  -3   26.68    2.43
  -2   6  -3   29.09    2.68
  -2  -6  -3   28.00    2.42
  -2  -6  -3   28.44    2.35
   2   6   3   27.34    2.12
  -2   6  -4    1.57    1.38
   2   6   4    2.22    0.95
  -2  -6  -4    2.13    1.09
  -2  -6  -4    0.75    1.14
   2   6   4    1.88    1.36
  -2   6  -4    2.23    1.33
  -2   6  -4    1.77    1.28
  -2   6  -4    5.04    1.59
  -2  -6  -4    1.64    1.47
  -2  -6  -4    1.64    1.19
  -2   6  -4    1.26    1.40
  -2  -6  -5   43.04    3.86
  -2  -6  -5   47.07    3.35
  -2  -6  -5   57.52    3.61
  -2   6  -5   46.94    3.45
  -2   6  -5   47.28    3.46
  -2  -6  -5   51.82    3.69
  -2   6  -5   42.75    3.20
  -2  -6  -5   54.11    3.53
   2   6   5   49.93    3.64
   2   6   6   12.01    2.13
  -2  -6  -6   13.62    2.17
  -2   6  -6   12.04    2.15
  -2  -6  -6    9.55    2.22
  -2   6  -6   11.52    2.15
  -2   6  -6   10.10    2.02
  -2  -6  -6   12.89    2.18
  -2  -6  -6   13.82    2.07
  -2   6  -6   12.59    2.48
  -2  -6  -7    7.09    2.17
   2   6   7    6.88    1.74
  -2  -6  -7    9.20    2.02
  -2   6  -7    6.87    1.99
  -2  -6  -7    5.68    1.78
  -2   6  -7    8.75    2.03
  -2   6  -7    9.31    2.08
  -2   6  -7   10.03    2.22
  -2  -6  -7    7.27    1.94
  -2  -6  -7    7.05    1.63
  -2   6  -7    7.87    2.28
  -2  -6  -8    1.25    1.82
  -2  -6  -8    1.27    1.59
  -2   6  -8    2.16    1.73
  -2   6  -8    1.72    1.56
  -2   6  -8    0.57    1.73
  -2  -6  -9    8.95    1.99
  -2  -6  -9   11.57    2.24
  -2  -6  -9    8.80    1.90
  -2   6  -9    8.68    1.94
  -2   6  -9    8.64    1.96
  -2  -6 -10   51.11    3.37
  -2  -6 -10   48.94    3.06
  -2   6 -10   48.94    3.22
  -2   6 -10   51.41    3.25
  -2  -6 -11   31.70    2.32
  -2   6 -11   32.89    2.30
  -2  -7  13   34.80    2.17
  -2   7  13   36.71    2.12
  -2  -7  13   32.35    2.10
  -2   7  12  135.97    5.55
  -2  -7  12  144.71    6.24
  -2   7  12  146.10    5.84
  -2  -7  12  137.45    6.13
  -2  -7  11   27.65    2.71
  -2  -7  11   24.71    2.60
  -2  -7  11   30.15    2.75
   2   7 -11   19.41    2.06
  -2  -7  11   20.76    2.28
   2   7 -10   21.48    2.35
  -2  -7  10   22.03    2.74
  -2  -7  10   22.40    2.66
  -2  -7  10   19.82    2.47
  -2  -7  10   23.62    2.73
   2   7 -10   20.73    2.45
  -2  -7  10   23.74    2.69
  -2  -7   9   56.97    4.17
  -2  -7   9   63.84    4.56
  -2  -7   9   68.34    4.64
  -2  -7   9   62.42    4.45
   2   7  -9   50.52    3.65
  -2  -7   9   63.47    4.51
  -2   7   9   62.97    4.22
   2   7  -8  223.42   10.04
  -2  -7   8  223.91    9.86
  -2  -7   8  254.55   10.62
  -2  -7   8  254.61   10.53
  -2  -7   8  248.35   10.11
   2   7  -8  242.78    9.70
  -2  -7   8  233.28   10.39
  -2   7   8  262.34    9.74
   2  -7  -8  191.85    9.79
   2   7  -8  232.11    9.61
   2   7  -7  377.11   13.99
  -2  -7   7  348.21   13.89
  -2  -7   7  356.01   13.81
  -2  -7   7  365.85   13.59
   2   7  -7  358.65   13.27
  -2  -7   7  342.07   13.85
  -2   7   7  367.64   13.30
   2   7  -6  287.68   11.55
  -2  -7   6  339.61   12.77
  -2  -7   6  316.91   12.43
  -2  -7   6  290.43   12.36
   2   7  -6  318.74   12.02
   2   7  -6  316.35   11.70
  -2   7   6  328.58   11.99
   2   7  -5   20.42    2.20
  -2   7   5   15.67    2.24
  -2  -7   5   21.55    2.53
  -2  -7   5   22.69    2.45
  -2  -7   5   19.05    2.37
   2   7  -5   19.82    2.29
  -2   7   5   20.40    2.83
  -2   7   5   17.99    2.34
  -2   7   5   24.20    2.86
   2   7  -5   25.28    2.95
   2   7  -4    4.78    1.81
  -2   7   4    2.32    1.39
  -2  -7   4    4.68    1.29
  -2  -7   4    4.08    1.34
  -2  -7   4    8.62    1.69
   2   7  -4    4.13    1.48
   2   7  -4    3.97    1.08
  -2   7   4    5.33    1.43
  -2   7   4    5.01    1.71
  -2   7   4    6.44    2.11
   2   7  -3   37.42    3.16
  -2   7   3   23.41    2.30
  -2   7   3   27.18    2.81
  -2  -7   3   30.93    2.73
  -2  -7   3   26.40    2.48
   2   7  -3   28.92    2.53
  -2   7   3   28.84    2.41
  -2   7   3   29.25    2.74
   2   7  -2  103.60    5.27
  -2  -7   2  105.26    5.12
  -2  -7   2   97.82    5.05
  -2  -7   2  100.61    5.14
  -2  -7   2  101.64    4.89
  -2  -7   2   96.65    5.06
  -2   7   2   87.10    4.80
   2   7  -1  271.28    9.90
  -2   7   1  255.20   10.37
  -2   7   1  215.50    9.82
   2   7  -1  273.11    9.76
   2   7  -1  237.41    9.36
  -2  -7   1  235.74    9.57
  -2  -7   1  237.90    9.86
   2   7   0    1.57    1.25
  -2   7   0    3.19    1.70
   2   7   0    4.60    1.22
   2   7   0    0.76    1.35
  -2  -7   0    1.00    0.90
  -2  -7   0    0.40    1.11
   2   7   0    0.97    1.40
  -2   7   0    5.00    1.47
  -2   7   0    4.17    1.33
  -2  -7  -1   38.03    3.21
  -2   7  -1   39.59    3.44
  -2  -7  -1   35.76    2.80
   2   7   1   45.13    3.13
   2   7   1   42.61    3.07
  -2   7  -1   39.60    2.89
  -2  -7  -2   71.81    4.59
  -2  -7  -2   69.84    3.87
  -2   7  -2   55.70    3.98
   2   7   2   79.54    4.27
  -2  -7  -2   69.13    4.21
  -2   7  -2   53.99    3.39
  -2   7  -2   79.63    4.28
  -2  -7  -2   68.39    4.11
  -2  -7  -3    0.68    0.97
  -2  -7  -3    1.45    1.04
   2   7   3    2.48    1.35
  -2  -7  -3    4.40    1.57
  -2   7  -3    1.13    1.19
  -2   7  -3    1.49    1.42
  -2  -7  -3    2.74    1.08
  -2   7  -3    1.84    1.06
  -2   7  -3    1.23    1.43
  -2  -7  -4  305.90   11.56
  -2  -7  -4  316.25   11.85
   2   7   4  331.01   12.21
  -2  -7  -4  336.96   12.11
  -2   7  -4  306.28   11.55
  -2   7  -4  335.64   11.90
  -2   7  -4  352.53   12.60
  -2  -7  -4  336.71   12.07
  -2  -7  -5  845.48   27.55
   2   7   5  864.74   27.98
  -2   7  -5  816.20   27.42
  -2  -7  -5  905.74   28.00
  -2   7  -5  866.40   27.68
  -2  -7  -5  908.53   27.89
  -2  -7  -6  242.08   11.93
  -2  -7  -6  338.86   11.58
   2   7   6  282.80   11.46
  -2   7  -6  296.77   11.33
  -2  -7  -6  319.81   11.71
  -2   7  -6  274.24   11.00
  -2  -7  -6  325.59   11.51
  -2  -7  -7   93.85    4.77
  -2   7  -7   80.36    4.72
  -2   7  -7   70.45    4.41
  -2  -7  -7   86.98    4.88
  -2  -7  -7   80.10    4.49
  -2  -7  -8   29.11    2.88
  -2  -7  -8   27.93    2.95
  -2  -7  -8   28.90    2.72
  -2   7  -8   27.09    2.76
  -2  -7  -9   14.38    2.10
  -2  -7  -9   14.88    1.90
  -2  -7  -9   13.63    2.11
  -2   7  -9   14.22    2.02
  -2  -7 -10    7.48    1.47
  -2   7 -10    6.01    1.39
   2  -7  11   11.92    1.46
  -2  -7 -11   11.60    1.37
  -2   7 -11   10.23    1.28
  -2  -8  12   29.11    2.12
  -2  -8  12   27.36    2.11
  -2  -8  12   27.27    2.00
  -2   8  11   13.01    1.85
  -2  -8  11   15.03    1.95
  -2  -8  11   17.89    2.00
  -2  -8  11   14.53    1.84
  -2  -8  11   16.52    2.04
   2   8 -11   11.31    1.48
  -2  -8  11   18.01    2.01
  -2   8  10    5.38    1.78
  -2  -8  10    5.59    1.66
  -2  -8  10    6.67    1.63
   2   8 -10    4.97    1.36
  -2  -8  10    6.67    1.63
  -2   8  10    4.36    1.93
  -2  -8  10    7.63    1.68
  -2   8   9   -0.50    2.00
  -2  -8   9    0.78    1.39
  -2  -8   9    0.75    1.32
   2   8  -9    2.37    1.36
  -2  -8   9    1.11    1.35
   2   8  -9    1.33    1.20
  -2   8   9    2.55    1.90
  -2   8   8   14.91    2.53
  -2  -8   8   17.04    2.50
  -2  -8   8   17.96    2.46
   2   8  -8   16.20    2.39
  -2  -8   8   15.67    2.44
   2   8  -8   12.03    2.12
  -2   8   8   20.04    2.73
  -2  -8   8   13.08    2.38
   2   8  -7   46.28    3.91
  -2   8   7   41.46    3.52
  -2  -8   7   59.86    4.28
  -2  -8   7   49.21    3.85
  -2  -8   7   50.48    4.07
  -2  -8   7   51.13    3.91
   2   8  -7   47.35    3.63
  -2   8   7   47.53    3.61
  -2   8   7   57.12    3.95
   2   8  -7   39.57    3.09
  -2   8   6    4.82    1.90
  -2  -8   6    6.79    1.77
  -2  -8   6    6.18    1.65
  -2  -8   6    6.38    1.69
   2   8  -6    6.51    1.67
   2   8  -6    6.11    1.84
  -2  -8   6    7.01    1.82
  -2   8   6    5.96    1.87
  -2   8   6    9.38    2.16
   2   8  -5   38.06    3.74
  -2   8   5   32.99    3.07
  -2  -8   5   45.57    3.56
  -2  -8   5   32.64    2.98
  -2  -8   5   39.88    3.36
   2   8  -5   35.83    3.15
  -2   8   5   37.31    2.94
  -2   8   5   36.86    3.22
  -2  -8   5   39.22    3.42
   2   8  -4   91.15    5.24
  -2   8   4   67.86    4.21
  -2  -8   4   84.31    4.81
  -2  -8   4   82.33    4.74
   2   8  -4   71.77    4.36
  -2   8   4   60.86    3.80
  -2   8   4   77.74    4.38
   2   8  -3   13.35    2.22
  -2   8   3    7.45    1.76
  -2   8   3    5.43    1.69
  -2  -8   3   10.24    1.72
  -2  -8   3    7.09    1.57
  -2  -8   3    9.65    1.60
   2   8  -3    8.08    1.76
  -2   8   3    5.77    1.84
  -2  -8   3    7.23    1.64
   2   8  -3    8.14    1.84
  -2  -8   3    7.56    1.64
  -2   8   3    8.67    1.81
  -2   8   3    7.48    1.84
   2   8  -2  229.10    9.14
   2   8  -2  191.51    7.95
  -2   8   2  216.13    9.46
  -2  -8   2  210.35    8.75
   2   8  -2  216.99    8.67
   2   8  -2  211.25    8.50
  -2  -8   2  194.20    8.64
  -2   8   2  198.71    8.38
  -2   8   1   58.97    4.45
   2   8  -1   60.06    4.05
  -2   8   1   56.81    4.27
   2   8  -1   67.95    3.99
   2   8  -1   63.84    3.90
  -2   8   0  335.31   12.08
  -2   8   0  352.82   13.57
  -2   8   0  299.16   13.04
   2   8   0  328.33   12.62
   2   8   0  378.92   12.89
  -2  -8   0  357.60   12.86
  -2  -8   0  355.07   12.80
   2   8   0  350.81   12.67
  -2  -8   0  318.84   13.08
  -2  -8  -1   40.53    3.58
  -2   8  -1   44.67    3.29
  -2  -8  -1   43.37    3.12
  -2   8  -1   40.58    3.54
  -2   8  -1   47.73    3.91
   2   8   1   56.44    3.56
  -2  -8  -1   56.41    3.67
   2   8   1   48.70    3.55
  -2   8  -1   47.06    3.31
  -2  -8  -1   49.86    3.54
  -2  -8  -1   48.27    3.29
  -2  -8  -2   94.44    5.84
  -2  -8  -2  104.75    5.10
  -2   8  -2   90.87    5.57
   2   8   2  112.41    5.53
  -2  -8  -2  112.76    5.62
   2   8   2  108.80    5.61
  -2   8  -2  103.63    6.02
  -2   8  -2  107.26    5.47
  -2  -8  -2  101.69    5.38
  -2  -8  -3   83.58    5.62
  -2  -8  -3   92.41    4.71
   2   8   3   97.58    5.15
   2   8   3  102.86    5.44
  -2  -8  -3   98.95    5.05
  -2   8  -3   79.72    5.17
  -2   8  -3   94.93    5.28
  -2   8  -3   98.01    5.83
  -2  -8  -4  263.88   12.21
  -2  -8  -4  317.60   11.40
   2   8   4  304.35   11.47
  -2   8  -4  254.25   11.44
  -2  -8  -4  321.69   11.64
  -2   8  -4  279.11   10.90
  -2   8  -4  307.94   11.88
  -2  -8  -4  320.35   11.57
  -2  -8  -5  215.50    8.59
   2   8   5  195.42    8.70
  -2  -8  -5  220.72    9.02
  -2   8  -5  210.51    8.58
  -2   8  -5  169.06    8.57
  -2   8  -5  238.23    9.60
  -2  -8  -5  246.79    9.07
  -2  -8  -6  115.84    5.55
  -2   8  -6  102.67    5.40
  -2  -8  -6  108.26    5.40
  -2  -8  -7   24.07    2.76
  -2  -8  -7   24.03    2.54
  -2   8  -7   24.88    2.61
  -2  -8  -7   24.12    2.32
  -2  -8  -8    2.68    1.69
  -2  -8  -8    3.34    1.83
  -2  -8  -8    5.70    1.56
  -2   8  -8    3.31    1.49
  -2  -8  -9    4.89    1.46
  -2  -8  -9    4.28    1.61
  -2  -8  -9    7.62    1.36
  -2   8  -9    6.30    1.55
  -2  -8 -10   15.10    1.65
   2   8  10   14.26    1.69
   2   8  11    2.05    0.69
   2   9 -11    6.13    0.92
  -2  -9  11    5.85    1.23
  -2  -9  11    5.48    1.05
  -2   9  11    6.51    1.44
  -2  -9  11    7.43    1.26
  -2  -9  11    8.79    1.38
  -2   9  10    5.90    1.55
  -2  -9  10    7.82    1.59
  -2  -9  10    8.81    1.46
  -2  -9  10    6.17    1.47
   2   9 -10    6.75    1.36
  -2   9  10    8.35    1.84
  -2   9   9   24.15    2.54
  -2  -9   9   29.16    2.82
  -2  -9   9   27.53    2.60
   2   9  -9   25.92    2.62
  -2  -9   9   24.80    2.74
  -2  -9   9   25.41    2.69
  -2   9   9   29.84    2.86
  -2  -9   9   28.27    2.86
  -2   9   8   72.02    4.31
  -2  -9   8   71.09    4.69
  -2  -9   8   65.23    4.37
   2   9  -8   70.03    4.69
  -2  -9   8   72.89    4.72
   2   9  -8   72.37    4.31
  -2  -9   8   74.04    4.81
  -2   9   8   72.64    4.36
  -2  -9   8   85.05    5.12
  -2   9   7  105.95    5.51
  -2  -9   7  114.12    6.17
  -2  -9   7  106.91    5.79
   2   9  -7  113.13    6.35
   2   9  -7  120.81    5.96
  -2  -9   7  107.03    6.14
  -2   9   7  107.60    5.51
  -2  -9   7  119.32    6.54
  -2   9   6  102.81    5.39
  -2  -9   6  105.74    5.98
  -2  -9   6  100.74    5.54
   2   9  -6  115.40    6.47
  -2  -9   6  114.57    6.15
   2   9  -6  125.20    6.08
  -2  -9   6  106.80    5.88
  -2   9   6  103.65    5.37
  -2  -9   6  105.40    6.20
  -2   9   5    3.07    1.78
  -2  -9   5    5.99    1.66
  -2  -9   5    6.63    1.76
  -2  -9   5    4.05    1.38
   2   9  -5    4.16    1.60
   2   9  -5    3.01    1.83
  -2   9   5    3.91    1.59
  -2  -9   5    5.65    1.72
  -2   9   5    3.23    1.72
  -2  -9   5    4.70    1.71
  -2   9   4   41.55    3.32
  -2  -9   4   53.38    3.92
  -2  -9   4   48.01    3.58
  -2  -9   4   52.75    3.89
   2   9  -4   50.51    4.08
  -2  -9   4   44.58    3.47
  -2  -9   4   49.79    3.67
   2   9  -4   48.55    3.63
  -2   9   4   37.32    2.91
  -2   9   4   41.64    3.29
  -2  -9   4   52.61    3.92
  -2   9   4   49.39    4.15
   2   9  -3   43.63    3.73
  -2  -9   3   39.98    3.36
   2   9  -3   43.86    3.41
  -2  -9   3   45.65    3.66
   2   9  -3   42.94    3.42
  -2  -9   3   40.22    3.39
  -2   9   3   40.25    3.86
   2   9  -2   72.54    4.21
  -2  -9   2   75.48    4.55
   2   9  -2   86.29    4.80
   2   9  -2   85.26    4.74
   2   9  -2   83.92    5.10
  -2   9   2   86.94    5.41
  -2  -9   2   75.54    4.60
   2   9  -1   19.03    2.16
  -2   9   1   24.33    2.97
   2   9  -1   20.80    2.48
  -2  -9   1   21.96    2.36
   2   9  -1   21.74    2.51
  -2  -9   1   26.36    2.90
   2   9  -1   22.40    2.67
  -2   9   1   19.32    2.60
  -2   9   0   22.07    2.85
   2   9   0   18.56    2.16
  -2   9   0   20.36    2.67
  -2   9   0   16.89    2.17
  -2  -9   0   23.34    2.33
   2   9   0   25.29    2.53
  -2  -9   0   21.69    2.64
   2   9   0   21.73    2.70
   2   9   0   17.68    2.07
  -2  -9   0   23.12    2.73
  -2   9  -1   44.24    3.16
  -2   9  -1   50.45    4.02
  -2  -9  -1   42.97    3.07
  -2   9  -1   39.53    3.63
   2   9   1   44.77    3.39
  -2  -9  -1   49.06    3.66
   2   9   1   55.96    3.86
  -2  -9  -1   46.37    3.45
  -2   9  -1   37.90    3.08
  -2  -9  -1   40.50    3.68
  -2   9  -2   22.09    2.83
  -2  -9  -2   20.11    2.07
   2   9   2   20.89    2.34
  -2   9  -2   17.45    2.49
  -2  -9  -2   20.96    2.53
  -2  -9  -2   19.03    2.63
   2   9   2   19.26    2.73
  -2  -9  -2   20.89    2.28
  -2   9  -2   16.91    2.26
  -2  -9  -3   64.88    5.06
  -2   9  -3   67.69    4.87
  -2  -9  -3   84.96    4.61
  -2   9  -3   84.78    5.37
   2   9   3   79.96    4.60
   2   9   3   87.04    5.01
  -2   9  -3   82.72    4.88
  -2  -9  -4   36.02    3.66
  -2   9  -4   46.41    3.85
  -2   9  -4   36.95    3.42
  -2  -9  -4   42.15    3.10
   2   9   4   38.88    3.11
  -2  -9  -4   40.60    3.36
   2   9   4   43.63    3.64
  -2  -9  -4   43.16    3.26
  -2   9  -5    1.55    1.62
  -2   9  -5    3.90    1.41
  -2  -9  -5    4.32    1.26
  -2  -9  -5    4.68    1.85
   2   9   5    5.03    2.09
  -2  -9  -5    2.58    1.39
  -2  -9  -6  267.46   10.10
   2   9   6  281.17   10.64
  -2  -9  -6  262.20   10.01
  -2   9  -6  249.31   10.68
  -2  -9  -7   10.86    2.03
  -2  -9  -7    9.35    2.12
  -2  -9  -7    9.54    1.74
   2   9   7   12.68    2.34
  -2  -9  -7   10.78    1.53
  -2  -9  -8   15.62    1.97
  -2  -9  -8   13.76    2.03
  -2  -9  -8   15.79    1.77
   2   9   8   13.97    2.12
  -2  -9  -9   -0.12    1.27
  -2  -9  -9   -0.97    1.33
  -2  -9  -9   -1.39    1.08
   2   9   9    1.72    1.28
  -2  -9 -10   10.23    1.13
   2   9  10    9.83    1.14
  -2 -10  10    2.51    0.90
  -2 -10  10    2.59    1.03
  -2 -10  10    3.70    1.04
   2  10 -10    2.20    0.79
  -2 -10  10    3.04    1.03
  -2  10   9   13.49    1.85
   2  10  -9   12.53    1.72
  -2 -10   9   13.45    1.92
  -2 -10   9   12.85    1.78
  -2 -10   9   14.79    1.82
  -2  10   9   14.95    1.92
  -2 -10   9   16.10    2.07
  -2  10   8   13.51    2.06
  -2 -10   8   13.83    1.93
   2  10  -8   15.40    2.17
  -2 -10   8   16.90    2.27
  -2 -10   8   16.04    2.11
   2  10  -8   16.83    2.06
  -2  10   8   14.48    2.10
  -2 -10   8   19.11    2.36
  -2  10   7  102.93    5.25
  -2 -10   7  117.04    5.78
   2  10  -7  118.33    6.12
  -2 -10   7  123.09    6.19
  -2 -10   7  109.18    5.80
   2  10  -7  110.22    5.61
  -2  10   7   97.43    5.16
  -2 -10   7  112.46    6.14
  -2  10   6  162.07    6.96
  -2 -10   6  163.79    7.39
  -2 -10   6  162.29    7.74
  -2 -10   6  162.86    7.53
   2  10  -6  177.98    7.62
  -2  10   6  141.68    6.66
  -2 -10   6  167.88    8.00
  -2 -10   5   52.08    3.71
   2  10  -5   55.21    4.31
  -2 -10   5   58.59    4.13
  -2 -10   5   49.90    3.63
   2  10  -5   60.24    4.04
   2  10  -5   49.26    3.82
  -2 -10   5   57.78    4.22
  -2 -10   4    2.46    1.34
   2  10  -4    3.78    1.60
   2  10  -4    1.78    1.47
   2  10  -4    3.65    1.84
  -2 -10   4    2.35    1.31
   2  10  -3  105.99    5.99
  -2 -10   3   92.97    5.31
  -2 -10   3  100.49    5.73
   2  10  -3  105.54    5.51
  -2 -10   3  103.14    5.59
  -2  10   3  101.87    6.02
  -2  10   2  158.70    7.77
  -2  10   2  136.99    7.49
   2  10  -2  145.24    6.91
  -2 -10   2  148.76    7.07
  -2 -10   2  160.01    7.29
   2  10  -2  148.80    7.38
   2  10  -2  150.22    6.99
  -2 -10   2  148.35    7.33
   2  10  -1  178.79    7.53
  -2  10   1  172.12    7.54
  -2  10   1  200.21    8.92
   2  10  -1  188.76    8.34
  -2 -10   1  175.49    7.85
   2  10  -1  184.12    7.93
  -2 -10   1  192.30    8.25
   2  10  -1  191.11    8.13
   2  10   0   26.87    2.61
  -2  10   0   33.03    3.40
  -2  10   0   28.74    3.28
   2  10   0   25.58    2.47
   2  10   0   25.63    2.68
  -2 -10   0   24.77    2.67
   2  10   0   27.77    3.00
  -2  10   0   21.74    2.41
  -2 -10   0   24.36    2.33
  -2  10  -1   51.01    3.49
   2  10   1   52.30    3.44
  -2  10  -1   63.09    4.41
  -2 -10  -1   53.97    3.32
  -2  10  -1   44.73    4.04
   2  10   1   53.24    3.62
  -2 -10  -1   52.68    3.93
   2  10   1   65.93    4.23
  -2 -10  -1   56.59    3.79
  -2 -10  -1   44.61    4.02
  -2  10  -2    8.27    2.02
  -2 -10  -2    8.97    1.95
  -2 -10  -2    8.89    1.83
   2  10   2    9.12    2.28
  -2  10  -2   13.38    2.22
  -2  10  -3  173.36    7.95
  -2  10  -3  152.40    7.90
  -2 -10  -3  159.07    6.97
   2  10   3  164.86    7.44
  -2  10  -4   15.94    2.32
  -2  10  -4   17.25    2.36
  -2 -10  -4   16.70    1.89
   2  10   4   16.86    2.60
  -2 -10  -4   15.75    2.11
  -2  10  -5  147.24    7.01
  -2 -10  -5  160.54    6.71
   2  10   5  171.75    7.21
  -2 -10  -5  157.88    6.63
  -2 -10  -6   11.49    1.99
  -2 -10  -6   13.03    1.89
   2  10   6    9.23    2.13
  -2 -10  -6   11.23    1.55
  -2 -10  -7   84.12    4.27
  -2 -10  -7   89.09    4.43
  -2 -10  -7   80.39   12.18
   2  10   7   96.60    4.61
  -2 -10  -8  109.18    4.59
  -2 -10  -8  117.47    4.75
   2  10   8  124.73    4.89
  -2 -10  -9   13.79    1.31
   2  10   9   13.47    1.33
   2  11  -9   15.43    1.59
  -2 -11   9   16.30    1.65
  -2 -11   9   16.39    1.72
  -2 -11   8    5.63    1.10
  -2 -11   8    5.23    1.33
   2  11  -8    4.07    1.24
  -2 -11   8    4.54    1.29
  -2 -11   7    3.72    1.27
   2  11  -7    3.33    1.30
   2  11  -7    3.19    1.32
  -2 -11   7    4.75    1.41
  -2 -11   6   56.30    3.80
  -2 -11   6   53.94    3.88
   2  11  -5  141.71    7.10
  -2 -11   5  141.45    6.60
   2  11  -5  148.77    6.75
  -2 -11   5  131.64    6.72
  -2 -11   4   76.86    4.52
   2  11  -4   87.76    4.81
   2  11  -4   88.10    5.19
  -2 -11   4   75.68    4.68
   2  11  -3   52.19    3.86
  -2 -11   3   43.17    3.36
   2  11  -3   47.83    3.63
  -2  11   2   10.37    1.87
  -2 -11   2   12.80    1.81
   2  11  -2   14.30    2.40
  -2  11   2   16.02    2.33
   2  11  -2   13.03    2.03
  -2  11   1   27.63    2.59
  -2  11   1   32.77    3.22
  -2 -11   1   35.44    2.63
   2  11  -1   32.14    2.83
  -2 -11   1   32.61    2.61
   2  11  -1   39.29    3.26
   2  11   0   20.72    2.22
  -2  11   0   15.01    2.04
  -2  11   0   20.78    2.75
  -2  11   0   18.89    2.52
  -2 -11   0   20.90    2.33
   2  11   1   15.94    2.00
  -2  11  -1   17.49    2.38
  -2  11  -1   13.79    2.35
  -2 -11  -1   13.32    1.79
  -2  11  -2   40.52    3.36
  -2  11  -2   36.90    3.54
  -2 -11  -2   42.22    2.97
   2  11   2   38.14    3.36
  -2 -11  -3    7.79    1.37
   2  11   3    6.68    2.11
  -2  11  -3    8.60    1.93
  -2 -11  -3   12.69    1.84
   2  11   4   32.72    3.03
  -2 -11  -4   34.77    2.60
  -2 -11  -5    6.21    1.49
   2  11   5    7.05    1.83
  -2  11  -5    4.86    1.29
  -2 -11  -5    5.56    1.26
  -2 -11  -6   26.14    2.27
  -2 -11  -6   27.29    2.13
   2  11   6   32.05    2.58
  -2 -11  -6   26.28    1.86
  -2 -11  -7    0.71    1.03
  -2 -11  -7    1.34    1.12
  -2 -11  -7    0.76    0.80
   2  11   7    0.74    1.20
  -2 -11  -8   10.76    1.19
   2  11   8   10.10    1.17
   2  12  -8   22.97    1.81
  -2 -12   8   26.47    1.88
  -2 -12   8   26.29    1.90
  -2 -12   8   25.96    1.80
  -2 -12   7    6.07    1.17
   2  12  -7    5.14    1.17
  -2 -12   7    6.59    1.21
  -2 -12   7    4.25    0.97
  -2 -12   6    4.45    1.03
  -2 -12   6    7.11    1.37
   2  12  -6    6.34    1.42
  -2 -12   6    5.59    1.19
   2  12  -5    2.72    1.16
  -2 -12   5    1.21    1.17
  -2 -12   5    3.29    1.07
   2  12  -4   14.84    1.96
  -2 -12   4   14.86   10.46
  -2 -12   3    7.88    1.39
   2  12  -3   11.18    1.83
   2  12  -3    9.36    2.01
   2  12  -3    6.39    1.46
  -2 -12   2   43.74    2.72
   2  12  -2   49.72    3.36
   2  12  -2   52.45    3.43
   2  12  -1   25.19    2.40
  -2 -12   1   22.33    2.27
  -2  12   0  106.24    5.86
   2  12   0  115.70    5.28
  -2 -12   0  100.90    5.04
   2  12   1  120.83    5.24
  -2  12  -1  118.21    6.31
  -2 -12  -1  126.63    5.44
  -2  12  -2   39.53    3.40
  -2 -12  -2   38.35    2.58
   2  12   2   46.89    3.12
   2  12   3   29.98    2.48
  -2 -12  -3   28.14    2.24
  -2 -12  -4    2.29    1.16
   2  12   4    1.61    1.28
  -2 -12  -4    2.07    0.98
  -2 -12  -5    1.46    1.12
  -2 -12  -5    0.80    0.95
   2  12   5    1.16    1.10
  -2 -12  -5    1.86    0.78
  -2 -12  -6    0.51    0.85
  -2 -12  -6    0.90    0.94
   2  13  -6   10.11    1.22
  -2 -13   6    8.74    1.18
   2  13  -5    8.39    1.23
  -2 -13   5    7.82    1.01
  -2 -13   5    8.65    1.33
   2  13  -4   84.67    4.03
   2  13  -4   91.67    4.05
  -2 -13   4   86.74    4.12
   2  13  -3    1.84    1.00
  -2 -13   3    1.69    0.93
   2  13  -2    2.00    1.04
  -2 -13   2    2.39    0.98
   2  13  -1    4.48    1.12
  -2 -13   1    3.75    0.97
  -2 -13   0   68.77    3.42
   2  13   0   76.07    3.70
  -2 -13  -1  118.89    4.88
   2  13   1  135.33    5.32
   2  13   2  397.20   12.97
  -2 -13  -2  378.21   12.94
  -2 -13  -3  223.18    7.67
   2  13   3  218.77    7.70
  -2 -13  -3  210.11    7.59
  -2 -13  -4    7.56    1.03
  -2 -13  -4    8.22    1.18
  -2 -13  -5    8.49    1.08
   2  14   0    0.52    0.82
  -2 -14   0   -0.14    0.72
   2  14   1  151.54    5.13
  -2 -14  -1  130.57    5.03
  -3   0  14   13.11    1.36
   3   0 -14   10.20    1.16
  -3   0  14    9.08    1.16
  -3   0  13   30.93    2.60
   3   0 -13   31.72    2.49
  -3   0  12    0.93    1.32
  -3   0  11   48.05    3.31
   3   0 -10   19.60    2.65
  -3   0  10   20.61    2.59
  -3   0   9    9.69    1.85
  -3   0   9    6.28    1.82
  -3   0   9    8.37    1.50
   3   0  -9    7.93    2.08
   3   0  -9   11.16    2.15
  -3   0   9    7.30    1.78
  -3   0   8   10.17    1.96
  -3   0   8   11.98    2.15
   3   0  -8   11.98    2.25
  -3   0   8   11.10    1.74
   3   0  -8   11.69    2.08
  -3   0   8    8.99    2.03
   3   0  -7   11.91    2.04
  -3   0   7   17.02    2.27
  -3   0   7   15.14    2.35
  -3   0   7   17.12    2.13
   3   0  -7   14.17    2.29
  -3   0   7   13.29    2.25
   3   0  -6    5.08    1.52
  -3   0   6    6.08    1.62
  -3   0   6    6.37    1.52
  -3   0   6    7.55    1.29
   3   0  -6    4.66    1.65
  -3   0   6    4.67    1.04
  -3   0   5   13.98    1.99
  -3   0   5   11.91    1.58
  -3   0   5   11.90    1.31
  -3   0   5   12.46    2.11
  -3   0   4   -0.74    0.94
  -3   0   4    1.38    0.89
  -3   0   4   -0.14    1.12
  -3   0   3    0.71    0.90
  -3   0   3    0.52    1.16
   3   0  -2   11.57    1.37
  -3   0   2   10.69    1.39
  -3   0   2   10.36    1.80
  -3   0   2   11.18    1.82
  -3   0   1   76.48    3.92
  -3   0   1   78.65    4.55
   3   0  -1   86.82    3.87
  -3   0   1   81.66    4.45
  -3   0   0  189.18    7.84
  -3   0   0  197.61    7.57
  -3   0   0  184.27    7.39
   3   0   0  202.46    7.39
  -3   0   0  196.17    6.87
  -3   0   0  197.50    8.04
  -3   0   0  187.59    7.32
  -3   0  -1   96.94    4.79
  -3   0  -1   92.94    4.53
   3   0   1   91.95    4.29
  -3   0  -1   80.59    4.04
  -3   0  -1   96.28    4.05
  -3   0  -1   90.04    4.75
  -3   0  -1   92.51    4.40
  -3   0  -2  162.73    6.86
  -3   0  -2  154.69    6.32
  -3   0  -2  152.91    6.14
  -3   0  -2  153.30    6.80
  -3   0  -3  250.47    9.46
  -3   0  -3  224.89    8.56
  -3   0  -3  241.07    9.02
  -3   0  -3  236.34    8.87
  -3   0  -3  250.18    9.45
  -3   0  -3  223.59    9.15
  -3   0  -4   23.58    2.42
  -3   0  -4   22.97    2.17
  -3   0  -4   20.29    2.11
  -3   0  -4   26.90    2.51
  -3   0  -4   25.57    2.44
  -3   0  -4   24.56    2.45
  -3   0  -4   21.34    2.23
  -3   0  -5   34.49    3.42
  -3   0  -5   36.17    2.85
  -3   0  -5   38.03    3.11
  -3   0  -5   39.24    3.24
  -3   0  -5   36.40    3.08
  -3   0  -6    3.27    1.42
   3   0   6    6.55    1.83
  -3   0  -6    4.87    1.68
  -3   0  -6    3.07    1.81
  -3   0  -6    6.81    1.66
  -3   0  -6    4.79    1.42
  -3   0  -6    4.75    1.69
  -3   0  -7    5.37    1.86
  -3   0  -7    4.45    1.94
  -3   0  -7    5.00    1.48
  -3   0  -7    5.30    1.57
   3   0   7    6.27    2.73
  -3   0  -8   14.40    2.29
  -3   0  -9   10.35    2.14
  -3   0  -9   10.40    1.96
  -3   0 -10  107.90    4.93
  -3   0 -10  101.25    4.68
  -3   0 -11    3.45    1.16
  -3   0 -11    6.17    1.05
  -3  -1  14    1.14    0.73
   3   1 -14    0.73    0.71
  -3   1  14    0.14    0.89
   3   1 -13   26.00    2.32
   3  -1 -13   20.97    1.98
  -3   1  13   24.15    2.22
   3  -1 -12   15.77    2.06
  -3   1  12   14.56    2.10
  -3   1  12   12.63    1.76
  -3   1  11   28.44    2.99
  -3  -1  11   20.50    2.50
  -3   1  11   20.50    2.45
   3   1 -11   22.15    2.78
   3  -1 -10   12.23    2.20
  -3  -1  10   14.19    2.11
   3   1 -10   13.80    2.41
  -3  -1  10   10.12    2.05
   3  -1  -9   11.83    2.10
  -3  -1   9   11.76    2.06
  -3  -1   9   10.25    2.05
  -3  -1   9    9.33    1.67
   3  -1  -9    8.39    1.99
   3   1  -9   10.08    2.14
   3   1  -9    8.12    2.08
  -3   1   9   10.05    1.66
  -3   1   9   10.83    2.16
   3  -1  -8  226.04    9.67
   3  -1  -8  216.74    9.15
   3   1  -8  205.91    9.17
  -3  -1   8  213.80    9.15
  -3  -1   8  244.46    9.80
  -3   1   8  220.54    9.05
  -3  -1   8  188.66    8.31
  -3  -1   8  230.98    9.79
  -3   1   8  201.64    9.09
   3  -1  -7   59.70    4.00
   3   1  -7   55.75    3.99
  -3  -1   7   71.19    4.55
  -3  -1   7   68.72    4.56
  -3  -1   7   67.96    4.33
  -3   1   7   56.94    3.81
   3  -1  -7   72.85    4.55
  -3  -1   7   57.68    3.64
  -3   1   7   69.36    4.28
  -3  -1   7   58.64    3.53
  -3   1   7   62.17    4.34
  -3  -1   7   52.07    3.83
   3  -1  -6  204.22    8.80
  -3   1   6  236.59   10.05
  -3  -1   6  249.91    9.86
  -3  -1   6  228.37    9.66
  -3  -1   6  239.87    9.57
  -3   1   6  215.02    8.98
  -3  -1   6  210.87    8.70
   3  -1  -6  234.24    9.38
  -3   1   6  228.52    9.30
  -3  -1   6  188.58    8.03
  -3  -1   5   20.34    1.81
  -3  -1   5   23.73    2.69
  -3  -1   5   27.48    2.74
  -3   1   5   24.12    2.45
  -3  -1   5   25.19    2.34
  -3   1   5   23.00    2.54
  -3   1   5   23.02    2.75
  -3  -1   5   25.61    2.22
  -3  -1   4  423.16   15.83
  -3  -1   4  469.96   16.02
  -3  -1   4  447.82   15.44
   3   1  -4  470.48   14.75
  -3   1   4  431.50   15.70
  -3   1   4  455.66   16.21
  -3  -1   4  464.21   15.38
  -3  -1   3  234.76    9.86
  -3   1   3  256.35   10.26
  -3  -1   3  224.43    8.37
  -3  -1   3  258.73   10.04
  -3  -1   3  251.39    9.65
   3   1  -3  270.79    9.04
  -3  -1   3  260.93    9.68
  -3  -1   2   46.74    3.16
   3   1  -2   50.50    2.82
  -3   1   2   40.85    3.34
  -3  -1   2   39.58    3.22
  -3  -1   2   51.06    3.27
  -3  -1   2   46.06    3.02
  -3  -1   1  152.35    6.96
  -3  -1   1  153.14    6.25
   3   1  -1  171.83    6.39
  -3  -1   1  153.55    6.37
  -3  -1   1  155.93    5.70
  -3  -1   1  154.53    6.86
  -3   1   1  150.86    6.82
  -3  -1   0   27.52    2.23
   3   1   0   30.92    2.29
   3  -1   0   23.68    1.97
  -3  -1   0   28.75    1.92
  -3  -1   0   29.79    2.57
  -3   1   0   25.91    2.45
  -3  -1   0   26.65    2.23
  -3  -1   0   22.98    2.00
  -3  -1  -1   34.44    2.72
  -3  -1  -1   32.78    2.59
  -3  -1  -1   30.89    2.49
  -3  -1  -1   32.96    2.37
   3   1   1   37.20    2.62
   3  -1   1   33.40    2.31
  -3  -1  -1   36.45    2.34
  -3  -1  -1   34.94    2.78
  -3   1  -1   36.55    2.86
  -3   1  -1   35.17    2.81
  -3  -1  -1   37.41    2.59
  -3  -1  -2    3.34    1.27
  -3  -1  -2    4.28    1.35
  -3   1  -2    3.95    1.40
  -3  -1  -2    2.89    1.21
  -3  -1  -2    4.07    1.28
  -3   1  -2    4.68    1.24
  -3   1  -2    2.92    1.20
  -3  -1  -2    5.30    1.33
  -3  -1  -2    4.57    1.29
  -3   1  -2    4.51    1.42
  -3  -1  -2    4.87    1.30
  -3  -1  -3   72.39    4.15
  -3   1  -3   71.72    4.19
  -3  -1  -3   68.39    3.61
  -3  -1  -3   58.95    3.42
  -3  -1  -3   70.20    3.85
  -3   1  -3   64.49    3.83
  -3  -1  -3   75.16    3.94
  -3   1  -3   75.05    4.20
  -3  -1  -3   62.02    3.79
  -3   1  -3   75.74    4.26
  -3  -1  -3   75.56    4.03
  -3  -1  -4   17.33    2.13
  -3   1  -4   18.29    2.27
  -3  -1  -4   15.60    1.90
  -3  -1  -4   15.48    1.91
  -3   1  -4   14.73    1.83
  -3   1  -4   19.35    2.25
  -3  -1  -4   18.04    2.17
  -3   1  -4   19.10    2.32
  -3  -1  -4   18.53    2.24
  -3   1  -4   18.52    2.18
  -3  -1  -4   18.20    2.18
  -3   1  -4   16.77    2.06
  -3  -1  -5   58.74    3.86
  -3  -1  -5   52.99    4.34
  -3  -1  -5   69.29    3.96
  -3  -1  -5   66.88    3.91
  -3  -1  -5   71.98    4.21
  -3   1  -5   67.90    4.08
  -3  -1  -5   68.28    4.20
  -3   1  -5   73.14    4.35
  -3  -1  -5   68.56    4.10
  -3  -1  -5   61.16    4.00
  -3   1  -5   67.48    4.16
   3  -1   6   37.45    3.52
  -3   1  -6   26.57    3.15
  -3  -1  -6   31.28    3.33
  -3  -1  -6   35.25    2.94
  -3  -1  -6   35.17    3.13
  -3   1  -6   29.72    2.92
  -3  -1  -6   35.32    2.94
  -3   1  -6   37.56    3.15
  -3  -1  -6   32.05    2.75
  -3  -1  -6   27.73    2.72
  -3   1  -6   29.13    2.95
   3  -1   7   52.89    4.26
   3   1   7   54.97    4.31
  -3   1  -7   40.24    3.89
  -3  -1  -7   41.67    3.93
  -3  -1  -7   51.63    3.60
  -3   1  -7   58.91    3.90
  -3  -1  -7   45.25    3.33
  -3   1  -7   48.52    3.59
  -3   1  -7   49.10    3.64
  -3  -1  -8   19.41    2.37
  -3   1  -8   20.71    2.58
  -3   1  -8   16.94    2.17
  -3  -1  -9   35.12    2.99
  -3  -1  -9   29.15    2.69
  -3   1  -9   35.43    2.87
  -3  -1 -10   68.99    3.67
  -3   1 -10   62.35    3.57
  -3   1 -10   60.98    3.44
  -3  -1 -10   60.29    3.34
  -3   1 -10   58.22    3.39
  -3  -1 -11   18.62    1.68
  -3   1 -11   18.14    1.71
  -3  -1 -11   17.80    1.63
  -3  -1 -11   14.85    1.30
  -3   1 -11   16.31    1.41
   3   2 -14   91.20    3.89
   3  -2 -14   95.41    3.95
   3   2 -14   88.99    3.85
  -3   2  14   89.22    3.57
  -3  -2  13   29.91    2.53
   3   2 -13   33.35    2.57
  -3   2  12   -0.12    1.16
   3  -2 -12    1.00    1.02
  -3   2  12    2.97    1.54
  -3   2  11   64.28    4.40
  -3  -2  11   57.40    3.98
  -3  -2  11   55.83    4.02
  -3   2  11   57.91    3.92
   3   2 -11   70.30    4.51
   3   2 -10   77.64    4.88
  -3   2  10   81.72    5.21
  -3  -2  10   70.89    4.62
  -3  -2  10   67.69    4.67
  -3  -2  10   65.72    4.19
   3  -2 -10   63.66    4.31
   3  -2  -9   55.41    3.94
   3   2  -9   58.31    4.20
  -3   2   9   58.60    4.56
  -3  -2   9   50.57    3.77
  -3  -2   9   52.06    3.97
   3  -2  -9   48.19    4.16
   3   2  -9   49.53    4.12
  -3  -2   9   51.01    4.10
  -3  -2   9   44.56    3.38
  -3   2   9   55.16    4.19
   3   2  -9   41.68    4.01
   3   2  -8    8.43    1.93
  -3   2   8   11.08    2.28
   3  -2  -8   10.01    1.91
  -3  -2   8   10.33    2.07
  -3  -2   8    7.46    1.86
  -3  -2   8    9.47    1.83
  -3  -2   8    8.34    1.49
   3  -2  -8    6.51    1.87
   3   2  -8    9.29    2.00
  -3   2   8    9.04    1.67
  -3   2   8    8.66    2.32
  -3  -2   8    8.34    1.59
   3  -2  -7    5.79    1.47
  -3   2   7    9.15    2.08
   3   2  -7    6.10    1.74
  -3  -2   7    4.13    1.27
  -3  -2   7    9.05    1.97
  -3  -2   7    5.56    1.64
  -3  -2   7    6.16    1.39
   3  -2  -7    5.71    1.79
   3   2  -7    8.08    1.93
  -3   2   7    7.08    1.59
  -3   2   7    5.84    2.08
   3  -2  -6   27.10    2.58
  -3  -2   6   30.89    2.46
  -3  -2   6   35.83    3.29
  -3  -2   6   33.15    3.11
  -3  -2   6   32.32    2.84
   3  -2  -6   38.22    3.22
   3   2  -6   34.69    3.03
  -3   2   6   36.90    3.07
  -3  -2   6   32.50    2.58
  -3   2   6   34.07    3.35
  -3  -2   5    8.70    1.85
  -3  -2   5    9.06    1.40
  -3  -2   5   10.78    1.91
  -3  -2   5   10.02    1.80
  -3  -2   5    8.71    1.77
   3   2  -5    8.96    1.53
  -3   2   5    8.80    1.89
  -3  -2   5    8.67    1.47
  -3  -2   4    5.69    1.48
  -3  -2   4    7.75    1.47
  -3  -2   4    8.25    1.23
   3   2  -4    6.66    1.37
  -3   2   4    5.94    1.58
  -3  -2   4    8.40    1.47
  -3  -2   3  120.29    6.11
  -3  -2   3  139.83    6.27
   3   2  -3  142.71    5.74
  -3  -2   3  129.73    5.05
  -3  -2   3  125.93    5.21
  -3   2   3  131.68    6.21
  -3   2   3  133.81    6.57
  -3  -2   3  134.54    6.16
  -3  -2   2  415.62   14.85
  -3   2   2  401.08   14.19
  -3   2   2  420.61   15.09
  -3  -2   2  397.21   14.52
  -3  -2   2  410.88   14.57
  -3  -2   2  394.15   13.83
   3   2  -2  443.56   14.13
  -3  -2   2  379.19   13.96
  -3  -2   2  391.33   13.31
  -3  -2   2  435.92   14.71
  -3  -2   1  430.72   14.12
  -3   2   1  439.92   15.17
  -3  -2   1  454.70   15.78
  -3  -2   1  426.70   14.83
   3   2  -1  477.10   15.08
  -3  -2   1  427.10   14.98
  -3   2   1  449.50   15.52
  -3  -2   1  427.74   15.32
  -3  -2   1  415.35   14.59
  -3  -2   0  179.48    7.10
   3   2   0  192.14    7.22
  -3  -2   0  152.04    6.53
  -3  -2   0  176.55    7.15
  -3  -2   0  174.31    6.59
  -3   2   0  169.39    7.11
  -3  -2   0  176.42    7.43
  -3   2   0  175.36    7.51
  -3  -2   0  174.27    6.92
  -3  -2  -1  175.66    7.59
  -3  -2  -1  182.95    7.57
  -3  -2  -1  192.08    7.57
  -3  -2  -1  180.02    7.12
   3   2   1  196.16    7.60
  -3  -2  -1  189.19    7.14
  -3   2  -1  190.13    7.65
  -3  -2  -1  174.07    7.58
  -3   2  -1  182.74    7.84
  -3  -2  -1  185.27    7.40
  -3  -2  -2  182.49    7.73
  -3   2  -2  195.27    7.97
  -3  -2  -2  174.67    7.08
  -3  -2  -2  195.49    7.83
  -3  -2  -2  179.63    7.35
   3   2   2  207.49    7.96
  -3   2  -2  185.71    7.26
  -3  -2  -2  195.60    7.43
  -3  -2  -2  173.56    7.56
  -3   2  -2  196.91    8.12
  -3  -2  -2  192.00    7.70
  -3  -2  -3   54.10    3.56
  -3   2  -3   56.13    3.77
  -3  -2  -3   54.75    3.30
  -3  -2  -3   53.48    3.24
  -3  -2  -3   56.63    3.50
  -3   2  -3   50.27    3.34
  -3   2  -3   63.05    3.90
  -3  -2  -3   62.37    3.60
  -3   2  -3   63.74    3.83
  -3   2  -3   57.05    3.78
  -3  -2  -3   58.10    3.65
  -3  -2  -4   88.15    4.78
  -3   2  -4   96.33    5.20
  -3  -2  -4   94.76    4.74
  -3  -2  -4   90.71    4.67
  -3  -2  -4  103.48    5.02
  -3   2  -4   97.42    4.91
  -3   2  -4  102.51    5.32
  -3  -2  -4  102.69    5.08
  -3   2  -4   94.99    5.10
  -3  -2  -5   59.04    3.87
  -3  -2  -5   73.01    4.17
  -3  -2  -5   74.24    4.20
  -3  -2  -5   81.13    4.42
  -3  -2  -5   62.54    4.10
  -3   2  -5   74.34    4.56
  -3  -2  -5   69.60    4.33
  -3  -2  -5   66.61    4.12
  -3   2  -5   67.15    4.29
  -3   2  -5   71.01    4.59
   3  -2   6  169.93    8.07
   3   2   6  171.15    8.13
  -3   2  -6  145.46    8.02
  -3  -2  -6  140.49    7.89
  -3  -2  -6  165.93    7.09
  -3  -2  -6  162.92    7.06
  -3   2  -6  169.41    7.29
  -3  -2  -6  154.72    7.04
  -3   2  -6  168.44    7.51
  -3  -2  -6  158.66    7.33
  -3  -2  -6  161.56    7.02
  -3   2  -6  171.94    7.63
   3  -2   7   95.24    5.73
   3   2   7   89.18    5.68
  -3   2  -7   79.54    5.66
  -3  -2  -7   67.62    5.33
  -3  -2  -7   97.25    5.01
  -3   2  -7  109.18    5.34
  -3  -2  -7   81.98    4.59
  -3   2  -7  110.32    5.40
  -3   2  -7   93.75    5.26
  -3  -2  -8   21.82    2.47
  -3  -2  -8   30.34    2.92
  -3   2  -8   24.93    2.74
  -3   2  -8   29.89    2.90
  -3   2  -8   23.15    2.58
  -3  -2  -9    5.65    1.87
  -3   2  -9    6.50    1.65
  -3   2  -9    6.12    1.75
  -3   2  -9    4.95    1.42
  -3  -2 -10    2.10    1.39
  -3  -2 -10    1.99    1.17
  -3   2 -10    1.99    1.26
  -3  -2 -11    8.13    1.23
  -3   2 -11    9.63    1.29
  -3   2 -11    9.73    1.17
   3   3 -14   37.00    2.07
  -3  -3  13  127.64    5.75
   3   3 -13  144.38    5.87
  -3  -3  12    5.62    1.36
  -3   3  12    7.40    1.70
  -3  -3  11   26.98    2.71
  -3  -3  11   27.20    2.83
  -3   3  11   33.68    2.99
  -3   3  11   31.72    2.91
   3   3 -11   32.34    3.12
   3   3 -10   46.15    3.82
  -3   3  10   49.44    3.91
  -3  -3  10   41.94    3.53
  -3  -3  10   46.75    3.77
  -3  -3  10   42.64    3.37
  -3   3  10   45.24    3.68
   3   3  -9   13.41    2.49
   3  -3  -9   10.44    1.76
  -3   3   9   15.01    2.57
  -3  -3   9   12.15    2.24
  -3  -3   9   12.19    2.07
  -3  -3   9   15.96    1.88
   3  -3  -9   14.42    2.49
   3   3  -9   16.32    2.47
  -3  -3   9   12.57    1.99
  -3   3   9   15.45    2.67
   3   3  -8   11.95    2.41
  -3  -3   8   14.07    2.00
   3  -3  -8   11.36    1.80
  -3   3   8   15.98    2.59
  -3  -3   8   13.27    2.27
  -3  -3   8   13.51    2.19
  -3  -3   8   13.71    2.30
  -3  -3   8   14.15    1.91
   3  -3  -8   15.73    2.40
   3   3  -8   11.54    2.13
  -3  -3   8   14.05    2.38
  -3   3   8   14.33    2.72
   3  -3  -7   40.62    3.10
  -3   3   7   42.09    3.90
  -3  -3   7   41.31    3.19
  -3  -3   7   56.39    4.03
  -3  -3   7   45.37    3.73
  -3  -3   7   46.64    3.82
   3  -3  -7   51.43    3.89
   3   3  -7   41.24    3.55
  -3  -3   7   44.68    3.37
  -3   3   7   46.35    3.32
  -3  -3   7   47.44    3.96
  -3  -3   7   42.81    3.06
  -3   3   7   45.04    3.96
  -3   3   6  466.10   17.33
  -3  -3   6  468.49   17.07
  -3  -3   6  441.38   15.90
  -3  -3   6  469.99   17.08
  -3  -3   6  468.80   16.55
   3  -3  -6  464.92   16.59
   3   3  -6  463.33   16.48
  -3   3   6  476.78   16.41
  -3  -3   6  436.90   16.04
  -3   3   6  452.14   16.77
  -3   3   5   88.40    5.40
  -3   3   5   81.34    5.01
  -3   3   5   89.37    4.56
  -3  -3   5   94.08    5.34
  -3  -3   5   90.82    5.03
   3   3  -5   97.16    4.79
   3  -3  -5   96.87    5.10
   3   3  -5   93.47    4.95
  -3  -3   5   87.54    4.52
  -3   3   5   92.44    5.02
  -3  -3   5   96.24    5.62
  -3  -3   5   95.33    5.03
  -3  -3   4   38.32    3.14
  -3   3   4   39.34    3.47
  -3   3   4   38.80    3.27
  -3   3   4   38.56    2.82
  -3  -3   4   47.79    3.44
   3   3  -4   46.50    3.05
  -3  -3   4   42.67    2.53
  -3  -3   4   41.90    2.76
  -3  -3   4   45.76    3.55
  -3   3   4   40.63    3.33
  -3  -3   4   48.03    3.71
  -3  -3   4   47.03    3.40
  -3  -3   3   71.47    4.34
  -3   3   3   75.12    4.65
  -3   3   3   76.16    4.20
  -3  -3   3   91.70    4.98
  -3  -3   3   87.22    4.75
   3   3  -3   88.46    4.29
  -3  -3   3   82.12    3.79
  -3   3   3   79.40    3.98
  -3   3   3   81.85    4.59
  -3  -3   3   78.80    3.95
  -3  -3   3   88.23    4.72
  -3   3   2   93.55    5.31
  -3  -3   2   95.31    5.25
  -3  -3   2  101.19    4.45
  -3  -3   2   97.84    4.34
  -3   3   2   96.78    4.65
  -3   3   2   90.26    4.70
  -3   3   2   95.05    5.05
  -3  -3   2  102.44    5.24
  -3  -3   2   92.94    4.44
  -3  -3   1   25.46    2.40
  -3   3   1   34.04    3.07
  -3   3   1   33.03    2.57
  -3  -3   1   25.86    2.62
  -3  -3   1   30.12    2.68
   3   3  -1   35.88    2.65
  -3  -3   1   29.86    2.17
  -3  -3   1   28.30    2.17
  -3   3   1   32.73    2.49
  -3  -3   1   32.45    2.36
   3   3  -1   30.00    2.65
  -3   3   0   36.05    2.83
  -3  -3   0   39.12    3.03
  -3  -3   0   35.55    2.69
   3   3   0   45.69    3.02
  -3   3   0   40.27    2.85
  -3  -3   0   38.31    2.96
  -3   3   0   41.64    3.14
  -3  -3   0   43.55    3.19
  -3  -3   0   34.47    2.60
   3   3   0   34.33    2.59
  -3  -3   0   31.99    2.28
  -3  -3  -1  253.56    9.63
  -3  -3  -1  234.07    9.13
   3   3   1  275.12    9.84
  -3   3  -1  263.74    9.74
  -3  -3  -1  248.98    9.21
  -3   3  -1  251.73    9.66
  -3  -3  -1  229.71    9.47
  -3   3  -1  248.12    9.93
  -3  -3  -1  240.44    9.42
  -3  -3  -2  205.61    8.23
  -3  -3  -2  192.37    8.01
  -3  -3  -2  195.95    7.78
   3   3   2  208.99    8.33
  -3   3  -2  171.90    7.39
  -3   3  -2  203.54    8.22
  -3  -3  -2  193.08    7.75
  -3   3  -2  199.46    8.42
  -3  -3  -2  209.47    8.13
  -3  -3  -3  118.95    5.82
  -3  -3  -3  112.89    5.50
  -3   3  -3  128.92    6.04
  -3  -3  -3  114.86    5.30
  -3  -3  -3  112.84    5.48
   3   3   3  126.67    6.00
  -3   3  -3  109.85    5.28
  -3  -3  -3  119.92    5.60
  -3   3  -3  118.06    5.78
  -3   3  -3  117.60    5.92
  -3  -3  -4  161.28    6.87
  -3  -3  -4  147.16    6.71
  -3  -3  -4  168.95    7.15
   3   3   4  168.91    7.59
  -3   3  -4  160.11    6.91
  -3   3  -4  164.11    7.40
  -3  -3  -4  155.03    7.08
  -3   3  -4  171.07    7.13
  -3   3  -4  155.72    7.20
  -3   3  -4  167.89    7.57
  -3  -3  -5   11.82    2.07
  -3  -3  -5   10.41    1.92
  -3  -3  -5   10.30    2.10
  -3   3  -5   12.57    2.08
  -3   3  -5   13.41    2.17
  -3   3  -5   11.54    2.20
  -3  -3  -5   11.72    1.83
  -3  -3  -5    9.91    2.18
  -3   3  -5   14.82    2.45
  -3  -3  -5   11.89    2.10
   3  -3   6   51.97    4.17
   3   3   6   53.62    4.22
  -3  -3  -6   57.77    3.84
  -3  -3  -6   60.43    3.85
  -3   3  -6   65.73    4.02
  -3  -3  -6   48.83    3.43
  -3  -3  -6   54.81    3.97
  -3  -3  -6   48.96    3.35
  -3   3  -6   61.13    4.22
  -3  -3  -7   40.03    3.28
  -3  -3  -7   39.72    3.21
  -3   3  -7   35.76    3.22
  -3   3  -7   33.27    2.83
  -3   3  -7   39.02    3.43
  -3  -3  -8   10.45    2.02
  -3  -3  -8   13.17    2.24
  -3   3  -8    9.95    2.02
  -3   3  -8   13.10    2.20
  -3   3  -8   10.69    2.10
  -3  -3  -9    6.94    1.73
  -3  -3  -9    6.89    1.81
  -3   3  -9   10.55    1.89
  -3  -3 -10    3.40    1.34
  -3  -3 -10    4.95    1.19
  -3   3 -10    4.41    1.32
  -3  -3 -11    7.84    1.10
  -3  -4  13    0.80    0.81
  -3   4  13    2.10    1.15
  -3  -4  12   52.13    3.35
  -3  -4  12   51.65    3.37
  -3   4  12   53.47    3.32
  -3  -4  11    2.73    1.27
  -3   4  11    2.38    1.83
  -3   4  10   34.87    3.17
  -3  -4  10   28.45    2.94
  -3  -4  10   31.24    2.87
  -3   4  10   33.52    3.27
   3   4  -9    8.57    2.03
  -3  -4   9    6.41    1.83
  -3  -4   9    7.13    1.94
  -3  -4   9    8.52    1.86
  -3  -4   9    6.99    1.47
  -3   4   9    8.87    2.01
  -3  -4   9    9.33    2.04
  -3   4   9    9.30    2.60
   3   4  -8  175.70    8.00
  -3  -4   8  161.46    7.61
  -3   4   8  180.61    8.50
  -3  -4   8  174.77    8.25
  -3  -4   8  172.09    8.27
   3   4  -8  161.52    7.83
  -3  -4   8  176.54    8.18
  -3  -4   8  161.12    7.48
   3  -4  -8  157.09    7.76
  -3  -4   8  183.22    8.66
  -3   4   8  172.05    8.28
   3   4  -8  166.95    8.35
   3   4  -7   34.61    3.20
  -3  -4   7   32.92    3.06
  -3  -4   7   37.41    3.40
  -3  -4   7   34.48    3.31
   3  -4  -7   31.01    3.09
  -3  -4   7   30.36    3.29
  -3  -4   7   33.90    2.98
  -3  -4   7   30.37    2.68
  -3   4   7   37.20    3.57
  -3   4   7   30.61    3.50
   3   4  -7   31.91    3.45
   3   4  -6  137.34    6.62
  -3  -4   6  144.56    7.13
  -3  -4   6  134.68    6.95
  -3  -4   6  138.64    7.17
  -3  -4   6  136.52    6.67
  -3  -4   6  129.76    6.34
   3  -4  -6  135.57    6.55
   3   4  -6  140.25    6.60
  -3   4   6  138.41    7.20
  -3   4   6  139.74    6.37
  -3  -4   6  142.28    7.37
  -3  -4   6  129.32    6.39
  -3   4   6  137.60    7.01
   3   4  -6  131.03    7.09
  -3   4   5  328.47   13.12
  -3   4   5  315.85   12.87
  -3  -4   5  363.33   13.25
  -3  -4   5  325.27   12.85
  -3  -4   5  329.98   12.68
   3   4  -5  360.82   12.37
   3  -4  -5  339.00   12.39
   3   4  -5  336.88   12.32
  -3  -4   5  298.05   11.31
  -3  -4   5  331.74   12.18
  -3   4   5  331.66   12.35
  -3  -4   5  345.91   13.43
  -3  -4   5  326.29   12.50
   3   4  -5  301.61   12.83
  -3  -4   4  171.83    7.96
  -3   4   4  189.69    8.71
  -3   4   4  174.49    8.53
  -3   4   4  182.66    7.59
  -3  -4   4  204.22    8.89
  -3  -4   4  195.65    8.69
  -3  -4   4  204.36    8.56
   3   4  -4  218.86    8.19
  -3  -4   4  194.41    7.42
  -3   4   4  198.13    8.25
  -3  -4   4  197.57    7.93
  -3  -4   4  201.78    8.98
  -3  -4   4  201.31    8.48
   3   4  -4  192.26    8.68
   3   4  -3    1.23    1.49
  -3  -4   3    0.28    1.04
  -3   4   3   -0.45    1.19
  -3  -4   3    0.28    1.02
  -3   4   3   -0.09    1.01
   3   4  -3    1.32    1.19
  -3  -4   3    0.71    0.85
  -3   4   3   -0.12    1.13
  -3  -4   3    0.61    1.11
  -3  -4   3    0.26    1.01
   3   4  -2   10.78    1.96
  -3   4   2   13.20    2.17
  -3   4   2   11.37    1.68
  -3  -4   2    9.80    1.76
  -3  -4   2   11.40    1.82
   3   4  -2   10.72    1.76
  -3  -4   2   13.28    1.60
  -3   4   2   13.38    1.59
  -3  -4   2    8.64    1.47
  -3   4   2   12.19    1.53
  -3   4   2   13.40    1.95
  -3   4   1   33.98    3.26
  -3   4   1   35.40    2.86
  -3  -4   1   32.73    2.96
  -3  -4   1   36.10    2.95
   3   4  -1   36.39    2.78
  -3  -4   1   34.45    2.52
  -3   4   1   32.69    2.49
  -3   4   1   36.42    2.69
  -3  -4   1   34.85    2.54
  -3   4   1   32.65    2.90
  -3  -4   1   36.41    3.03
   3   4  -1   31.57    2.76
  -3   4   0  245.20    9.67
  -3  -4   0  240.14    9.22
  -3  -4   0  254.20   10.14
  -3  -4   0  258.90    9.78
   3   4   0  283.77   10.06
  -3   4   0  258.34    9.65
  -3   4   0  259.39    9.69
  -3  -4   0  233.54    9.68
  -3  -4   0  261.86   10.27
  -3  -4   0  256.22    9.58
   3   4   0  224.65    9.27
  -3   4  -1   46.17    3.31
   3   4   1   53.92    3.52
  -3   4  -1   45.37    3.22
  -3   4  -1   45.98    2.92
  -3   4  -1   45.97    3.22
  -3   4  -1   49.19    3.57
  -3  -4  -1   50.14    3.61
  -3  -4  -1   45.49    3.31
  -3  -4  -1   47.98    3.23
  -3  -4  -2  101.12    5.13
  -3  -4  -2   90.83    4.81
  -3  -4  -2   87.55    4.68
   3   4   2  105.96    5.33
  -3   4  -2   78.75    4.36
  -3   4  -2  105.04    5.13
  -3  -4  -2  101.16    4.90
  -3   4  -2   95.61    4.70
  -3   4  -2  104.30    5.09
  -3   4  -2   92.05    5.18
  -3  -4  -2   98.93    5.03
  -3  -4  -3  118.39    5.81
  -3  -4  -3  126.99    5.94
  -3  -4  -3  108.74    5.44
   3   4   3  130.04    6.17
  -3   4  -3   94.31    5.06
  -3   4  -3  113.04    5.72
  -3  -4  -3  117.91    5.62
  -3   4  -3  115.38    5.44
  -3  -4  -4  331.45   12.06
  -3  -4  -4  338.89   12.63
  -3  -4  -4  308.73   11.87
  -3  -4  -4  329.31   12.22
   3   4   4  343.55   12.88
  -3   4  -4  309.75   11.87
  -3  -4  -4  322.25   12.28
  -3   4  -4  337.59   12.15
  -3   4  -4  337.82   12.77
  -3  -4  -4  332.95   12.48
  -3  -4  -5  704.16   23.00
  -3  -4  -5  696.94   22.91
   3   4   5  696.42   23.82
  -3   4  -5  684.12   22.90
  -3   4  -5  700.27   23.51
  -3  -4  -5  692.06   23.34
  -3   4  -5  696.79   23.03
  -3   4  -5  716.59   23.75
  -3  -4  -5  732.16   23.57
   3  -4   5  611.76   23.38
   3   4   5  635.94   23.54
   3  -4   6  165.22    8.41
   3   4   6  174.43    8.49
  -3  -4  -6  206.55    8.26
  -3  -4  -6  195.21    8.11
   3   4   6  194.33    8.84
  -3   4  -6  197.82    8.11
  -3  -4  -6  183.03    8.44
  -3   4  -6  212.86    8.83
  -3  -4  -7   26.95    2.87
  -3  -4  -7   31.29    2.96
  -3  -4  -7   33.42    3.14
  -3   4  -7   23.62    2.73
  -3   4  -7   29.59    3.09
  -3  -4  -8    8.16    1.93
  -3  -4  -8   10.59    2.07
  -3   4  -8    7.81    1.89
  -3   4  -8   11.53    2.07
  -3   4  -8    6.17    1.86
  -3  -4  -9   27.45    2.49
  -3  -4  -9   30.59    2.63
  -3   4  -9   30.49    2.55
  -3   4  -9   28.54    2.51
  -3  -4 -10    2.42    1.21
  -3  -4 -10    3.00    0.96
  -3   4 -10    2.17    1.14
   3   5 -13    5.95    1.01
   3   5 -12   51.51    3.13
  -3  -5  12   52.03    3.14
  -3  -5  11   18.33    2.21
  -3  -5  11   16.06    2.10
  -3  -5  11   18.16    1.95
  -3   5  11   19.10    2.42
  -3  -5  10   43.19    3.51
  -3  -5  10   39.02    3.44
  -3  -5  10   35.12    3.12
  -3   5  10   45.54    3.66
  -3  -5  10   42.35    3.48
   3   5 -10   44.36    3.52
   3   5  -9    3.04    1.62
  -3  -5   9    0.95    1.33
  -3  -5   9    0.24    0.94
  -3  -5   9    1.48    1.39
  -3   5   9    1.14    1.36
  -3  -5   9    0.33    1.30
  -3   5   9    3.97    2.17
   3   5  -8  207.90    8.88
  -3  -5   8  205.73    8.76
  -3   5   8  206.02    9.10
   3   5  -8  171.41    8.30
  -3  -5   8  207.21    9.23
  -3  -5   8  197.60    8.98
  -3  -5   8  201.23    9.28
  -3  -5   8  196.94    8.48
  -3  -5   8  183.68    8.00
  -3   5   8  217.07    9.36
   3   5  -8  183.64    9.09
   3   5  -7  650.05   22.36
  -3   5   7  683.29   22.99
  -3  -5   7  706.72   23.17
  -3  -5   7  651.07   22.84
  -3  -5   7  656.21   22.28
  -3  -5   7  631.47   22.94
  -3  -5   7  609.22   22.13
   3   5  -7  620.88   22.01
  -3  -5   7  613.27   21.83
  -3   5   7  668.64   22.82
   3   5  -6 1746.00   54.45
  -3   5   6 1817.26   55.29
  -3  -5   6 1718.22   55.12
  -3  -5   6 1816.02   55.26
  -3  -5   6 1709.70   54.95
   3  -5  -6 1649.71   54.07
   3   5  -6 1766.00   54.26
  -3  -5   6 1716.28   55.26
  -3  -5   6 1664.27   54.52
  -3  -5   6 1805.87   54.52
  -3   5   6 1732.62   53.73
  -3  -5   6 1694.67   55.43
  -3  -5   6 1691.00   54.36
   3   5  -6 1705.25   55.21
  -3   5   5  509.64   18.78
  -3  -5   5  522.53   18.59
  -3  -5   5  517.86   18.33
  -3  -5   5  499.08   18.39
  -3  -5   5  490.55   18.01
   3  -5  -5  481.30   17.42
   3   5  -5  515.74   17.57
   3   5  -5  525.32   17.75
  -3  -5   5  455.84   16.78
  -3  -5   5  528.79   17.84
  -3   5   5  514.45   17.55
  -3   5   5  520.73   18.55
  -3  -5   5  496.27   18.68
  -3  -5   5  522.53   18.10
   3   5  -5  517.77   18.61
  -3   5   4  448.37   16.98
  -3  -5   4  496.37   17.04
  -3  -5   4  442.63   16.58
   3   5  -4  467.14   16.02
   3  -5  -4  420.18   15.59
   3   5  -4  456.10   15.75
  -3  -5   4  439.46   15.30
  -3   5   4  459.78   16.04
  -3  -5   4  448.21   16.84
  -3  -5   4  449.91   16.39
  -3  -5   4  471.92   16.05
  -3   5   4  426.12   16.28
   3   5  -4  438.74   16.63
  -3   5   3   26.15    3.06
  -3  -5   3   27.42    2.56
  -3   5   3   27.02    2.25
  -3  -5   3   25.13    2.67
  -3  -5   3   24.32    2.59
   3   5  -3   27.51    2.55
  -3  -5   3   26.87    2.27
  -3   5   3   25.78    2.55
  -3  -5   3   27.94    2.88
  -3  -5   3   27.49    2.75
   3   5  -3   25.26    2.82
   3   5  -2   39.22   17.43
  -3   5   2   44.70    3.86
  -3   5   2   44.34    3.00
  -3  -5   2   40.73    3.35
  -3  -5   2   45.76    3.45
   3   5  -2   50.93    3.39
  -3  -5   2   40.97    3.03
  -3  -5   2   43.48    2.97
  -3   5   2   46.60    3.38
   3   5  -1    8.83    1.74
  -3   5   1   12.68    2.36
  -3   5   1   11.86    1.71
  -3  -5   1   12.69    1.95
  -3  -5   1   11.64    1.89
   3   5  -1   11.13    1.89
  -3  -5   1   12.09    1.79
  -3   5   1   10.61    1.52
  -3  -5   1    9.80    1.62
  -3   5   1   10.84    1.92
  -3  -5   1   10.13    1.89
  -3   5   0   10.33    2.09
  -3  -5   0   11.98    1.93
  -3   5   0   10.21    1.79
  -3  -5   0   11.53    1.82
  -3  -5   0   13.18    1.93
   3   5   0   12.90    2.02
  -3  -5   0   12.46    1.87
  -3   5   0   14.23    1.76
  -3  -5   0    8.39    1.53
  -3   5   0   10.42    1.89
  -3  -5   0   11.23    1.90
  -3  -5  -1   10.27    1.87
  -3   5  -1   13.38    1.99
   3   5   1   13.45    2.10
  -3   5  -1   14.90    1.89
  -3   5  -1   12.37    1.71
  -3  -5  -1   15.89    2.17
  -3  -5  -1   15.01    2.03
  -3  -5  -2  157.43    7.09
  -3  -5  -2  156.72    7.12
   3   5   2  165.63    7.37
  -3   5  -2  151.51    6.92
  -3  -5  -2  151.73    6.82
  -3   5  -2  142.93    6.49
  -3   5  -2  164.13    7.23
  -3  -5  -3  125.81    5.91
   3   5   3  122.16    6.08
  -3  -5  -3  115.73    5.53
  -3   5  -3   93.02    4.96
  -3   5  -3  108.21    5.60
  -3  -5  -3  111.58    5.54
  -3   5  -3   96.02    5.15
  -3   5  -3  107.70    5.77
  -3  -5  -3  111.00    5.69
  -3  -5  -4  126.44    6.16
   3   5   4  119.12    6.27
  -3   5  -4  106.82    5.40
  -3  -5  -4  114.60    5.94
  -3   5  -4  110.58    5.64
  -3  -5  -4  127.69    6.15
   3   5   5   59.73    4.26
  -3  -5  -5   74.67    4.43
  -3  -5  -5   69.53    4.29
   3   5   5   71.36    4.76
  -3   5  -5   73.27    4.24
  -3  -5  -5   65.67    4.44
  -3   5  -5   75.19    4.38
  -3   5  -5   76.76    4.91
  -3  -5  -5   75.51    4.57
  -3  -5  -6  235.57    9.40
  -3  -5  -6  233.39    9.31
  -3   5  -6  223.66    9.19
  -3   5  -6  236.74    9.39
  -3   5  -6  227.91    9.94
  -3  -5  -6  245.94    9.74
  -3  -5  -7  391.72   14.08
  -3  -5  -7  393.47   14.02
  -3  -5  -7  419.21   14.31
  -3   5  -7  375.19   13.92
  -3   5  -7  388.05   14.62
  -3  -5  -8   22.02    2.43
  -3  -5  -8   20.13    2.34
  -3  -5  -8   20.45    2.40
  -3   5  -8   16.59    2.17
  -3   5  -8   16.06    2.39
  -3  -5  -9    2.24    1.40
  -3  -5  -9    2.48    1.43
  -3   5  -9    2.60    1.41
  -3  -5 -10    9.59    1.34
  -3  -6  12    0.80    0.73
   3   6 -12    0.61    0.85
   3   6 -12   -0.06    0.54
  -3  -6  11   12.94    1.80
  -3  -6  11   11.88    1.61
  -3   6  11   11.36    1.88
  -3   6  11   13.53    2.08
  -3  -6  10   53.83    3.62
  -3  -6  10   56.46    3.89
  -3   6  10   53.31    3.59
  -3   6  10   58.19    3.90
  -3  -6  10   56.48    3.93
   3   6 -10   53.26    3.67
   3   6  -9   12.88    2.11
  -3  -6   9    9.61    1.99
  -3  -6   9    9.45    1.94
  -3  -6   9   11.97    2.00
  -3  -6   9    8.74    1.98
  -3  -6   9   10.42    1.65
  -3  -6   9   10.73    2.08
   3   6  -8   57.99    3.98
  -3  -6   8   56.62    4.23
  -3  -6   8   50.07    3.97
  -3  -6   8   53.69    4.18
  -3  -6   8   52.96    3.71
  -3  -6   8   39.65    3.12
   3   6  -7  408.75   15.28
  -3  -6   7  462.39   16.27
  -3  -6   7  418.11   15.86
  -3  -6   7  424.27   15.92
  -3  -6   7  410.60   15.91
  -3  -6   7  411.17   15.42
  -3  -6   7  423.18   15.51
   3   6  -7  384.02   14.64
  -3  -6   7  415.55   16.13
  -3   6   7  442.18   15.30
  -3  -6   7  402.01   15.06
   3   6  -6   32.58    3.03
  -3  -6   6   32.83    3.30
  -3  -6   6   31.71    3.10
  -3  -6   6   32.16    3.21
  -3  -6   6   34.90    3.34
  -3  -6   6   33.92    3.11
  -3  -6   6   29.59    2.48
  -3  -6   6   32.41    3.14
  -3  -6   6   33.20    3.45
  -3  -6   6   32.78    2.94
   3   6  -6   31.95    3.44
   3   6  -5  474.30   16.71
  -3   6   5  494.80   18.07
  -3  -6   5  500.03   17.64
  -3  -6   5  475.51   17.21
  -3  -6   5  452.57   17.25
   3   6  -5  485.12   16.79
  -3  -6   5  426.68   15.90
  -3  -6   5  514.13   17.11
  -3   6   5  455.58   16.19
  -3  -6   5  437.74   17.37
  -3  -6   5  450.73   16.91
  -3   6   5  484.22   17.29
   3   6  -5  473.67   17.52
  -3  -6   4   63.88    4.33
  -3  -6   4   54.99    4.01
  -3  -6   4   56.40    3.91
   3   6  -4   49.41    3.63
  -3  -6   4   47.62    3.27
  -3   6   4   55.62    4.47
   3   6  -4   50.12    3.37
  -3   6   4   55.39    3.65
  -3  -6   4   52.86    4.08
  -3  -6   4   55.91    3.94
  -3   6   4   49.92    4.04
  -3  -6   4   53.68    3.80
   3   6  -4   50.11    4.08
  -3   6   3   46.65    4.06
  -3  -6   3   38.40    3.15
  -3  -6   3   42.78    3.49
  -3  -6   3   41.48    3.41
   3   6  -3   46.03    3.37
  -3  -6   3   42.01    2.99
   3   6  -3   40.94    3.01
  -3   6   3   42.18    3.28
  -3  -6   3   43.44    3.58
  -3   6   3   47.11    3.75
   3   6  -3   44.09    3.67
  -3   6   2   21.23    2.90
  -3  -6   2   21.42    2.50
  -3  -6   2   23.10    2.54
   3   6  -2   21.73    2.47
  -3  -6   2   19.46    2.14
  -3  -6   2   20.04    2.29
  -3   6   2   19.78    2.13
  -3   6   2   22.58    2.45
  -3  -6   2   21.82    2.55
  -3   6   2   20.80    2.59
   3   6  -2   20.60    2.57
  -3   6   1   74.52    5.09
  -3  -6   1   69.47    4.47
  -3  -6   1   75.53    4.57
   3   6  -1   77.92    4.48
  -3  -6   1   68.47    4.07
  -3   6   1   66.20    3.75
  -3   6   1   72.82    4.14
  -3   6   1   76.30    4.45
  -3  -6   1   72.32    4.59
  -3  -6   1   66.33    4.12
   3   6  -1   70.55    4.27
  -3  -6   0   37.02    3.09
  -3  -6   0   32.59    2.97
  -3  -6   0   34.32    3.06
  -3  -6   0   29.81    2.78
   3   6   0   41.77    3.30
  -3  -6   0   32.02    2.86
  -3   6   0   38.92    2.81
   3   6   0   37.13    2.80
  -3   6   0   37.28    3.00
  -3   6   0   38.73    3.19
  -3  -6   0   40.09    3.32
  -3   6   0   36.73    3.61
  -3  -6  -1  299.06   11.25
  -3   6  -1  275.37   11.97
  -3  -6  -1  304.61   11.34
   3   6   1  321.45   11.65
  -3   6  -1  282.20   10.80
   3   6   1  270.13   10.47
  -3   6  -1  252.03   10.19
  -3   6  -1  306.79   11.21
  -3  -6  -1  293.41   11.55
  -3  -6  -1  294.32   11.07
  -3  -6  -2    4.39    1.63
  -3  -6  -2    3.82    1.56
   3   6   2    4.21    1.75
  -3   6  -2    4.18    1.49
  -3  -6  -2    3.78    1.74
   3   6   2    3.57    1.42
  -3   6  -2    4.05    1.80
  -3  -6  -3  108.97    5.66
  -3  -6  -3  105.21    5.63
   3   6   3  106.59    5.87
  -3  -6  -3  108.69    5.51
  -3  -6  -3  110.43    5.71
  -3   6  -3  103.21    5.27
   3   6   3   96.83    5.18
  -3   6  -3  111.04    5.87
  -3  -6  -3  106.48    5.58
  -3  -6  -4   25.04    2.71
  -3   6  -4   23.12    2.56
   3   6   4   21.88    2.49
  -3  -6  -4   19.05    2.56
  -3  -6  -4   20.57    2.59
  -3  -6  -5   78.17    4.63
  -3  -6  -5   76.85    4.54
  -3  -6  -5   72.17    4.73
  -3   6  -5   81.25    4.59
  -3  -6  -5   90.15    4.92
  -3  -6  -6  356.71   12.82
  -3  -6  -6  342.88   12.65
  -3  -6  -6  368.52   12.98
  -3   6  -6  325.32   12.60
  -3   6  -6  359.41   13.56
  -3  -6  -6  340.46   12.93
  -3  -6  -7  320.06   11.86
  -3  -6  -7  318.01   11.76
  -3  -6  -7  333.82   11.97
  -3   6  -7  324.54   12.45
  -3  -6  -8   56.55    3.50
  -3  -6  -8   63.58    3.60
  -3  -6  -8   62.02    3.61
   3   6   8   51.83    3.14
  -3  -6  -9   81.11    3.70
  -3  -6  -9   84.97    3.77
  -3   6 -10   12.11    1.33
  -3   7  12  117.09    4.48
  -3  -7  11   10.41    1.43
   3   7 -11    8.53    1.33
  -3   7  11    9.84    1.60
  -3  -7  10   12.63    1.92
  -3  -7  10   11.87    1.82
  -3  -7  10   12.44    1.75
  -3   7  10   10.81    1.86
  -3  -7  10   12.25    1.87
   3   7  -9    0.89    1.27
  -3  -7   9    0.72    1.33
  -3  -7   9    0.27    1.16
  -3  -7   9    0.66    1.00
  -3   7   9    1.83    1.73
   3   7  -8   18.08    2.25
  -3  -7   8   22.72    2.71
  -3  -7   8   18.25    2.44
  -3  -7   8   18.60    2.49
  -3  -7   8   15.54    2.15
   3   7  -8   18.15    2.02
  -3   7   8   16.81    2.33
  -3  -7   8   17.80    2.51
  -3  -7   8   19.14    2.12
  -3   7   8   20.45    2.67
  -3  -7   7   16.54    2.48
  -3  -7   7   17.87    2.41
  -3  -7   7   17.38    2.41
  -3  -7   7   15.67    2.26
   3   7  -7   16.07    2.02
   3   7  -7   14.58    2.20
  -3   7   7   14.87    2.16
  -3  -7   7   21.36    2.70
  -3   7   7   18.45    2.68
  -3  -7   7   14.58    2.01
   3   7  -6    5.05    1.87
   3   7  -6    2.45    1.31
  -3  -7   6    5.99    1.80
  -3  -7   6    4.06    1.66
  -3  -7   6    2.83    1.11
  -3  -7   6   -0.70    1.70
  -3   7   6    3.07    1.52
  -3  -7   6    5.37    1.67
  -3   7   6    5.49    1.97
  -3  -7   6    6.08    1.59
  -3   7   6    4.91    2.25
   3   7  -5  150.27    6.79
  -3   7   5  167.15    8.30
  -3  -7   5  175.52    7.90
  -3  -7   5  148.81    7.41
  -3  -7   5  147.06    7.24
  -3  -7   5  137.09    6.47
   3   7  -5  138.10    6.40
  -3  -7   5  156.85    7.23
  -3  -7   5  138.81    7.39
  -3   7   5  138.72    6.68
  -3  -7   5  153.19    7.22
  -3   7   5  141.54    7.29
   3   7  -5  154.56    7.65
   3   7  -4   97.67    5.18
  -3   7   4  111.80    6.50
  -3  -7   4  105.01    5.80
  -3  -7   4  101.31    5.65
   3   7  -4  108.54    5.61
  -3  -7   4   93.13    5.01
   3   7  -4   99.55    5.05
  -3  -7   4  100.14    5.81
  -3   7   4  105.54    5.28
  -3   7   4   99.02    5.77
  -3  -7   4  101.20    5.53
   3   7  -4   96.06    5.84
   3   7  -3  118.42    6.43
  -3   7   3  137.90    7.29
  -3  -7   3  122.91    6.18
  -3  -7   3  125.83    6.43
  -3  -7   3  123.62    6.38
   3   7  -3  123.58    6.18
  -3  -7   3  125.60    5.94
   3   7  -3  121.90    5.80
  -3  -7   3  120.09    6.45
  -3   7   3  111.66    5.52
  -3   7   3  125.70    6.44
   3   7  -2    0.97    1.32
  -3   7   2    0.92    1.74
  -3  -7   2    0.86    1.17
  -3  -7   2    0.29    1.17
   3   7  -2    1.97    1.44
  -3  -7   2    0.68    1.21
   3   7  -2   -0.42    1.50
  -3  -7   2   -0.13    1.31
  -3  -7   2    0.45    1.23
  -3   7   2    1.40    1.55
   3   7  -1    9.56    1.77
  -3   7   1    9.98    2.28
  -3  -7   1    9.53    1.82
  -3  -7   1    8.64    1.75
   3   7  -1   11.02    1.97
  -3  -7   1   10.19    1.82
  -3  -7   1    8.94    2.05
  -3  -7   1   11.04    2.01
  -3  -7   1    9.25    1.91
  -3   7   1    8.27    1.66
  -3   7   1   11.69    2.02
  -3   7   0  150.47    7.83
  -3  -7   0  156.68    7.02
  -3  -7   0  140.79    6.82
  -3  -7   0  150.73    7.16
   3   7   0  166.05    7.33
  -3  -7   0  155.23    6.98
   3   7   0  135.01    6.40
  -3   7   0  140.65    6.61
  -3  -7   0  161.41    7.39
  -3   7  -1  101.57    6.24
  -3  -7  -1  110.34    5.61
  -3  -7  -1  112.32    5.70
   3   7   1   98.95    5.17
  -3   7  -1  103.30    5.46
  -3  -7  -1  107.75    5.82
  -3  -7  -2    9.80    1.90
  -3  -7  -2   11.48    2.02
  -3  -7  -2   12.45    2.16
   3   7   2   12.34    2.04
  -3  -7  -2   11.02    1.94
  -3   7  -2   12.50    2.12
  -3  -7  -3   19.10    2.40
  -3  -7  -3   20.09    2.49
  -3   7  -3   16.63    2.30
   3   7   3   15.68    2.25
  -3  -7  -3   19.36    2.47
  -3  -7  -3   17.31    2.36
  -3   7  -3   19.89    2.64
  -3  -7  -4   17.55    2.32
  -3   7  -4   16.87    2.28
   3   7   4   17.45    2.41
  -3  -7  -4   17.57    2.36
  -3   7  -4   19.39    2.68
  -3  -7  -5  128.33    5.86
  -3  -7  -5  119.22    5.69
  -3  -7  -5  125.68    5.92
  -3   7  -5  108.63    5.59
   3   7   5  111.79    5.67
  -3  -7  -5  123.53    5.99
  -3  -7  -6  129.32    6.05
  -3  -7  -6  124.74    5.95
  -3  -7  -6  129.84    6.09
   3   7   6  128.95    5.93
  -3  -7  -6  138.29    6.22
  -3  -7  -7   -1.53    1.62
  -3  -7  -7    1.21    1.49
  -3  -7  -7   -0.55    1.49
   3   7   7   -0.16    1.33
  -3  -7  -8   21.92    2.07
  -3  -7  -8   23.36    2.14
   3   7   8   20.71    1.86
  -3   7  -9    9.31    1.35
  -3  -7  -9   11.99    1.37
  -3  -7  -9    9.49    1.28
   3   8 -11   86.55    3.93
  -3  -8  11   95.09    4.07
  -3  -8  10   72.11    3.99
   3   8 -10   62.74    3.73
  -3  -8   9   16.43    2.25
   3   8  -9   18.17    2.25
  -3  -8   9   16.17    2.06
  -3  -8   9   16.17    1.89
  -3  -8   9   17.97    2.23
  -3   8   9   17.37    2.29
  -3  -8   8   54.60    3.95
  -3  -8   8   49.62    3.65
  -3  -8   8   47.96    3.45
   3   8  -8   41.93    3.01
  -3   8   8   56.87    3.73
  -3  -8   8   49.24    3.81
  -3  -8   8   43.00    3.04
  -3  -8   7   13.97    2.32
  -3  -8   7   13.10    2.23
   3   8  -7   13.81    1.92
  -3  -8   7   10.57    2.20
  -3   8   7   14.67    2.41
  -3  -8   7   13.30    1.92
  -3  -8   6    4.16    1.65
  -3  -8   6    5.32    1.71
  -3  -8   6    3.47    1.60
   3   8  -6    6.09    1.39
   3   8  -6    5.78    1.53
  -3  -8   6    3.31    1.50
  -3   8   6    3.03    1.79
  -3  -8   6    3.80    1.46
   3   8  -5   45.25    3.22
  -3  -8   5   57.42    4.11
  -3  -8   5   50.59    3.86
   3   8  -5   48.01    3.42
  -3   8   5   45.72    3.51
  -3  -8   5   50.24    3.99
  -3  -8   5   54.11    3.84
  -3   8   5   51.15    4.04
   3   8  -4   79.79    5.16
   3   8  -4   80.24    4.31
  -3   8   4   92.37    5.84
  -3  -8   4   82.08    4.99
  -3  -8   4   81.19    4.92
   3   8  -4   83.99    4.91
  -3  -8   4   75.33    4.45
   3   8  -4   81.96    4.49
  -3   8   4   73.65    4.28
  -3  -8   4   77.61    4.99
  -3   8   4   76.87    4.93
  -3  -8   4   80.24    4.86
   3   8  -3   18.96    2.54
   3   8  -3   21.88    2.13
  -3   8   3   23.26    3.12
  -3  -8   3   22.38    2.56
  -3  -8   3   25.17    2.68
   3   8  -3   22.47    2.58
  -3  -8   3   18.06    2.42
  -3  -8   3   21.89    2.33
   3   8  -3   23.17    2.57
  -3  -8   3   18.85    2.40
  -3  -8   3   20.60    2.61
  -3   8   3   21.72    2.66
   3   8  -2   64.15    4.42
  -3   8   2   81.77    5.39
  -3  -8   2   74.89    4.57
  -3  -8   2   74.55    4.62
   3   8  -2   78.07    4.62
  -3  -8   2   69.17    4.46
  -3  -8   2   63.22    4.15
   3   8  -2   77.04    4.38
  -3  -8   2   69.65    4.61
  -3   8   2   70.98    4.36
  -3  -8   1   72.16    4.31
   3   8  -1   55.00    3.79
  -3  -8   1   55.49    3.86
  -3  -8   1   68.15    4.31
  -3  -8   1   64.51    4.09
   3   8  -1   66.53    4.12
  -3  -8   1   57.80    4.12
  -3  -8   1   72.96    4.57
  -3  -8   0  437.43   14.75
  -3  -8   0  388.79   14.62
  -3  -8   0  400.40   14.76
  -3  -8   0  380.73   14.45
  -3   8   0  370.08   14.02
  -3  -8   0  416.89   15.05
  -3  -8  -1  115.27    5.73
  -3  -8  -1  116.47    5.86
  -3  -8  -1   98.77    5.70
   3   8   1  121.40    5.65
  -3   8  -1  109.16    5.63
  -3  -8  -1  112.60    5.96
  -3  -8  -2    9.10    1.77
  -3  -8  -2   11.72    1.99
   3   8   2   10.25    1.89
   3   8   2    8.45    1.97
  -3  -8  -2    8.30    1.85
  -3   8  -2   10.04    1.98
  -3   8  -3   44.28    4.09
  -3  -8  -3   42.67    3.33
   3   8   3   46.69    3.52
  -3   8  -3   39.27    3.41
  -3  -8  -3   47.09    3.49
  -3   8  -4   13.40    2.52
  -3  -8  -4   13.22    2.01
   3   8   4   12.69    2.14
  -3  -8  -4   13.53    2.11
  -3   8  -4   11.54    2.16
  -3   8  -5   37.33    3.46
  -3  -8  -5   37.07    3.07
  -3  -8  -5   33.36    2.93
  -3  -8  -5   40.33    3.16
   3   8   5   33.69    2.91
  -3   8  -5   35.81    3.29
  -3  -8  -5   34.52    2.96
  -3   8  -6    5.39    1.72
  -3  -8  -6    5.01    1.61
  -3  -8  -6    5.04    1.70
   3   8   6    3.56    1.50
  -3  -8  -6    5.13    1.41
  -3   8  -7   55.13    3.54
  -3  -8  -7   46.32    2.98
  -3  -8  -7   48.94    3.05
   3   8   7   47.54    2.90
  -3  -8  -8   73.91    3.39
  -3  -8  -8   77.97    3.43
  -3   8  -8   67.53    3.61
   3   8   8   63.01    3.05
   3   9 -10   19.92    1.75
  -3  -9  10   21.35    1.77
   3   9  -9   21.19    2.18
  -3  -9   9   25.74    2.26
  -3  -9   9   21.61    1.96
  -3  -9   8   -0.12    1.06
   3   9  -8   -0.36    1.10
   3   9  -8   -0.08    0.91
  -3  -9   8    0.38    1.03
  -3  -9   7   53.15    3.71
   3   9  -7   48.92    3.29
  -3  -9   7   52.74    3.84
  -3  -9   7   47.04    3.29
   3   9  -6   24.34    2.75
  -3  -9   6   20.10    2.55
  -3  -9   6   23.08    2.65
   3   9  -6   27.89    2.62
  -3   9   6   25.10    2.59
  -3  -9   6   26.55    2.78
  -3  -9   6   24.81    2.55
   3   9  -5   69.42    4.71
  -3  -9   5   84.98    4.91
  -3  -9   5   82.62    4.84
   3   9  -5   82.41    4.65
   3   9  -5   71.86    4.20
  -3  -9   5   77.63    4.87
   3   9  -4   22.70    2.68
  -3  -9   4   22.47    2.50
  -3  -9   4   28.18    2.83
  -3   9   4   26.90    3.29
   3   9  -4   24.06    2.57
  -3  -9   4   21.26    2.53
  -3  -9   4   23.55    2.71
  -3  -9   3    5.70    1.50
   3   9  -3    9.23    1.76
  -3  -9   3    8.41    1.79
   3   9  -3    7.32    1.92
  -3  -9   3    8.13    1.86
  -3  -9   2   27.29    2.63
   3   9  -2   22.65    2.44
  -3  -9   2   22.87    2.41
  -3  -9   2   24.77    2.60
   3   9  -2   26.42    2.69
  -3  -9   2   25.64    2.75
  -3  -9   1   47.28    3.42
  -3  -9   1   47.54    3.50
   3   9  -1   48.36    3.65
  -3  -9   1   47.68    3.67
  -3  -9   0   71.36    4.21
   3   9   0   71.91    4.36
  -3  -9   0   68.62    4.37
  -3   9  -1  129.95    6.98
  -3  -9  -1  122.83    5.96
  -3  -9  -1  133.67    6.32
  -3  -9  -1  131.82    6.35
  -3   9  -2   77.24    5.03
  -3  -9  -2   62.69    3.87
  -3  -9  -2   69.19    4.20
   3   9   2   73.49    4.23
  -3  -9  -2   70.36    4.20
  -3   9  -3   10.33    2.17
  -3  -9  -3    8.86    1.71
   3   9   3    9.86    1.97
  -3  -9  -3    8.77    1.81
  -3   9  -3    9.72    2.17
  -3   9  -4   53.61    4.03
  -3  -9  -4   48.27    3.31
  -3  -9  -4   50.96    3.40
   3   9   4   48.91    3.41
  -3  -9  -4   52.80    3.46
  -3   9  -5   12.11    2.08
  -3  -9  -5   12.38    1.85
  -3  -9  -5   12.62    1.99
   3   9   5   12.15    1.91
  -3  -9  -5   12.56    1.80
  -3   9  -6    6.38    1.51
  -3  -9  -6    4.01    1.49
  -3  -9  -6    8.10    1.59
   3   9   6    7.52    1.53
  -3  -9  -7   30.36    2.15
  -3  -9  -7   31.95    2.15
   3   9   7   30.48    2.04
   3  10  -9   16.00    1.59
  -3 -10   9   18.75    1.63
  -3 -10   9   16.27    1.48
  -3 -10   8   12.07    1.55
   3  10  -8    9.74    1.26
  -3 -10   7    1.07    0.96
  -3 -10   7    1.76    1.20
   3  10  -7    1.35    0.99
  -3 -10   7    1.70    1.02
  -3 -10   6    6.72    1.48
   3  10  -6    6.64    1.56
  -3 -10   6    6.06    1.46
   3  10  -6    8.15    1.57
  -3 -10   6    4.85    1.36
  -3 -10   5    1.78    1.10
   3  10  -5    2.46    1.28
  -3 -10   5    0.74    1.17
   3  10  -5    2.67    1.33
  -3 -10   4    3.11    1.19
   3  10  -4    4.70    1.43
  -3 -10   4    4.29    1.41
   3  10  -4    5.35    1.54
   3  10  -4    3.11    1.49
  -3 -10   4    5.32    1.57
  -3 -10   3    8.68    1.74
  -3 -10   3    8.76    1.49
   3  10  -3   11.98    1.81
  -3 -10   3   11.92    1.85
   3  10  -3    7.72    1.84
  -3 -10   3    9.75    1.85
  -3  10   2   22.71    2.89
  -3 -10   2   23.94    2.41
  -3 -10   2   23.44    2.48
   3  10  -2   25.69    2.62
  -3 -10   2   25.47    2.62
  -3  10   1   14.68    2.47
  -3 -10   1   14.43    1.89
  -3 -10   1   18.37    2.18
   3  10  -1   15.23    2.27
  -3 -10   1   15.79    2.11
  -3  10   0   34.98    3.32
  -3 -10   0   31.57    2.62
  -3 -10   0   31.78    2.72
   3  10   0   33.50    3.01
  -3 -10   0   28.26    2.71
  -3  10  -1   71.52    4.63
  -3 -10  -1   65.99    3.70
  -3 -10  -1   65.36    3.90
   3  10   1   69.65    4.12
  -3 -10  -1   57.19    3.76
  -3  10  -2   31.52    3.05
  -3 -10  -2   28.21    2.51
  -3 -10  -2   28.42    2.55
  -3  10  -3   14.49    2.25
  -3 -10  -3   16.91    1.92
  -3 -10  -3   17.24    2.02
  -3  10  -4   10.64    1.83
  -3 -10  -4    9.76    1.71
   3  10   4   12.26    1.81
  -3 -10  -4   11.51    1.65
  -3  10  -5   16.65    1.94
  -3 -10  -5   16.23    1.79
  -3 -10  -5   20.31    1.90
   3  10   5   17.44    1.85
  -3 -10  -5   14.58    1.66
  -3 -10  -6   11.77    1.41
  -3 -10  -6   11.65    1.42
  -3 -11   8   17.72    1.49
  -3 -11   8   18.48    1.55
   3  11  -7   25.65    2.08
  -3 -11   7   29.35    2.04
  -3 -11   7   29.98    2.19
   3  11  -7   29.89    2.03
  -3 -11   7   27.32    2.04
   3  11  -6   18.44    1.89
  -3 -11   6   18.86    1.76
  -3 -11   6   22.95    2.02
   3  11  -6   20.58    1.94
  -3 -11   5   71.05    3.67
   3  11  -5   58.06    3.62
  -3 -11   5   58.15    3.37
  -3 -11   5   75.17    3.89
   3  11  -5   73.26    3.81
  -3 -11   5   69.97    3.94
  -3 -11   4   40.59    2.76
  -3 -11   4   39.43    2.85
   3  11  -4   41.19    2.91
   3  11  -4   36.35    2.68
  -3 -11   4   42.95    3.10
  -3 -11   3   17.98    1.92
  -3 -11   3   18.50    1.99
   3  11  -3   17.35    2.10
  -3 -11   3   17.58    2.09
  -3 -11   2   38.62    2.60
  -3 -11   2   29.11    2.44
   3  11  -2   37.44    2.81
  -3  11   2   35.41    3.11
  -3 -11   2   37.32    2.86
  -3 -11   1   15.56    1.69
  -3  11   1   13.68    2.17
  -3 -11   1   16.08    1.88
   3  11  -1   17.76    2.17
  -3 -11   1   13.75    1.81
  -3 -11   0   13.40    1.54
  -3  11   0   13.11    2.06
  -3 -11   0   13.64    1.75
   3  11   0   11.43    1.98
  -3 -11   0   10.04   10.07
  -3  11  -1    6.64    1.59
  -3 -11  -1    5.34    1.21
   3  11   1    7.39    1.69
  -3 -11  -1    5.94    1.36
  -3  11  -2   15.09    1.96
  -3 -11  -2   15.04    1.63
   3  11   2   16.05    1.99
  -3 -11  -2   15.85    1.81
  -3  11  -3    9.31    1.58
  -3 -11  -3    7.83    1.20
  -3 -11  -3   10.41    1.56
   3  11   3    9.67    1.61
  -3 -11  -3    9.62    1.41
  -3 -11  -4    2.50    1.06
   3  11   4    1.35    1.09
  -3 -11  -4    2.03    0.94
  -3 -11  -5   33.81    2.04
   3  12  -6    0.26    0.48
  -3 -12   6    0.61    0.59
   3  12  -6    0.05    0.63
  -3 -12   5   39.73    2.23
  -3 -12   5   39.98    2.33
   3  12  -5   45.66    2.52
  -3 -12   5   41.82    2.57
  -3 -12   4   50.72    2.61
  -3 -12   4   45.93    2.62
   3  12  -4   54.44    2.93
  -3 -12   4   52.26    3.04
  -3 -12   3  114.06    4.72
  -3 -12   3  129.33    5.17
   3  12  -3  123.80    4.96
  -3 -12   3  117.44    5.24
  -3 -12   2   79.01    3.67
  -3 -12   2   95.84    4.21
   3  12  -2   93.05    4.11
  -3 -12   2   82.07    4.14
  -3 -12   2  101.78    4.20
  -3 -12   1    5.87    1.18
   3  12  -1    4.90    1.17
   3  12  -1    6.71    1.46
  -3 -12   1    5.83    1.11
  -3 -12   0    3.04    0.95
   3  12   0    2.80    0.96
   3  12   0    2.64    1.24
  -3 -12  -1    3.74    0.93
   3  12   1    4.05    0.96
   3  12   1    4.93    1.27
  -3 -12  -1    4.68    1.11
  -3 -12  -2    9.40    1.04
  -3 -12  -2    9.24    1.55
   3  12   2    7.67    1.29
  -3 -12  -2   10.26    1.32
  -3 -12  -3   22.53    1.64
   3  12   3   20.12    1.63
  -3 -12  -3   20.54    1.51
   3  13  -2   29.14    1.76
  -3 -13   2   33.74    1.83
  -3 -13   1   17.86    1.34
   3  13  -1   14.58    1.21
   3  13  -1   18.59    1.39
   3  13   0    1.29    0.74
  -3 -13   0    1.65    0.69
   3  13   1    0.31    0.65
   4   0 -12    1.55    0.85
  -4   0  11    0.49    1.30
  -4   0  11    0.44    1.14
  -4   0  10   27.44    2.82
   4   0 -10   29.61    2.81
   4   0  -9   34.57    3.17
  -4   0   9   29.84    3.21
  -4   0   9   31.10    2.82
  -4   0   9   27.27    2.70
   4   0  -8  125.89    6.44
  -4   0   8  119.32    6.78
  -4   0   8  131.95    6.46
  -4   0   8  121.13    6.28
   4   0  -7  147.79    7.12
  -4   0   7  138.17    7.48
   4   0  -7  131.16    7.25
  -4   0   7  149.16    7.28
  -4   0   7  148.69    7.28
   4   0  -6   21.80    2.75
  -4   0   6   19.13    2.82
   4   0  -6   18.78    2.64
  -4   0   6   20.66    2.77
  -4   0   5   -0.33    1.60
  -4   0   5   -0.53    1.52
  -4   0   4   15.93    2.55
  -4   0   3   11.85    1.63
  -4   0   3   11.23    2.22
  -4   0   3    9.58    2.13
  -4   0   2   59.26    3.68
  -4   0   2   66.86    4.59
  -4   0   1    0.15    1.48
  -4   0   0    7.00    1.90
  -4   0   0    7.39    1.93
  -4   0  -1    3.88    1.75
  -4   0  -1    3.95    1.64
  -4   0  -2  103.49    5.51
  -4   0  -2   87.41    4.47
  -4   0  -2   93.88    5.29
  -4   0  -2   89.28    5.20
  -4   0  -3   24.83    2.76
  -4   0  -3   20.89    2.30
  -4   0  -3   26.72    2.86
  -4   0  -3   23.85    2.74
  -4   0  -3   20.56    2.37
  -4   0  -4   17.97    2.34
  -4   0  -4   15.63    2.24
  -4   0  -4   16.60    2.47
  -4   0  -4   17.70    2.40
  -4   0  -5   26.37    2.59
  -4   0  -5   27.30    2.77
  -4   0  -5   25.01    2.56
  -4   0  -5   26.76    2.76
  -4   0  -6    0.19    1.43
  -4   0  -6    1.81    1.25
  -4   0  -6    1.61    1.35
  -4   0  -7    2.67    1.39
  -4   0  -7    2.81    1.18
  -4   0  -8   -1.68    1.10
  -4   0  -8   -0.07    1.12
  -4   0  -9   17.44    1.42
  -4   0  -9   19.41    1.51
  -4  -1  12   13.17    1.52
   4   1 -12   13.11    1.53
  -4   1  12   13.65    1.55
  -4   1  12   11.63    1.31
  -4  -1  11   33.91    2.75
  -4   1  11   36.65    2.69
   4  -1 -10    0.64    1.16
   4   1 -10    2.59    1.46
  -4  -1  10    0.65    1.20
   4  -1  -9   36.04    3.13
   4   1  -9   41.36    3.46
  -4  -1   9   30.43    3.14
  -4   1   9   35.00    3.48
  -4  -1   9   37.61    3.14
  -4   1   9   35.41    3.26
   4  -1  -8   47.03    3.67
   4   1  -8   54.95    4.00
  -4  -1   8   49.18    3.99
  -4   1   8   51.61    4.31
  -4  -1   8   48.43    3.80
  -4   1   8   49.06    3.60
  -4   1   8   49.38    4.01
  -4  -1   8   44.70    3.47
   4  -1  -7   68.20    4.48
   4   1  -7   76.64    4.78
  -4  -1   7   64.99    4.80
  -4   1   7   70.14    5.10
  -4   1   7   66.23    4.13
  -4  -1   7   72.72    4.91
  -4   1   7   73.53    4.72
  -4   1   7   81.92    5.20
  -4  -1   7   71.21    4.69
  -4  -1   6   10.00    2.18
  -4   1   6   11.15    2.42
   4  -1  -6   11.76    2.13
   4   1  -6    9.39    2.06
  -4   1   6    8.59    1.92
   4  -1  -6    9.34    2.11
   4   1  -6    8.00    1.97
  -4  -1   6    9.93    2.30
  -4   1   6    7.14    2.01
  -4  -1   5   13.63    2.30
  -4   1   5   12.15    2.37
  -4  -1   5   11.08    1.60
  -4   1   5   13.11    2.14
  -4   1   5   14.48    2.38
  -4  -1   4   25.43    2.93
  -4   1   4   31.42    3.44
  -4  -1   4   27.41    2.43
  -4   1   4   23.30    2.80
  -4   1   4   25.99    2.40
  -4  -1   4   30.44    3.29
  -4  -1   3   23.84    2.33
  -4   1   3   24.99    2.82
  -4  -1   3   24.50    2.97
  -4  -1   2   25.66    2.42
  -4   1   2   23.40    2.80
  -4  -1   2   20.71    2.78
  -4   1   2   22.38    2.79
  -4  -1   1    1.84    1.34
  -4  -1   1    1.15    1.66
  -4   1   1    0.77    1.20
  -4  -1   1    0.91    1.45
  -4   1   1    2.60    1.77
  -4  -1   0   84.90    4.96
  -4   1   0   75.41    4.64
  -4  -1   0   73.17    4.78
  -4   1   0   77.43    4.94
  -4  -1  -1   26.88    2.92
  -4   1  -1   21.68    2.74
  -4  -1  -1   23.43    2.67
  -4   1  -1   23.03    2.71
  -4  -1  -2    9.08    2.00
  -4   1  -2    9.78    2.13
  -4  -1  -2   10.19    1.74
  -4  -1  -2   11.05    2.11
  -4   1  -2   10.06    2.01
  -4  -1  -2   11.66    1.96
  -4   1  -2    8.92    1.94
  -4  -1  -3  162.12    7.21
  -4   1  -3  163.29    7.40
  -4  -1  -3  153.13    6.69
  -4   1  -3  137.99    6.40
  -4   1  -3  173.91    7.57
  -4  -1  -3  160.11    7.32
  -4   1  -3  162.03    7.35
  -4  -1  -3  133.41    6.61
  -4   1  -3  151.60    7.13
  -4  -1  -4  244.33   10.12
  -4  -1  -4  256.61    9.87
  -4   1  -4  243.30    9.68
  -4  -1  -4  275.64   10.58
  -4   1  -4  261.08   10.52
  -4  -1  -4  264.42   10.42
  -4   1  -4  266.33   10.43
  -4  -1  -5   -0.20    1.42
  -4   1  -5    0.57    1.47
  -4  -1  -5    0.97    1.32
  -4   1  -5    0.12    1.36
  -4   1  -5    1.79    1.59
  -4  -1  -5    1.93    1.30
  -4  -1  -5    1.91    1.49
  -4   1  -5    0.49    1.55
  -4  -1  -6    8.41    1.87
  -4   1  -6    7.12    1.72
  -4  -1  -6    9.53    1.71
  -4   1  -6    8.34    1.74
  -4   1  -6    9.82    1.94
  -4  -1  -6    8.31    1.59
  -4   1  -6    6.43    1.70
  -4  -1  -7   29.64    2.51
  -4   1  -7   29.25    2.39
  -4   1  -7   27.09    2.42
  -4  -1  -8    7.08    1.39
  -4   1  -8    4.98    1.26
  -4  -1  -8    6.69    1.42
  -4  -1  -9    5.14    0.97
  -4  -1  -9    6.06    1.02
  -4   1  -9    5.41    0.98
  -4  -2  12    5.57    1.09
   4   2 -12    5.47    1.14
  -4   2  12    5.42    1.13
  -4  -2  11   68.83    4.00
  -4   2  11   77.99    4.20
  -4   2  11   77.18    3.93
   4   2 -11   75.28    4.10
   4   2 -10    7.86    1.81
  -4  -2  10    9.45    1.77
  -4   2  10    9.68    1.87
   4   2  -9  139.68    6.60
  -4  -2   9  115.30    6.27
  -4  -2   9  133.67    6.31
  -4   2   9  135.63    6.53
   4  -2  -9  116.33    5.78
   4  -2  -8   35.11    3.04
   4   2  -8   41.26    3.53
  -4  -2   8   35.81    3.33
  -4  -2   8   43.34    3.57
  -4   2   8   41.09    3.80
   4  -2  -7   26.16    2.80
   4   2  -7   32.52    3.13
  -4  -2   7   24.70    2.90
  -4  -2   7   31.74    3.09
  -4  -2   7   28.47    3.21
  -4   2   7   32.00    2.98
  -4   2   7   29.63    3.45
  -4  -2   7   24.31    2.78
   4  -2  -6  106.09    5.52
   4   2  -6  115.78    6.06
  -4  -2   6   94.28    5.73
  -4   2   6  108.12    6.51
  -4   2   6  102.88    5.31
  -4  -2   6  114.33    6.28
   4  -2  -6   99.06    6.10
   4   2  -6   95.62    5.84
  -4   2   6  110.44    5.98
  -4   2   6  110.17    6.35
  -4  -2   5   69.07    4.76
  -4   2   5   82.70    5.53
  -4  -2   5   67.98    4.14
  -4   2   5   83.24    4.63
   4  -2  -5   81.19    5.27
   4   2  -5   81.23    5.06
  -4  -2   5   75.02    5.19
  -4   2   5   88.63    5.20
  -4  -2   4    7.25    1.53
  -4   2   4    5.36    1.49
  -4   2   4    4.55    1.28
  -4  -2   4    6.17    1.97
  -4   2   4    4.86    1.77
  -4  -2   4    3.18    1.49
  -4  -2   3   26.52    2.54
  -4   2   3   27.90    2.88
  -4  -2   3   25.66    2.21
  -4   2   3   26.32    2.44
  -4  -2   3   34.71    3.40
   4   2  -3   27.28    2.96
  -4  -2   2   39.45    3.14
  -4   2   2   41.73    3.43
  -4  -2   2   39.64    2.95
  -4   2   2   44.34    3.27
  -4  -2   2   45.41    3.77
  -4  -2   1   47.10    3.45
  -4  -2   1   49.16    3.73
  -4   2   1   43.12    3.51
  -4  -2   1   43.24    3.17
  -4   2   1   49.20    3.53
  -4  -2   1   44.78    3.68
  -4   2   1   49.86    3.86
  -4  -2   1   41.70    2.92
  -4   2   0   27.45    2.91
  -4  -2   0   39.59    3.27
  -4  -2   0   40.65    3.47
  -4  -2   0   36.74    3.00
   4   2   0   32.61    2.77
  -4   2   0   37.82    3.24
  -4  -2   0   39.99    3.40
  -4   2   0   35.64    3.37
  -4   2  -1   19.35    2.51
  -4  -2  -1   25.74    2.69
   4   2   1   17.66    2.08
  -4  -2  -1   17.04    2.00
  -4   2  -1   27.47    2.80
  -4   2  -1   20.15    2.09
  -4   2  -1   23.90    2.70
  -4  -2  -1   19.76    2.36
  -4   2  -1   23.51    2.84
  -4  -2  -2   52.65    3.80
  -4   2  -2   62.63    4.19
  -4  -2  -2   53.71    3.40
  -4   2  -2   52.48    3.50
  -4  -2  -2   51.18    3.58
  -4   2  -2   56.83    4.10
  -4  -2  -3   17.89    2.31
  -4   2  -3   17.35    2.53
  -4  -2  -3   21.83    2.35
   4   2   3   14.68    2.03
  -4   2  -3   19.53    2.36
  -4  -2  -3   19.46    2.52
  -4   2  -3   18.10    2.45
  -4  -2  -4   17.40    2.14
  -4  -2  -4   19.20    2.34
  -4  -2  -4   17.58    2.40
  -4   2  -4   17.20    2.39
  -4   2  -4   20.63    2.43
  -4  -2  -4   18.57    2.38
  -4   2  -4   19.19    2.40
  -4   2  -4   18.37    2.62
  -4  -2  -5   17.86    2.29
  -4  -2  -5   19.38    2.30
  -4   2  -5   20.42    2.46
  -4   2  -5   22.53    2.50
  -4  -2  -5   20.25    2.34
  -4  -2  -5   18.34    2.26
  -4   2  -5   17.12    2.44
  -4  -2  -6    4.33    1.64
  -4  -2  -6    5.00    1.35
  -4   2  -6    7.02    1.76
  -4   2  -6    4.07    1.59
  -4  -2  -7    0.64    1.35
  -4   2  -7    1.50   13.59
  -4  -2  -8   16.97    1.74
  -4  -2  -8   17.91    1.75
  -4   2  -8   12.07    1.42
  -4  -2  -9    2.60    0.81
  -4  -2  -9    3.25    0.81
  -4   2  -9    3.77    1.05
  -4  -3  12   19.08    1.54
   4   3 -12   21.34    1.74
  -4   3  12   18.15    1.56
  -4  -3  11    1.70    0.96
  -4   3  11    2.20    1.44
   4   3 -10    1.48    1.37
  -4  -3  10    1.31    1.10
  -4   3  10    1.44    1.31
  -4  -3  10    0.87    1.17
  -4   3  10    0.55    1.64
   4   3  -9   17.84    2.51
  -4  -3   9   16.88    2.19
  -4  -3   9   17.17    2.06
  -4  -3   9   15.88    2.17
  -4   3   9   16.74    2.40
  -4   3   9   17.56    2.64
   4   3  -8    1.65    1.65
  -4  -3   8    1.39    1.34
  -4   3   8    0.17    1.46
  -4  -3   8    0.84    1.19
  -4   3   8    3.17    2.12
   4   3  -7   31.45    3.19
  -4  -3   7   28.18    2.97
  -4  -3   7   27.90    3.00
  -4   3   7   30.95    2.76
  -4   3   7   32.99    3.67
   4   3  -6   18.83    2.79
   4  -3  -6   15.63    2.01
  -4  -3   6   15.55    2.26
   4   3  -6   17.65    2.46
  -4  -3   6   17.05    2.01
  -4  -3   6   19.93    2.68
  -4  -3   6   17.98    2.29
   4  -3  -6   18.23    2.53
   4   3  -6   16.93    2.37
  -4   3   6   17.70    2.39
  -4   3   6   20.12    3.18
   4   3  -5    8.10    2.11
  -4  -3   5    8.25    1.78
   4  -3  -5    8.63    1.58
  -4  -3   5   10.80    1.75
  -4   3   5   11.54    1.78
   4  -3  -5    8.70    2.13
   4   3  -5    9.27    2.04
  -4  -3   5   10.38    2.25
  -4   3   5    8.32    2.00
  -4  -3   4  353.15   13.85
  -4  -3   4  378.86   13.58
  -4   3   4  385.91   13.70
  -4  -3   4  352.53   12.89
  -4  -3   4  373.59   14.54
  -4   3   4  418.19   14.59
   4   3  -4  339.31   14.30
  -4   3   3  354.83   13.83
  -4  -3   3  391.97   13.71
  -4   3   3  383.00   13.76
  -4  -3   3  381.05   13.24
  -4   3   3  350.44   13.10
  -4  -3   3  365.82   14.35
  -4   3   3  404.60   14.47
   4   3  -3  326.15   13.88
  -4   3   2  276.52   11.90
  -4  -3   2  319.02   11.84
  -4   3   2  321.73   11.97
  -4  -3   2  323.82   11.62
   4   3  -2  284.73   11.33
  -4   3   2  328.10   11.73
  -4   3   2  306.47   11.57
  -4  -3   2  299.22   12.26
  -4   3   1   87.65    5.17
  -4  -3   1   76.95    4.62
  -4   3   1   87.09    4.94
  -4  -3   1   80.10    4.51
   4   3  -1   62.92    4.16
  -4   3   1   83.64    4.65
  -4   3   1   75.37    4.52
  -4  -3   1   78.00    4.90
  -4   3   1   91.67    5.30
  -4  -3   1   72.61    4.15
  -4   3   0  111.88    6.37
  -4  -3   0  127.82    6.28
  -4  -3   0  142.89    6.64
  -4   3   0  131.58    6.39
  -4  -3   0  133.20    6.22
   4   3   0  111.54    5.84
  -4  -3   0  110.81    5.34
  -4   3   0  142.15    6.39
  -4   3   0  129.14    6.23
  -4  -3   0  119.06    6.21
  -4   3   0  123.12    6.54
  -4  -3   0  122.35    5.85
  -4   3  -1   37.37    3.59
  -4  -3  -1   46.92    3.62
  -4  -3  -1   52.64    3.71
   4   3   1   37.98    3.23
  -4  -3  -1   42.22    3.05
  -4   3  -1   51.98    3.74
  -4   3  -1   44.10    2.91
  -4   3  -1   47.96    3.62
  -4  -3  -1   51.59    3.57
  -4   3  -1   49.34    3.85
  -4  -3  -1   50.64    3.50
  -4  -3  -2   43.30    3.39
   4   3   2   39.66    3.25
  -4  -3  -2   43.10    3.14
  -4   3  -2   47.79    3.62
  -4   3  -2   36.62    2.85
  -4   3  -2   40.05    3.50
  -4  -3  -3    9.95    1.83
  -4  -3  -3   12.84    2.06
  -4   3  -3   11.92    1.90
  -4   3  -3   14.25    2.53
  -4  -3  -4   10.65    1.71
  -4  -3  -4   15.58    2.19
  -4  -3  -4   15.53    2.15
  -4   3  -4   13.69    2.05
  -4  -3  -4   13.82    2.02
  -4   3  -4   15.11    2.51
  -4  -3  -5   32.47    2.80
  -4  -3  -5   29.96    2.62
  -4   3  -5   33.06    2.81
  -4  -3  -5   27.97    2.55
  -4   3  -5   29.96    2.97
  -4  -3  -6   26.28    2.51
  -4  -3  -6   20.09    1.97
  -4   3  -6   27.35    2.49
  -4  -3  -6   17.28    1.86
  -4   3  -6   26.48    2.63
  -4  -3  -7   42.06    2.81
  -4   3  -7   39.82    2.77
  -4   3  -7   37.76    2.85
  -4  -3  -8   11.92    1.54
  -4  -3  -8   15.09    1.61
  -4   4  12   86.50    3.38
  -4  -4  11   44.69    2.69
  -4   4  11   53.13    2.96
  -4  -4  10   22.09    2.10
  -4  -4  10   25.70    2.27
  -4   4  10   24.41    2.45
  -4  -4   9   11.32    1.77
  -4  -4   9   11.03    1.77
  -4   4   9   12.20    2.32
  -4  -4   8  118.82    6.15
  -4  -4   8  134.53    6.53
  -4   4   8  140.46    6.97
  -4  -4   7    7.47    1.72
  -4  -4   7    9.05    1.91
  -4  -4   7   11.62    1.81
  -4   4   7    8.99    2.63
  -4  -4   6    2.07    1.26
  -4  -4   6    2.81    1.34
  -4  -4   6    3.38    1.44
  -4   4   6    3.55    1.47
  -4   4   6    4.81    2.42
  -4  -4   5   42.25    3.28
  -4  -4   5   40.61    3.17
  -4  -4   5   49.59    3.95
  -4  -4   5   46.74    3.69
   4  -4  -5   36.90    3.41
   4   4  -5   42.17    3.47
  -4   4   5   49.04    3.67
   4   4  -5   38.05    3.69
  -4   4   4  887.35   30.10
  -4  -4   4  887.16   29.44
  -4   4   4  923.80   29.26
  -4  -4   4  928.45   30.65
  -4  -4   4  926.90   30.32
  -4  -4   4  879.41   28.91
  -4  -4   4  909.68   30.40
  -4   4   4  987.57   30.31
   4   4  -4  796.67   30.00
  -4   4   3  153.30    7.50
  -4  -4   3  155.75    6.96
  -4   4   3  161.24    6.91
   4   4  -3  142.86    6.70
  -4  -4   3  153.60    6.65
  -4  -4   3  146.62    7.35
  -4   4   3  159.92    7.43
  -4   4   2   49.48    4.04
  -4  -4   2   48.89    3.55
  -4   4   2   54.06    3.75
  -4  -4   2   50.54    3.45
   4   4  -2   51.33    3.54
  -4   4   2   49.16    3.33
  -4   4   2   47.53    3.30
  -4  -4   2   51.47    3.93
  -4   4   2   53.49    4.04
  -4  -4   2   44.22    3.02
  -4   4   1  192.34    8.92
  -4  -4   1  203.27    8.49
  -4   4   1  205.93    8.44
  -4  -4   1  195.18    8.23
   4   4  -1  175.32    8.00
  -4   4   1  199.67    8.18
  -4   4   1  197.50    8.16
  -4  -4   1  193.38    8.53
  -4  -4   1  180.10    7.78
  -4   4   0    9.06    2.13
  -4  -4   0    7.46    1.90
  -4   4   0   10.10    2.07
  -4  -4   0    8.75    1.83
   4   4   0    8.80    1.74
  -4  -4   0    6.61    1.52
  -4   4   0    7.58    1.70
  -4   4   0    8.37    1.74
  -4  -4   0    8.42    1.75
  -4   4   0    9.46    2.15
  -4  -4   0    5.56    1.60
  -4   4  -1   47.76    4.03
  -4  -4  -1   46.25    3.56
  -4   4  -1   50.42    3.76
  -4  -4  -1   53.26    3.76
   4   4   1   46.82    3.59
  -4  -4  -1   43.05    3.15
  -4   4  -1   49.33    3.62
  -4   4  -1   44.87    3.77
  -4  -4  -1   51.49    3.61
  -4   4  -2   49.72    4.11
  -4  -4  -2   48.02    3.51
  -4  -4  -2   47.89    3.39
  -4   4  -2   56.90    3.85
  -4  -4  -2   57.87    3.77
  -4  -4  -3    4.44    1.54
  -4  -4  -3    7.74    1.84
  -4   4  -3    7.30    1.76
  -4   4  -3    7.92    1.69
  -4  -4  -4   91.80    4.68
  -4  -4  -4   82.05    4.65
  -4   4  -4   83.67    4.48
  -4  -4  -4   85.31    4.70
  -4   4  -4   91.22    5.17
  -4  -4  -5   27.98    2.59
  -4  -4  -5   25.90    2.30
  -4   4  -5   27.29    2.52
  -4  -4  -5   25.75    2.28
  -4   4  -5   33.19    3.05
  -4  -4  -6    2.59    1.50
  -4   4  -6    2.08    1.38
  -4   4  -6    4.34    1.66
  -4  -4  -7   42.67    2.70
  -4   4  -7   39.87    2.63
  -4   4  -7   35.85    2.74
  -4   4  -8   75.81    3.79
  -4  -4  -8   77.86    3.43
  -4   4  -8   74.37    3.37
  -4   5  11   12.42    1.56
  -4  -5  10   14.43    1.47
  -4  -5  10   15.04    1.71
   4   5 -10   14.20    1.80
   4   5  -9   16.39    2.09
  -4  -5   9   16.48    1.78
  -4  -5   9   17.48    1.98
   4   5  -8   18.62    2.33
  -4  -5   8   13.60    1.80
  -4  -5   8   18.09    2.24
  -4  -5   8   16.59    1.89
  -4   5   8   21.17    2.55
  -4   5   8   18.92    2.83
   4   5  -7   15.23    2.24
  -4  -5   7    9.37    1.64
  -4  -5   7   10.45    1.73
  -4   5   7   13.71    2.75
   4   5  -6   10.63    2.04
  -4  -5   6    9.93    1.69
  -4  -5   6   13.89    2.26
  -4  -5   6   13.53    2.03
  -4  -5   6   11.44    1.80
   4   5  -5  129.62    6.33
  -4  -5   5  122.28    5.86
  -4  -5   5  128.22    6.62
  -4  -5   5  125.27    6.32
  -4   5   5  118.45    5.98
  -4  -5   5  111.17    5.99
  -4   5   4   26.18    3.11
  -4  -5   4   27.10    2.65
  -4  -5   4   27.39    2.95
  -4  -5   4   25.01    2.27
  -4   5   4   22.80    2.64
  -4  -5   4   19.99    2.55
  -4   5   4   26.70    3.26
  -4   5   3  145.16    7.35
  -4  -5   3  139.16    6.58
  -4   5   3  141.13    6.33
   4   5  -3  131.09    6.50
  -4  -5   3  134.12    6.25
  -4  -5   3  125.82    6.69
  -4   5   3  155.18    7.07
  -4  -5   3  144.17    7.11
  -4   5   3  146.99    7.16
  -4   5   2   59.87    4.46
  -4  -5   2   53.56    3.77
  -4   5   2   56.33    3.68
  -4  -5   2   56.21    3.66
   4   5  -2   46.19    3.54
  -4  -5   2   52.39    3.86
  -4   5   2   58.30    4.16
  -4  -5   2   48.13    3.17
  -4   5   1   32.52    3.37
  -4   5   1   34.18    2.98
  -4  -5   1   33.03    2.87
   4   5  -1   25.75    2.65
  -4   5   1   31.11    2.62
  -4  -5   1   33.11    2.92
  -4   5   1   37.76    3.34
  -4  -5   1   28.44    2.56
  -4   5   0   15.01    2.44
  -4  -5   0   15.50    2.22
  -4  -5   0   16.10    2.20
   4   5   0   14.82    2.07
  -4  -5   0   15.42    1.89
  -4   5   0   14.16    1.96
  -4   5   0   15.53    2.30
  -4  -5   0   14.24    2.00
  -4  -5  -1   20.80    2.66
  -4   5  -1   19.21    2.66
  -4  -5  -1   21.22    2.29
  -4  -5  -1   23.49    2.56
  -4  -5  -1   19.60    2.17
  -4   5  -1   21.50    2.35
  -4   5  -1   18.45    2.50
  -4  -5  -1   20.49    2.34
  -4   5  -2   73.16    4.87
  -4  -5  -2   62.76    3.84
  -4  -5  -2   67.94    3.96
  -4   5  -2   67.29    4.21
  -4   5  -2   72.66    4.54
  -4  -5  -2   66.76    4.17
  -4   5  -3   89.80    5.51
  -4  -5  -3   86.77    4.64
  -4  -5  -3   94.35    4.99
  -4   5  -4   32.04    3.28
  -4  -5  -4   31.84    2.69
  -4  -5  -4   28.77    2.45
  -4  -5  -4   30.45    2.57
  -4  -5  -5   79.67    4.07
  -4   5  -5   71.26    3.81
  -4   5  -5   75.73    4.37
  -4   5  -6  141.15    6.56
  -4  -5  -6  142.42    5.81
  -4   5  -6  130.62    5.62
  -4   5  -6  138.38    6.17
  -4   5  -7  140.99    6.09
  -4  -5  -7  140.72    5.47
  -4   5  -7  131.04    5.70
  -4   5  -8  143.32    5.63
   4   6 -11   54.57    2.65
  -4  -6  10  205.91    7.68
   4   6  -9    5.47    1.33
  -4  -6   9    7.10    1.36
  -4   6   9    7.07    1.66
   4   6  -8   19.81    2.18
  -4  -6   8   19.79    1.95
  -4   6   8   19.53    2.29
   4   6  -7   34.05    2.87
  -4  -6   7   25.84    2.30
  -4  -6   7   29.79    2.82
  -4  -6   7   30.02    2.59
  -4   6   7   28.99    2.80
   4   6  -6  185.05    7.63
  -4  -6   6  163.88    7.09
  -4  -6   6  164.28    7.75
  -4  -6   6  180.37    7.64
  -4   6   6  165.22    7.19
  -4  -6   6  162.76    7.27
  -4  -6   5  435.16   16.00
  -4  -6   5  442.31   16.77
  -4  -6   5  447.18   16.41
  -4   6   5  470.28   16.82
  -4   6   4  174.51    8.03
  -4  -6   4  154.23    6.95
  -4  -6   4  162.08    7.56
  -4  -6   4  142.49    6.52
  -4   6   4  158.29    7.10
  -4  -6   4  147.18    7.20
  -4   6   4  166.24    7.60
  -4   6   3   92.70    5.60
  -4  -6   3   88.01    4.82
  -4  -6   3   90.07    5.16
  -4  -6   3   86.30    4.59
  -4  -6   3   77.59    4.82
  -4   6   3   88.35    5.00
  -4   6   3   91.71    5.32
  -4   6   2  117.23    6.45
  -4  -6   2  113.05    5.50
  -4  -6   2  103.51    5.52
  -4   6   2  116.85    5.92
  -4  -6   2  104.95    5.09
  -4   6   2  112.52    5.95
  -4   6   1   20.26    2.78
  -4  -6   1   17.99    2.20
  -4   6   1   17.91    2.19
  -4  -6   1   13.64    1.90
  -4  -6   1   14.35    1.94
  -4   6   1   23.17    2.81
  -4  -6   0   21.43    2.53
  -4   6   0   19.82    2.76
  -4  -6   0   22.89    2.33
  -4  -6   0   23.87    2.51
  -4  -6   0   20.23    2.11
  -4   6   0   22.57    2.50
  -4  -6   0   20.48    2.27
  -4   6   0   25.03    2.66
  -4  -6  -1    3.09    1.55
  -4   6  -1    3.73    1.65
  -4  -6  -1    3.93    1.32
  -4  -6  -1    3.04    1.41
  -4   6  -1    4.29    1.59
  -4  -6  -1    3.39    1.44
  -4   6  -2    6.04    1.89
  -4  -6  -2    7.19    1.71
  -4   6  -2    9.12    1.93
  -4  -6  -2    7.48    1.74
  -4   6  -3   73.78    4.93
  -4  -6  -3   77.91    4.21
  -4   6  -3   84.73    4.77
  -4  -6  -3   84.45    4.52
  -4   6  -4    0.72    1.43
  -4  -6  -4    1.19    1.39
  -4  -6  -4    0.99    0.96
  -4   6  -5   48.41    3.61
  -4  -6  -5   48.42    3.03
  -4   6  -6   61.09    3.75
  -4  -6  -6   55.94    3.11
  -4   6  -6   58.66    3.47
  -4   6  -7  193.17    7.44
   4   7 -10   18.32    1.61
  -4  -7   9   38.99    2.57
  -4   7   9   40.47    2.54
  -4  -7   8    8.13    1.46
  -4  -7   8    8.04    1.28
  -4   7   8    8.20    1.61
   4   7  -7   21.89    2.16
  -4  -7   7   18.25    1.94
  -4  -7   7   25.42    2.44
  -4  -7   7   24.75    2.20
  -4   7   7   26.04    2.39
   4   7  -6  150.51    6.23
  -4  -7   6  140.95    6.03
  -4  -7   6  132.84    6.43
   4   7  -6  121.21    5.59
  -4  -7   6  136.19    6.12
  -4   7   6  144.16    6.63
  -4  -7   5  187.27    7.68
  -4  -7   5  175.09    8.05
  -4  -7   5  171.86    7.78
  -4   7   5  183.78    8.10
   4   7  -4  378.67   12.88
  -4   7   4  366.72   13.84
  -4  -7   4  331.85   13.11
  -4  -7   4  353.98   13.18
  -4  -7   4  333.66   12.36
  -4  -7   4  332.42   12.85
  -4  -7   4  352.95   13.14
  -4   7   4  349.72   13.10
  -4  -7   3  121.89    5.74
  -4  -7   3  118.09    5.93
  -4   7   3  131.96    6.33
  -4   7   2   12.54    2.44
  -4  -7   2   11.29    1.90
  -4  -7   2   11.32    1.76
  -4  -7   2   11.04    1.67
  -4  -7   2   10.33    1.91
  -4   7   2   11.48    2.09
  -4  -7   1    0.92    1.32
  -4   7   1    3.98    1.84
  -4  -7   1    1.43    1.42
  -4  -7   1    1.11    1.26
   4   7  -1    0.38    1.13
  -4  -7   1    0.66    1.06
  -4   7   0   42.42    3.70
  -4  -7   0   40.67    3.22
  -4  -7   0   39.83    2.81
  -4  -7   0   40.09    3.08
   4   7   0   37.88    2.78
  -4  -7   0   43.10    2.95
  -4   7  -1   79.12    5.11
  -4  -7  -1   92.92    4.80
  -4  -7  -1   82.39    4.18
  -4   7  -1   80.77    4.57
  -4  -7  -1   86.15    4.46
  -4   7  -2  119.26    6.09
  -4  -7  -2  117.35    5.51
  -4  -7  -2   97.70    4.85
  -4   7  -2  109.29    5.44
  -4  -7  -2  107.76    5.19
  -4   7  -3   42.22    3.46
  -4  -7  -3   37.00    2.72
  -4   7  -3   38.77    3.06
  -4  -7  -4   14.35    1.82
  -4   7  -4   14.96    2.03
  -4   7  -5   36.94    2.94
  -4  -7  -5   37.50    2.46
  -4   7  -5   37.21    2.77
  -4   7  -6   49.74    3.02
  -4  -7  -6   45.62    2.55
  -4   7  -7   38.98    2.25
  -4  -8   9    2.53    0.83
  -4  -8   8   19.63    1.64
   4   8  -8   18.96    1.89
  -4  -8   8   21.05    1.91
  -4  -8   8   19.22    1.70
  -4  -8   8   23.58    1.99
  -4  -8   7   73.24    3.56
   4   8  -7   63.28    3.82
  -4  -8   7   74.53    3.95
  -4  -8   7   67.29    3.66
  -4  -8   6   49.81    3.00
   4   8  -6   47.89    3.27
  -4  -8   6   51.15    3.31
   4   8  -6   41.93    2.68
  -4  -8   6   49.61    3.07
   4   8  -5   69.83    4.14
  -4  -8   5   74.57    4.24
  -4  -8   5   80.18    4.28
   4   8  -5   73.71    3.87
  -4  -8   5   72.64    4.06
  -4  -8   5   74.82    4.12
  -4  -8   4   19.20    2.14
  -4  -8   4   15.77    1.74
  -4  -8   4   15.88    1.90
  -4   8   4   17.83    2.29
  -4   8   3    4.45    1.66
  -4  -8   3    6.69    1.55
  -4  -8   3    5.13    1.29
  -4  -8   3    3.97    1.19
  -4  -8   3    3.26    1.34
  -4   8   2   20.11    2.67
  -4  -8   2   25.87    2.39
  -4  -8   2   22.68    2.18
   4   8  -2   18.54    1.84
  -4   8   1   12.35    2.17
  -4  -8   1   12.99    1.85
  -4  -8   1    8.37    1.57
   4   8  -1   10.67    1.58
  -4  -8   1   10.40    1.54
  -4   8   0   61.13    4.11
  -4  -8   0   58.94    3.56
   4   8   0   49.92    3.10
  -4  -8   0   54.98    3.28
  -4   8  -1    3.54    1.61
  -4  -8  -1    4.66    1.34
   4   8   1    4.84    1.37
  -4  -8  -1    3.09    1.25
  -4   8  -2   38.83    3.24
  -4  -8  -2   34.22    2.66
  -4  -8  -2   31.19    2.35
  -4  -8  -2   30.55    2.46
  -4   8  -3   14.37    2.09
  -4  -8  -3   16.60    1.77
  -4  -8  -3   14.52    1.46
  -4   8  -4   16.35    2.03
  -4  -8  -4   17.49    1.69
  -4   8  -4   15.65    1.82
  -4  -8  -5   -0.70    1.08
   4   9  -8    8.91    1.09
  -4  -9   7    6.36    1.03
   4   9  -7    3.95    0.95
  -4  -9   7    4.59    1.00
   4   9  -6   47.03    2.55
  -4  -9   6   51.23    2.90
   4   9  -5   11.44    1.44
  -4  -9   5   11.65    1.45
  -4  -9   5   11.72    1.52
  -4  -9   4   12.08    1.62
  -4  -9   4   12.26    1.47
   4   9  -4   10.53    1.54
  -4   9   3   43.11    3.34
  -4  -9   3   47.49    2.97
  -4  -9   3   46.53    2.86
  -4   9   2    4.03    1.54
  -4  -9   2    4.81    1.27
  -4  -9   2    3.24    1.09
   4   9  -2    1.96    1.01
  -4   9   1   25.98    2.68
  -4  -9   1   26.68    2.25
   4   9  -1   26.06    2.02
  -4  -9   1   29.37    2.14
  -4   9   0    2.13    1.37
  -4  -9   0    1.88    1.11
   4   9   0    1.46    1.12
  -4  -9   0    1.63    1.07
  -4   9  -1    6.23    1.57
  -4  -9  -1    6.24    1.32
   4   9   1    6.44    1.38
  -4  -9  -1    6.83    1.28
  -4   9  -2  152.45    6.59
  -4  -9  -2  142.47    5.65
   4   9   2  153.07    5.84
  -4  -9  -2  146.24    5.88
  -4  -9  -3   41.93    2.44
   4   9   3   46.06    2.58
  -4  -9  -4    1.19    0.83
   4   9   4    1.64    0.86
  -4   9  -5    1.67    0.68
  -4 -10   6   18.85    1.47
  -4 -10   5    9.60    1.23
   4  10  -5    9.10    1.10
  -4 -10   4    2.88    0.99
  -4 -10   4    4.93    1.00
   4  10  -4    2.81    0.94
  -4 -10   3   14.98    1.53
  -4 -10   3   12.73    1.42
   4  10  -3   13.11    1.53
  -4 -10   2    4.77    1.08
  -4 -10   2    4.52    1.04
   4  10  -2    4.30    0.92
  -4  10   1   38.77    2.84
  -4 -10   1   39.76    2.42
   4  10  -1   40.00    2.21
  -4 -10   0   14.73    1.50
   4  10   0   12.65    1.38
  -4 -10   0   13.65    1.39
  -4 -10  -1   29.05    2.03
   4  10   1   30.21    1.92
  -4 -10  -1   27.47    1.91
   4  10   2    2.63    0.90
  -4  10  -3   21.95    1.71
   4  11  -4    0.54    0.49
  -4 -11   3    0.43    0.57
   4  11  -3    0.23    0.57
   4  11  -2    1.34    0.67
  -4 -11   1    7.62    1.13
   4  11  -1    7.97    1.00
   4  11   1    7.04    0.82
  -5   0  10   24.36    1.57
   5   0  -9    8.77    1.16
   5   0  -8    0.46    0.95
  -5   0   8    0.38    0.89
  -5   0   8    0.64    1.11
   5   0  -7    1.53    1.15
  -5   0   7    1.94    1.18
  -5   0   7    2.03    1.48
   5   0  -6   49.61    3.25
  -5   0   6   48.27    3.17
  -5   0   6   49.88    3.45
  -5   0   6   44.57    3.43
   5   0  -5    9.43    1.72
  -5   0   5   13.75    1.97
  -5   0   4   14.09    1.92
  -5   0   4    9.21    2.05
  -5   0   3   32.50    2.93
  -5   0   3   24.38    2.82
  -5   0   2    2.23    1.33
  -5   0   2    2.32    1.63
  -5   0   1    8.21    1.79
  -5   0   1    8.03    1.72
  -5   0   1    7.80    1.84
  -5   0   0   30.33    2.71
  -5   0   0   26.73    2.70
  -5   0   0   32.20    2.63
  -5   0   0   23.94    2.53
  -5   0  -1   47.87    3.30
  -5   0  -1   42.94    3.08
  -5   0  -2    0.10    1.21
  -5   0  -3    3.05    1.24
  -5   0  -3    5.20    1.47
  -5   0  -4    6.11    1.28
  -5   0  -4    6.62    1.31
  -5   1  10    5.60    0.98
   5   1  -9    6.14    1.13
   5  -1  -8    3.71    0.99
   5   1  -8    2.22    1.07
  -5  -1   8    4.97    1.14
  -5   1   8    2.20    1.21
   5  -1  -7  108.27    4.96
   5   1  -7  125.71    5.41
  -5  -1   7  119.39    5.43
  -5   1   7  115.09    5.27
  -5   1   7  118.64    5.47
  -5  -1   7  100.43    4.90
   5  -1  -6   35.50    2.61
   5   1  -6   35.79    2.80
  -5  -1   6   31.49    2.61
  -5   1   6   38.36    2.97
  -5   1   6   34.37    3.10
  -5  -1   6   28.80    2.71
   5  -1  -5   53.43    3.33
   5   1  -5   56.65    3.63
  -5  -1   5   51.45    3.53
  -5   1   5   46.79    3.23
  -5  -1   5   53.52    3.73
  -5   1   5   54.22    3.92
  -5  -1   4   11.54    1.96
  -5   1   4    9.99    1.86
  -5  -1   4    9.45    1.91
  -5   1   3   44.03    3.29
  -5  -1   3   37.71    2.92
  -5  -1   3   37.48    3.25
  -5   1   3   43.85    3.52
  -5  -1   2   73.74    4.41
  -5   1   2   72.61    4.32
  -5   1   2   67.56    4.03
  -5  -1   2   67.19    4.07
  -5   1   2   68.77    3.96
  -5  -1   2   68.25    4.31
  -5   1   2   74.76    4.55
  -5  -1   1   70.99    4.22
  -5   1   1   72.58    4.18
  -5  -1   1   76.39    4.32
  -5   1   1   69.05    4.05
  -5  -1   1   65.39    4.15
  -5   1   1   66.65    4.31
  -5  -1   0   18.43    2.05
  -5   1   0   12.63    2.13
  -5   1   0   15.63    2.11
  -5   1   0   10.60    1.92
  -5  -1   0   14.68    1.95
  -5   1   0   15.15    2.05
  -5  -1  -1    2.62    1.41
  -5   1  -1    1.90    1.36
  -5   1  -1    4.69    1.48
  -5   1  -1    1.14    1.25
  -5  -1  -1    3.60    1.25
  -5   1  -1    2.95    1.34
  -5  -1  -2    0.36    1.20
  -5  -1  -2    1.60    1.27
  -5  -1  -2    0.39    1.21
  -5   1  -2    0.31    1.37
  -5  -1  -3    8.55    1.51
  -5   1  -3    8.04    1.60
  -5  -1  -3    5.75    1.35
  -5  -1  -3    7.62    1.55
  -5   1  -3    8.96    1.67
  -5  -1  -4   54.23    2.97
  -5  -1  -4   50.23    2.83
  -5   1  -4   48.60    2.96
  -5   1  -5    7.16    1.18
  -5   2  10    2.05    0.74
  -5   2   9   18.61    1.73
   5   2  -9   22.01    1.79
   5   2  -8   38.38    2.63
  -5  -2   8   38.37    2.56
  -5   2   8   36.00    2.66
   5   2  -7   42.35    2.93
  -5  -2   7   40.80    2.73
  -5   2   7   40.46    3.11
   5  -2  -6    2.47    0.97
   5   2  -6    5.13    1.46
  -5  -2   6    0.94    1.11
  -5  -2   6    2.30    1.33
  -5   2   6    2.70    1.36
  -5   2   6    3.20    1.75
  -5  -2   6    2.20    1.29
   5  -2  -5   21.10    1.97
   5   2  -5   29.54    2.52
  -5  -2   5   21.37    2.32
  -5  -2   5   20.05    2.42
  -5   2   5   21.83    2.46
  -5   2   5   20.92    2.70
   5  -2  -4    9.19    1.48
  -5   2   4   10.86    1.77
  -5  -2   4    8.20    1.74
  -5  -2   3   64.72    4.16
  -5   2   3   74.23    4.16
  -5  -2   3   70.12    3.90
  -5  -2   3   64.04    4.13
  -5  -2   2  271.45   10.59
  -5   2   2  289.65   10.61
  -5  -2   2  282.20   10.52
  -5  -2   2  245.91   10.40
  -5   2   2  280.01   10.87
  -5  -2   1  345.65   12.98
  -5   2   1  375.60   13.16
  -5   2   1  377.93   12.92
  -5  -2   1  378.22   13.15
  -5   2   1  335.84   12.61
  -5  -2   1  330.51   12.80
  -5   2   1  358.90   13.26
  -5  -2   0   31.31    2.70
  -5   2   0   33.27    2.70
  -5   2   0   27.94    2.47
  -5  -2   0   25.00    2.37
  -5   2   0   29.33    2.69
  -5  -2  -1    0.09    1.25
  -5  -2  -1   -0.32    1.26
  -5   2  -1   -0.10    1.12
  -5  -2  -1    0.72    1.26
  -5  -2  -1    0.37    0.86
  -5  -2  -2   40.00    2.75
  -5  -2  -2   40.83    2.92
  -5   2  -2   39.52    2.88
  -5  -2  -2   41.28    2.92
  -5   2  -2   44.01    3.15
  -5  -2  -3   -0.16    1.01
  -5  -2  -3    1.02    0.95
  -5  -2  -3    1.03    1.09
  -5   2  -3    0.96    1.22
  -5  -2  -4    8.37    1.23
  -5  -2  -4    6.50    1.06
  -5   2  -4    8.52    1.48
  -5   2  -5   -0.05    0.85
   5   3  -9    9.13    1.20
  -5  -3   9   10.20    1.13
   5   3  -8    6.57    1.27
  -5   3   8    7.10    1.47
   5   3  -7   77.25    3.86
  -5   3   7   73.38    4.05
   5   3  -6   38.04    2.78
  -5  -3   6   35.04    2.68
  -5  -3   6   34.69    2.77
  -5   3   6   34.07    2.57
  -5   3   6   33.37    3.03
   5   3  -5   15.07    1.99
  -5  -3   5   16.31    2.03
  -5   3   5   16.67    2.06
  -5   3   5   12.92    2.33
  -5  -3   4   28.08    2.62
  -5  -3   4   24.77    2.50
  -5   3   4   32.49    2.84
  -5  -3   3  110.94    5.40
  -5   3   3  113.51    5.25
  -5  -3   3  100.97    5.27
  -5  -3   2  114.60    5.52
  -5   3   2  118.84    5.53
  -5  -3   2  106.24    5.36
  -5   3   2  118.58    5.81
  -5  -3   1   96.14    4.92
  -5   3   1  106.94    5.07
  -5   3   1  107.17    5.30
  -5  -3   0   15.71    1.93
  -5   3   0   15.78    1.88
  -5  -3   0   13.06    1.58
  -5   3   0   13.51    2.01
  -5  -3  -1    9.83    1.68
  -5   3  -1    9.56    1.58
  -5  -3  -1   10.81    1.74
  -5   3  -1   10.15    1.86
  -5  -3  -2    8.15    1.38
  -5  -3  -2   12.09    1.68
  -5   3  -2   11.42    1.58
  -5  -3  -2   12.02    1.64
  -5  -3  -3    4.61    1.13
  -5  -3  -3    3.89    1.07
  -5  -3  -3    4.37    1.06
  -5   3  -3    4.54    1.43
  -5  -3  -4   13.78    1.33
  -5   3  -4   15.45    1.75
  -5   3  -5    6.64    1.03
  -5   4   9   24.75    1.58
  -5  -4   8   66.22    3.11
  -5   4   8   64.86    3.12
  -5  -4   7   14.04    1.53
  -5  -4   7   13.17    1.60
  -5   4   7   14.92    1.68
  -5   4   7   15.65    1.96
  -5  -4   6   10.38    1.59
  -5   4   6   10.61    1.93
  -5  -4   5    6.75    1.47
  -5  -4   5    6.34    1.47
  -5   4   5    6.08    1.44
  -5  -4   4   16.90    2.00
  -5  -4   4   15.95    1.93
  -5   4   4   17.24    2.00
  -5  -4   3   43.79    3.05
  -5  -4   3   41.75    2.99
  -5   4   3   49.32    3.32
  -5   4   3   45.81    3.47
  -5  -4   2   15.12    1.89
  -5  -4   2   17.35    1.90
  -5  -4   1   22.73    2.16
  -5   4   1   25.59    2.33
  -5  -4   0  182.72    7.50
  -5  -4   0  196.09    7.78
  -5   4   0  210.08    7.92
  -5   4  -1   17.42    1.70
  -5  -4  -1   18.65    1.81
  -5  -4  -1   20.98    2.05
  -5  -4  -2   16.00    1.70
  -5  -4  -2   17.76    1.74
  -5   4  -2   14.65    1.87
  -5   4  -3   13.68    1.30
  -5  -4  -3   17.00    1.57
  -5  -4  -3   15.90    1.50
  -5   4  -4    3.01    1.03
   5   5  -8   36.06    2.09
  -5  -5   8   34.14    1.94
  -5  -5   8   34.50    2.11
   5   5  -7    4.24    1.02
  -5  -5   7    4.52    1.06
  -5  -5   6   26.12    2.08
  -5  -5   6   26.52    2.13
   5   5  -5    9.95    1.47
  -5  -5   5    7.60    1.39
  -5  -5   5    8.07    1.36
  -5   5   5    7.51    1.71
  -5  -5   4   14.34    1.76
  -5  -5   4   12.62    1.61
  -5   5   4   16.34    2.14
   5   5  -3   33.01    2.55
  -5  -5   3   30.18    2.42
  -5  -5   3   30.66    2.31
  -5   5   3   34.35    2.80
  -5  -5   2   66.88    3.56
  -5  -5   2   58.61    3.23
  -5   5   2   71.66    3.90
  -5   5   1   25.02    2.04
  -5  -5   1   30.63    2.23
  -5   5   0   19.61    1.79
  -5  -5   0   19.68    1.74
  -5  -5  -1   37.46    2.46
  -5   5  -1   41.69    2.67
  -5  -5  -2   83.68    3.69
  -5  -5  -2   83.89    3.70
  -5   5  -2   91.61    4.06
  -5   5  -3    2.23    0.73
  -5  -5  -3    1.64    0.70
  -5   5  -3    1.13    0.97
   5   6  -7   21.22    1.49
  -5  -6   7   17.50    1.56
  -5  -6   7   18.29    1.43
   5   6  -6   21.89    1.72
  -5  -6   6   17.21    1.57
  -5  -6   6   18.11    1.56
   5   6  -5    3.25    0.98
  -5  -6   5    3.99    1.05
  -5  -6   5    3.06    0.90
  -5   6   5    2.08    1.24
  -5  -6   4   25.78    2.02
  -5  -6   4   25.69    1.90
  -5   6   4   25.85    2.20
   5   6  -3   19.20    1.80
  -5  -6   3   17.32    1.69
  -5  -6   3   15.98    1.42
   5   6  -2   81.25    3.66
  -5  -6   2   59.29    3.23
  -5   6   1   58.84    3.18
  -5  -6   1   65.54    3.07
  -5   6   0    1.85    0.90
  -5  -6   0    1.94    0.92
  -5   6  -1    4.21    0.97
  -5  -6  -1    4.65    0.98
  -5  -6  -1    3.24    0.93
  -5   6  -2    6.82    1.03
  -5  -6  -2    9.91    1.08
  -5  -7   5   50.56    2.52
  -5  -7   4   49.59    2.51
  -5  -7   3   71.86    3.17
  -5   7   0   13.47    1.31
  -5  -7   0   14.32    1.31
  -5   7  -1    1.49    0.82
   0   0   0    0.00    0.00


TITL HJXC_A_4_4_auto in P2(1)/m
REM P2(1)/m (#11 in standard setting)
CELL 1.54184   4.705052  12.222067  12.195056  90.0000  99.4856  90.0000
ZERR    2.00   0.000113   0.000299   0.000281   0.0000   0.0022   0.0000
LATT  1
SYMM -x, y+1/2,-z
SFAC C H O
UNIT 32.00 36.00 8.00
REM  CrysAlisPro recorded range (K): Min=100.0; max=100.1; aver:100.0
TEMP -173
TREF
HKLF 4
END
_computing_structure_solution     'SHELXT 2014/5 (Sheldrick, 2014)'
;
_shelx_hkl_checksum              1096
_olex2_submission_special_instructions 'No special instructions were received'
_oxdiff_exptl_absorpt_empirical_details
;
Empirical correction (ABSPACK) includes:
- Absorption correction using spherical harmonics
- Frame scaling
;
_oxdiff_exptl_absorpt_empirical_full_max 1.406
_oxdiff_exptl_absorpt_empirical_full_min 0.718
loop_
_space_group_symop_operation_xyz
'x, y, z'
'-x, y+1/2, -z'
loop_
_atom_site_label
_atom_site_type_symbol
_atom_site_fract_x
_atom_site_fract_y
_atom_site_fract_z
_atom_site_U_iso_or_equiv
_atom_site_adp_type
_atom_site_occupancy
_atom_site_site_symmetry_order
_atom_site_calc_flag
_atom_site_refinement_flags_posn
_atom_site_refinement_flags_adp
_atom_site_refinement_flags_occupancy
_atom_site_disorder_assembly
_atom_site_disorder_group
O1 O -0.1411(3) 0.28109(13) 0.39764(13) 0.0245(4) Uani 1 1 d . . . . .
O2 O 0.0945(4) 0.20758(13) 0.24280(14) 0.0269(4) Uani 1 1 d . . . . .
H2 H -0.006124 0.206635 0.293638 0.040 Uiso 1 1 calc R U . . .
O3 O 0.5001(3) 0.75858(13) 0.44870(13) 0.0236(4) Uani 1 1 d . . . . .
H3 H 0.368726 0.749061 0.486782 0.035 Uiso 1 1 calc R U . . .
O4 O 0.2087(4) 0.57262(14) 0.47783(13) 0.0254(4) Uani 1 1 d . . . . .
C1 C 0.1884(5) 0.38904(18) 0.31640(18) 0.0206(5) Uani 1 1 d . . . . .
C2 C 0.2239(5) 0.30567(17) 0.24132(19) 0.0221(5) Uani 1 1 d . . . . .
C3 C 0.3881(5) 0.32110(19) 0.15579(19) 0.0220(5) Uani 1 1 d . . . . .
H3A H 0.407674 0.262437 0.106464 0.026 Uiso 1 1 calc R U . . .
C4 C 0.5199(5) 0.41869(18) 0.14235(19) 0.0212(5) Uani 1 1 d . . . . .
C5 C 0.6643(5) 0.60354(19) 0.21631(18) 0.0212(5) Uani 1 1 d . . . . .
H5 H 0.775641 0.611373 0.158485 0.025 Uiso 1 1 calc R U . . .
C6 C 0.6635(5) 0.68792(18) 0.29007(19) 0.0214(5) Uani 1 1 d . . . . .
C7 C 0.5002(5) 0.67434(18) 0.37645(18) 0.0209(5) Uani 1 1 d . . . . .
C8 C 0.3527(5) 0.57792(18) 0.38753(18) 0.0207(5) Uani 1 1 d . . . . .
C9 C 0.3449(5) 0.49098(18) 0.31026(18) 0.0202(5) Uani 1 1 d . . . . .
C10 C 0.5078(5) 0.50498(18) 0.22165(18) 0.0204(5) Uani 1 1 d . . . . .
C11 C 0.6710(5) 0.43715(19) 0.04246(19) 0.0242(5) Uani 1 1 d . . . . .
H11 H 0.861061 0.472655 0.069614 0.029 Uiso 1 1 calc R U . . .
C12 C 0.4918(6) 0.5159(2) -0.0407(2) 0.0315(6) Uani 1 1 d . . . . .
H12A H 0.306264 0.481904 -0.070173 0.047 Uiso 1 1 calc R U . . .
H12B H 0.596725 0.531495 -0.102038 0.047 Uiso 1 1 calc R U . . .
H12C H 0.458755 0.584280 -0.002804 0.047 Uiso 1 1 calc R U . . .
C13 C 0.7274(5) 0.3317(2) -0.0183(2) 0.0284(5) Uani 1 1 d . . . . .
H13A H 0.834747 0.280196 0.034675 0.043 Uiso 1 1 calc R U . . .
H13B H 0.840206 0.348547 -0.076888 0.043 Uiso 1 1 calc R U . . .
H13C H 0.543255 0.298771 -0.051463 0.043 Uiso 1 1 calc R U . . .
C14 C -0.0127(5) 0.3703(2) 0.39248(19) 0.0229(5) Uani 1 1 d . . . . .
H14 H -0.048840 0.428120 0.440455 0.027 Uiso 1 1 calc R U . . .
C15 C 0.8289(5) 0.7916(2) 0.2827(2) 0.0246(5) Uani 1 1 d . . . . .
H15A H 0.694375 0.851462 0.258522 0.037 Uiso 1 1 calc R U . . .
H15B H 0.960433 0.782310 0.228888 0.037 Uiso 1 1 calc R U . . .
H15C H 0.940045 0.809024 0.355825 0.037 Uiso 1 1 calc R U . . .
C16 C 0.3951(6) 0.5395(2) 0.5780(2) 0.0333(6) Uani 1 1 d . . . . .
H16A H 0.459294 0.464051 0.569816 0.050 Uiso 1 1 calc R U . . .
H16B H 0.289891 0.543695 0.640860 0.050 Uiso 1 1 calc R U . . .
H16C H 0.562931 0.588024 0.591502 0.050 Uiso 1 1 calc R U . . .
loop_
_atom_site_aniso_label
_atom_site_aniso_U_11
_atom_site_aniso_U_22
_atom_site_aniso_U_33
_atom_site_aniso_U_23
_atom_site_aniso_U_13
_atom_site_aniso_U_12
O1 0.0248(7) 0.0205(8) 0.0292(8) 0.0028(7) 0.0078(6) -0.0028(6)
O2 0.0319(9) 0.0159(8) 0.0355(9) -0.0010(7) 0.0131(7) -0.0040(6)
O3 0.0275(8) 0.0173(8) 0.0278(8) -0.0043(6) 0.0098(6) -0.0026(6)
O4 0.0296(9) 0.0224(9) 0.0271(8) -0.0025(6) 0.0133(6) -0.0014(6)
C1 0.0197(10) 0.0182(12) 0.0242(11) 0.0026(8) 0.0044(8) 0.0014(8)
C2 0.0212(10) 0.0170(12) 0.0282(11) 0.0012(9) 0.0044(8) 0.0010(8)
C3 0.0222(10) 0.0182(11) 0.0264(11) -0.0025(9) 0.0060(8) 0.0013(8)
C4 0.0203(10) 0.0198(12) 0.0235(11) 0.0003(8) 0.0038(8) 0.0029(8)
C5 0.0219(11) 0.0196(12) 0.0229(10) 0.0012(9) 0.0063(8) 0.0003(8)
C6 0.0206(10) 0.0173(11) 0.0264(10) 0.0010(9) 0.0037(8) -0.0005(8)
C7 0.0213(10) 0.0171(11) 0.0239(11) -0.0020(8) 0.0031(8) 0.0023(8)
C8 0.0206(10) 0.0181(11) 0.0242(10) 0.0016(9) 0.0057(8) 0.0014(8)
C9 0.0192(10) 0.0173(11) 0.0241(10) 0.0015(9) 0.0035(8) 0.0027(8)
C10 0.0187(10) 0.0172(12) 0.0251(11) 0.0015(9) 0.0029(8) 0.0017(8)
C11 0.0282(11) 0.0210(12) 0.0253(11) -0.0035(9) 0.0099(9) -0.0023(9)
C12 0.0435(14) 0.0249(13) 0.0276(12) 0.0011(9) 0.0101(10) -0.0030(10)
C13 0.0313(12) 0.0261(12) 0.0301(12) -0.0067(10) 0.0120(9) -0.0023(9)
C14 0.0226(10) 0.0202(12) 0.0258(11) 0.0016(8) 0.0040(8) 0.0016(9)
C15 0.0277(11) 0.0210(12) 0.0262(11) -0.0018(9) 0.0076(8) -0.0049(9)
C16 0.0527(16) 0.0219(13) 0.0274(12) 0.0015(9) 0.0125(11) 0.0022(10)
loop_
_atom_type_symbol
_atom_type_description
_atom_type_scat_dispersion_real
_atom_type_scat_dispersion_imag
_atom_type_scat_source
C C 0.0181 0.0091 'International Tables Vol C Tables 4.2.6.8 and 6.1.1.4'
H H 0.0000 0.0000 'International Tables Vol C Tables 4.2.6.8 and 6.1.1.4'
O O 0.0492 0.0322 'International Tables Vol C Tables 4.2.6.8 and 6.1.1.4'
loop_
_geom_angle_atom_site_label_1
_geom_angle_atom_site_label_2
_geom_angle_atom_site_label_3
_geom_angle
_geom_angle_site_symmetry_1
_geom_angle_site_symmetry_3
_geom_angle_publ_flag
C2 O2 H2 109.5 . . ?
C7 O3 H3 109.5 . . ?
C8 O4 C16 112.21(18) . . ?
C2 C1 C9 118.30(19) . . ?
C2 C1 C14 117.8(2) . . ?
C14 C1 C9 123.9(2) . . ?
O2 C2 C1 122.50(19) . . ?
O2 C2 C3 115.68(19) . . ?
C1 C2 C3 121.8(2) . . ?
C2 C3 H3A 119.3 . . ?
C4 C3 C2 121.4(2) . . ?
C4 C3 H3A 119.3 . . ?
C3 C4 C10 119.35(19) . . ?
C3 C4 C11 120.4(2) . . ?
C10 C4 C11 120.3(2) . . ?
C6 C5 H5 118.3 . . ?
C6 C5 C10 123.49(18) . . ?
C10 C5 H5 118.3 . . ?
C5 C6 C7 117.5(2) . . ?
C5 C6 C15 122.7(2) . . ?
C7 C6 C15 119.75(19) . . ?
O3 C7 C6 117.0(2) . . ?
O3 C7 C8 121.94(19) . . ?
C8 C7 C6 121.03(19) . . ?
O4 C8 C9 122.06(19) . . ?
C7 C8 O4 115.81(19) . . ?
C7 C8 C9 122.12(19) . . ?
C8 C9 C1 124.45(18) . . ?
C8 C9 C10 116.95(19) . . ?
C10 C9 C1 118.59(18) . . ?
C5 C10 C4 120.87(19) . . ?
C5 C10 C9 118.79(19) . . ?
C9 C10 C4 120.3(2) . . ?
C4 C11 H11 108.0 . . ?
C4 C11 C12 109.95(19) . . ?
C4 C11 C13 113.7(2) . . ?
C12 C11 H11 108.0 . . ?
C13 C11 H11 108.0 . . ?
C13 C11 C12 109.0(2) . . ?
C11 C12 H12A 109.5 . . ?
C11 C12 H12B 109.5 . . ?
C11 C12 H12C 109.5 . . ?
H12A C12 H12B 109.5 . . ?
H12A C12 H12C 109.5 . . ?
H12B C12 H12C 109.5 . . ?
C11 C13 H13A 109.5 . . ?
C11 C13 H13B 109.5 . . ?
C11 C13 H13C 109.5 . . ?
H13A C13 H13B 109.5 . . ?
H13A C13 H13C 109.5 . . ?
H13B C13 H13C 109.5 . . ?
O1 C14 C1 122.7(2) . . ?
O1 C14 H14 118.6 . . ?
C1 C14 H14 118.6 . . ?
C6 C15 H15A 109.5 . . ?
C6 C15 H15B 109.5 . . ?
C6 C15 H15C 109.5 . . ?
H15A C15 H15B 109.5 . . ?
H15A C15 H15C 109.5 . . ?
H15B C15 H15C 109.5 . . ?
O4 C16 H16A 109.5 . . ?
O4 C16 H16B 109.5 . . ?
O4 C16 H16C 109.5 . . ?
H16A C16 H16B 109.5 . . ?
H16A C16 H16C 109.5 . . ?
H16B C16 H16C 109.5 . . ?
loop_
_geom_bond_atom_site_label_1
_geom_bond_atom_site_label_2
_geom_bond_distance
_geom_bond_site_symmetry_2
_geom_bond_publ_flag
O1 C14 1.254(3) . ?
O2 H2 0.8400 . ?
O2 C2 1.346(3) . ?
O3 H3 0.8400 . ?
O3 C7 1.355(3) . ?
O4 C8 1.386(3) . ?
O4 C16 1.440(3) . ?
C1 C2 1.398(3) . ?
C1 C9 1.455(3) . ?
C1 C14 1.448(3) . ?
C2 C3 1.410(3) . ?
C3 H3A 0.9500 . ?
C3 C4 1.367(3) . ?
C4 C10 1.438(3) . ?
C4 C11 1.525(3) . ?
C5 H5 0.9500 . ?
C5 C6 1.369(3) . ?
C5 C10 1.419(3) . ?
C6 C7 1.412(3) . ?
C6 C15 1.498(3) . ?
C7 C8 1.385(3) . ?
C8 C9 1.417(3) . ?
C9 C10 1.434(3) . ?
C11 H11 1.0000 . ?
C11 C12 1.544(4) . ?
C11 C13 1.532(3) . ?
C12 H12A 0.9800 . ?
C12 H12B 0.9800 . ?
C12 H12C 0.9800 . ?
C13 H13A 0.9800 . ?
C13 H13B 0.9800 . ?
C13 H13C 0.9800 . ?
C14 H14 0.9500 . ?
C15 H15A 0.9800 . ?
C15 H15B 0.9800 . ?
C15 H15C 0.9800 . ?
C16 H16A 0.9800 . ?
C16 H16B 0.9800 . ?
C16 H16C 0.9800 . ?
loop_
_geom_hbond_atom_site_label_D
_geom_hbond_atom_site_label_H
_geom_hbond_atom_site_label_A
_geom_hbond_distance_DH
_geom_hbond_distance_HA
_geom_hbond_distance_DA
_geom_hbond_angle_DHA
_geom_hbond_site_symmetry_A
_geom_hbond_publ_flag
O2 H2 O1 0.84 1.76 2.508(2) 146.9 . yes
O3 H3 O1 0.84 1.95 2.735(2) 156.3 2_556 yes
C14 H14 O4 0.95 2.15 2.815(3) 126.2 . yes
loop_
_geom_torsion_atom_site_label_1
_geom_torsion_atom_site_label_2
_geom_torsion_atom_site_label_3
_geom_torsion_atom_site_label_4
_geom_torsion
_geom_torsion_site_symmetry_1
_geom_torsion_site_symmetry_2
_geom_torsion_site_symmetry_3
_geom_torsion_site_symmetry_4
_geom_torsion_publ_flag
O2 C2 C3 C4 177.2(2) . . . . ?
O3 C7 C8 O4 -0.8(3) . . . . ?
O3 C7 C8 C9 178.01(19) . . . . ?
O4 C8 C9 C1 0.2(3) . . . . ?
O4 C8 C9 C10 -178.63(18) . . . . ?
C1 C2 C3 C4 -0.1(3) . . . . ?
C1 C9 C10 C4 -1.3(3) . . . . ?
C1 C9 C10 C5 -179.03(18) . . . . ?
C2 C1 C9 C8 -173.4(2) . . . . ?
C2 C1 C9 C10 5.4(3) . . . . ?
C2 C1 C14 O1 4.2(3) . . . . ?
C2 C3 C4 C10 4.4(3) . . . . ?
C2 C3 C4 C11 -173.8(2) . . . . ?
C3 C4 C10 C5 174.05(19) . . . . ?
C3 C4 C10 C9 -3.6(3) . . . . ?
C3 C4 C11 C12 107.3(2) . . . . ?
C3 C4 C11 C13 -15.3(3) . . . . ?
C5 C6 C7 O3 -179.8(2) . . . . ?
C5 C6 C7 C8 1.7(3) . . . . ?
C6 C5 C10 C4 -179.3(2) . . . . ?
C6 C5 C10 C9 -1.6(3) . . . . ?
C6 C7 C8 O4 177.70(18) . . . . ?
C6 C7 C8 C9 -3.5(3) . . . . ?
C7 C8 C9 C1 -178.6(2) . . . . ?
C7 C8 C9 C10 2.6(3) . . . . ?
C8 C9 C10 C4 177.57(18) . . . . ?
C8 C9 C10 C5 -0.1(3) . . . . ?
C9 C1 C2 O2 178.05(18) . . . . ?
C9 C1 C2 C3 -4.8(3) . . . . ?
C9 C1 C14 O1 -178.66(19) . . . . ?
C10 C4 C11 C12 -70.9(3) . . . . ?
C10 C4 C11 C13 166.46(19) . . . . ?
C10 C5 C6 C7 0.9(3) . . . . ?
C10 C5 C6 C15 -179.63(19) . . . . ?
C11 C4 C10 C5 -7.7(3) . . . . ?
C11 C4 C10 C9 174.65(18) . . . . ?
C14 C1 C2 O2 -4.7(3) . . . . ?
C14 C1 C2 C3 172.4(2) . . . . ?
C14 C1 C9 C8 9.5(3) . . . . ?
C14 C1 C9 C10 -171.7(2) . . . . ?
C15 C6 C7 O3 0.7(3) . . . . ?
C15 C6 C7 C8 -177.9(2) . . . . ?
C16 O4 C8 C7 -84.0(2) . . . . ?
C16 O4 C8 C9 97.2(2) . . . . ?
