#------------------------------------------------------------------------------
#$Date: 2022-03-02 05:20:08 +0200 (Wed, 02 Mar 2022) $
#$Revision: 273207 $
#$URL: file:///home/coder/svn-repositories/cod/cif/1/56/64/1566431.cif $
#------------------------------------------------------------------------------
#
# This file is available in the Crystallography Open Database (COD),
# http://www.crystallography.net/. The original data for this entry
# were provided by IUCr Journals, http://journals.iucr.org/.
#
# The file may be used within the scientific community so long as
# proper attribution is given to the journal article from which the
# data were obtained.
#
data_1566431
loop_
_publ_author_name
'Ruth, Paul Niklas'
'Herbst-Irmer, Regine'
'Stalke, Dietmar'
_publ_section_title
;
 Hirshfeld atom refinement based on projector augmented wave densities
 with periodic boundary conditions
;
_journal_issue                   2
_journal_name_full               IUCrJ
_journal_page_first              286
_journal_page_last               297
_journal_paper_doi               10.1107/S2052252522001385
_journal_volume                  9
_journal_year                    2022
_chemical_absolute_configuration unk
_chemical_formula_moiety         'C3 H7 N O2'
_chemical_formula_sum            'C3 H7 N O2'
_chemical_formula_weight         89.095
_space_group_crystal_system      orthorhombic
_space_group_IT_number           19
_space_group_name_Hall           'P 2ac 2ab'
_space_group_name_H-M_alt        'P 21 21 21'
_symmetry_Int_Tables_number      19
_audit_creation_date             2021-10-21
_audit_creation_method
;
Olex2 1.5
(compiled 2021.10.07 svn.r9718050b for OlexSys, GUI svn.r6410)
;
_cell_angle_alpha                90
_cell_angle_beta                 90
_cell_angle_gamma                90
_cell_formula_units_Z            4
_cell_length_a                   5.9279(10)
_cell_length_b                   12.2597(17)
_cell_length_c                   5.7939(9)
_cell_measurement_reflns_used    1524
_cell_measurement_temperature    23.15
_cell_measurement_theta_max      22.5
_cell_measurement_theta_min      15.0
_cell_volume                     421.07(11)
_computing_molecular_graphics    'Olex2 1.5 (Dolomanov et al., 2009)'
_computing_publication_material  'Olex2 1.5 (Dolomanov et al., 2009)'
_computing_structure_refinement  'olex2.refine 1.5 (Bourhis et al., 2015)'
_diffrn_ambient_temperature      23
_diffrn_measured_fraction_theta_full 0.9937
_diffrn_measured_fraction_theta_max 0.9933
_diffrn_measurement_device_type  'P-1 four circle diffractometer'
_diffrn_measurement_method       'area detector'
_diffrn_radiation_type           'Mo K\a'
_diffrn_radiation_wavelength     0.71073
_diffrn_reflns_av_unetI/netI     0.0242
_diffrn_reflns_Laue_measured_fraction_full 0.9937
_diffrn_reflns_Laue_measured_fraction_max 0.9933
_diffrn_reflns_limit_h_max       12
_diffrn_reflns_limit_h_min       0
_diffrn_reflns_limit_k_max       26
_diffrn_reflns_limit_k_min       0
_diffrn_reflns_limit_l_max       12
_diffrn_reflns_limit_l_min       0
_diffrn_reflns_number            2519
_diffrn_reflns_point_group_measured_fraction_full 0.9937
_diffrn_reflns_point_group_measured_fraction_max 0.9933
_diffrn_reflns_theta_full        25.2417
_diffrn_reflns_theta_max         50.14
_diffrn_reflns_theta_min         3.32
_exptl_absorpt_coefficient_mu    0.117
_exptl_absorpt_correction_type   none
_exptl_crystal_colour            colorless
_exptl_crystal_density_diffrn    1.405
_exptl_crystal_density_method    'not measured'
_exptl_crystal_description       sphere
_exptl_crystal_F_000             192.122
_exptl_crystal_size_rad          0.18
_refine_diff_density_max         0.1686
_refine_diff_density_min         -0.1925
_refine_diff_density_rms         0.0429
_refine_ls_d_res_high            0.4630
_refine_ls_d_res_low             6.1299
_refine_ls_goodness_of_fit_ref   1.0897
_refine_ls_hydrogen_treatment    refall
_refine_ls_matrix_type           full
_refine_ls_number_constraints    0
_refine_ls_number_parameters     118
_refine_ls_number_reflns         2519
_refine_ls_number_restraints     0
_refine_ls_restrained_S_all      1.0897
_refine_ls_R_factor_all          0.0203
_refine_ls_R_factor_gt           0.0184
_refine_ls_shift/su_max          -0.0002
_refine_ls_shift/su_mean         0.0000
_refine_ls_structure_factor_coef Fsqd
_refine_ls_weighting_details
'w=1/[\s^2^(Fo^2^)+(0.0000P)^2^] where P=(Fo^2^+2Fc^2^)/3'
_refine_ls_weighting_scheme      calc
_refine_ls_wR_factor_gt          0.0304
_refine_ls_wR_factor_ref         0.0306
_reflns_Friedel_coverage         0.0
_reflns_limit_h_max              12
_reflns_limit_h_min              0
_reflns_limit_k_max              26
_reflns_limit_k_min              0
_reflns_limit_l_max              12
_reflns_limit_l_min              0
_reflns_number_gt                2393
_reflns_number_total             2519
_reflns_threshold_expression     I>=2u(I)
_iucr_refine_instructions_details
;
TITL L-Ala_23K_P 21 21 21 R = 0.03
CELL 0.71073 5.9279 12.2597 5.7939 90 90 90
ZERR 4 0.001 0.0017 0.0009 0 0 0
LATT -1
SYMM 0.5-X,-Y,0.5+Z
SYMM 0.5+X,0.5-Y,-Z
SYMM -X,0.5+Y,0.5-Z
SFAC C H N O
UNIT 12 28 4 8

L.S. 100
PLAN  -20
TEMP -250
CONF
LIST 6
ACTA 
FMAP 2
BOND $H
MORE -1
WGHT 0
FVAR 1.345206
REM <olex2.extras>
REM <HklSrc "%.\\tonto4.hkl">
REM </olex2.extras>

O1    4     0.72675  0.08378  0.62433  11.00000  0.00672  0.00712  0.00566 =
 0.00050 -0.00063  0.00247 
O2    4     0.44091  0.18405  0.76116  11.00000  0.00751  0.00750  0.00395 =
 -0.00054  0.00053  0.00200 
N1    3     0.64723  0.13752  0.18299  11.00000  0.00556  0.00599  0.00416 =
 -0.00010  0.00053  0.00006 
H1    2     0.70364  0.05982  0.19774  11.00000  0.02461  0.02613  0.02006 =
 -0.00166  0.00796  0.00204 
H2    2     0.77765  0.19005  0.20835  11.00000  0.01541  0.02316  0.02204 =
 0.00055  0.00567 -0.00054 
H3    2     0.58483  0.14932  0.01639  11.00000  0.02799  0.02197  0.01216 =
 -0.00641  0.01020 -0.00442 
C1    1     0.46635  0.16109  0.35441  11.00000  0.00509  0.00465  0.00352 =
 0.00005 -0.00034  0.00041 
H4    2     0.42379  0.24768  0.33929  11.00000  0.02571  0.01658  0.02061 =
 0.00491  0.00409  0.00835 
C2    1     0.25990  0.09067  0.30334  11.00000  0.00579  0.00882  0.00603 =
 -0.00043 -0.00057 -0.00131 
H5    2     0.19270  0.11049  0.13373  11.00000  0.02459  0.05428  0.01309 =
 0.00895 -0.00963 -0.01140 
H6    2     0.12729  0.10471  0.43026  11.00000  0.01495  0.03723  0.03387 =
 0.00332  0.00514 -0.00146 
H7    2     0.30377  0.00486  0.30835  11.00000  0.03600  0.01667  0.04242 =
 -0.00324  0.00435 -0.00483 
C3    1     0.55406  0.14079  0.59992  11.00000  0.00486  0.00432  0.00336 =
 -0.00001 -0.00028  0.00036 
HKLF 4

END
Q1 1 0.194444 0.041667 0.09375 11 0.05 0.17
Q2 1 0.75 0.138889 0.21875 11 0.05 0.16

  REM The information below was added by Olex2.
  REM
  REM R1 = 0.0184 for 2393 Fo > 4sig(Fo) and 0.0203 for all 2519 data
  REM 118 parameters refined using 0 restraints
  REM Highest difference peak 0.1686, deepest hole -0.1925
  REM Mean Shift 0.0000, Max Shift -0.0002.

  REM +++ Tabular Listing of Refinement Information +++
  REM R1_all = 0.0203
  REM R1_gt = 0.0184
  REM wR_ref = 0.0306
  REM GOOF = 1.0897
  REM Shift_max = -0.0002
  REM Shift_mean = 0.0000
  REM Reflections_all = 2519
  REM Reflections_gt = 2393
  REM Parameters = 118
  REM Hole = -0.1925
  REM Peak = 0.1686
  REM Flack = n/a

  
;
_cod_data_source_file            fc5060.cif
_cod_data_source_block           A23_NoSpherA2_B3LYP_tonto
_cod_original_sg_symbol_Hall     ' P 2ac 2ab'
_cod_database_code               1566431
_olex2_refinement_description
;
;
_iucr_refine_fcf_details
;
data_A23_NoSpherA2_B3LYP_tonto
_computing_structure_refinement   'olex2.refine 1.5 (Bourhis et al., 2015)'
_shelx_refln_list_code            4
loop_
  _space_group_symop_id
  _space_group_symop_operation_xyz
  1  x,y,z
  2  x+1/2,-y+1/2,-z
  3  -x,y+1/2,-z+1/2
  4  -x+1/2,-y,z+1/2

_space_group_crystal_system       orthorhombic
_space_group_IT_number            19
_space_group_name_H-M_alt         'P 21 21 21'
_space_group_name_Hall            ' P 2ac 2ab'
_symmetry_space_group_name_H-M    'P 21 21 21'
_symmetry_space_group_name_Hall   ' P 2ac 2ab'
_symmetry_Int_Tables_number       19
_cell_length_a                    5.9279(10)
_cell_length_b                    12.2597(17)
_cell_length_c                    5.7939(9)
_cell_angle_alpha                 90
_cell_angle_beta                  90
_cell_angle_gamma                 90
_cell_volume                      421.07(11)
loop_
  _refln_index_h
  _refln_index_k
  _refln_index_l
  _refln_F_squared_calc
  _refln_F_squared_meas
  _refln_F_squared_sigma
  _refln_F_squared_weight
  _refln_observed_status
0 0 2 2920.760 2862.180 33.538 0.044 o
0 0 4 211.751 211.126 3.929 3.241 o
0 0 6 0.708 0.790 0.630 126.079 o
0 0 8 25.460 24.647 1.520 21.666 o
0 0 10 5.164 4.841 1.238 32.655 o
0 0 12 0.050 2.498 9.262 0.583 o
0 1 1 723.883 729.451 7.377 0.919 o
0 1 2 517.512 536.871 6.598 1.149 o
0 1 3 83.427 84.572 1.757 16.203 o
0 1 4 39.272 40.098 1.210 34.163 o
0 1 5 243.135 237.740 4.548 2.419 o
0 1 6 94.322 94.398 2.465 8.237 o
0 1 7 62.280 59.185 2.067 11.714 o
0 1 8 3.047 3.609 0.956 54.747 o
0 1 9 6.756 8.582 1.172 36.457 o
0 1 10 0.000 0.006 1.011 48.927 o
0 1 11 0.628 0.486 1.227 33.246 o
0 1 12 29.161 27.200 2.266 9.747 o
0 2 0 186.431 185.054 1.768 16.001 o
0 2 1 117.202 120.371 1.227 33.246 o
0 2 2 178.440 182.833 2.089 11.467 o
0 2 3 156.788 158.860 2.945 5.768 o
0 2 4 91.965 93.701 2.067 11.714 o
0 2 5 139.334 138.225 2.973 5.661 o
0 2 6 15.502 16.313 1.033 46.856 o
0 2 7 553.381 544.961 9.792 0.522 o
0 2 8 9.611 8.770 1.155 37.511 o
0 2 9 48.322 46.702 2.210 10.241 o
0 2 10 21.241 20.845 1.746 16.409 o
0 2 11 2.129 2.719 1.243 32.366 o
0 2 12 19.415 20.347 1.978 12.784 o
0 3 1 698.170 713.503 6.443 1.205 o
0 3 2 56.313 56.582 0.801 77.932 o
0 3 3 203.805 206.855 2.470 8.200 o
0 3 4 7.777 8.057 0.453 243.682 o
0 3 5 50.241 49.553 1.547 20.899 o
0 3 6 1.032 1.498 0.652 117.676 o
0 3 7 0.000 0.470 0.774 83.598 o
0 3 8 16.922 15.827 1.354 27.297 o
0 3 9 62.696 63.788 2.548 7.710 o
0 3 10 49.541 49.304 2.432 8.463 o
0 3 11 7.827 6.841 1.492 22.476 o
0 3 12 120.205 117.033 3.984 3.152 o
0 4 0 5342.630 5221.610 44.756 0.025 o
0 4 1 96.810 98.957 1.072 43.536 o
0 4 2 172.164 172.399 1.802 15.418 o
0 4 3 724.499 744.151 7.825 0.817 o
0 4 4 225.983 231.059 2.857 6.130 o
0 4 5 388.232 391.776 4.614 2.350 o
0 4 6 16.971 16.098 1.094 41.795 o
0 4 7 12.049 11.865 1.105 40.963 o
0 4 8 2.019 1.741 0.956 54.747 o
0 4 9 21.319 22.375 1.636 18.701 o
0 4 10 27.721 28.537 1.956 13.075 o
0 4 11 1.169 0.923 1.299 29.670 o
0 4 12 0.338 0.426 1.426 24.616 o
0 5 1 0.280 0.232 0.166 1820.570 o
0 5 2 558.215 570.768 5.360 1.741 o
0 5 3 80.546 81.881 1.205 34.478 o
0 5 4 0.371 0.680 0.376 354.351 o
0 5 5 181.994 178.953 2.448 8.349 o
0 5 6 85.525 86.854 1.580 20.032 o
0 5 7 25.160 24.249 1.442 24.053 o
0 5 9 1.329 1.663 0.967 53.503 o
0 5 10 33.014 32.930 2.072 11.652 o
0 5 11 1.502 0.901 1.299 29.670 o
0 5 12 9.579 9.848 1.730 16.725 o
0 6 0 89.757 90.314 1.050 45.388 o
0 6 1 479.662 478.271 4.609 2.356 o
0 6 2 93.055 97.387 1.177 36.115 o
0 6 3 270.047 274.241 2.863 6.106 o
0 6 4 72.200 71.425 1.238 32.655 o
0 6 5 0.736 0.779 0.414 291.292 o
0 6 6 12.363 11.251 0.658 115.706 o
0 6 7 43.355 43.469 1.227 33.246 o
0 6 8 10.238 10.345 0.823 73.804 o
0 6 9 1.304 1.592 0.989 51.138 o
0 6 10 41.590 41.905 2.343 9.114 o
0 6 11 9.013 7.775 1.547 20.899 o
0 6 12 55.994 56.173 2.774 6.502 o
0 7 1 36.577 37.185 0.613 132.986 o
0 7 2 5.310 5.454 0.343 426.253 o
0 7 3 22.324 22.558 0.575 151.490 o
0 7 4 29.874 29.416 0.785 81.260 o
0 7 5 7.036 6.670 0.531 177.790 o
0 7 6 145.115 143.033 2.260 9.795 o
0 7 7 47.825 46.972 1.288 30.181 o
0 7 8 58.893 60.047 1.575 20.173 o
0 7 9 47.925 46.851 1.536 21.201 o
0 7 10 54.586 54.731 2.619 7.293 o
0 7 11 2.578 3.117 1.359 27.076 o
0 7 12 69.527 65.280 3.061 5.339 o
0 8 0 45.165 45.668 0.724 95.479 o
0 8 1 45.111 44.668 0.735 92.629 o
0 8 2 110.351 112.501 1.409 25.198 o
0 8 3 61.897 62.075 1.000 50.014 o
0 8 4 65.985 64.932 1.083 42.652 o
0 8 5 148.286 146.233 2.194 10.396 o
0 8 6 31.149 30.211 0.995 50.572 o
0 8 7 1.552 1.962 0.437 262.541 o
0 8 8 89.433 88.109 1.940 13.300 o
0 8 9 79.959 80.212 1.956 13.075 o
0 8 10 58.760 60.622 1.813 15.230 o
0 8 11 7.892 8.455 1.547 20.899 o
0 9 1 32.131 32.306 0.669 111.913 o
0 9 2 21.502 23.851 0.602 137.911 o
0 9 3 147.054 143.718 1.796 15.513 o
0 9 4 7.229 7.245 0.464 232.216 o
0 9 5 73.781 69.839 1.437 24.238 o
0 9 6 12.586 14.451 0.779 82.416 o
0 9 7 4.296 4.974 0.519 185.436 o
0 9 8 11.425 12.351 0.873 65.635 o
0 9 9 17.317 16.590 1.078 43.090 o
0 9 10 6.704 6.781 0.663 113.786 o
0 9 11 7.783 8.057 0.774 83.598 o
0 10 0 0.764 0.807 0.343 426.253 o
0 10 1 136.360 138.264 1.708 17.161 o
0 10 2 46.228 46.574 0.868 66.474 o
0 10 3 40.114 39.893 0.840 70.919 o
0 10 4 88.332 90.966 1.393 25.802 o
0 10 5 9.147 8.007 0.553 163.852 o
0 10 6 15.431 15.716 0.829 72.823 o
0 10 7 10.162 9.284 0.812 75.826 o
0 10 8 5.342 6.587 0.702 101.588 o
0 10 9 13.902 13.948 1.028 47.361 o
0 10 10 1.228 1.873 0.525 181.553 o
0 10 11 0.753 1.580 0.542 170.608 o
0 11 1 68.069 67.181 1.116 40.156 o
0 11 2 84.783 84.362 1.271 30.974 o
0 11 3 68.637 70.862 1.188 35.447 o
0 11 4 97.586 98.658 1.525 21.510 o
0 11 5 21.874 20.889 0.785 81.260 o
0 11 6 119.068 118.016 1.912 13.687 o
0 11 7 30.176 31.615 1.194 35.119 o
0 11 8 41.338 40.374 1.415 25.002 o
0 11 9 1.794 2.260 0.531 177.790 o
0 11 10 17.807 16.495 1.155 37.511 o
0 11 11 9.368 8.405 0.846 69.995 o
0 12 0 239.378 234.386 2.680 6.966 o
0 12 1 77.393 76.880 1.238 32.655 o
0 12 2 28.794 28.449 0.757 87.299 o
0 12 3 119.216 119.741 1.708 17.161 o
0 12 4 39.293 39.274 0.967 53.503 o
0 12 5 1.330 1.498 0.332 455.144 o
0 12 6 6.487 6.355 0.558 160.623 o
0 12 7 5.138 5.880 0.647 119.696 o
0 12 8 40.315 40.507 1.453 23.689 o
0 12 9 35.711 35.130 1.404 25.397 o
0 12 10 12.123 13.517 0.934 57.369 o
0 12 11 31.989 30.372 1.415 25.002 o
0 13 1 19.709 18.966 0.696 103.207 o
0 13 2 22.128 21.640 0.702 101.588 o
0 13 3 145.109 146.520 2.012 12.367 o
0 13 4 11.015 11.566 0.652 117.676 o
0 13 5 77.993 79.731 1.514 21.825 o
0 13 6 4.392 4.813 0.486 211.585 o
0 13 7 13.244 11.721 0.801 77.932 o
0 13 8 32.848 32.372 1.354 27.297 o
0 13 9 29.319 29.349 1.348 27.521 o
0 13 10 11.911 12.627 1.055 44.914 o
0 14 0 57.347 58.975 1.133 38.989 o
0 14 1 39.376 38.169 0.950 55.385 o
0 14 2 22.444 21.441 0.757 87.299 o
0 14 3 28.965 28.012 0.862 67.329 o
0 14 4 144.476 143.409 2.100 11.347 o
0 14 5 2.706 3.542 0.409 299.218 o
0 14 6 10.863 11.771 0.741 91.252 o
0 14 7 1.055 1.487 0.387 334.391 o
0 14 8 11.194 12.627 0.989 51.138 o
0 14 9 0.671 0.287 0.492 206.857 o
0 14 10 46.697 43.878 1.636 18.701 o
0 15 1 91.652 91.601 1.569 20.315 o
0 15 2 183.006 182.584 2.404 8.659 o
0 15 3 90.844 91.088 1.597 19.618 o
0 15 4 46.470 45.580 1.188 35.447 o
0 15 5 13.243 14.197 0.796 79.018 o
0 15 6 0.022 0.094 0.343 426.253 o
0 15 8 0.062 0.558 0.387 334.391 o
0 15 9 47.078 47.635 1.652 18.328 o
0 15 10 5.138 5.896 0.652 117.676 o
0 16 0 24.894 25.420 0.862 67.329 o
0 16 1 0.309 2.398 9.262 0.583 o
0 16 2 3.931 4.476 0.409 299.218 o
0 16 3 155.751 155.865 2.277 9.653 o
0 16 4 94.733 95.332 1.752 16.305 o
0 16 5 13.771 13.373 0.801 77.932 o
0 16 6 43.926 41.822 1.288 30.181 o
0 16 7 84.224 82.262 1.829 14.955 o
0 16 8 0.600 1.006 0.403 307.472 o
0 16 9 13.713 14.556 1.100 41.376 o
0 17 1 0.895 1.138 0.348 412.829 o
0 17 2 63.567 61.489 1.393 25.802 o
0 17 3 48.945 47.541 1.249 32.080 o
0 17 4 5.277 5.747 0.464 232.216 o
0 17 5 74.096 77.554 1.669 17.965 o
0 17 6 29.430 29.322 1.116 40.156 o
0 17 7 0.495 1.061 0.403 307.472 o
0 17 8 7.245 6.615 0.553 163.852 o
0 17 9 15.486 15.633 0.995 50.572 o
0 18 0 226.660 229.225 2.995 5.578 o
0 18 1 61.729 60.296 1.376 26.427 o
0 18 2 19.510 20.546 0.917 59.461 o
0 18 3 28.097 27.189 1.000 50.014 o
0 18 4 10.263 9.698 0.746 89.905 o
0 18 5 2.693 2.349 0.420 283.677 o
0 18 6 6.939 7.853 0.691 104.865 o
0 18 7 1.448 2.321 0.442 256.018 o
0 18 8 0.258 0.580 0.403 307.472 o
0 18 9 8.578 8.643 0.647 119.696 o
0 19 1 15.772 16.269 0.901 61.670 o
0 19 2 118.591 120.713 2.105 11.288 o
0 19 3 3.058 2.520 0.409 299.218 o
0 19 4 3.882 3.382 0.442 256.018 o
0 19 5 14.288 13.716 0.901 61.670 o
0 19 6 44.021 44.519 1.398 25.598 o
0 19 7 5.260 6.908 0.558 160.623 o
0 19 8 10.592 9.289 0.774 83.598 o
0 20 0 0.024 0.221 0.343 426.253 o
0 20 1 27.939 27.631 1.055 44.914 o
0 20 2 0.883 0.984 0.409 299.218 o
0 20 3 43.758 44.745 1.348 27.521 o
0 20 4 1.647 1.846 0.414 291.292 o
0 20 5 0.158 0.298 0.403 307.472 o
0 20 6 1.332 1.851 0.431 269.316 o
0 20 7 139.084 136.170 2.465 8.237 o
0 20 8 5.839 6.200 0.531 177.790 o
0 21 1 2.086 2.708 0.426 276.356 o
0 21 2 46.382 46.259 1.370 26.641 o
0 21 3 0.827 0.879 0.387 334.391 o
0 21 4 0.461 0.188 0.376 354.351 o
0 21 5 21.417 19.773 1.044 45.870 o
0 21 6 22.685 21.447 1.094 41.795 o
0 21 7 0.444 0.917 0.398 316.072 o
0 22 0 134.253 136.479 2.371 8.903 o
0 22 2 37.666 37.069 1.299 29.670 o
0 22 3 0.638 1.166 0.409 299.218 o
0 22 4 3.629 4.382 0.497 202.286 o
0 22 5 4.881 5.532 0.531 177.790 o
0 22 6 10.485 10.654 0.779 82.416 o
0 23 1 1.808 1.741 0.426 276.356 o
0 23 2 16.929 18.137 1.033 46.856 o
0 23 3 27.101 28.355 1.172 36.457 o
0 23 4 0.027 0.122 0.403 307.472 o
0 23 5 14.277 12.611 0.967 53.503 o
0 23 6 17.273 17.120 1.000 50.014 o
0 24 0 0.065 0.232 0.381 344.154 o
0 24 1 0.027 0.166 0.387 334.391 o
0 24 2 1.873 2.509 0.459 237.845 o
0 24 3 12.142 12.804 0.917 59.461 o
0 24 4 26.456 26.758 1.144 38.239 o
0 24 5 0.346 0.260 0.381 344.154 o
0 25 1 2.343 3.012 0.564 157.489 o
0 25 2 21.757 22.619 1.271 30.974 o
0 25 3 5.870 5.012 0.580 148.618 o
0 25 4 2.255 2.918 0.514 189.446 o
0 26 0 5.411 6.493 0.619 130.622 o
0 26 1 20.001 19.922 1.243 32.366 o
0 26 2 1.690 2.575 0.503 197.865 o
1 0 1 75.948 77.338 0.840 70.919 o
1 0 2 3278.870 3127.910 36.395 0.038 o
1 0 3 30.742 32.278 0.928 58.054 o
1 0 4 330.727 330.817 5.874 1.450 o
1 0 5 283.706 286.674 5.344 1.752 o
1 0 6 0.626 0.072 0.636 123.895 o
1 0 7 249.973 249.809 5.189 1.858 o
1 0 8 10.102 10.527 1.210 34.163 o
1 0 9 0.135 0.039 0.934 57.369 o
1 0 10 2.746 3.509 1.183 35.779 o
1 0 11 1.630 0.812 1.299 29.670 o
1 0 12 16.599 18.026 1.940 13.300 o
1 1 0 253.688 253.291 2.382 8.821 o
1 1 1 129.125 134.528 1.365 26.857 o
1 1 2 70.496 72.188 0.945 56.035 o
1 1 3 295.732 304.778 5.266 1.804 o
1 1 4 250.718 261.972 4.764 2.205 o
1 1 5 123.003 123.338 2.730 6.714 o
1 1 6 0.472 0.901 0.624 128.320 o
1 1 7 26.372 27.056 1.459 23.509 o
1 1 8 34.346 35.616 1.802 15.418 o
1 1 9 3.140 2.249 1.006 49.466 o
1 1 10 24.348 25.945 1.890 14.009 o
1 1 11 13.765 12.108 1.625 18.956 o
1 1 12 76.629 76.637 3.211 4.854 o
1 2 0 5368.880 5526.140 58.516 0.015 o
1 2 1 105.382 104.870 1.111 40.556 o
1 2 2 569.485 576.598 6.162 1.318 o
1 2 3 224.010 226.417 2.658 7.082 o
1 2 4 27.675 28.962 1.055 44.914 o
1 2 5 476.196 467.186 8.184 0.747 o
1 2 6 7.994 7.604 0.840 70.919 o
1 2 7 60.251 61.827 2.133 10.997 o
1 2 8 19.218 20.010 1.448 23.870 o
1 2 9 50.355 51.968 2.288 9.560 o
1 2 10 2.244 1.575 1.133 38.989 o
1 2 11 34.980 34.102 2.282 9.606 o
1 2 12 9.454 8.367 1.752 16.305 o
1 3 0 58.686 59.528 0.696 103.207 o
1 3 1 1092.000 1095.430 9.748 0.527 o
1 3 2 193.338 195.510 2.039 12.034 o
1 3 3 90.206 92.408 1.288 30.181 o
1 3 4 22.691 23.586 0.647 119.696 o
1 3 5 181.065 177.616 3.664 3.728 o
1 3 6 12.730 12.517 0.995 50.572 o
1 3 7 80.348 82.069 2.509 7.949 o
1 3 8 31.309 32.372 1.724 16.832 o
1 3 9 1.216 1.647 0.989 51.138 o
1 3 10 17.808 20.325 1.730 16.725 o
1 3 11 24.237 23.602 1.967 12.929 o
1 3 12 3.081 3.260 1.569 20.315 o
1 4 0 1725.990 1690.540 14.876 0.226 o
1 4 1 158.073 158.164 1.652 18.328 o
1 4 2 1070.730 1071.990 9.698 0.532 o
1 4 3 93.445 96.371 1.348 27.521 o
1 4 4 109.546 110.490 1.580 20.032 o
1 4 5 111.149 108.920 1.697 17.385 o
1 4 6 16.566 16.120 1.094 41.795 o
1 4 7 144.904 142.387 3.542 3.988 o
1 4 8 33.249 33.052 1.768 16.001 o
1 4 9 3.732 3.283 1.144 38.239 o
1 4 10 21.772 21.889 1.835 14.865 o
1 4 11 12.063 12.003 1.636 18.701 o
1 4 12 28.179 29.294 2.233 10.039 o
1 5 0 336.704 340.808 3.310 4.567 o
1 5 1 439.984 441.036 4.255 2.764 o
1 5 2 18.543 18.739 0.414 291.292 o
1 5 3 23.081 23.204 0.531 177.790 o
1 5 4 82.476 84.312 1.354 27.297 o
1 5 5 8.509 8.626 0.536 174.144 o
1 5 6 12.931 13.390 0.674 110.086 o
1 5 7 29.370 30.814 1.050 45.388 o
1 5 8 104.457 103.079 3.133 5.097 o
1 5 9 28.281 28.830 1.846 14.688 o
1 5 10 33.243 32.969 2.105 11.288 o
1 5 11 5.288 6.195 1.459 23.509 o
1 5 12 72.224 69.193 3.139 5.079 o
1 6 0 64.066 62.318 0.801 77.932 o
1 6 1 20.815 22.044 0.442 256.018 o
1 6 2 217.963 221.090 2.327 9.245 o
1 6 3 136.865 139.132 1.647 18.451 o
1 6 4 132.211 131.329 1.884 14.091 o
1 6 5 228.281 231.468 3.034 5.436 o
1 6 6 22.011 22.049 0.823 73.804 o
1 6 7 63.063 62.208 1.481 22.813 o
1 6 8 16.158 15.169 0.928 58.054 o
1 6 9 8.914 10.135 1.310 29.171 o
1 6 10 40.804 41.955 2.327 9.245 o
1 6 11 2.945 3.984 1.359 27.076 o
1 6 12 2.796 2.879 1.536 21.201 o
1 7 0 19.496 19.391 0.442 256.018 o
1 7 1 339.999 341.798 3.432 4.249 o
1 7 2 163.873 163.226 1.835 14.865 o
1 7 3 5.007 5.217 0.381 344.154 o
1 7 4 85.129 84.340 1.238 32.655 o
1 7 5 74.367 73.503 1.398 25.598 o
1 7 6 7.434 7.836 0.624 128.320 o
1 7 7 10.565 9.588 0.774 83.598 o
1 7 8 95.585 92.099 1.973 12.856 o
1 7 9 14.741 16.004 1.022 47.875 o
1 7 10 33.318 31.963 2.122 11.112 o
1 7 11 7.890 8.682 1.592 19.755 o
1 7 12 24.521 23.055 2.100 11.347 o
1 8 0 400.495 405.028 4.029 3.083 o
1 8 1 233.676 236.281 2.498 8.020 o
1 8 2 10.701 10.323 0.437 262.541 o
1 8 3 258.726 259.535 2.829 6.250 o
1 8 4 45.406 45.513 0.890 63.212 o
1 8 5 71.282 69.850 1.387 26.008 o
1 8 6 9.876 9.162 0.685 106.563 o
1 8 7 57.475 56.781 1.464 23.332 o
1 8 8 3.634 3.271 0.492 206.857 o
1 8 9 7.987 8.416 0.746 89.905 o
1 8 10 24.703 24.730 1.265 31.245 o
1 8 11 16.803 15.761 1.188 35.447 o
1 9 0 2.859 3.283 0.343 426.253 o
1 9 1 232.719 233.966 2.548 7.710 o
1 9 2 59.081 62.258 0.989 51.138 o
1 9 3 29.229 29.228 0.707 100.007 o
1 9 4 2.197 2.194 0.387 334.391 o
1 9 5 92.817 90.723 1.470 23.157 o
1 9 6 11.586 11.157 0.774 83.598 o
1 9 7 68.973 67.894 1.625 18.956 o
1 9 8 51.036 51.653 1.531 21.355 o
1 9 9 20.012 19.999 1.127 39.372 o
1 9 10 7.545 7.444 0.818 74.805 o
1 9 11 25.365 23.718 1.321 28.685 o
1 10 0 41.166 43.369 0.807 76.868 o
1 10 1 135.801 132.169 1.685 17.614 o
1 10 2 60.310 59.909 1.006 49.466 o
1 10 3 79.308 80.273 1.249 32.080 o
1 10 4 22.300 22.878 0.707 100.007 o
1 10 5 9.837 9.593 0.580 148.618 o
1 10 6 2.672 2.448 0.442 256.018 o
1 10 7 18.116 18.905 0.967 53.503 o
1 10 8 41.764 40.059 1.393 25.802 o
1 10 9 31.554 29.825 1.321 28.685 o
1 10 10 61.243 56.444 1.818 15.138 o
1 10 11 19.813 18.888 1.232 32.949 o
1 11 0 95.496 97.581 1.365 26.857 o
1 11 1 17.169 17.269 0.564 157.489 o
1 11 2 117.568 118.812 1.603 19.483 o
1 11 3 15.780 16.788 0.602 137.911 o
1 11 4 64.429 62.816 1.183 35.779 o
1 11 5 34.938 36.124 0.962 54.119 o
1 11 6 10.792 9.908 0.685 106.563 o
1 11 7 21.683 22.011 0.917 59.461 o
1 11 8 94.940 96.315 2.139 10.940 o
1 11 9 45.568 46.486 1.592 19.755 o
1 11 10 15.597 16.435 1.155 37.511 o
1 11 11 2.845 3.636 0.597 140.476 o
1 12 0 26.421 27.111 0.713 98.463 o
1 12 1 1.049 0.359 0.365 376.152 o
1 12 2 118.233 116.254 1.636 18.701 o
1 12 3 32.702 32.532 0.840 70.919 o
1 12 4 146.214 141.922 2.006 12.435 o
1 12 5 25.033 25.265 0.868 66.474 o
1 12 6 29.529 29.222 0.967 53.503 o
1 12 7 2.566 1.923 0.464 232.216 o
1 12 8 12.922 11.865 0.978 52.300 o
1 12 9 8.459 9.019 0.829 72.823 o
1 12 10 48.684 45.955 1.652 18.328 o
1 12 11 0.802 1.630 0.536 174.144 o
1 13 0 58.964 57.737 1.089 42.220 o
1 13 1 129.000 128.560 1.785 15.705 o
1 13 2 112.308 111.020 1.647 18.451 o
1 13 3 34.956 34.052 0.912 60.184 o
1 13 4 25.663 27.332 0.862 67.329 o
1 13 5 44.890 45.066 1.160 37.155 o
1 13 6 7.644 7.598 0.608 135.415 o
1 13 7 41.407 42.673 1.260 31.520 o
1 13 8 28.834 28.548 1.277 30.706 o
1 13 9 17.071 16.225 1.144 38.239 o
1 13 10 0.103 0.232 0.514 189.446 o
1 14 0 1.543 0.868 0.437 262.541 o
1 14 1 30.648 29.791 0.834 71.862 o
1 14 2 54.895 55.112 1.144 38.239 o
1 14 3 115.781 115.695 1.796 15.513 o
1 14 4 42.197 39.705 1.072 43.536 o
1 14 5 39.940 40.501 1.127 39.372 o
1 14 6 28.119 28.228 1.011 48.927 o
1 14 7 26.300 24.812 1.055 44.914 o
1 14 8 1.939 1.210 0.508 193.587 o
1 14 9 7.397 7.991 0.829 72.823 o
1 14 10 7.847 6.631 0.674 110.086 o
1 15 0 85.445 86.932 1.487 22.644 o
1 15 1 88.729 88.258 1.531 21.355 o
1 15 2 31.018 31.869 0.928 58.054 o
1 15 3 34.350 33.737 0.989 51.138 o
1 15 4 2.180 3.001 0.398 316.072 o
1 15 5 29.816 30.068 1.033 46.856 o
1 15 6 11.954 11.091 0.818 74.805 o
1 15 7 34.591 32.571 1.183 35.779 o
1 15 8 44.143 46.663 1.393 25.802 o
1 15 9 21.936 22.425 1.249 32.080 o
1 15 10 11.191 10.621 0.890 63.212 o
1 16 0 24.553 24.636 0.857 68.201 o
1 16 1 62.010 62.230 1.299 29.670 o
1 16 2 29.388 27.830 0.950 55.385 o
1 16 3 9.984 9.361 0.619 130.622 o
1 16 4 22.434 23.757 0.917 59.461 o
1 16 5 74.876 79.206 1.647 18.451 o
1 16 6 3.008 3.006 0.431 269.316 o
1 16 7 23.510 26.061 1.083 42.652 o
1 16 8 5.300 5.631 0.525 181.553 o
1 16 9 43.578 43.297 1.597 19.618 o
1 17 0 30.191 29.753 0.967 53.503 o
1 17 1 25.364 25.614 0.912 60.184 o
1 17 2 77.971 76.277 1.536 21.201 o
1 17 3 26.030 25.210 0.950 55.385 o
1 17 4 26.979 28.299 1.022 47.875 o
1 17 5 11.208 11.544 0.807 76.868 o
1 17 6 21.195 21.685 1.011 48.927 o
1 17 7 19.521 20.668 1.022 47.875 o
1 17 8 29.483 27.045 1.188 35.447 o
1 17 9 18.273 18.452 1.055 44.914 o
1 18 0 0.785 0.939 0.387 334.391 o
1 18 1 23.309 23.956 0.934 57.369 o
1 18 2 109.509 110.904 1.940 13.300 o
1 18 3 27.878 26.719 1.011 48.927 o
1 18 4 57.251 59.019 1.475 22.984 o
1 18 5 7.490 7.013 0.652 117.676 o
1 18 6 13.954 13.965 0.901 61.670 o
1 18 7 45.477 43.386 1.398 25.598 o
1 18 8 4.585 5.504 0.525 181.553 o
1 18 9 12.043 11.666 0.901 61.670 o
1 19 0 33.997 33.969 1.105 40.963 o
1 19 1 14.645 15.424 0.834 71.862 o
1 19 2 40.461 41.512 1.210 34.163 o
1 19 3 27.845 27.421 1.061 44.448 o
1 19 4 40.232 41.109 1.260 31.520 o
1 19 5 18.212 18.822 0.984 51.714 o
1 19 6 11.097 11.892 0.868 66.474 o
1 19 7 6.876 6.803 0.619 130.622 o
1 19 8 1.871 2.288 0.442 256.018 o
1 20 0 42.208 40.562 1.254 31.798 o
1 20 1 6.400 5.869 0.486 211.585 o
1 20 2 10.387 9.776 0.707 100.007 o
1 20 3 7.954 7.819 0.663 113.786 o
1 20 4 9.124 9.312 0.801 77.932 o
1 20 5 65.768 65.153 1.652 18.328 o
1 20 6 33.910 31.836 1.254 31.798 o
1 20 7 14.597 15.567 0.995 50.572 o
1 20 8 0.048 0.111 0.392 325.038 o
1 21 0 1.217 1.442 0.431 269.316 o
1 21 1 1.477 2.078 0.414 291.292 o
1 21 2 22.069 23.038 1.028 47.361 o
1 21 3 24.406 23.757 1.055 44.914 o
1 21 4 11.312 10.881 0.790 80.127 o
1 21 5 25.358 25.299 1.122 39.761 o
1 21 6 9.207 9.477 0.779 82.416 o
1 21 7 9.315 9.383 0.669 111.913 o
1 22 0 3.821 4.023 0.475 221.541 o
1 22 1 33.513 35.019 1.216 33.854 o
1 22 2 38.875 36.848 1.282 30.442 o
1 22 3 6.653 7.250 0.613 132.986 o
1 22 4 21.170 21.933 1.055 44.914 o
1 22 5 1.560 1.741 0.431 269.316 o
1 22 6 10.352 8.693 0.763 86.038 o
1 23 0 6.122 7.057 0.608 135.415 o
1 23 1 9.655 10.737 0.895 62.434 o
1 23 2 43.640 43.723 1.431 24.426 o
1 23 3 2.891 2.763 0.459 237.845 o
1 23 4 14.773 15.191 0.967 53.503 o
1 23 5 3.523 4.614 0.503 197.865 o
1 23 6 11.836 12.130 0.890 63.212 o
1 24 0 9.864 9.859 0.796 79.018 o
1 24 1 22.104 21.088 1.083 42.652 o
1 24 2 9.813 10.726 0.801 77.932 o
1 24 3 8.162 8.195 0.647 119.696 o
1 24 4 2.269 2.155 0.437 262.541 o
1 24 5 18.135 17.568 1.006 49.466 o
1 25 1 8.777 9.566 0.823 73.804 o
1 25 2 0.085 0.155 0.431 269.316 o
1 25 3 15.946 18.043 1.166 36.803 o
1 26 0 6.786 7.372 0.641 121.768 o
1 26 1 0.797 2.017 0.486 211.585 o
1 26 2 3.729 4.526 0.558 160.623 o
2 0 0 41.326 42.225 0.542 170.608 o
2 0 1 1.460 1.647 0.160 1948.300 o
2 0 2 4.224 4.228 0.227 974.727 o
2 0 3 137.268 133.047 1.542 21.049 o
2 0 4 54.367 57.196 1.542 21.049 o
2 0 5 147.294 145.581 3.128 5.115 o
2 0 6 75.990 77.051 2.222 10.139 o
2 0 7 7.017 7.477 0.995 50.572 o
2 0 8 55.848 54.504 2.216 10.190 o
2 0 9 73.454 76.299 2.791 6.425 o
2 0 10 50.513 50.089 2.465 8.237 o
2 0 11 12.336 12.694 1.685 17.614 o
2 0 12 48.189 47.039 2.669 7.024 o
2 1 0 30.916 31.344 0.442 256.018 o
2 1 1 78.293 78.554 0.890 63.212 o
2 1 2 307.741 310.802 3.073 5.300 o
2 1 3 140.379 141.409 1.592 19.755 o
2 1 4 104.866 107.688 1.553 20.751 o
2 1 5 35.411 34.223 1.315 28.927 o
2 1 6 92.454 94.685 2.525 7.845 o
2 1 7 45.352 44.276 1.829 14.955 o
2 1 8 59.194 59.285 2.315 9.333 o
2 1 9 15.927 17.623 1.514 21.825 o
2 1 10 68.642 67.717 2.846 6.178 o
2 1 11 11.086 9.997 1.608 19.349 o
2 1 12 22.318 20.734 2.111 11.229 o
2 2 0 1735.310 1690.500 14.893 0.226 o
2 2 1 274.585 279.358 2.746 6.633 o
2 2 2 1092.300 1092.120 9.886 0.512 o
2 2 3 381.017 386.449 3.835 3.402 o
2 2 4 129.488 132.136 1.840 14.776 o
2 2 5 162.751 162.552 2.260 9.795 o
2 2 6 2.305 2.327 0.718 96.954 o
2 2 7 12.667 12.660 1.133 38.989 o
2 2 8 25.081 23.762 1.597 19.618 o
2 2 9 111.229 110.241 3.459 4.181 o
2 2 10 2.094 2.885 1.188 35.447 o
2 2 11 3.937 3.338 1.376 26.427 o
2 2 12 6.863 6.267 1.636 18.701 o
2 3 0 798.490 792.101 7.223 0.959 o
2 3 1 529.458 540.214 5.084 1.936 o
2 3 2 109.866 107.848 1.260 31.520 o
2 3 3 451.391 451.497 4.465 2.510 o
2 3 4 135.408 134.368 1.862 14.428 o
2 3 5 32.022 31.869 0.851 69.089 o
2 3 6 2.171 2.277 0.580 148.618 o
2 3 7 14.257 14.595 1.205 34.478 o
2 3 8 27.881 29.261 1.691 17.499 o
2 3 9 4.973 5.399 1.111 40.556 o
2 3 10 6.652 6.620 1.343 27.748 o
2 3 11 6.062 7.317 1.464 23.332 o
2 3 12 40.107 42.944 2.548 7.710 o
2 4 0 36.382 36.097 0.536 174.144 o
2 4 1 154.517 158.910 1.680 17.730 o
2 4 2 89.436 89.706 1.100 41.376 o
2 4 3 65.629 66.330 0.945 56.035 o
2 4 4 13.000 13.097 0.575 151.490 o
2 4 5 149.216 149.466 2.139 10.940 o
2 4 6 22.628 22.806 0.829 72.823 o
2 4 7 135.193 131.362 2.691 6.909 o
2 4 8 16.823 16.059 1.393 25.802 o
2 4 9 48.819 49.166 2.315 9.333 o
2 4 10 4.630 4.719 1.265 31.245 o
2 4 11 3.033 2.293 1.420 24.808 o
2 4 12 11.193 11.273 1.790 15.608 o
2 5 0 91.102 91.773 1.089 42.220 o
2 5 1 425.153 429.774 4.178 2.867 o
2 5 2 7.906 8.455 0.348 412.829 o
2 5 3 251.788 251.219 2.686 6.937 o
2 5 4 61.911 60.279 0.995 50.572 o
2 5 5 63.512 64.225 1.254 31.798 o
2 5 6 99.596 99.338 1.768 16.001 o
2 5 7 72.011 71.558 1.580 20.032 o
2 5 8 58.188 56.980 1.536 21.201 o
2 5 9 10.801 11.555 1.398 25.598 o
2 5 10 47.123 47.039 2.426 8.502 o
2 5 11 1.340 0.707 1.315 28.927 o
2 5 12 2.084 2.277 1.536 21.201 o
2 6 0 2126.070 2095.770 18.607 0.145 o
2 6 1 23.466 23.077 0.486 211.585 o
2 6 2 290.861 294.173 3.034 5.436 o
2 6 3 89.918 91.684 1.238 32.655 o
2 6 4 110.940 109.014 1.464 23.332 o
2 6 5 12.393 12.578 0.641 121.768 o
2 6 6 0.321 0.597 0.486 211.585 o
2 6 7 30.079 29.554 1.067 43.988 o
2 6 8 50.307 47.425 1.453 23.689 o
2 6 9 51.283 50.249 1.580 20.032 o
2 6 10 16.828 17.109 1.680 17.730 o
2 6 11 14.057 13.749 1.685 17.614 o
2 6 12 31.126 29.570 2.227 10.089 o
2 7 0 293.720 295.804 3.028 5.456 o
2 7 1 97.340 98.664 1.238 32.655 o
2 7 2 140.612 141.381 1.674 17.847 o
2 7 3 107.559 109.418 1.426 24.616 o
2 7 4 104.009 103.251 1.442 24.053 o
2 7 5 14.622 14.263 0.707 100.007 o
2 7 6 77.839 77.736 1.575 20.173 o
2 7 7 85.916 84.323 1.790 15.608 o
2 7 8 44.266 42.153 1.376 26.427 o
2 7 9 10.550 10.649 0.928 58.054 o
2 7 10 27.403 26.432 1.332 28.211 o
2 7 11 0.998 0.519 1.315 28.927 o
2 8 0 0.326 0.768 0.304 541.658 o
2 8 1 4.194 4.874 0.365 376.152 o
2 8 2 142.798 145.111 1.768 16.001 o
2 8 3 121.253 120.531 1.558 20.604 o
2 8 4 116.154 117.364 1.608 19.349 o
2 8 5 61.807 63.214 1.177 36.115 o
2 8 6 0.138 0.232 0.525 181.553 o
2 8 7 81.603 83.019 1.785 15.705 o
2 8 8 0.073 0.309 0.414 291.292 o
2 8 9 1.992 3.382 0.542 170.608 o
2 8 10 31.479 30.637 1.409 25.198 o
2 8 11 6.304 5.703 0.658 115.706 o
2 9 0 237.112 236.596 2.603 7.386 o
2 9 1 277.258 275.114 2.962 5.703 o
2 9 2 129.884 129.058 1.630 18.828 o
2 9 3 289.705 291.598 3.211 4.854 o
2 9 4 47.554 48.995 0.984 51.714 o
2 9 5 25.948 26.398 0.812 75.826 o
2 9 6 3.743 4.957 0.486 211.585 o
2 9 7 4.637 5.018 0.536 174.144 o
2 9 8 11.584 11.854 0.807 76.868 o
2 9 9 39.051 38.666 1.442 24.053 o
2 9 10 11.804 12.323 0.923 58.751 o
2 9 11 0.242 0.309 0.514 189.446 o
2 10 0 253.345 256.131 2.807 6.349 o
2 10 1 9.004 8.764 0.464 232.216 o
2 10 2 2.813 2.669 0.370 365.007 o
2 10 3 256.677 258.872 2.945 5.768 o
2 10 4 139.748 139.358 1.895 13.927 o
2 10 5 139.239 139.673 1.989 12.643 o
2 10 6 10.614 12.207 0.696 103.207 o
2 10 7 8.951 9.566 0.801 77.932 o
2 10 8 1.226 1.415 0.492 206.857 o
2 10 9 12.548 14.235 1.033 46.856 o
2 10 10 33.408 33.765 1.464 23.332 o
2 10 11 5.876 6.350 0.790 80.127 o
2 11 0 2.248 2.432 0.365 376.152 o
2 11 1 5.418 4.786 0.437 262.541 o
2 11 2 65.531 64.567 1.127 39.372 o
2 11 3 12.219 12.102 0.586 145.827 o
2 11 4 50.678 50.188 1.078 43.090 o
2 11 5 60.437 60.793 1.271 30.974 o
2 11 6 104.510 105.279 1.802 15.418 o
2 11 7 96.089 98.376 2.078 11.590 o
2 11 8 9.752 8.588 0.785 81.260 o
2 11 9 15.037 15.755 1.083 42.652 o
2 11 10 43.288 44.679 1.597 19.618 o
2 11 11 3.517 4.625 0.619 130.622 o
2 12 0 45.898 43.701 0.917 59.461 o
2 12 1 42.499 40.982 0.895 62.434 o
2 12 2 58.030 57.721 1.094 41.795 o
2 12 3 86.072 85.114 1.426 24.616 o
2 12 4 13.309 12.776 0.663 113.786 o
2 12 5 14.854 14.418 0.746 89.905 o
2 12 6 8.238 7.941 0.547 167.179 o
2 12 7 1.404 2.194 0.387 334.391 o
2 12 8 0.449 0.017 0.437 262.541 o
2 12 9 17.133 17.501 1.138 38.611 o
2 12 10 48.630 48.708 1.697 17.385 o
2 13 0 167.895 169.144 2.155 10.773 o
2 13 1 81.344 80.383 1.359 27.076 o
2 13 2 73.951 74.023 1.315 28.927 o
2 13 3 43.505 44.193 1.039 46.359 o
2 13 4 0.436 0.403 0.332 455.144 o
2 13 5 1.362 2.277 0.376 354.351 o
2 13 6 61.347 62.805 1.426 24.616 o
2 13 7 48.761 49.299 1.370 26.641 o
2 13 8 34.401 31.670 1.376 26.427 o
2 13 9 34.136 35.411 1.470 23.157 o
2 13 10 6.903 7.151 0.685 106.563 o
2 14 0 11.708 11.008 0.608 135.415 o
2 14 1 43.349 45.049 1.033 46.856 o
2 14 2 32.420 34.063 0.917 59.461 o
2 14 3 50.580 48.542 1.144 38.239 o
2 14 4 12.709 11.782 0.713 98.463 o
2 14 5 94.320 93.138 1.730 16.725 o
2 14 6 10.800 11.351 0.752 88.588 o
2 14 7 38.396 40.567 1.260 31.520 o
2 14 8 8.459 10.052 0.818 74.805 o
2 14 9 70.425 72.873 2.000 12.504 o
2 14 10 17.302 17.230 1.160 37.155 o
2 15 0 72.453 70.442 1.337 27.978 o
2 15 1 21.888 23.917 0.812 75.826 o
2 15 2 33.003 32.052 0.939 56.696 o
2 15 3 16.880 17.098 0.801 77.932 o
2 15 4 12.666 12.926 0.752 88.588 o
2 15 5 11.846 12.799 0.768 84.805 o
2 15 6 58.031 57.212 1.448 23.870 o
2 15 7 32.727 33.024 1.199 34.796 o
2 15 8 6.872 7.073 0.702 101.588 o
2 15 9 0.374 1.105 0.525 181.553 o
2 15 10 2.803 2.979 0.575 151.490 o
2 16 0 38.963 37.252 1.033 46.856 o
2 16 1 3.435 3.586 0.398 316.072 o
2 16 2 77.904 73.763 1.470 23.157 o
2 16 3 2.373 2.807 0.398 316.072 o
2 16 4 25.348 25.387 0.923 58.751 o
2 16 5 1.095 1.144 0.359 387.815 o
2 16 6 15.192 15.484 0.901 61.670 o
2 16 7 4.508 4.321 0.486 211.585 o
2 16 8 2.374 3.277 0.475 221.541 o
2 16 9 16.324 15.656 1.017 48.397 o
2 17 0 36.694 35.931 1.055 44.914 o
2 17 1 11.554 10.146 0.696 103.207 o
2 17 2 0.117 0.066 0.337 440.343 o
2 17 3 11.265 12.854 0.757 87.299 o
2 17 4 40.332 39.042 1.194 35.119 o
2 17 5 5.358 5.371 0.486 211.585 o
2 17 6 47.710 47.282 1.376 26.427 o
2 17 7 50.283 51.227 1.487 22.644 o
2 17 8 24.463 23.685 1.144 38.239 o
2 17 9 3.897 4.366 0.531 177.790 o
2 18 0 43.588 44.010 1.210 34.163 o
2 18 1 10.450 10.024 0.729 94.038 o
2 18 2 9.811 10.892 0.741 91.252 o
2 18 3 2.790 2.122 0.387 334.391 o
2 18 4 26.862 25.570 1.050 45.388 o
2 18 5 45.136 44.657 1.376 26.427 o
2 18 6 50.217 50.034 1.464 23.332 o
2 18 7 9.374 9.975 0.768 84.805 o
2 18 8 1.652 1.929 0.437 262.541 o
2 19 0 36.661 38.025 1.172 36.457 o
2 19 1 29.219 29.443 1.067 43.988 o
2 19 2 1.317 1.144 0.365 376.152 o
2 19 3 38.950 39.147 1.227 33.246 o
2 19 4 8.797 8.781 0.713 98.463 o
2 19 5 9.760 11.201 0.846 69.995 o
2 19 6 1.512 2.365 0.442 256.018 o
2 19 7 6.065 7.062 0.641 121.768 o
2 19 8 5.812 6.775 0.547 167.179 o
2 20 0 1.672 0.928 0.376 354.351 o
2 20 1 70.686 72.166 1.647 18.451 o
2 20 2 31.221 32.074 1.133 38.989 o
2 20 3 9.143 9.953 0.674 110.086 o
2 20 4 25.172 26.852 1.105 40.963 o
2 20 5 1.350 1.420 0.420 283.677 o
2 20 6 3.897 3.841 0.486 211.585 o
2 20 7 0.351 0.989 0.409 299.218 o
2 21 0 8.429 7.786 0.647 119.696 o
2 21 1 27.576 29.079 1.127 39.372 o
2 21 2 29.512 30.466 1.172 36.457 o
2 21 3 43.873 43.657 1.382 26.216 o
2 21 4 19.952 20.430 1.050 45.388 o
2 21 5 0.964 0.956 0.409 299.218 o
2 21 6 14.319 13.854 0.967 53.503 o
2 21 7 11.707 10.472 0.801 77.932 o
2 22 0 15.872 15.225 0.934 57.369 o
2 22 1 23.640 23.497 1.078 43.090 o
2 22 2 3.275 3.592 0.475 221.541 o
2 22 3 8.991 7.858 0.724 95.479 o
2 22 4 18.663 16.916 1.044 45.870 o
2 22 5 20.026 21.127 1.050 45.388 o
2 22 6 46.532 46.066 1.431 24.426 o
2 23 0 10.716 11.240 0.884 64.005 o
2 23 1 2.911 2.581 0.448 249.736 o
2 23 2 1.723 2.553 0.453 243.682 o
2 23 3 4.007 5.250 0.569 154.446 o
2 23 4 21.467 23.624 1.078 43.090 o
2 23 5 16.972 16.573 1.028 47.361 o
2 24 0 33.130 32.615 1.249 32.080 o
2 24 1 38.253 41.435 1.348 27.521 o
2 24 2 9.253 8.781 0.768 84.805 o
2 24 3 0.015 0.039 0.398 316.072 o
2 24 4 4.599 3.365 0.470 226.784 o
2 25 0 3.168 4.150 0.580 148.618 o
2 25 1 22.803 23.160 1.332 28.211 o
2 25 2 41.113 40.208 1.674 17.847 o
2 25 3 12.724 13.158 1.078 43.090 o
2 26 0 1.002 1.083 0.453 243.682 o
2 26 1 29.848 30.687 1.464 23.332 o
3 0 1 174.367 176.870 1.873 14.258 o
3 0 2 0.165 0.105 0.232 928.864 o
3 0 3 181.631 184.645 2.061 11.777 o
3 0 4 11.158 11.666 0.470 226.784 o
3 0 5 52.496 50.282 0.978 52.300 o
3 0 7 5.857 5.957 1.011 48.927 o
3 0 8 1.926 2.144 1.011 48.927 o
3 0 9 71.069 69.497 2.730 6.714 o
3 0 10 1.025 0.862 1.172 36.457 o
3 0 11 1.665 1.249 1.343 27.748 o
3 0 12 7.204 5.559 1.680 17.730 o
3 1 0 30.434 31.228 0.514 189.446 o
3 1 1 360.682 371.523 3.669 3.716 o
3 1 2 185.172 180.954 1.973 12.856 o
3 1 3 252.527 253.147 2.686 6.937 o
3 1 4 114.958 114.093 1.481 22.813 o
3 1 5 45.413 45.016 0.923 58.751 o
3 1 6 3.594 3.808 0.514 189.446 o
3 1 7 0.454 0.851 0.840 70.919 o
3 1 8 114.848 114.590 3.343 4.477 o
3 1 9 11.650 12.030 1.415 25.002 o
3 1 10 54.785 57.792 2.625 7.262 o
3 1 11 10.788 11.052 1.685 17.614 o
3 1 12 6.748 7.366 1.685 17.614 o
3 2 1 58.793 59.373 0.796 79.018 o
3 2 2 269.287 273.671 2.807 6.349 o
3 2 3 17.147 17.512 0.508 193.587 o
3 2 4 30.091 31.168 0.702 101.588 o
3 2 5 36.696 35.704 0.840 70.919 o
3 2 6 41.591 41.982 1.100 41.376 o
3 2 7 153.432 152.406 3.758 3.544 o
3 2 8 58.060 59.903 2.365 8.945 o
3 2 9 20.326 19.524 1.625 18.956 o
3 2 10 27.632 27.962 2.012 12.367 o
3 2 11 14.695 15.258 1.741 16.513 o
3 2 12 3.382 3.294 1.542 21.049 o
3 3 0 69.535 69.668 0.890 63.212 o
3 3 1 435.324 437.278 4.277 2.735 o
3 3 2 269.523 268.637 2.791 6.425 o
3 3 3 168.192 168.343 1.934 13.376 o
3 3 4 80.938 80.638 1.188 35.447 o
3 3 5 71.400 73.735 1.221 33.548 o
3 3 6 4.675 4.857 0.564 157.489 o
3 3 7 31.029 29.195 1.083 42.652 o
3 3 8 45.317 46.165 2.105 11.288 o
3 3 9 13.504 14.047 1.503 22.147 o
3 3 10 80.052 83.058 3.200 4.888 o
3 3 11 34.389 35.097 2.299 9.468 o
3 3 12 1.637 0.779 1.542 21.049 o
3 4 0 410.956 416.379 4.062 3.033 o
3 4 1 82.276 82.445 1.050 45.388 o
3 4 2 55.924 55.444 0.862 67.329 o
3 4 3 12.701 12.699 0.481 216.477 o
3 4 4 24.498 25.166 0.652 117.676 o
3 4 5 70.849 72.122 1.221 33.548 o
3 4 6 10.091 9.621 0.680 108.303 o
3 4 7 10.644 9.704 0.790 80.127 o
3 4 8 39.884 39.263 1.315 28.927 o
3 4 9 101.312 102.676 3.393 4.346 o
3 4 10 12.827 12.030 1.592 19.755 o
3 4 11 16.745 17.059 1.884 14.091 o
3 4 12 0.784 1.011 1.470 23.157 o
3 5 0 209.219 210.021 2.233 10.039 o
3 5 1 24.245 24.464 0.531 177.790 o
3 5 2 319.339 317.046 3.283 4.644 o
3 5 3 209.431 215.481 2.393 8.739 o
3 5 4 276.339 272.362 3.012 5.516 o
3 5 5 73.851 72.879 1.249 32.080 o
3 5 6 21.375 21.165 0.862 67.329 o
3 5 7 32.783 32.295 1.138 38.611 o
3 5 8 39.962 38.832 1.315 28.927 o
3 5 9 0.056 0.144 0.470 226.784 o
3 5 10 6.803 7.201 1.426 24.616 o
3 5 11 15.740 15.766 1.763 16.102 o
3 6 0 37.849 39.700 0.702 101.588 o
3 6 1 67.483 69.430 0.989 51.138 o
3 6 2 640.037 642.403 6.294 1.263 o
3 6 3 3.477 3.415 0.381 344.154 o
3 6 4 82.562 80.522 1.254 31.798 o
3 6 5 42.950 44.292 0.962 54.119 o
3 6 6 19.727 18.756 0.862 67.329 o
3 6 7 12.573 12.091 0.857 68.201 o
3 6 8 26.719 26.393 1.138 38.611 o
3 6 9 8.251 8.146 0.663 113.786 o
3 6 10 23.171 23.503 1.254 31.798 o
3 6 11 12.387 12.224 1.713 17.050 o
3 7 0 247.182 244.742 2.625 7.262 o
3 7 1 162.054 160.297 1.868 14.342 o
3 7 2 6.086 7.355 0.426 276.356 o
3 7 3 255.782 256.060 2.846 6.178 o
3 7 4 58.226 59.931 1.078 43.090 o
3 7 5 124.151 123.393 1.774 15.902 o
3 7 6 40.693 39.606 1.155 37.511 o
3 7 7 35.912 36.246 1.216 33.854 o
3 7 8 30.063 30.471 1.210 34.163 o
3 7 9 8.326 9.085 0.752 88.588 o
3 7 10 10.160 11.782 0.890 63.212 o
3 7 11 22.301 22.718 1.299 29.670 o
3 8 0 80.391 81.312 1.166 36.803 o
3 8 1 42.930 42.999 0.807 76.868 o
3 8 2 91.282 89.601 1.277 30.706 o
3 8 3 43.143 43.364 0.879 64.812 o
3 8 4 53.691 54.250 1.055 44.914 o
3 8 5 192.268 188.414 2.404 8.659 o
3 8 6 19.496 18.894 0.801 77.932 o
3 8 7 12.966 11.224 0.862 67.329 o
3 8 8 34.612 33.632 1.299 29.670 o
3 8 9 45.331 43.557 1.547 20.899 o
3 8 10 7.825 7.306 0.685 106.563 o
3 8 11 6.045 6.571 0.807 76.868 o
3 9 0 111.944 108.500 1.448 23.870 o
3 9 1 394.410 384.719 4.045 3.058 o
3 9 2 63.492 62.655 1.067 43.988 o
3 9 3 25.229 26.338 0.729 94.038 o
3 9 4 66.513 67.833 1.221 33.548 o
3 9 5 1.724 1.829 0.475 221.541 o
3 9 6 31.902 32.626 0.978 52.300 o
3 9 7 106.395 109.661 2.150 10.828 o
3 9 8 22.714 22.331 1.127 39.372 o
3 9 9 6.495 6.344 0.641 121.768 o
3 9 10 34.715 33.615 1.464 23.332 o
3 9 11 11.412 10.837 0.846 69.995 o
3 10 0 30.639 30.245 0.729 94.038 o
3 10 1 37.429 37.158 0.823 73.804 o
3 10 2 258.006 255.634 2.901 5.945 o
3 10 3 11.755 11.638 0.569 154.446 o
3 10 4 21.395 21.132 0.735 92.629 o
3 10 5 136.157 134.429 2.000 12.504 o
3 10 6 24.013 24.149 0.895 62.434 o
3 10 7 50.649 50.979 1.321 28.685 o
3 10 8 5.469 4.432 0.569 154.446 o
3 10 9 28.185 28.150 1.304 29.419 o
3 10 10 7.833 7.648 0.846 69.995 o
3 10 11 8.776 9.052 0.873 65.635 o
3 11 0 257.121 253.114 2.885 6.013 o
3 11 1 55.327 53.952 1.039 46.359 o
3 11 2 37.004 34.848 0.857 68.201 o
3 11 3 77.113 76.415 1.321 28.685 o
3 11 4 30.636 29.211 0.884 64.005 o
3 11 5 5.621 7.344 0.536 174.144 o
3 11 6 69.151 68.325 1.459 23.509 o
3 11 7 6.207 6.206 0.481 216.477 o
3 11 8 100.808 100.664 2.238 9.989 o
3 11 9 3.941 4.283 0.597 140.476 o
3 11 10 5.076 4.609 0.613 132.986 o
3 11 11 10.709 9.466 2.968 5.682 o
3 12 0 9.443 8.245 0.531 177.790 o
3 12 1 56.606 54.781 1.094 41.795 o
3 12 2 108.839 107.163 1.630 18.828 o
3 12 3 41.795 40.435 0.978 52.300 o
3 12 4 29.505 30.173 0.912 60.184 o
3 12 5 126.204 124.311 1.973 12.856 o
3 12 6 2.825 3.631 0.431 269.316 o
3 12 7 2.584 2.404 0.403 307.472 o
3 12 8 16.907 17.396 1.078 43.090 o
3 12 9 4.212 4.974 0.624 128.320 o
3 12 10 0.832 1.133 0.514 189.446 o
3 13 0 3.046 2.758 0.448 249.736 o
3 13 1 90.390 90.165 1.525 21.510 o
3 13 2 26.501 26.393 0.818 74.805 o
3 13 3 11.140 12.500 0.669 111.913 o
3 13 4 103.990 105.373 1.757 16.203 o
3 13 5 9.873 10.345 0.724 95.479 o
3 13 6 57.934 56.897 1.415 25.002 o
3 13 7 37.841 38.368 1.238 32.655 o
3 13 8 7.411 6.355 0.591 143.114 o
3 13 9 1.674 1.553 0.531 177.790 o
3 13 10 20.626 19.198 1.227 33.246 o
3 14 0 2.886 3.780 0.492 206.857 o
3 14 1 27.287 27.249 0.862 67.329 o
3 14 2 7.026 6.687 0.591 143.114 o
3 14 3 9.386 9.129 0.597 140.476 o
3 14 4 9.970 10.113 0.685 106.563 o
3 14 5 68.600 64.363 1.470 23.157 o
3 14 6 24.595 25.912 1.022 47.875 o
3 14 7 49.466 49.393 1.393 25.802 o
3 14 8 4.494 4.614 0.497 202.286 o
3 14 9 29.176 31.378 1.370 26.641 o
3 14 10 17.859 17.092 1.138 38.611 o
3 15 0 23.357 24.199 0.857 68.201 o
3 15 1 1.557 2.000 0.376 354.351 o
3 15 2 12.840 12.986 0.718 96.954 o
3 15 3 12.324 12.113 0.729 94.038 o
3 15 4 37.978 37.832 1.122 39.761 o
3 15 5 43.960 44.524 1.260 31.520 o
3 15 6 7.017 7.234 0.586 145.827 o
3 15 7 37.476 37.451 1.277 30.706 o
3 15 8 18.092 18.148 0.995 50.572 o
3 15 9 6.697 6.460 0.613 132.986 o
3 16 0 44.595 43.215 1.144 38.239 o
3 16 1 38.105 39.645 1.105 40.963 o
3 16 2 35.827 36.959 1.067 43.988 o
3 16 3 1.730 2.061 0.392 325.038 o
3 16 4 16.431 17.396 0.851 69.089 o
3 16 5 9.801 10.080 0.779 82.416 o
3 16 6 41.944 41.971 1.315 28.927 o
3 16 7 2.956 2.802 0.453 243.682 o
3 16 8 17.696 15.462 0.995 50.572 o
3 16 9 10.030 9.085 0.663 113.786 o
3 17 0 42.125 42.590 1.172 36.457 o
3 17 1 31.255 30.394 1.017 48.397 o
3 17 2 28.665 28.725 1.006 49.466 o
3 17 3 8.772 8.234 0.641 121.768 o
3 17 4 32.155 32.394 1.122 39.761 o
3 17 5 2.854 3.155 0.442 256.018 o
3 17 6 24.280 24.133 1.072 43.536 o
3 17 7 3.158 2.857 0.459 237.845 o
3 17 8 10.647 11.295 0.906 60.920 o
3 17 9 22.194 21.944 1.089 42.220 o
3 18 0 1.611 2.144 0.376 354.351 o
3 18 1 52.987 51.432 1.337 27.978 o
3 18 2 8.854 9.107 0.718 96.954 o
3 18 3 0.348 0.199 0.343 426.253 o
3 18 4 24.225 25.647 1.061 44.448 o
3 18 5 5.626 6.449 0.531 177.790 o
3 18 6 10.630 10.245 0.768 84.805 o
3 18 7 7.751 7.886 0.641 121.768 o
3 18 8 9.108 8.378 0.652 117.676 o
3 19 0 2.624 2.962 0.414 291.292 o
3 19 1 18.988 19.861 0.928 58.054 o
3 19 2 6.446 5.570 0.547 167.179 o
3 19 3 9.831 10.356 0.823 73.804 o
3 19 4 17.630 16.987 0.945 56.035 o
3 19 5 12.477 10.671 0.779 82.416 o
3 19 6 21.657 21.955 1.089 42.220 o
3 19 7 21.617 20.983 1.094 41.795 o
3 19 8 22.279 23.248 1.116 40.156 o
3 20 0 26.243 28.123 1.083 42.652 o
3 20 1 3.906 3.725 0.459 237.845 o
3 20 2 11.754 11.644 0.846 69.995 o
3 20 3 7.044 6.156 0.519 185.436 o
3 20 4 20.916 20.983 1.017 48.397 o
3 20 5 1.964 2.846 0.459 237.845 o
3 20 6 62.370 63.882 1.669 17.965 o
3 20 7 10.472 9.234 0.757 87.299 o
3 21 0 30.266 30.582 1.155 37.511 o
3 21 1 64.249 68.137 1.647 18.451 o
3 21 2 0.744 0.591 0.387 334.391 o
3 21 3 1.920 1.625 0.414 291.292 o
3 21 4 24.370 25.912 1.127 39.372 o
3 21 5 3.293 3.603 0.486 211.585 o
3 21 6 5.247 5.814 0.531 177.790 o
3 21 7 5.240 5.233 0.514 189.446 o
3 22 0 3.897 4.111 0.486 211.585 o
3 22 1 65.694 62.407 1.647 18.451 o
3 22 2 2.815 2.829 0.459 237.845 o
3 22 3 6.627 6.438 0.547 167.179 o
3 22 4 6.960 7.018 0.624 128.320 o
3 22 5 15.686 15.230 1.000 50.014 o
3 22 6 5.944 5.189 0.514 189.446 o
3 23 0 0.031 0.061 0.398 316.072 o
3 23 1 15.390 15.573 0.962 54.119 o
3 23 2 10.227 9.875 0.873 65.635 o
3 23 3 40.642 40.076 1.387 26.008 o
3 23 4 10.126 10.118 0.868 66.474 o
3 23 5 3.024 3.802 0.481 216.477 o
3 24 0 9.199 8.112 0.658 115.706 o
3 24 1 27.819 30.029 1.216 33.854 o
3 24 2 26.941 27.752 1.183 35.779 o
3 24 3 7.052 8.560 0.729 94.038 o
3 24 4 1.005 1.105 0.409 299.218 o
3 25 0 28.264 29.775 1.437 24.238 o
3 25 1 6.429 7.853 0.774 83.598 o
3 25 2 4.540 4.570 0.564 157.489 o
4 0 0 392.967 395.357 3.924 3.250 o
4 0 1 1.504 1.475 0.293 583.310 o
4 0 2 10.891 10.815 0.448 249.736 o
4 0 3 4.747 4.719 0.392 325.038 o
4 0 4 76.493 77.874 1.199 34.796 o
4 0 5 29.052 28.139 0.779 82.416 o
4 0 6 0.378 0.293 0.437 262.541 o
4 0 7 140.381 139.414 2.117 11.170 o
4 0 8 41.695 44.690 2.105 11.288 o
4 0 9 19.078 19.419 1.669 17.965 o
4 0 11 29.175 28.139 2.155 10.773 o
4 1 0 391.891 389.450 3.907 3.278 o
4 1 1 148.358 149.720 1.713 17.050 o
4 1 2 268.343 266.261 2.851 6.154 o
4 1 3 227.402 226.263 2.498 8.020 o
4 1 4 125.411 124.952 1.647 18.451 o
4 1 5 22.429 23.199 0.718 96.954 o
4 1 6 89.997 89.153 1.514 21.825 o
4 1 7 10.469 9.511 0.724 95.479 o
4 1 8 19.278 19.806 1.249 32.080 o
4 1 9 12.724 13.838 1.503 22.147 o
4 1 10 81.643 83.809 3.255 4.723 o
4 1 11 1.776 1.636 1.343 27.748 o
4 2 0 40.893 40.584 0.707 100.007 o
4 2 1 34.847 34.881 0.663 113.786 o
4 2 2 10.852 9.759 0.448 249.736 o
4 2 3 40.304 38.716 0.785 81.260 o
4 2 4 35.401 34.373 0.796 79.018 o
4 2 5 5.971 6.245 0.492 206.857 o
4 2 6 14.416 15.440 0.691 104.865 o
4 2 7 13.426 12.942 0.846 69.995 o
4 2 8 13.882 13.854 0.917 59.461 o
4 2 9 12.654 13.423 1.470 23.157 o
4 2 10 14.415 14.335 1.652 18.328 o
4 2 11 3.246 3.205 1.359 27.076 o
4 3 0 2.144 1.768 0.315 504.314 o
4 3 1 152.014 151.798 1.757 16.203 o
4 3 2 75.871 75.703 1.094 41.795 o
4 3 3 470.810 467.324 4.719 2.247 o
4 3 4 97.823 97.459 1.415 25.002 o
4 3 5 168.845 165.127 2.128 11.054 o
4 3 6 27.300 25.940 0.851 69.089 o
4 3 7 11.746 12.213 0.823 73.804 o
4 3 8 12.308 11.914 0.901 61.670 o
4 3 9 23.654 24.404 1.210 34.163 o
4 3 10 4.116 3.133 1.299 29.670 o
4 3 11 9.912 9.107 1.580 20.032 o
4 4 0 36.024 37.274 0.707 100.007 o
4 4 1 13.661 12.224 0.464 232.216 o
4 4 2 197.580 201.467 2.260 9.795 o
4 4 3 97.795 95.801 1.348 27.521 o
4 4 4 34.622 35.373 0.818 74.805 o
4 4 5 28.777 28.813 0.801 77.932 o
4 4 6 12.326 11.959 0.669 111.913 o
4 4 7 65.803 65.767 1.597 19.618 o
4 4 8 28.149 29.443 1.194 35.119 o
4 4 9 56.978 59.865 1.724 16.832 o
4 4 10 31.096 30.543 1.376 26.427 o
4 4 11 34.998 33.328 2.277 9.653 o
4 5 0 16.221 15.540 0.508 193.587 o
4 5 1 61.313 60.478 0.956 54.747 o
4 5 2 140.601 136.805 1.719 16.941 o
4 5 3 110.955 109.252 1.498 22.311 o
4 5 4 86.522 87.976 1.365 26.857 o
4 5 5 84.331 85.324 1.420 24.808 o
4 5 6 140.958 139.121 2.034 12.099 o
4 5 7 15.680 16.540 0.912 60.184 o
4 5 8 4.500 4.449 0.542 170.608 o
4 5 9 14.245 14.020 1.017 48.397 o
4 5 10 60.925 58.306 1.840 14.776 o
4 5 11 13.188 13.257 1.359 27.076 o
4 6 0 132.058 132.677 1.641 18.575 o
4 6 1 44.254 43.817 0.829 72.823 o
4 6 2 32.254 32.582 0.735 92.629 o
4 6 3 5.053 5.465 0.431 269.316 o
4 6 4 56.284 56.499 1.083 42.652 o
4 6 5 13.383 13.887 0.630 126.079 o
4 6 6 41.873 41.617 1.083 42.652 o
4 6 7 19.999 20.314 0.868 66.474 o
4 6 8 10.023 9.118 0.768 84.805 o
4 6 9 38.848 36.533 1.464 23.332 o
4 6 10 28.975 28.399 1.376 26.427 o
4 6 11 0.337 0.503 0.525 181.553 o
4 7 0 89.841 88.766 1.277 30.706 o
4 7 1 249.995 247.301 2.752 6.607 o
4 7 2 185.501 178.395 2.155 10.773 o
4 7 3 60.861 60.915 1.089 42.220 o
4 7 4 44.006 43.292 0.962 54.119 o
4 7 5 35.566 35.483 0.950 55.385 o
4 7 6 42.752 40.733 1.094 41.795 o
4 7 7 27.207 26.376 0.973 52.896 o
4 7 8 34.446 32.875 1.310 29.171 o
4 7 9 5.037 5.653 0.630 126.079 o
4 7 10 16.865 15.733 1.122 39.761 o
4 7 11 5.730 6.819 0.680 108.303 o
4 8 0 140.118 133.456 1.713 17.050 o
4 8 1 43.818 43.292 0.873 65.635 o
4 8 2 163.100 162.662 2.023 12.232 o
4 8 3 89.468 87.772 1.393 25.802 o
4 8 4 8.437 8.991 0.542 170.608 o
4 8 5 47.182 48.597 1.105 40.963 o
4 8 6 56.800 54.648 1.288 30.181 o
4 8 7 53.728 52.073 1.326 28.447 o
4 8 8 3.934 3.769 0.547 167.179 o
4 8 9 83.890 86.031 2.139 10.940 o
4 8 10 14.444 15.645 1.127 39.372 o
4 8 11 22.391 20.784 1.282 30.442 o
4 9 0 134.397 131.213 1.735 16.619 o
4 9 1 4.050 4.283 0.409 299.218 o
4 9 2 5.150 5.681 0.453 243.682 o
4 9 3 31.720 32.217 0.840 70.919 o
4 9 4 2.267 1.453 0.459 237.845 o
4 9 5 46.885 45.270 1.122 39.761 o
4 9 6 140.777 136.816 2.133 10.997 o
4 9 7 6.368 6.289 0.597 140.476 o
4 9 8 93.348 89.933 2.133 10.997 o
4 9 9 16.169 17.186 1.116 40.156 o
4 9 10 1.403 0.779 0.519 185.436 o
4 9 11 8.995 9.936 0.868 66.474 o
4 10 0 69.901 69.641 1.205 34.478 o
4 10 1 34.921 34.494 0.834 71.862 o
4 10 2 40.584 41.529 0.934 57.369 o
4 10 3 17.629 17.048 0.680 108.303 o
4 10 4 34.840 36.368 0.962 54.119 o
4 10 5 24.609 27.371 0.895 62.434 o
4 10 6 28.054 26.631 0.984 51.714 o
4 10 7 42.897 44.292 1.249 32.080 o
4 10 8 19.663 19.336 0.995 50.572 o
4 10 9 18.299 20.099 1.160 37.155 o
4 10 10 14.737 15.225 1.122 39.761 o
4 11 0 12.875 12.760 0.619 130.622 o
4 11 1 271.189 268.410 3.122 5.133 o
4 11 2 18.693 18.839 0.696 103.207 o
4 11 3 30.719 29.919 0.873 65.635 o
4 11 4 23.137 24.746 0.851 69.089 o
4 11 5 8.853 9.964 0.669 111.913 o
4 11 6 35.338 36.832 1.105 40.963 o
4 11 7 51.817 52.554 1.398 25.598 o
4 11 8 9.990 8.925 0.741 91.252 o
4 11 9 0.126 0.354 0.525 181.553 o
4 11 10 6.677 7.134 0.685 106.563 o
4 12 0 246.821 242.239 2.990 5.598 o
4 12 1 68.065 68.275 1.282 30.442 o
4 12 2 47.215 46.663 1.067 43.988 o
4 12 3 41.998 42.374 1.067 43.988 o
4 12 4 69.509 69.513 1.409 25.198 o
4 12 5 19.662 19.474 0.879 64.812 o
4 12 6 62.182 63.700 1.481 22.813 o
4 12 7 37.305 40.368 1.249 32.080 o
4 12 8 0.338 0.857 0.398 316.072 o
4 12 9 24.090 24.044 1.304 29.419 o
4 12 10 1.459 1.630 0.542 170.608 o
4 13 0 67.575 69.734 1.321 28.685 o
4 13 1 45.076 43.281 1.061 44.448 o
4 13 2 0.034 0.133 0.309 522.486 o
4 13 3 12.442 12.406 0.707 100.007 o
4 13 4 26.145 26.293 0.934 57.369 o
4 13 5 6.195 6.781 0.597 140.476 o
4 13 6 49.795 49.713 1.337 27.978 o
4 13 7 10.693 10.610 0.741 91.252 o
4 13 8 54.365 53.023 1.520 21.666 o
4 13 9 9.087 9.383 0.768 84.805 o
4 13 10 10.099 8.764 0.718 96.954 o
4 14 0 3.477 2.840 0.370 365.007 o
4 14 1 46.167 46.514 1.138 38.611 o
4 14 2 14.035 14.528 0.741 91.252 o
4 14 3 23.726 22.679 0.895 62.434 o
4 14 4 8.490 9.267 0.641 121.768 o
4 14 5 9.034 8.571 0.647 119.696 o
4 14 6 12.791 12.594 0.829 72.823 o
4 14 7 31.376 30.875 1.183 35.779 o
4 14 8 34.772 34.422 1.277 30.706 o
4 14 9 10.300 11.881 0.906 60.920 o
4 15 0 12.348 12.738 0.724 95.479 o
4 15 1 46.011 45.353 1.172 36.457 o
4 15 2 15.322 15.164 0.785 81.260 o
4 15 3 74.815 74.211 1.536 21.201 o
4 15 4 43.028 40.346 1.205 34.478 o
4 15 5 2.171 1.973 0.398 316.072 o
4 15 6 54.722 55.090 1.475 22.984 o
4 15 7 1.480 2.144 0.431 269.316 o
4 15 8 1.900 2.260 0.448 249.736 o
4 15 9 27.787 26.785 1.166 36.803 o
4 16 0 90.301 91.226 1.702 17.272 o
4 16 1 53.933 52.858 1.293 29.924 o
4 16 2 18.189 16.672 0.846 69.995 o
4 16 3 27.425 27.548 1.022 47.875 o
4 16 4 54.879 54.339 1.409 25.198 o
4 16 5 20.893 21.364 0.995 50.572 o
4 16 6 17.211 18.424 0.978 52.300 o
4 16 7 2.903 3.399 0.470 226.784 o
4 16 8 11.201 9.897 0.790 80.127 o
4 16 9 1.494 2.476 0.453 243.682 o
4 17 0 0.951 1.194 0.348 412.829 o
4 17 1 17.697 17.175 0.873 65.635 o
4 17 2 20.407 19.507 0.917 59.461 o
4 17 3 1.548 0.962 0.365 376.152 o
4 17 4 61.757 60.020 1.531 21.355 o
4 17 5 9.648 10.439 0.807 76.868 o
4 17 6 41.728 42.695 1.365 26.857 o
4 17 7 10.077 9.488 0.779 82.416 o
4 17 8 0.019 0.055 0.392 325.038 o
4 18 0 1.992 2.056 0.392 325.038 o
4 18 1 31.980 31.245 1.083 42.652 o
4 18 2 6.100 6.162 0.547 167.179 o
4 18 3 20.931 21.779 1.000 50.014 o
4 18 4 1.881 1.597 0.409 299.218 o
4 18 5 1.843 2.327 0.442 256.018 o
4 18 6 26.253 26.813 1.144 38.239 o
4 18 7 6.319 5.753 0.536 174.144 o
4 18 8 16.535 16.407 0.995 50.572 o
4 19 0 8.970 7.306 0.663 113.786 o
4 19 1 40.741 42.938 1.288 30.181 o
4 19 2 10.788 11.284 0.834 71.862 o
4 19 3 32.930 35.306 1.210 34.163 o
4 19 4 9.249 8.566 0.641 121.768 o
4 19 5 5.608 5.493 0.525 181.553 o
4 19 6 37.164 37.368 1.310 29.171 o
4 19 7 14.620 13.036 0.917 59.461 o
4 20 0 0.450 0.282 0.376 354.351 o
4 20 1 32.010 32.925 1.188 35.447 o
4 20 2 7.702 8.505 0.619 130.622 o
4 20 3 13.182 13.301 0.884 64.005 o
4 20 4 23.053 22.701 1.100 41.376 o
4 20 5 29.280 29.277 1.205 34.478 o
4 20 6 1.141 1.873 0.437 262.541 o
4 20 7 1.424 1.967 0.437 262.541 o
4 21 0 7.363 8.052 0.630 126.079 o
4 21 1 8.066 7.786 0.702 101.588 o
4 21 2 8.124 9.588 0.829 72.823 o
4 21 3 34.222 34.025 1.265 31.245 o
4 21 4 19.089 20.275 1.055 44.914 o
4 21 5 1.555 2.244 0.442 256.018 o
4 21 6 23.529 22.674 1.116 40.156 o
4 22 0 0.006 0.044 0.414 291.292 o
4 22 1 17.599 14.396 0.973 52.896 o
4 22 2 8.657 9.787 0.669 111.913 o
4 22 3 27.374 25.636 1.177 36.115 o
4 22 4 1.917 2.105 0.475 221.541 o
4 22 5 1.098 1.094 0.409 299.218 o
4 23 0 4.100 4.824 0.514 189.446 o
4 23 1 2.392 2.205 0.459 237.845 o
4 23 2 18.606 17.860 1.039 46.359 o
4 23 3 1.045 1.000 0.409 299.218 o
4 23 4 64.774 64.463 1.663 18.085 o
4 24 0 21.982 22.011 1.094 41.795 o
4 24 1 19.774 19.756 1.055 44.914 o
4 24 2 1.771 1.630 0.426 276.356 o
4 24 3 15.415 14.053 0.973 52.896 o
4 25 1 4.995 5.266 0.586 145.827 o
5 0 1 5.617 6.018 0.414 291.292 o
5 0 2 335.220 334.105 3.542 3.988 o
5 0 3 32.095 31.438 0.774 83.598 o
5 0 4 0.084 0.287 0.376 354.351 o
5 0 5 7.754 7.140 0.564 157.489 o
5 0 6 48.587 47.856 1.166 36.803 o
5 0 7 1.167 1.503 0.376 354.351 o
5 0 8 37.833 37.009 1.183 35.779 o
5 0 9 0.104 0.691 0.801 77.932 o
5 0 10 76.814 75.786 3.155 5.025 o
5 0 11 5.424 3.774 1.531 21.355 o
5 1 0 40.993 40.529 0.779 82.416 o
5 1 1 136.453 134.926 1.674 17.847 o
5 1 2 175.784 171.078 2.072 11.652 o
5 1 3 202.057 200.781 2.387 8.780 o
5 1 4 72.736 70.663 1.221 33.548 o
5 1 5 191.622 188.132 2.409 8.619 o
5 1 6 47.364 45.922 1.127 39.372 o
5 1 7 29.794 30.217 1.006 49.466 o
5 1 8 48.400 48.260 1.326 28.447 o
5 1 9 31.102 30.383 1.149 37.873 o
5 1 10 5.476 5.261 0.906 60.920 o
5 1 11 25.078 24.061 2.023 12.232 o
5 2 0 43.306 44.038 0.840 70.919 o
5 2 1 93.897 91.784 1.299 29.670 o
5 2 2 0.466 0.575 0.337 440.343 o
5 2 3 24.278 24.735 0.696 103.207 o
5 2 4 43.292 44.132 0.956 54.747 o
5 2 5 32.553 32.168 0.895 62.434 o
5 2 6 12.605 11.201 0.702 101.588 o
5 2 7 16.855 16.899 0.857 68.201 o
5 2 8 3.087 3.283 0.431 269.316 o
5 2 9 35.663 35.854 1.431 24.426 o
5 2 10 2.527 2.868 0.575 151.490 o
5 2 11 11.332 12.412 1.630 18.828 o
5 3 0 237.861 233.143 2.597 7.417 o
5 3 1 393.758 385.139 3.946 3.214 o
5 3 2 257.179 254.855 2.868 6.083 o
5 3 3 9.621 9.665 0.519 185.436 o
5 3 4 30.266 28.620 0.812 75.826 o
5 3 5 15.727 16.263 0.685 106.563 o
5 3 6 56.247 54.515 1.243 32.366 o
5 3 7 4.071 4.062 0.437 262.541 o
5 3 8 0.495 0.696 0.359 387.815 o
5 3 9 6.764 5.554 0.619 130.622 o
5 3 10 51.042 51.658 1.735 16.619 o
5 3 11 17.905 16.534 1.183 35.779 o
5 4 0 64.342 61.572 1.033 46.856 o
5 4 1 5.091 5.349 0.409 299.218 o
5 4 2 88.388 86.650 1.310 29.171 o
5 4 3 1.311 1.370 0.387 334.391 o
5 4 4 16.757 17.463 0.669 111.913 o
5 4 5 73.453 73.708 1.376 26.427 o
5 4 6 53.029 50.282 1.216 33.854 o
5 4 7 111.599 108.699 1.907 13.766 o
5 4 8 20.602 19.706 0.973 52.896 o
5 4 9 5.167 6.283 0.641 121.768 o
5 4 10 25.057 24.840 1.299 29.670 o
5 4 11 12.329 11.102 0.917 59.461 o
5 5 0 73.366 73.741 1.155 37.511 o
5 5 1 37.188 36.014 0.785 81.260 o
5 5 2 43.410 43.038 0.890 63.212 o
5 5 3 69.397 69.392 1.199 34.796 o
5 5 4 7.284 6.316 0.514 189.446 o
5 5 5 60.952 60.169 1.260 31.520 o
5 5 6 82.201 81.096 1.564 20.459 o
5 5 7 10.085 10.461 0.680 108.303 o
5 5 8 143.318 141.690 2.360 8.987 o
5 5 9 15.430 14.335 1.072 43.536 o
5 5 10 31.848 30.322 1.464 23.332 o
5 5 11 0.048 0.061 0.519 185.436 o
5 6 0 0.007 0.105 0.326 470.703 o
5 6 1 74.275 71.785 1.177 36.115 o
5 6 2 7.057 6.659 0.464 232.216 o
5 6 3 34.549 35.168 0.862 67.329 o
5 6 4 28.009 28.697 0.846 69.995 o
5 6 5 19.006 18.817 0.790 80.127 o
5 6 6 13.032 13.567 0.741 91.252 o
5 6 7 19.598 21.232 0.917 59.461 o
5 6 8 0.534 1.194 0.801 77.932 o
5 6 9 27.815 27.548 1.299 29.670 o
5 6 10 5.762 6.676 0.685 106.563 o
5 6 11 39.562 40.148 1.547 20.899 o
5 7 0 12.265 11.898 0.547 167.179 o
5 7 1 158.290 155.815 1.978 12.784 o
5 7 2 14.495 13.064 0.586 145.827 o
5 7 3 65.750 64.778 1.205 34.478 o
5 7 4 30.231 30.433 0.879 64.812 o
5 7 5 35.052 34.864 0.984 51.714 o
5 7 6 106.733 105.809 1.846 14.688 o
5 7 7 9.143 9.820 0.752 88.588 o
5 7 8 5.191 5.316 0.497 202.286 o
5 7 9 9.544 9.632 0.846 69.995 o
5 7 10 18.310 18.026 1.188 35.447 o
5 7 11 2.050 2.448 0.569 154.446 o
5 8 0 16.378 16.495 0.624 128.320 o
5 8 1 2.637 3.227 0.420 283.677 o
5 8 2 30.041 29.454 0.807 76.868 o
5 8 3 18.318 18.800 0.696 103.207 o
5 8 4 90.982 90.419 1.547 20.899 o
5 8 5 52.627 50.758 1.216 33.854 o
5 8 6 22.589 22.198 0.917 59.461 o
5 8 7 101.893 101.233 1.912 13.687 o
5 8 8 2.689 2.979 0.448 249.736 o
5 8 9 0.635 1.116 0.514 189.446 o
5 8 10 6.248 7.051 0.685 106.563 o
5 9 0 26.088 25.807 0.757 87.299 o
5 9 1 58.937 58.936 1.138 38.611 o
5 9 2 38.650 37.832 0.928 58.054 o
5 9 3 8.941 9.168 0.597 140.476 o
5 9 4 1.898 2.702 0.381 344.154 o
5 9 5 11.807 11.036 0.707 100.007 o
5 9 6 21.311 21.281 0.890 63.212 o
5 9 7 10.349 11.527 0.768 84.805 o
5 9 8 24.652 24.404 1.067 43.988 o
5 9 9 0.688 1.337 0.414 291.292 o
5 9 10 34.221 33.052 1.431 24.426 o
5 10 0 38.437 38.921 0.939 56.696 o
5 10 1 12.390 12.848 0.619 130.622 o
5 10 2 0.601 1.415 0.442 256.018 o
5 10 3 45.530 43.728 1.072 43.536 o
5 10 4 116.460 113.181 1.851 14.600 o
5 10 5 19.782 19.143 0.846 69.995 o
5 10 6 68.087 69.712 1.536 21.201 o
5 10 7 2.061 2.034 0.414 291.292 o
5 10 8 2.079 2.083 0.431 269.316 o
5 10 9 21.344 21.558 1.083 42.652 o
5 10 10 0.575 0.873 0.531 177.790 o
5 11 0 36.279 37.246 0.962 54.119 o
5 11 1 66.512 69.093 1.299 29.670 o
5 11 2 16.554 16.435 0.729 94.038 o
5 11 3 27.474 26.188 0.895 62.434 o
5 11 4 34.924 34.997 1.044 45.870 o
5 11 5 20.097 20.618 0.901 61.670 o
5 11 6 78.823 80.919 1.691 17.499 o
5 11 7 4.473 4.316 0.470 226.784 o
5 11 8 11.181 12.848 0.890 63.212 o
5 11 9 15.455 15.683 0.995 50.572 o
5 11 10 1.209 2.045 0.542 170.608 o
5 12 0 1.453 1.630 0.481 216.477 o
5 12 1 22.387 21.966 0.823 73.804 o
5 12 2 127.302 125.698 1.951 13.149 o
5 12 3 28.494 27.758 0.939 56.696 o
5 12 4 84.994 86.628 1.641 18.575 o
5 12 5 0.398 0.978 0.348 412.829 o
5 12 6 0.439 0.519 0.359 387.815 o
5 12 7 14.110 13.401 0.801 77.932 o
5 12 8 8.666 8.168 0.641 121.768 o
5 12 9 0.961 1.730 0.431 269.316 o
5 12 10 5.478 5.935 0.536 174.144 o
5 13 0 12.325 12.340 0.707 100.007 o
5 13 1 21.770 19.187 0.840 70.919 o
5 13 2 0.420 0.486 0.337 440.343 o
5 13 3 19.196 19.347 0.857 68.201 o
5 13 4 3.522 4.443 0.426 276.356 o
5 13 5 18.021 17.954 0.912 60.184 o
5 13 6 67.119 67.972 1.614 19.217 o
5 13 7 13.853 16.390 0.934 57.369 o
5 13 8 32.864 32.803 1.277 30.706 o
5 13 9 8.539 8.869 0.663 113.786 o
5 14 0 52.517 53.117 1.265 31.245 o
5 14 1 16.301 16.352 0.790 80.127 o
5 14 2 7.159 7.632 0.669 111.913 o
5 14 3 47.711 47.580 1.238 32.655 o
5 14 4 82.737 87.042 1.741 16.513 o
5 14 5 41.623 42.723 1.254 31.798 o
5 14 6 55.191 54.488 1.475 22.984 o
5 14 7 5.593 6.471 0.542 170.608 o
5 14 8 8.642 8.239 0.658 115.706 o
5 14 9 6.775 6.863 0.553 163.852 o
5 15 0 16.344 15.545 0.829 72.823 o
5 15 1 218.841 220.101 2.951 5.746 o
5 15 2 3.349 3.111 0.398 316.072 o
5 15 3 3.325 3.763 0.426 276.356 o
5 15 4 19.842 20.911 0.978 52.300 o
5 15 5 1.394 1.332 0.398 316.072 o
5 15 6 13.639 15.440 0.917 59.461 o
5 15 7 18.181 18.496 1.011 48.927 o
5 15 8 8.410 8.908 0.658 115.706 o
5 15 9 2.110 2.653 0.459 237.845 o
5 16 0 4.568 4.625 0.437 262.541 o
5 16 1 60.325 62.014 1.453 23.689 o
5 16 2 60.060 61.235 1.470 23.157 o
5 16 3 51.552 51.432 1.393 25.802 o
5 16 4 20.741 22.436 1.006 49.466 o
5 16 5 18.354 18.922 0.956 54.747 o
5 16 6 5.024 5.388 0.519 185.436 o
5 16 7 8.715 7.941 0.746 89.905 o
5 16 8 11.046 12.069 0.906 60.920 o
5 17 0 11.523 10.605 0.702 101.588 o
5 17 1 4.246 4.305 0.453 243.682 o
5 17 2 14.953 14.876 0.868 66.474 o
5 17 3 23.465 24.006 1.028 47.361 o
5 17 4 9.163 8.344 0.696 103.207 o
5 17 5 3.094 3.719 0.475 221.541 o
5 17 6 53.987 53.355 1.542 21.049 o
5 17 7 4.256 4.962 0.519 185.436 o
5 17 8 59.730 59.528 1.608 19.349 o
5 18 0 6.293 6.344 0.647 119.696 o
5 18 1 8.312 7.786 0.691 104.865 o
5 18 2 10.974 11.682 0.823 73.804 o
5 18 3 24.279 24.221 1.072 43.536 o
5 18 4 24.399 25.802 1.105 40.963 o
5 18 5 29.330 29.847 1.188 35.447 o
5 18 6 7.897 7.322 0.647 119.696 o
5 18 7 2.582 2.968 0.470 226.784 o
5 19 0 0.001 0.144 0.370 365.007 o
5 19 1 53.197 54.178 1.503 22.147 o
5 19 2 30.933 30.681 1.149 37.873 o
5 19 3 3.828 4.476 0.497 202.286 o
5 19 4 75.207 76.554 1.813 15.230 o
5 19 5 2.827 3.183 0.481 216.477 o
5 19 6 5.196 5.283 0.525 181.553 o
5 20 0 0.118 0.442 0.381 344.154 o
5 20 1 51.631 52.244 1.470 23.157 o
5 20 2 2.057 2.183 0.442 256.018 o
5 20 3 55.935 57.185 1.580 20.032 o
5 20 4 0.449 0.055 0.387 334.391 o
5 20 5 12.786 12.053 0.945 56.035 o
5 20 6 0.004 0.006 0.392 325.038 o
5 21 0 1.125 0.928 0.403 307.472 o
5 21 1 3.915 3.553 0.481 216.477 o
5 21 2 41.882 39.501 1.343 27.748 o
5 21 3 8.185 8.350 0.663 113.786 o
5 21 4 43.709 44.651 1.426 24.616 o
5 21 5 10.234 8.908 0.669 111.913 o
5 22 0 8.779 8.013 0.641 121.768 o
5 22 1 0.732 0.912 0.409 299.218 o
5 22 2 1.011 1.790 0.437 262.541 o
5 22 3 4.505 4.857 0.514 189.446 o
5 22 4 13.498 11.865 0.950 55.385 o
5 23 1 1.709 1.901 0.437 262.541 o
5 23 2 6.065 5.416 0.580 148.618 o
5 23 3 9.322 8.759 0.647 119.696 o
5 24 0 3.320 2.078 0.442 256.018 o
5 24 1 13.603 14.799 0.950 55.385 o
5 24 2 6.663 7.438 0.912 60.184 o
6 0 0 139.110 135.424 1.774 15.902 o
6 0 1 41.693 39.816 0.879 64.812 o
6 0 2 18.770 19.325 0.658 115.706 o
6 0 3 11.593 12.351 0.602 137.911 o
6 0 4 0.660 1.055 0.437 262.541 o
6 0 5 15.743 14.313 0.752 88.588 o
6 0 6 53.175 50.957 1.254 31.798 o
6 0 7 17.122 17.744 0.868 66.474 o
6 0 8 27.577 28.498 1.094 41.795 o
6 0 9 37.328 39.302 1.321 28.685 o
6 0 10 3.725 4.968 0.525 181.553 o
6 0 11 5.987 7.493 0.636 123.895 o
6 1 0 65.816 66.789 1.133 38.989 o
6 1 1 121.089 119.354 1.647 18.451 o
6 1 2 114.473 114.706 1.636 18.701 o
6 1 3 98.944 99.846 1.542 21.049 o
6 1 4 96.102 94.149 1.564 20.459 o
6 1 5 65.748 65.098 1.337 27.978 o
6 1 6 101.212 101.233 1.785 15.705 o
6 1 7 1.837 2.255 0.392 325.038 o
6 1 8 1.030 1.249 0.392 325.038 o
6 1 9 0.991 1.116 0.409 299.218 o
6 1 10 41.116 43.795 1.404 25.397 o
6 1 11 28.818 29.836 1.398 25.598 o
6 2 0 4.817 4.874 0.442 256.018 o
6 2 1 86.824 86.258 1.348 27.521 o
6 2 2 179.862 175.267 2.216 10.190 o
6 2 3 17.634 16.650 0.680 108.303 o
6 2 4 20.573 21.038 0.763 86.038 o
6 2 5 18.515 19.690 0.807 76.868 o
6 2 6 74.043 72.464 1.514 21.825 o
6 2 7 49.431 50.028 1.332 28.211 o
6 2 8 13.635 14.843 0.873 65.635 o
6 2 9 11.169 11.505 0.873 65.635 o
6 2 10 45.668 46.138 1.459 23.509 o
6 2 11 3.029 4.321 0.608 135.415 o
6 3 0 32.779 31.897 0.801 77.932 o
6 3 1 77.969 76.659 1.271 30.974 o
6 3 2 3.014 3.332 0.431 269.316 o
6 3 3 202.414 200.583 2.481 8.128 o
6 3 4 56.343 56.870 1.188 35.447 o
6 3 5 108.255 106.179 1.774 15.902 o
6 3 6 56.852 55.969 1.332 28.211 o
6 3 7 12.246 11.832 0.801 77.932 o
6 3 8 49.889 49.581 1.393 25.802 o
6 3 9 12.492 11.284 0.818 74.805 o
6 3 10 1.200 1.625 0.459 237.845 o
6 4 0 9.433 10.002 0.519 185.436 o
6 4 1 87.214 88.153 1.393 25.802 o
6 4 2 0.953 0.868 0.409 299.218 o
6 4 3 66.742 66.916 1.249 32.080 o
6 4 4 1.978 0.917 0.492 206.857 o
6 4 5 20.148 19.115 0.818 74.805 o
6 4 6 18.936 19.673 0.879 64.812 o
6 4 7 7.688 8.184 0.658 115.706 o
6 4 8 8.367 7.814 0.696 103.207 o
6 4 9 9.483 9.035 0.763 86.038 o
6 4 10 5.756 7.079 0.564 157.489 o
6 5 0 79.349 77.007 1.293 29.924 o
6 5 1 106.876 105.257 1.569 20.315 o
6 5 2 48.821 47.619 1.028 47.361 o
6 5 3 4.369 4.565 0.519 185.436 o
6 5 4 38.108 36.870 1.006 49.466 o
6 5 5 4.122 4.189 0.414 291.292 o
6 5 6 79.725 79.720 1.619 19.086 o
6 5 7 20.567 20.729 0.928 58.054 o
6 5 8 3.282 3.421 0.453 243.682 o
6 5 9 2.568 2.730 0.459 237.845 o
6 5 10 50.647 52.001 1.525 21.510 o
6 6 0 70.651 71.033 1.254 31.798 o
6 6 1 9.788 9.538 0.542 170.608 o
6 6 2 8.695 9.555 0.564 157.489 o
6 6 3 23.831 24.525 0.807 76.868 o
6 6 4 68.407 67.065 1.359 27.076 o
6 6 5 42.547 43.883 1.144 38.239 o
6 6 6 70.656 73.990 1.569 20.315 o
6 6 7 96.382 98.774 1.907 13.766 o
6 6 8 12.001 13.246 0.895 62.434 o
6 6 9 11.288 13.158 0.912 60.184 o
6 6 10 8.116 8.626 0.663 113.786 o
6 7 0 87.749 84.965 1.426 24.616 o
6 7 1 61.416 61.440 1.188 35.447 o
6 7 2 18.463 18.048 0.718 96.954 o
6 7 3 56.718 57.676 1.210 34.163 o
6 7 4 4.994 4.940 0.420 283.677 o
6 7 5 11.356 10.168 0.707 100.007 o
6 7 6 6.836 6.344 0.481 216.477 o
6 7 7 1.580 2.321 0.420 283.677 o
6 7 8 51.279 53.443 1.470 23.157 o
6 7 9 6.710 7.073 0.564 157.489 o
6 7 10 21.552 22.740 1.127 39.372 o
6 8 0 59.992 59.367 1.183 35.779 o
6 8 1 53.701 53.173 1.127 39.372 o
6 8 2 47.679 46.823 1.089 42.220 o
6 8 3 24.068 22.917 0.829 72.823 o
6 8 4 17.516 16.927 0.785 81.260 o
6 8 5 0.149 0.260 0.365 376.152 o
6 8 6 11.840 10.842 0.779 82.416 o
6 8 7 18.621 19.060 0.939 56.696 o
6 8 8 0.265 0.729 0.392 325.038 o
6 8 9 27.779 30.289 1.188 35.447 o
6 8 10 0.908 1.586 0.431 269.316 o
6 9 0 0.061 0.232 0.437 262.541 o
6 9 1 1.653 1.470 0.475 221.541 o
6 9 2 6.546 5.482 0.575 151.490 o
6 9 3 26.568 25.442 0.895 62.434 o
6 9 4 40.922 40.026 1.122 39.761 o
6 9 5 33.974 33.765 1.094 41.795 o
6 9 6 75.138 76.090 1.669 17.965 o
6 9 7 5.337 5.101 0.547 167.179 o
6 9 8 2.655 3.161 0.470 226.784 o
6 9 9 5.123 5.863 0.542 170.608 o
6 9 10 3.943 4.570 0.508 193.587 o
6 10 0 90.896 88.551 1.575 20.173 o
6 10 1 1.063 1.464 0.337 440.343 o
6 10 2 109.152 106.970 1.774 15.902 o
6 10 3 0.801 1.299 0.359 387.815 o
6 10 4 48.959 48.376 1.254 31.798 o
6 10 5 2.068 2.293 0.387 334.391 o
6 10 6 13.320 12.732 0.862 67.329 o
6 10 7 57.660 58.102 1.525 21.510 o
6 10 8 6.649 7.869 0.663 113.786 o
6 10 9 42.020 42.424 1.404 25.397 o
6 11 0 0.112 0.260 0.321 487.074 o
6 11 1 27.518 26.835 0.906 60.920 o
6 11 2 3.248 3.725 0.409 299.218 o
6 11 3 6.588 6.852 0.519 185.436 o
6 11 4 2.250 2.492 0.381 344.154 o
6 11 5 20.584 19.358 0.923 58.751 o
6 11 6 34.112 33.234 1.177 36.115 o
6 11 7 5.105 5.134 0.508 193.587 o
6 11 8 18.747 17.728 1.039 46.359 o
6 11 9 5.895 6.615 0.613 132.986 o
6 12 0 64.053 64.512 1.370 26.641 o
6 12 1 12.824 12.859 0.757 87.299 o
6 12 2 30.396 30.670 1.028 47.361 o
6 12 3 22.247 20.773 0.901 61.670 o
6 12 4 28.428 27.377 1.022 47.875 o
6 12 5 23.410 23.199 1.000 50.014 o
6 12 6 39.503 40.567 1.277 30.706 o
6 12 7 17.026 17.540 1.011 48.927 o
6 12 8 1.405 2.420 0.459 237.845 o
6 12 9 34.946 36.683 1.315 28.927 o
6 13 0 20.892 21.607 0.901 61.670 o
6 13 1 121.524 120.359 2.000 12.504 o
6 13 2 10.194 10.826 0.674 110.086 o
6 13 3 4.196 4.399 0.437 262.541 o
6 13 4 3.865 4.681 0.459 237.845 o
6 13 5 8.707 9.544 0.630 126.079 o
6 13 6 35.082 34.804 1.249 32.080 o
6 13 7 16.882 15.567 0.984 51.714 o
6 13 8 10.364 10.516 0.746 89.905 o
6 13 9 14.569 14.053 0.950 55.385 o
6 14 0 8.895 9.306 0.647 119.696 o
6 14 1 39.362 41.407 1.188 35.447 o
6 14 2 93.660 91.706 1.796 15.513 o
6 14 3 47.326 48.149 1.332 28.211 o
6 14 4 40.855 39.739 1.254 31.798 o
6 14 5 21.317 22.663 1.044 45.870 o
6 14 6 13.813 13.191 0.934 57.369 o
6 14 7 12.546 13.854 0.950 55.385 o
6 14 8 15.418 15.363 0.978 52.300 o
6 15 0 26.620 28.653 1.028 47.361 o
6 15 1 18.417 18.673 0.901 61.670 o
6 15 2 1.250 1.022 0.365 376.152 o
6 15 3 31.986 32.356 1.138 38.611 o
6 15 4 4.247 3.819 0.464 232.216 o
6 15 5 2.151 1.912 0.426 276.356 o
6 15 6 41.721 43.607 1.376 26.427 o
6 15 7 3.066 3.526 0.486 211.585 o
6 15 8 40.823 41.529 1.376 26.427 o
6 16 0 6.839 7.339 0.641 121.768 o
6 16 1 11.034 11.815 0.790 80.127 o
6 16 2 8.302 7.013 0.586 145.827 o
6 16 3 30.206 28.421 1.122 39.761 o
6 16 4 30.722 31.974 1.183 35.779 o
6 16 5 16.649 16.849 1.000 50.014 o
6 16 6 26.360 28.869 1.177 36.115 o
6 16 7 0.073 0.094 0.398 316.072 o
6 16 8 22.255 21.276 1.089 42.220 o
6 17 0 8.225 8.997 0.696 103.207 o
6 17 1 71.939 72.365 1.663 18.085 o
6 17 2 14.380 14.335 0.895 62.434 o
6 17 3 12.411 12.821 0.879 64.812 o
6 17 4 81.056 80.427 1.824 15.046 o
6 17 5 1.569 1.890 0.437 262.541 o
6 17 6 23.449 22.834 1.105 40.963 o
6 17 7 10.925 11.931 0.873 65.635 o
6 18 0 22.288 21.364 1.039 46.359 o
6 18 1 64.549 66.772 1.636 18.701 o
6 18 2 6.917 7.505 0.613 132.986 o
6 18 3 69.826 69.723 1.713 17.050 o
6 18 4 9.970 9.897 0.796 79.018 o
6 18 5 18.036 17.767 1.006 49.466 o
6 18 6 8.269 8.648 0.597 140.476 o
6 18 7 6.982 7.101 0.553 163.852 o
6 19 0 6.036 7.018 0.691 104.865 o
6 19 1 17.710 18.640 0.995 50.572 o
6 19 2 6.357 6.968 0.608 135.415 o
6 19 3 46.761 47.088 1.470 23.157 o
6 19 4 31.866 31.449 1.254 31.798 o
6 19 5 6.297 6.018 0.542 170.608 o
6 19 6 14.510 14.335 0.945 56.035 o
6 20 1 12.369 13.257 0.923 58.751 o
6 20 2 1.406 1.840 0.437 262.541 o
6 20 3 3.591 3.023 0.475 221.541 o
6 20 4 12.108 12.379 0.923 58.751 o
6 20 5 0.264 0.088 0.381 344.154 o
6 21 0 2.464 2.282 0.448 249.736 o
6 21 1 8.899 8.090 0.652 117.676 o
6 21 2 9.779 8.787 0.768 84.805 o
6 21 3 21.334 20.972 1.105 40.963 o
6 21 4 56.047 54.571 1.558 20.604 o
6 22 0 24.521 23.713 1.105 40.963 o
6 22 1 23.227 21.955 1.100 41.376 o
6 22 2 5.874 6.256 0.547 167.179 o
6 22 3 29.478 28.974 1.210 34.163 o
6 23 0 0.148 0.680 0.403 307.472 o
6 23 1 10.471 9.394 0.873 65.635 o
6 23 2 11.924 13.511 1.553 20.751 o
7 0 1 222.132 220.477 2.719 6.769 o
7 0 2 12.313 11.561 0.636 123.895 o
7 0 3 3.801 3.780 0.536 174.144 o
7 0 4 2.120 2.630 0.381 344.154 o
7 0 5 2.658 3.017 0.403 307.472 o
7 0 6 14.667 14.440 0.818 74.805 o
7 0 7 31.591 30.681 1.144 38.239 o
7 0 8 0.911 1.194 0.409 299.218 o
7 0 9 3.894 4.670 0.514 189.446 o
7 0 10 0.262 0.221 0.426 276.356 o
7 1 1 57.371 56.809 1.149 37.873 o
7 1 2 2.145 2.056 0.486 211.585 o
7 1 3 119.395 118.713 1.851 14.600 o
7 1 4 65.159 66.607 1.382 26.216 o
7 1 5 22.516 22.138 0.901 61.670 o
7 1 6 61.476 61.556 1.464 23.332 o
7 1 7 1.149 1.227 0.387 334.391 o
7 1 8 31.854 32.328 1.227 33.246 o
7 1 9 3.958 4.471 0.503 197.865 o
7 1 10 31.606 31.317 1.243 32.366 o
7 2 0 72.566 71.978 1.310 29.171 o
7 2 1 16.814 16.015 0.685 106.563 o
7 2 2 38.001 38.998 0.989 51.138 o
7 2 3 30.821 30.316 0.928 58.054 o
7 2 4 12.471 11.997 0.718 96.954 o
7 2 5 21.558 21.784 0.879 64.812 o
7 2 6 74.734 77.388 1.641 18.575 o
7 2 7 69.395 72.569 1.669 17.965 o
7 2 8 70.434 71.381 1.697 17.385 o
7 2 9 10.297 10.456 0.796 79.018 o
7 2 10 2.900 3.951 0.486 211.585 o
7 3 0 13.590 13.766 0.630 126.079 o
7 3 1 40.305 41.767 0.995 50.572 o
7 3 2 28.865 29.255 0.873 65.635 o
7 3 3 17.663 18.032 0.779 82.416 o
7 3 4 24.924 23.497 0.890 63.212 o
7 3 5 8.027 7.272 0.619 130.622 o
7 3 6 56.887 57.842 1.442 24.053 o
7 3 7 8.368 8.212 0.702 101.588 o
7 3 8 16.645 18.275 0.984 51.714 o
7 3 9 6.934 7.217 0.597 140.476 o
7 3 10 64.902 66.441 1.697 17.385 o
7 4 0 3.872 3.841 0.508 193.587 o
7 4 1 69.415 70.442 1.315 28.927 o
7 4 2 13.653 12.705 0.669 111.913 o
7 4 3 26.569 24.669 0.868 66.474 o
7 4 4 57.324 57.290 1.299 29.670 o
7 4 5 32.084 31.538 1.055 44.914 o
7 4 6 53.552 54.991 1.393 25.802 o
7 4 7 3.265 3.133 0.442 256.018 o
7 4 8 6.071 6.355 0.602 137.911 o
7 4 9 19.358 19.341 1.050 45.388 o
7 4 10 6.671 7.493 0.569 154.446 o
7 5 0 54.911 52.957 1.166 36.803 o
7 5 1 72.408 73.409 1.370 26.641 o
7 5 2 48.622 50.840 1.149 37.873 o
7 5 3 103.445 103.245 1.735 16.619 o
7 5 4 51.499 52.123 1.271 30.974 o
7 5 5 31.926 32.759 1.067 43.988 o
7 5 6 6.392 6.510 0.542 170.608 o
7 5 7 4.665 4.830 0.486 211.585 o
7 5 8 9.467 10.522 0.846 69.995 o
7 5 9 11.894 10.743 0.702 101.588 o
7 5 10 0.347 0.724 0.420 283.677 o
7 6 0 22.023 21.259 0.801 77.932 o
7 6 1 39.103 40.125 1.033 46.856 o
7 6 2 211.627 209.855 2.708 6.824 o
7 6 3 43.428 44.535 1.127 39.372 o
7 6 4 48.426 48.785 1.232 32.949 o
7 6 5 27.048 27.393 1.011 48.927 o
7 6 6 13.060 12.158 0.834 71.862 o
7 6 7 2.953 3.271 0.453 243.682 o
7 6 8 3.590 4.504 0.497 202.286 o
7 6 9 9.620 10.361 0.741 91.252 o
7 6 10 10.471 9.765 0.884 64.005 o
7 7 0 2.259 2.437 0.354 400.029 o
7 7 1 23.191 22.989 0.834 71.862 o
7 7 2 7.692 7.118 0.508 193.587 o
7 7 3 11.357 12.075 0.707 100.007 o
7 7 4 5.053 4.537 0.442 256.018 o
7 7 5 46.173 45.104 1.265 31.245 o
7 7 6 32.408 33.759 1.183 35.779 o
7 7 7 20.724 22.331 1.039 46.359 o
7 7 8 9.406 8.687 0.735 92.629 o
7 7 9 3.104 3.830 0.492 206.857 o
7 8 0 34.174 34.920 0.995 50.572 o
7 8 1 0.796 1.149 0.343 426.253 o
7 8 2 17.837 17.573 0.812 75.826 o
7 8 3 38.491 37.639 1.089 42.220 o
7 8 4 9.456 9.184 0.647 119.696 o
7 8 5 63.255 62.865 1.498 22.311 o
7 8 6 28.506 28.476 1.111 40.556 o
7 8 7 34.233 35.611 1.238 32.655 o
7 8 8 3.708 3.924 0.531 177.790 o
7 8 9 58.824 57.798 1.608 19.349 o
7 9 0 44.530 43.253 1.127 39.372 o
7 9 1 101.903 100.858 1.763 16.102 o
7 9 2 25.146 23.685 0.939 56.696 o
7 9 3 6.196 5.709 0.514 189.446 o
7 9 4 17.837 16.584 0.862 67.329 o
7 9 5 5.235 4.841 0.470 226.784 o
7 9 6 9.871 8.936 0.718 96.954 o
7 9 7 18.383 17.208 1.006 49.466 o
7 9 8 24.217 23.547 1.116 40.156 o
7 9 9 0.470 0.696 0.879 64.812 o
7 10 0 101.487 98.725 1.763 16.102 o
7 10 1 19.832 19.170 0.851 69.089 o
7 10 2 145.739 143.077 2.227 10.089 o
7 10 3 6.023 6.018 0.514 189.446 o
7 10 4 11.038 11.859 0.785 81.260 o
7 10 5 43.643 44.380 1.310 29.171 o
7 10 6 7.687 7.510 0.691 104.865 o
7 10 7 36.238 37.097 1.304 29.419 o
7 10 8 1.913 2.111 0.453 243.682 o
7 10 9 31.486 31.842 1.232 32.949 o
7 11 0 32.669 32.964 1.055 44.914 o
7 11 1 18.834 18.303 0.868 66.474 o
7 11 2 10.732 10.715 0.663 113.786 o
7 11 3 6.486 5.979 0.597 140.476 o
7 11 4 14.302 14.059 0.862 67.329 o
7 11 5 13.448 12.069 0.851 69.089 o
7 11 6 24.235 25.304 1.083 42.652 o
7 11 7 13.674 12.931 0.829 72.823 o
7 11 8 29.149 27.680 1.188 35.447 o
7 11 9 6.195 6.626 0.547 167.179 o
7 12 0 24.182 24.464 0.950 55.385 o
7 12 1 0.298 0.514 0.332 455.144 o
7 12 2 58.422 58.632 1.426 24.616 o
7 12 3 14.410 14.954 0.846 69.995 o
7 12 4 28.379 27.354 1.083 42.652 o
7 12 5 30.586 28.261 1.149 37.873 o
7 12 6 7.055 6.703 0.608 135.415 o
7 12 7 22.546 20.596 1.100 41.376 o
7 12 8 16.289 17.230 1.006 49.466 o
7 13 0 0.081 0.083 0.354 400.029 o
7 13 1 36.298 37.202 1.166 36.803 o
7 13 2 5.756 5.300 0.519 185.436 o
7 13 3 20.901 21.458 0.989 51.138 o
7 13 4 40.773 39.540 1.310 29.171 o
7 13 5 5.099 4.603 0.492 206.857 o
7 13 6 12.555 13.456 0.917 59.461 o
7 13 7 7.717 7.654 0.641 121.768 o
7 13 8 20.956 21.110 1.061 44.448 o
7 14 0 17.829 17.540 0.895 62.434 o
7 14 1 20.675 18.186 0.962 54.119 o
7 14 2 6.315 5.791 0.503 197.865 o
7 14 3 42.975 42.767 1.326 28.447 o
7 14 4 12.073 11.854 0.873 65.635 o
7 14 5 53.005 53.405 1.503 22.147 o
7 14 6 9.515 10.842 0.779 82.416 o
7 14 7 29.522 29.128 1.249 32.080 o
7 14 8 2.565 2.443 0.448 249.736 o
7 15 0 16.594 15.241 0.890 63.212 o
7 15 1 11.719 10.798 0.796 79.018 o
7 15 2 17.483 20.104 0.962 54.119 o
7 15 3 14.915 16.413 0.939 56.696 o
7 15 4 37.990 38.379 1.315 28.927 o
7 15 5 2.564 3.161 0.470 226.784 o
7 15 6 18.575 17.518 1.028 47.361 o
7 15 7 6.787 6.891 0.558 160.623 o
7 16 0 2.900 2.503 0.437 262.541 o
7 16 1 18.093 17.441 0.973 52.896 o
7 16 2 15.760 15.247 0.934 57.369 o
7 16 3 25.935 24.685 1.138 38.611 o
7 16 4 33.680 35.611 1.265 31.245 o
7 16 5 12.757 12.218 0.829 72.823 o
7 16 6 20.479 18.966 1.050 45.388 o
7 16 7 0.009 0.188 0.818 74.805 o
7 17 0 12.645 11.577 0.862 67.329 o
7 17 1 36.589 36.169 1.271 30.974 o
7 17 2 6.736 6.184 0.591 143.114 o
7 17 3 33.501 32.610 1.249 32.080 o
7 17 4 22.354 23.271 1.083 42.652 o
7 17 5 4.133 4.045 0.497 202.286 o
7 17 6 16.885 14.854 0.989 51.138 o
7 18 0 1.640 1.238 0.414 291.292 o
7 18 1 41.896 43.082 1.382 26.216 o
7 18 2 10.757 11.284 0.879 64.812 o
7 18 3 8.413 7.947 0.647 119.696 o
7 18 4 14.819 16.169 0.989 51.138 o
7 18 5 6.781 5.692 0.531 177.790 o
7 18 6 7.910 7.057 0.624 128.320 o
7 19 0 3.313 3.122 0.470 226.784 o
7 19 1 27.540 26.481 1.166 36.803 o
7 19 2 1.348 1.669 0.437 262.541 o
7 19 3 22.730 21.237 1.094 41.795 o
7 19 4 26.973 25.741 1.188 35.447 o
7 19 5 4.754 5.504 0.525 181.553 o
7 20 0 23.086 25.022 1.116 40.156 o
7 20 1 11.191 11.251 0.906 60.920 o
7 20 2 1.107 1.895 0.448 249.736 o
7 20 3 12.752 12.710 0.923 58.751 o
7 20 4 2.835 1.945 0.442 256.018 o
7 21 0 17.914 17.965 1.033 46.856 o
7 21 1 26.475 25.354 1.160 37.155 o
7 21 2 0.841 0.984 0.409 299.218 o
7 21 3 9.321 8.903 0.752 88.588 o
7 22 0 1.143 1.442 0.442 256.018 o
7 22 1 34.151 33.792 1.282 30.442 o
8 0 0 2.587 2.365 0.365 376.152 o
8 0 1 34.032 31.692 0.989 51.138 o
8 0 2 0.233 0.558 0.337 440.343 o
8 0 3 82.878 83.384 1.614 19.217 o
8 0 4 5.343 5.548 0.497 202.286 o
8 0 5 0.476 0.669 0.354 400.029 o
8 0 6 84.006 86.296 1.818 15.138 o
8 0 7 55.822 55.267 1.542 21.049 o
8 0 8 45.876 47.923 1.464 23.332 o
8 0 9 6.598 6.311 0.547 167.179 o
8 1 0 1.282 1.724 0.354 400.029 o
8 1 1 30.574 31.284 0.967 53.503 o
8 1 2 2.382 3.144 0.392 325.038 o
8 1 3 2.058 1.918 0.381 344.154 o
8 1 4 13.125 14.180 0.768 84.805 o
8 1 5 21.198 23.586 0.956 54.747 o
8 1 6 1.925 1.901 0.409 299.218 o
8 1 7 4.834 5.051 0.503 197.865 o
8 1 8 43.486 45.259 1.431 24.426 o
8 1 9 5.494 5.869 0.542 170.608 o
8 2 0 49.671 49.697 1.166 36.803 o
8 2 1 100.312 96.890 1.685 17.614 o
8 2 2 32.866 32.488 1.006 49.466 o
8 2 3 14.505 14.810 0.796 79.018 o
8 2 4 15.934 16.462 0.829 72.823 o
8 2 5 17.772 18.352 0.890 63.212 o
8 2 6 8.739 8.477 0.696 103.207 o
8 2 7 1.119 1.321 0.414 291.292 o
8 2 8 10.397 10.085 0.768 84.805 o
8 2 9 19.265 20.143 1.094 41.795 o
8 3 0 0.097 0.144 0.332 455.144 o
8 3 1 0.732 1.243 0.348 412.829 o
8 3 2 11.561 11.478 0.724 95.479 o
8 3 3 35.944 35.179 1.061 44.448 o
8 3 4 45.463 46.221 1.243 32.366 o
8 3 5 14.475 14.981 0.851 69.089 o
8 3 6 12.209 12.406 0.857 68.201 o
8 3 7 11.897 11.428 0.768 84.805 o
8 3 8 36.674 35.621 1.315 28.927 o
8 3 9 16.052 17.302 1.022 47.875 o
8 4 0 1.994 2.387 0.376 354.351 o
8 4 1 33.640 32.825 1.006 49.466 o
8 4 2 131.220 130.235 2.072 11.652 o
8 4 3 42.925 42.330 1.177 36.115 o
8 4 4 22.984 23.950 0.962 54.119 o
8 4 5 16.092 17.225 0.890 63.212 o
8 4 6 36.698 37.252 1.232 32.949 o
8 4 7 57.568 60.517 1.580 20.032 o
8 4 8 11.835 11.848 0.823 73.804 o
8 4 9 19.620 18.081 1.055 44.914 o
8 5 0 10.027 10.665 0.685 106.563 o
8 5 1 69.152 67.165 1.420 24.808 o
8 5 2 2.868 3.095 0.409 299.218 o
8 5 3 22.998 23.143 0.939 56.696 o
8 5 4 10.828 12.169 0.752 88.588 o
8 5 5 34.509 34.201 1.172 36.457 o
8 5 6 21.591 22.585 1.028 47.361 o
8 5 7 1.302 1.022 0.409 299.218 o
8 5 8 15.132 14.274 0.984 51.714 o
8 5 9 0.618 0.912 0.437 262.541 o
8 6 0 134.891 132.053 2.089 11.467 o
8 6 1 2.321 2.564 0.398 316.072 o
8 6 2 51.378 50.249 1.265 31.245 o
8 6 3 34.385 36.075 1.105 40.963 o
8 6 4 6.305 6.952 0.519 185.436 o
8 6 5 46.357 46.945 1.337 27.978 o
8 6 6 14.535 16.556 0.939 56.696 o
8 6 7 2.807 3.139 0.464 232.216 o
8 6 8 8.973 8.986 0.636 123.895 o
8 6 9 42.617 44.613 1.382 26.216 o
8 7 0 18.470 18.081 0.857 68.201 o
8 7 1 21.900 21.972 0.895 62.434 o
8 7 2 13.949 12.566 0.812 75.826 o
8 7 3 35.160 35.196 1.116 40.156 o
8 7 4 39.518 41.435 1.249 32.080 o
8 7 5 8.506 8.378 0.696 103.207 o
8 7 6 31.326 28.570 1.188 35.447 o
8 7 7 36.815 36.185 1.293 29.924 o
8 7 8 13.052 13.495 0.950 55.385 o
8 7 9 21.154 23.409 1.116 40.156 o
8 8 0 5.498 5.753 0.514 189.446 o
8 8 1 4.635 5.134 0.497 202.286 o
8 8 2 177.974 183.595 2.647 7.141 o
8 8 3 21.029 21.403 0.923 58.751 o
8 8 4 65.558 65.734 1.569 20.315 o
8 8 5 36.666 37.279 1.254 31.798 o
8 8 6 13.195 13.114 0.934 57.369 o
8 8 7 29.475 30.703 1.227 33.246 o
8 8 8 3.226 3.133 0.475 221.541 o
8 8 9 6.501 7.582 0.652 117.676 o
8 9 0 63.816 64.490 1.481 22.813 o
8 9 1 62.947 61.418 1.470 23.157 o
8 9 2 1.926 1.978 0.381 344.154 o
8 9 3 59.570 60.119 1.475 22.984 o
8 9 4 24.457 24.735 1.022 47.875 o
8 9 5 13.745 13.583 0.895 62.434 o
8 9 6 4.806 5.322 0.519 185.436 o
8 9 7 9.716 10.444 0.790 80.127 o
8 9 8 3.258 3.951 0.497 202.286 o
8 10 0 18.080 17.916 0.890 63.212 o
8 10 1 3.898 4.366 0.442 256.018 o
8 10 2 25.020 23.287 0.989 51.138 o
8 10 3 69.937 71.431 1.636 18.701 o
8 10 4 29.462 31.013 1.155 37.511 o
8 10 5 50.483 49.973 1.453 23.689 o
8 10 6 0.050 0.138 0.403 307.472 o
8 10 7 0.137 0.127 0.431 269.316 o
8 10 8 4.116 4.498 0.503 197.865 o
8 11 0 21.891 22.917 0.967 53.503 o
8 11 1 4.252 3.995 0.448 249.736 o
8 11 2 5.052 4.228 0.459 237.845 o
8 11 3 10.736 11.052 0.818 74.805 o
8 11 4 56.426 54.759 1.487 22.644 o
8 11 5 0.544 1.111 0.403 307.472 o
8 11 6 28.872 29.808 1.227 33.246 o
8 11 7 30.701 28.603 1.232 32.949 o
8 11 8 21.375 22.652 1.100 41.376 o
8 12 0 9.155 10.251 0.663 113.786 o
8 12 1 20.661 21.342 0.995 50.572 o
8 12 2 26.950 27.907 1.089 42.220 o
8 12 3 63.236 63.540 1.592 19.755 o
8 12 4 15.271 15.788 0.923 58.751 o
8 12 5 55.898 54.272 1.553 20.751 o
8 12 6 0.088 0.028 0.387 334.391 o
8 12 7 33.185 33.057 1.249 32.080 o
8 13 0 56.795 58.776 1.509 21.985 o
8 13 1 26.182 26.404 1.072 43.536 o
8 13 2 2.903 2.763 0.442 256.018 o
8 13 3 34.494 37.760 1.265 31.245 o
8 13 4 25.185 24.862 1.100 41.376 o
8 13 5 0.898 1.238 0.426 276.356 o
8 13 6 8.982 9.892 0.741 91.252 o
8 13 7 7.577 8.753 0.663 113.786 o
8 14 0 1.524 1.282 0.403 307.472 o
8 14 1 4.378 4.570 0.492 206.857 o
8 14 2 27.417 27.371 1.122 39.761 o
8 14 3 14.926 16.048 0.934 57.369 o
8 14 4 25.160 25.183 1.138 38.611 o
8 14 5 6.733 5.526 0.536 174.144 o
8 14 6 2.672 3.327 0.481 216.477 o
8 14 7 11.774 13.301 0.939 56.696 o
8 15 0 1.585 1.802 0.426 276.356 o
8 15 1 19.048 18.673 0.989 51.138 o
8 15 2 3.717 3.725 0.475 221.541 o
8 15 3 0.779 0.542 0.392 325.038 o
8 15 4 37.032 39.175 1.343 27.748 o
8 15 5 13.035 14.164 0.945 56.035 o
8 15 6 14.519 14.921 0.989 51.138 o
8 16 0 34.769 36.439 1.271 30.974 o
8 16 1 8.722 8.776 0.763 86.038 o
8 16 2 21.973 21.375 1.061 44.448 o
8 16 3 11.291 12.357 0.901 61.670 o
8 16 4 7.539 8.472 0.597 140.476 o
8 16 5 9.728 10.312 0.884 64.005 o
8 16 6 18.356 18.905 1.044 45.870 o
8 17 0 16.780 17.114 0.984 51.714 o
8 17 1 17.266 18.496 1.039 46.359 o
8 17 2 5.212 5.421 0.536 174.144 o
8 17 3 2.372 3.260 0.481 216.477 o
8 17 4 6.905 7.212 0.630 126.079 o
8 17 5 5.358 5.454 0.525 181.553 o
8 18 0 0.184 0.531 0.403 307.472 o
8 18 1 3.370 3.951 0.497 202.286 o
8 18 2 4.159 2.940 0.470 226.784 o
8 18 3 5.196 6.012 0.536 174.144 o
8 18 4 0.401 0.558 0.398 316.072 o
8 19 0 9.850 9.334 0.674 110.086 o
8 19 1 40.530 40.833 1.370 26.641 o
8 19 2 2.218 3.039 0.470 226.784 o
8 19 3 1.432 1.868 0.437 262.541 o
8 20 0 0.692 0.790 0.409 299.218 o
8 20 1 35.780 37.683 1.310 29.171 o
8 20 2 10.318 10.489 0.768 84.805 o
9 0 1 7.455 7.521 0.547 167.179 o
9 0 2 114.120 113.662 2.012 12.367 o
9 0 3 19.377 20.425 0.912 60.184 o
9 0 4 67.203 67.535 1.608 19.349 o
9 0 5 71.185 70.276 1.697 17.385 o
9 0 6 0.358 0.895 0.398 316.072 o
9 0 7 19.103 18.601 1.039 46.359 o
9 0 8 4.088 4.454 0.508 193.587 o
9 1 0 0.484 0.575 0.332 455.144 o
9 1 1 12.306 12.036 0.763 86.038 o
9 1 2 1.443 1.835 0.376 354.351 o
9 1 3 19.987 20.867 0.939 56.696 o
9 1 4 0.833 1.603 0.403 307.472 o
9 1 5 12.516 12.412 0.868 66.474 o
9 1 6 2.612 2.901 0.459 237.845 o
9 1 7 5.555 6.145 0.608 135.415 o
9 1 8 2.321 2.382 0.453 243.682 o
9 2 0 23.413 24.315 0.956 54.747 o
9 2 1 26.354 26.846 0.995 50.572 o
9 2 2 4.857 4.636 0.448 249.736 o
9 2 3 75.089 74.631 1.630 18.828 o
9 2 4 3.035 3.498 0.442 256.018 o
9 2 5 43.949 44.276 1.348 27.521 o
9 2 6 16.364 16.269 0.967 53.503 o
9 2 7 21.708 21.016 1.094 41.795 o
9 2 8 3.032 2.995 0.470 226.784 o
9 3 1 14.303 13.158 0.807 76.868 o
9 3 2 3.074 2.840 0.409 299.218 o
9 3 3 0.216 0.066 0.343 426.253 o
9 3 4 13.792 15.501 0.873 65.635 o
9 3 5 41.657 40.816 1.310 29.171 o
9 3 6 30.032 30.753 1.188 35.447 o
9 3 7 5.221 5.587 0.531 177.790 o
9 3 8 13.151 13.843 0.956 54.747 o
9 4 0 180.325 179.511 2.642 7.171 o
9 4 1 4.786 5.935 0.519 185.436 o
9 4 2 92.495 93.469 1.829 14.955 o
9 4 3 7.896 7.886 0.580 148.618 o
9 4 4 41.422 43.071 1.293 29.924 o
9 4 5 13.778 13.440 0.895 62.434 o
9 4 6 9.703 9.312 0.752 88.588 o
9 4 7 20.865 19.927 1.083 42.652 o
9 4 8 24.089 23.945 1.149 37.873 o
9 5 0 0.072 0.586 0.691 104.865 o
9 5 1 7.686 7.057 0.619 130.622 o
9 5 2 32.032 33.080 1.111 40.556 o
9 5 3 21.726 21.933 1.006 49.466 o
9 5 4 18.856 19.513 0.973 52.896 o
9 5 5 0.613 1.160 0.403 307.472 o
9 5 6 11.449 10.997 0.868 66.474 o
9 5 7 19.241 20.408 1.083 42.652 o
9 5 8 7.657 7.057 0.624 128.320 o
9 6 0 6.148 6.753 0.547 167.179 o
9 6 1 19.508 19.889 0.923 58.751 o
9 6 2 10.958 10.146 0.796 79.018 o
9 6 3 26.958 28.244 1.100 41.376 o
9 6 4 28.939 29.565 1.105 40.963 o
9 6 5 17.029 18.087 1.000 50.014 o
9 6 6 9.281 10.251 0.834 71.862 o
9 6 7 63.734 64.147 1.680 17.730 o
9 6 8 17.263 19.209 1.017 48.397 o
9 7 0 7.729 7.300 0.647 119.696 o
9 7 1 40.526 39.866 1.249 32.080 o
9 7 2 11.943 11.323 0.829 72.823 o
9 7 3 16.916 16.733 0.923 58.751 o
9 7 4 14.427 13.423 0.890 63.212 o
9 7 5 37.190 37.219 1.277 30.706 o
9 7 6 16.321 16.236 0.989 51.138 o
9 7 7 1.053 1.370 0.426 276.356 o
9 7 8 29.040 29.797 1.221 33.548 o
9 8 0 128.467 127.637 2.222 10.139 o
9 8 1 13.719 14.479 0.846 69.995 o
9 8 2 6.534 6.383 0.514 189.446 o
9 8 3 84.508 87.346 1.862 14.428 o
9 8 4 33.809 35.577 1.243 32.366 o
9 8 5 20.020 20.927 1.033 46.856 o
9 8 6 3.337 3.238 0.486 211.585 o
9 8 7 21.699 21.414 1.055 44.914 o
9 8 8 4.430 5.145 0.514 189.446 o
9 9 0 5.091 4.438 0.470 226.784 o
9 9 1 37.839 39.296 1.227 33.246 o
9 9 2 62.267 64.744 1.580 20.032 o
9 9 3 8.968 10.124 0.834 71.862 o
9 9 4 19.044 20.828 1.011 48.927 o
9 9 5 1.537 1.630 0.431 269.316 o
9 9 6 22.174 24.133 1.122 39.761 o
9 9 7 12.215 11.677 0.934 57.369 o
9 10 0 16.690 15.932 0.917 59.461 o
9 10 1 4.582 4.377 0.481 216.477 o
9 10 2 9.156 10.196 0.785 81.260 o
9 10 3 48.701 50.426 1.448 23.870 o
9 10 4 46.561 49.769 1.481 22.813 o
9 10 5 2.697 2.951 0.470 226.784 o
9 10 6 5.473 5.300 0.580 148.618 o
9 10 7 12.671 13.611 0.934 57.369 o
9 11 0 26.024 25.354 1.083 42.652 o
9 11 1 34.918 35.063 1.232 32.949 o
9 11 2 16.248 16.092 0.939 56.696 o
9 11 3 15.450 15.893 0.956 54.747 o
9 11 4 0.426 0.586 0.398 316.072 o
9 11 5 21.212 21.082 1.072 43.536 o
9 11 6 22.462 21.414 1.083 42.652 o
9 11 7 1.283 1.426 0.426 276.356 o
9 12 0 5.518 5.598 0.519 185.436 o
9 12 1 3.515 3.316 0.464 232.216 o
9 12 2 19.907 19.690 1.033 46.856 o
9 12 3 43.122 45.066 1.398 25.598 o
9 12 4 35.948 36.235 1.282 30.442 o
9 12 5 11.088 11.842 0.890 63.212 o
9 12 6 7.959 9.339 0.752 88.588 o
9 13 0 6.515 6.852 0.553 163.852 o
9 13 1 60.253 60.412 1.603 19.483 o
9 13 2 34.340 35.843 1.299 29.670 o
9 13 3 4.430 3.990 0.497 202.286 o
9 13 4 1.255 1.332 0.431 269.316 o
9 13 5 9.427 7.902 0.658 115.706 o
9 13 6 8.252 7.958 0.580 148.618 o
9 14 0 40.812 42.706 1.387 26.008 o
9 14 1 13.850 13.810 0.950 55.385 o
9 14 2 11.477 10.754 0.801 77.932 o
9 14 3 30.984 31.057 1.254 31.798 o
9 14 4 4.535 4.537 0.508 193.587 o
9 14 5 2.229 2.846 0.470 226.784 o
9 15 0 37.308 37.909 1.321 28.685 o
9 15 1 4.046 4.261 0.503 197.865 o
9 15 2 10.111 11.041 0.857 68.201 o
9 15 3 2.486 3.631 0.486 211.585 o
9 15 4 5.305 5.405 0.531 177.790 o
9 15 5 9.654 9.593 0.768 84.805 o
9 16 0 0.088 0.111 0.409 299.218 o
9 16 1 9.653 10.378 0.857 68.201 o
9 16 2 17.134 18.579 1.039 46.359 o
9 16 3 2.080 2.188 0.448 249.736 o
9 16 4 4.843 4.802 0.514 189.446 o
9 17 1 23.026 22.204 1.094 41.795 o
9 17 2 4.276 3.725 0.481 216.477 o
9 17 3 4.818 4.962 0.514 189.446 o
9 18 0 4.766 4.714 0.508 193.587 o
9 18 1 1.342 1.409 0.426 276.356 o
9 18 2 12.996 13.246 0.901 61.670 o
10 0 0 275.287 277.352 3.636 3.784 o
10 0 1 0.715 0.757 0.376 354.351 o
10 0 2 54.767 52.636 1.453 23.689 o
10 0 3 8.944 7.726 0.707 100.007 o
10 0 4 2.859 3.266 0.464 232.216 o
10 0 5 17.286 18.396 1.011 48.927 o
10 0 6 0.096 0.177 0.414 291.292 o
10 0 7 3.247 3.481 0.486 211.585 o
10 1 0 0.001 0.077 0.752 88.588 o
10 1 1 40.465 41.651 1.288 30.181 o
10 1 2 3.936 3.736 0.464 232.216 o
10 1 3 0.707 0.735 0.387 334.391 o
10 1 4 8.684 8.952 0.729 94.038 o
10 1 5 32.387 33.306 1.249 32.080 o
10 1 6 9.785 9.516 0.647 119.696 o
10 1 7 4.864 5.946 0.536 174.144 o
10 2 0 9.954 10.444 0.801 77.932 o
10 2 1 12.451 13.445 0.812 75.826 o
10 2 2 50.984 51.581 1.459 23.509 o
10 2 3 15.829 15.412 0.906 60.920 o
10 2 4 14.542 15.064 0.906 60.920 o
10 2 5 32.881 30.974 1.249 32.080 o
10 2 6 12.244 11.964 0.934 57.369 o
10 2 7 88.831 87.529 1.967 12.929 o
10 3 0 1.275 1.774 0.409 299.218 o
10 3 1 18.951 19.441 0.956 54.747 o
10 3 2 13.558 14.661 0.890 63.212 o
10 3 3 5.094 5.195 0.508 193.587 o
10 3 4 19.197 18.291 1.022 47.875 o
10 3 5 1.131 1.304 0.426 276.356 o
10 3 6 0.182 0.453 0.398 316.072 o
10 3 7 3.529 3.769 0.486 211.585 o
10 4 0 119.297 121.199 2.194 10.396 o
10 4 1 14.139 13.329 0.895 62.434 o
10 4 2 17.224 19.148 0.956 54.747 o
10 4 3 15.892 15.893 0.928 58.054 o
10 4 4 13.752 15.899 0.945 56.035 o
10 4 5 22.891 23.691 1.105 40.963 o
10 4 6 2.038 2.028 0.448 249.736 o
10 4 7 9.187 9.472 0.779 82.416 o
10 5 0 11.787 10.665 0.823 73.804 o
10 5 1 5.827 5.902 0.569 154.446 o
10 5 2 6.217 5.443 0.508 193.587 o
10 5 3 8.578 8.405 0.641 121.768 o
10 5 4 34.585 33.334 1.254 31.798 o
10 5 5 57.498 58.428 1.625 18.956 o
10 5 6 3.476 4.051 0.503 197.865 o
10 5 7 4.647 4.747 0.508 193.587 o
10 6 0 23.648 24.912 1.072 43.536 o
10 6 1 41.099 42.175 1.321 28.685 o
10 6 2 2.511 2.746 0.448 249.736 o
10 6 3 57.746 58.804 1.558 20.604 o
10 6 4 4.657 3.990 0.486 211.585 o
10 6 5 18.373 20.281 1.072 43.536 o
10 6 6 3.541 3.244 0.475 221.541 o
10 6 7 37.711 37.915 1.321 28.685 o
10 7 0 1.033 1.343 0.409 299.218 o
10 7 1 11.764 12.041 0.790 80.127 o
10 7 2 37.541 37.661 1.271 30.974 o
10 7 3 2.293 2.470 0.448 249.736 o
10 7 4 40.149 39.932 1.382 26.216 o
10 7 5 2.587 2.249 0.459 237.845 o
10 7 6 13.299 13.384 0.857 68.201 o
10 7 7 11.713 12.008 0.923 58.751 o
10 8 0 3.401 3.128 0.464 232.216 o
10 8 1 2.057 2.216 0.437 262.541 o
10 8 2 7.907 7.532 0.713 98.463 o
10 8 4 21.515 22.591 1.105 40.963 o
10 8 5 12.061 12.848 0.912 60.184 o
10 8 6 6.084 6.427 0.547 167.179 o
10 9 0 20.384 18.839 1.006 49.466 o
10 9 1 8.860 10.240 0.851 69.089 o
10 9 2 2.347 2.752 0.459 237.845 o
10 9 3 10.837 11.047 0.879 64.812 o
10 9 4 13.793 15.998 0.973 52.896 o
10 9 5 43.293 42.457 1.420 24.808 o
10 9 6 6.955 6.825 0.613 132.986 o
10 10 0 4.297 3.769 0.481 216.477 o
10 10 1 11.084 11.235 0.868 66.474 o
10 10 2 32.961 33.234 1.271 30.974 o
10 10 3 24.544 23.486 1.144 38.239 o
10 10 4 23.064 23.376 1.133 38.989 o
10 10 5 12.684 13.428 0.962 54.119 o
10 10 6 15.331 15.993 0.967 53.503 o
10 11 0 1.993 2.487 0.453 243.682 o
10 11 1 49.908 49.453 1.487 22.644 o
10 11 2 45.675 45.397 1.448 23.870 o
10 11 3 1.718 1.851 0.437 262.541 o
10 11 4 20.774 21.591 1.094 41.795 o
10 11 5 2.246 2.210 0.453 243.682 o
10 12 0 1.071 1.962 0.448 249.736 o
10 12 1 10.497 9.102 0.779 82.416 o
10 12 2 1.624 2.376 0.459 237.845 o
10 12 3 21.275 22.386 1.083 42.652 o
10 12 4 1.130 1.569 0.431 269.316 o
10 12 5 11.086 9.555 0.785 81.260 o
10 13 1 9.548 9.488 0.685 106.563 o
10 13 2 0.566 0.984 0.414 291.292 o
10 13 3 28.259 27.951 1.205 34.478 o
10 13 4 0.802 0.973 0.409 299.218 o
10 14 0 7.318 7.582 0.718 96.954 o
10 14 1 9.552 9.008 0.768 84.805 o
10 14 2 36.106 35.406 1.293 29.924 o
10 14 3 2.127 2.570 0.459 237.845 o
10 14 4 21.103 20.237 1.055 44.914 o
10 15 0 1.373 1.619 0.431 269.316 o
10 15 1 16.884 17.258 1.011 48.927 o
10 15 2 33.863 34.002 1.277 30.706 o
10 15 3 4.115 2.531 0.453 243.682 o
10 16 0 0.399 0.155 0.387 334.391 o
10 16 1 2.279 2.398 0.448 249.736 o
11 0 1 0.038 0.315 0.381 344.154 o
11 0 2 8.914 7.764 0.713 98.463 o
11 0 3 16.786 16.446 0.984 51.714 o
11 0 4 7.886 7.223 0.636 123.895 o
11 0 5 7.681 9.278 0.685 106.563 o
11 0 6 20.118 18.800 1.061 44.448 o
11 1 0 0.583 0.796 0.398 316.072 o
11 1 1 32.000 31.394 1.221 33.548 o
11 1 2 9.616 10.422 0.851 69.089 o
11 1 3 19.254 20.071 1.033 46.856 o
11 1 4 13.793 15.031 0.967 53.503 o
11 1 5 15.015 14.981 0.995 50.572 o
11 1 6 5.262 4.935 0.514 189.446 o
11 2 0 191.972 189.061 2.951 5.746 o
11 2 1 1.498 1.630 0.431 269.316 o
11 2 2 17.394 15.004 0.989 51.138 o
11 2 3 9.436 8.997 0.752 88.588 o
11 2 4 28.241 28.637 1.194 35.119 o
11 2 5 35.986 36.202 1.321 28.685 o
11 2 6 0.462 0.950 0.437 262.541 o
11 3 0 10.879 10.715 0.796 79.018 o
11 3 1 9.877 8.858 0.752 88.588 o
11 3 2 22.648 21.596 1.100 41.376 o
11 3 3 0.919 0.624 0.403 307.472 o
11 3 4 35.817 36.594 1.321 28.685 o
11 3 5 23.009 23.431 1.083 42.652 o
11 3 6 28.882 28.719 1.188 35.447 o
11 4 0 0.839 0.674 0.398 316.072 o
11 4 1 8.134 8.328 0.641 121.768 o
11 4 2 11.013 13.340 0.901 61.670 o
11 4 3 29.491 28.592 1.205 34.478 o
11 4 4 7.525 7.687 0.586 145.827 o
11 4 5 2.292 2.498 0.453 243.682 o
11 4 6 6.674 7.201 0.619 130.622 o
11 5 0 0.448 0.387 0.403 307.472 o
11 5 1 27.520 26.995 1.166 36.803 o
11 5 2 1.074 1.531 0.437 262.541 o
11 5 3 17.453 19.839 1.028 47.361 o
11 5 4 3.527 3.371 0.475 221.541 o
11 5 5 3.759 3.178 0.470 226.784 o
11 6 0 17.030 20.314 1.055 44.914 o
11 6 1 1.643 1.685 0.437 262.541 o
11 6 2 1.873 2.000 0.448 249.736 o
11 6 3 17.689 18.839 1.039 46.359 o
11 6 4 15.780 17.037 0.973 52.896 o
11 6 5 48.014 49.757 1.520 21.666 o
11 7 0 60.220 60.323 1.619 19.086 o
11 7 1 27.731 29.377 1.183 35.779 o
11 7 2 20.243 20.502 1.067 43.988 o
11 7 3 13.736 12.998 0.939 56.696 o
11 7 4 5.465 5.250 0.531 177.790 o
11 7 5 11.447 12.589 0.901 61.670 o
11 8 0 0.429 0.917 0.414 291.292 o
11 8 1 14.888 15.545 0.984 51.714 o
11 8 2 8.727 9.704 0.774 83.598 o
11 8 3 16.254 15.866 1.022 47.875 o
11 8 4 0.962 1.459 0.426 276.356 o
11 8 5 0.060 0.271 0.409 299.218 o
11 9 0 1.216 1.757 0.437 262.541 o
11 9 1 2.858 2.172 0.453 243.682 o
11 9 2 2.233 2.343 0.459 237.845 o
11 9 3 2.631 3.238 0.470 226.784 o
11 9 4 12.877 11.284 0.807 76.868 o
11 10 0 11.323 10.699 0.812 75.826 o
11 10 1 7.292 8.223 0.658 115.706 o
11 10 2 3.321 3.299 0.481 216.477 o
11 10 3 3.806 3.824 0.486 211.585 o
11 10 4 4.084 3.493 0.475 221.541 o
11 11 0 55.346 57.290 1.575 20.173 o
11 11 1 5.467 5.371 0.525 181.553 o
11 11 2 21.837 22.392 1.094 41.795 o
11 11 3 18.625 16.838 1.033 46.856 o
11 12 0 5.150 4.598 0.508 193.587 o
11 12 1 0.765 0.884 0.409 299.218 o
11 12 2 6.819 6.173 0.597 140.476 o
11 13 0 11.244 9.991 0.807 76.868 o
11 13 1 14.034 13.898 0.818 74.805 o
12 0 0 9.983 9.229 0.685 106.563 o
12 0 1 12.113 12.716 0.912 60.184 o
12 0 2 0.830 1.017 0.414 291.292 o
12 0 3 0.213 1.094 0.857 68.201 o
12 0 4 12.391 14.595 0.950 55.385 o
12 1 0 13.096 14.302 0.967 53.503 o
12 1 1 4.842 5.272 0.525 181.553 o
12 1 2 5.367 5.283 0.525 181.553 o
12 1 3 16.641 18.535 0.995 50.572 o
12 1 4 45.908 45.298 1.426 24.616 o
12 2 0 5.264 5.526 0.591 143.114 o
12 2 1 4.735 3.918 0.497 202.286 o
12 2 2 50.472 48.840 1.520 21.666 o
12 2 3 0.359 0.846 0.414 291.292 o
12 2 4 7.920 9.323 0.857 68.201 o
12 3 0 26.082 25.509 1.155 37.511 o
12 3 1 25.045 23.072 1.133 38.989 o
12 3 2 1.182 1.569 0.431 269.316 o
12 3 3 20.799 21.353 1.083 42.652 o
12 3 4 17.187 17.617 1.017 48.397 o
12 4 0 2.152 2.398 0.453 243.682 o
12 4 1 7.595 9.102 0.707 100.007 o
12 4 2 9.436 8.897 0.768 84.805 o
12 4 3 1.148 1.907 0.437 262.541 o
12 5 0 18.250 18.098 1.011 48.927 o
12 5 1 38.053 35.478 1.321 28.685 o
12 5 2 8.110 7.963 0.641 121.768 o
12 5 3 6.820 7.234 0.713 98.463 o
12 6 0 21.481 21.038 1.061 44.448 o
12 6 1 0.213 0.531 0.403 307.472 o
12 6 2 16.063 15.540 1.006 49.466 o
12 6 3 1.046 0.917 0.409 299.218 o
12 7 0 7.702 8.284 0.586 145.827 o
12 7 1 21.574 23.414 1.127 39.372 o
12 7 2 5.091 5.034 0.514 189.446 o
12 8 0 0.559 0.613 0.409 299.218 o
12 8 1 9.168 10.367 0.873 65.635 o
12 8 2 5.839 5.465 0.591 143.114 o
12 9 0 37.347 36.909 1.315 28.927 o
;
_olex2_submission_special_instructions 'No special instructions were received'
loop_
_space_group_symop_id
_space_group_symop_operation_xyz
1 x,y,z
2 x+1/2,-y+1/2,-z
3 -x,y+1/2,-z+1/2
4 -x+1/2,-y,z+1/2
loop_
_atom_site_label
_atom_site_type_symbol
_atom_site_fract_x
_atom_site_fract_y
_atom_site_fract_z
_atom_site_U_iso_or_equiv
_atom_site_adp_type
_atom_site_occupancy
_atom_site_refinement_flags_posn
O1 O 0.72675(4) 0.083779(16) 0.62433(4) 0.00650(3) Uani 1.000000 .
O2 O 0.44091(4) 0.184054(16) 0.76116(4) 0.00632(3) Uani 1.000000 .
N1 N 0.64723(4) 0.137515(19) 0.18299(4) 0.00524(3) Uani 1.000000 .
H1 H 0.7036(11) 0.0598(5) 0.1977(13) 0.0236(18) Uani 1.000000 .
H2 H 0.7776(10) 0.1900(5) 0.2083(13) 0.0202(16) Uani 1.000000 .
H3 H 0.5848(11) 0.1493(5) 0.0164(12) 0.0207(16) Uani 1.000000 .
C1 C 0.46635(4) 0.161086(19) 0.35441(5) 0.00442(3) Uani 1.000000 .
H4 H 0.4238(9) 0.2477(4) 0.3393(11) 0.0210(14) Uani 1.000000 .
C2 C 0.25990(5) 0.09067(2) 0.30334(5) 0.00688(4) Uani 1.000000 .
H5 H 0.1927(10) 0.1105(5) 0.1337(11) 0.0307(18) Uani 1.000000 .
H6 H 0.1273(10) 0.1047(5) 0.4303(12) 0.0287(18) Uani 1.000000 .
H7 H 0.3038(9) 0.0049(4) 0.3084(13) 0.0317(19) Uani 1.000000 .
C3 C 0.55406(4) 0.140795(19) 0.59992(5) 0.00418(3) Uani 1.000000 .
loop_
_atom_site_aniso_label
_atom_site_aniso_U_11
_atom_site_aniso_U_22
_atom_site_aniso_U_33
_atom_site_aniso_U_12
_atom_site_aniso_U_13
_atom_site_aniso_U_23
O1 0.00672(6) 0.00712(6) 0.00566(8) 0.00247(6) -0.00063(6) 0.00050(6)
O2 0.00751(6) 0.00750(6) 0.00395(7) 0.00200(6) 0.00053(6) -0.00054(5)
N1 0.00556(7) 0.00599(7) 0.00416(8) 0.00006(6) 0.00053(6) -0.00010(6)
H1 0.025(4) 0.026(3) 0.020(5) 0.002(3) 0.008(4) -0.002(3)
H2 0.015(3) 0.023(3) 0.022(4) -0.001(3) 0.006(3) 0.001(3)
H3 0.028(4) 0.022(4) 0.012(4) -0.004(4) 0.010(3) -0.006(3)
C1 0.00509(8) 0.00465(7) 0.00352(9) 0.00041(6) -0.00034(7) 0.00005(6)
H4 0.026(3) 0.017(3) 0.021(4) 0.008(3) 0.004(3) 0.005(3)
C2 0.00579(8) 0.00882(8) 0.00603(10) -0.00131(7) -0.00057(7) -0.00043(8)
H5 0.025(4) 0.054(5) 0.013(4) -0.011(3) -0.010(3) 0.009(3)
H6 0.015(3) 0.037(4) 0.034(5) -0.001(3) 0.005(4) 0.003(4)
H7 0.036(5) 0.017(3) 0.042(5) -0.005(3) 0.004(4) -0.003(3)
C3 0.00486(7) 0.00432(7) 0.00336(8) 0.00036(6) -0.00028(7) -0.00001(6)
loop_
_atom_type_symbol
_atom_type_scat_dispersion_real
_atom_type_scat_dispersion_imag
_atom_type_scat_Cromer_Mann_a1
_atom_type_scat_Cromer_Mann_a2
_atom_type_scat_Cromer_Mann_a3
_atom_type_scat_Cromer_Mann_a4
_atom_type_scat_Cromer_Mann_b1
_atom_type_scat_Cromer_Mann_b2
_atom_type_scat_Cromer_Mann_b3
_atom_type_scat_Cromer_Mann_b4
_atom_type_scat_Cromer_Mann_c
_atom_type_scat_source
_atom_type_scat_dispersion_source
C 0.00347 0.00161 2.31000 1.02000 1.58860 0.86500 20.84390 10.20750 0.56870
51.65120 0.21560 'International Tables Volume C Table 6.1.1.4 (pp. 500-502)'
'Henke, Gullikson and Davis, At. Data and Nucl. Data Tables, 1993, 54, 2'
H 0.00000 0.00000 0.49300 0.32291 0.14019 0.04081 10.51090 26.12570 3.14236
57.79970 0.00304 'International Tables Volume C Table 6.1.1.4 (pp. 500-502)'
'Henke, Gullikson and Davis, At. Data and Nucl. Data Tables, 1993, 54, 2'
N 0.00653 0.00323 12.21260 3.13220 2.01250 1.16630 0.00570 9.89330 28.99750
0.58260 -11.52900 'International Tables Volume C Table 6.1.1.4 (pp. 500-502)'
'Henke, Gullikson and Davis, At. Data and Nucl. Data Tables, 1993, 54, 2'
O 0.01158 0.00611 3.04850 2.28680 1.54630 0.86700 13.27710 5.70110 0.32390
32.90890 0.25080 'International Tables Volume C Table 6.1.1.4 (pp. 500-502)'
'Henke, Gullikson and Davis, At. Data and Nucl. Data Tables, 1993, 54, 2'
loop_
_diffrn_refln_index_h
_diffrn_refln_index_k
_diffrn_refln_index_l
_diffrn_refln_intensity_net
_diffrn_refln_intensity_u
0 2 0 334.87 3.2
0 4 0 9448.91 80.99
0 6 0 163.43 1.9
0 8 0 82.64 1.31
0 10 0 1.46 0.62
0 12 0 424.14 4.85
0 14 0 106.72 2.05
0 16 0 46 1.56
0 18 0 414.8 5.42
0 20 0 0.4 0.62
0 22 0 246.97 4.29
0 24 0 0.42 0.69
0 26 0 11.75 1.12
0 1 1 1320 13.35
0 2 1 217.82 2.22
0 3 1 1291.14 11.66
0 4 1 179.07 1.94
0 5 1 0.42 0.3
0 6 1 865.47 8.34
0 7 1 67.29 1.11
0 8 1 80.83 1.33
0 9 1 58.46 1.21
0 10 1 250.2 3.09
0 11 1 121.57 2.02
0 12 1 139.12 2.24
0 13 1 34.32 1.26
0 14 1 69.07 1.72
0 15 1 165.76 2.84
0 16 1 4.34 16.76
0 17 1 2.06 0.63
0 18 1 109.11 2.49
0 19 1 29.44 1.63
0 20 1 50 1.91
0 21 1 4.9 0.77
0 23 1 3.15 0.77
0 24 1 0.3 0.7
0 25 1 5.45 1.02
0 26 1 36.05 2.25
0 0 2 5179.34 60.69
0 1 2 971.51 11.94
0 2 2 330.85 3.78
0 3 2 102.39 1.45
0 4 2 311.97 3.26
0 5 2 1032.85 9.7
0 6 2 176.23 2.13
0 7 2 9.87 0.62
0 8 2 203.58 2.55
0 9 2 43.16 1.09
0 10 2 84.28 1.57
0 11 2 152.66 2.3
0 12 2 51.48 1.37
0 13 2 39.16 1.27
0 14 2 38.8 1.37
0 15 2 330.4 4.35
0 16 2 8.1 0.74
0 17 2 111.27 2.52
0 18 2 37.18 1.66
0 19 2 218.44 3.81
0 20 2 1.78 0.74
0 21 2 83.71 2.48
0 22 2 67.08 2.35
0 23 2 32.82 1.87
0 24 2 4.54 0.83
0 25 2 40.93 2.3
0 26 2 4.66 0.91
0 1 3 153.04 3.18
0 2 3 287.47 5.33
0 3 3 374.32 4.47
0 4 3 1346.6 14.16
0 5 3 148.17 2.18
0 6 3 496.26 5.18
0 7 3 40.82 1.04
0 8 3 112.33 1.81
0 9 3 260.07 3.25
0 10 3 72.19 1.52
0 11 3 128.23 2.15
0 12 3 216.68 3.09
0 13 3 265.14 3.64
0 14 3 50.69 1.56
0 15 3 164.83 2.89
0 16 3 282.05 4.12
0 17 3 86.03 2.26
0 18 3 49.2 1.81
0 19 3 4.56 0.74
0 20 3 80.97 2.44
0 21 3 1.59 0.7
0 22 3 2.11 0.74
0 23 3 51.31 2.12
0 24 3 23.17 1.66
0 25 3 9.07 1.05
0 0 4 382.05 7.11
0 1 4 72.56 2.19
0 2 4 169.56 3.74
0 3 4 14.58 0.82
0 4 4 418.12 5.17
0 5 4 1.23 0.68
0 6 4 129.25 2.24
0 7 4 53.23 1.42
0 8 4 117.5 1.96
0 9 4 13.11 0.84
0 10 4 164.61 2.52
0 11 4 178.53 2.76
0 12 4 71.07 1.75
0 13 4 20.93 1.18
0 14 4 259.51 3.8
0 15 4 82.48 2.15
0 16 4 172.51 3.17
0 17 4 10.4 0.84
0 18 4 17.55 1.35
0 19 4 6.12 0.8
0 20 4 3.34 0.75
0 21 4 0.34 0.68
0 22 4 7.93 0.9
0 23 4 0.22 0.73
0 24 4 48.42 2.07
0 25 4 5.28 0.93
0 1 5 430.21 8.23
0 2 5 250.13 5.38
0 3 5 89.67 2.8
0 4 5 708.95 8.35
0 5 5 323.83 4.43
0 6 5 1.41 0.75
0 7 5 12.07 0.96
0 8 5 264.62 3.97
0 9 5 126.38 2.6
0 10 5 14.49 1
0 11 5 37.8 1.42
0 12 5 2.71 0.6
0 13 5 144.28 2.74
0 14 5 6.41 0.74
0 15 5 25.69 1.44
0 16 5 24.2 1.45
0 17 5 140.34 3.02
0 18 5 4.25 0.76
0 19 5 24.82 1.63
0 20 5 0.54 0.73
0 21 5 35.78 1.89
0 22 5 10.01 0.96
0 23 5 22.82 1.75
0 24 5 0.47 0.69
0 0 6 1.43 1.14
0 1 6 170.82 4.46
0 2 6 29.52 1.87
0 3 6 2.71 1.18
0 4 6 29.13 1.98
0 5 6 157.17 2.86
0 6 6 20.36 1.19
0 7 6 258.83 4.09
0 8 6 54.67 1.8
0 9 6 26.15 1.41
0 10 6 28.44 1.5
0 11 6 213.56 3.46
0 12 6 11.5 1.01
0 13 6 8.71 0.88
0 14 6 21.3 1.34
0 15 6 0.17 0.62
0 16 6 75.68 2.33
0 17 6 53.06 2.02
0 18 6 14.21 1.25
0 19 6 80.56 2.53
0 20 6 3.35 0.78
0 21 6 38.81 1.98
0 22 6 19.28 1.41
0 23 6 30.98 1.81
0 1 7 107.1 3.74
0 2 7 986.15 17.72
0 3 7 0.85 1.4
0 4 7 21.47 2
0 5 7 43.88 2.61
0 6 7 78.66 2.22
0 7 7 85 2.33
0 8 7 3.55 0.79
0 9 7 9 0.94
0 10 7 16.8 1.47
0 11 7 57.21 2.16
0 12 7 10.64 1.17
0 13 7 21.21 1.45
0 14 7 2.69 0.7
0 16 7 148.86 3.31
0 17 7 1.92 0.73
0 18 7 4.2 0.8
0 19 7 12.5 1.01
0 20 7 246.41 4.46
0 21 7 1.66 0.72
0 0 8 44.6 2.75
0 1 8 6.53 1.73
0 2 8 15.87 2.09
0 3 8 28.64 2.45
0 4 8 3.15 1.73
0 6 8 18.72 1.49
0 7 8 108.66 2.85
0 8 8 159.44 3.51
0 9 8 22.35 1.58
0 10 8 11.92 1.27
0 11 8 73.06 2.56
0 12 8 73.3 2.63
0 13 8 58.58 2.45
0 14 8 22.85 1.79
0 15 8 1.01 0.7
0 16 8 1.82 0.73
0 17 8 11.97 1
0 18 8 1.05 0.73
0 19 8 16.81 1.4
0 20 8 11.22 0.96
0 1 9 15.53 2.12
0 2 9 84.51 4
0 3 9 115.43 4.61
0 4 9 40.49 2.96
0 5 9 3.01 1.75
0 6 9 2.88 1.79
0 7 9 84.78 2.78
0 8 9 145.15 3.54
0 9 9 30.02 1.95
0 10 9 25.24 1.86
0 11 9 4.09 0.96
0 12 9 63.57 2.54
0 13 9 53.11 2.44
0 14 9 0.52 0.89
0 15 9 86.2 2.99
0 16 9 26.34 1.99
0 17 9 28.29 1.8
0 18 9 15.64 1.17
0 0 10 8.76 2.24
0 1 10 0.01 1.83
0 2 10 37.72 3.16
0 3 10 89.22 4.4
0 4 10 51.64 3.54
0 5 10 59.59 3.75
0 6 10 75.83 4.24
0 7 10 99.04 4.74
0 8 10 109.7 3.28
0 9 10 12.27 1.2
0 10 10 3.39 0.95
0 11 10 29.85 2.09
0 12 10 24.46 1.69
0 13 10 22.85 1.91
0 14 10 79.4 2.96
0 15 10 10.67 1.18
0 1 11 0.88 2.22
0 2 11 4.92 2.25
0 3 11 12.38 2.7
0 4 11 1.67 2.35
0 5 11 1.63 2.35
0 6 11 14.07 2.8
0 7 11 5.64 2.46
0 8 11 15.3 2.8
0 9 11 14.58 1.4
0 10 11 2.86 0.98
0 11 11 15.21 1.53
0 12 11 54.96 2.56
0 0 12 4.52 16.76
0 1 12 49.22 4.1
0 2 12 36.82 3.58
0 3 12 211.78 7.21
0 4 12 0.77 2.58
0 5 12 17.82 3.13
0 6 12 101.65 5.02
0 7 12 118.13 5.54
1 1 0 458.35 4.31
1 2 0 9999.99 105.89
1 3 0 107.72 1.26
1 4 0 3059.16 26.92
1 5 0 616.72 5.99
1 6 0 112.77 1.45
1 7 0 35.09 0.8
1 8 0 732.93 7.29
1 9 0 5.94 0.62
1 10 0 78.48 1.46
1 11 0 176.58 2.47
1 12 0 49.06 1.29
1 13 0 104.48 1.97
1 14 0 1.57 0.79
1 15 0 157.31 2.69
1 16 0 44.58 1.55
1 17 0 53.84 1.75
1 18 0 1.7 0.7
1 19 0 61.47 2
1 20 0 73.4 2.27
1 21 0 2.61 0.78
1 22 0 7.28 0.86
1 23 0 12.77 1.1
1 24 0 17.84 1.44
1 26 0 13.34 1.16
1 0 1 139.95 1.52
1 1 1 243.44 2.47
1 2 1 189.77 2.01
1 3 1 1982.27 17.64
1 4 1 286.21 2.99
1 5 1 798.09 7.7
1 6 1 39.89 0.8
1 7 1 618.51 6.21
1 8 1 427.57 4.52
1 9 1 423.38 4.61
1 10 1 239.17 3.05
1 11 1 31.25 1.02
1 12 1 0.65 0.66
1 13 1 232.64 3.23
1 14 1 53.91 1.51
1 15 1 159.71 2.77
1 16 1 112.61 2.35
1 17 1 46.35 1.65
1 18 1 43.35 1.69
1 19 1 27.91 1.51
1 20 1 10.62 0.88
1 21 1 3.76 0.75
1 22 1 63.37 2.2
1 23 1 19.43 1.62
1 24 1 38.16 1.96
1 25 1 17.31 1.49
1 26 1 3.65 0.88
1 0 2 5660.2 65.86
1 1 2 130.63 1.71
1 2 2 1043.4 11.15
1 3 2 353.79 3.69
1 4 2 1939.85 17.55
1 5 2 33.91 0.75
1 6 2 400.08 4.21
1 7 2 295.37 3.32
1 8 2 18.68 0.79
1 9 2 112.66 1.79
1 10 2 108.41 1.82
1 11 2 215 2.9
1 12 2 210.37 2.96
1 13 2 200.9 2.98
1 14 2 99.73 2.07
1 15 2 57.67 1.68
1 16 2 50.36 1.72
1 17 2 138.03 2.78
1 18 2 200.69 3.51
1 19 2 75.12 2.19
1 20 2 17.69 1.28
1 21 2 41.69 1.86
1 22 2 66.68 2.32
1 23 2 79.12 2.59
1 24 2 19.41 1.45
1 25 2 0.28 0.78
1 26 2 8.19 1.01
1 0 3 58.41 1.68
1 1 3 551.52 9.53
1 2 3 409.72 4.81
1 3 3 167.22 2.33
1 4 3 174.39 2.44
1 5 3 41.99 0.96
1 6 3 251.77 2.98
1 7 3 9.44 0.69
1 8 3 469.65 5.12
1 9 3 52.89 1.28
1 10 3 145.26 2.26
1 11 3 30.38 1.09
1 12 3 58.87 1.52
1 13 3 61.62 1.65
1 14 3 209.36 3.25
1 15 3 61.05 1.79
1 16 3 16.94 1.12
1 17 3 45.62 1.72
1 18 3 48.35 1.83
1 19 3 49.62 1.92
1 20 3 14.15 1.2
1 21 3 42.99 1.91
1 22 3 13.12 1.11
1 23 3 5 0.83
1 24 3 14.83 1.17
1 25 3 32.65 2.11
1 0 4 598.64 10.63
1 1 4 474.06 8.62
1 2 4 52.41 1.91
1 3 4 42.68 1.17
1 4 4 199.94 2.86
1 5 4 152.57 2.45
1 6 4 237.65 3.41
1 7 4 152.62 2.24
1 8 4 82.36 1.61
1 9 4 3.97 0.7
1 10 4 41.4 1.28
1 11 4 113.67 2.14
1 12 4 256.82 3.63
1 13 4 49.46 1.56
1 14 4 71.85 1.94
1 15 4 5.43 0.72
1 16 4 42.99 1.66
1 17 4 51.21 1.85
1 18 4 106.8 2.67
1 19 4 74.39 2.28
1 20 4 16.85 1.45
1 21 4 19.69 1.43
1 22 4 39.69 1.91
1 23 4 27.49 1.75
1 24 4 3.9 0.79
1 0 5 518.76 9.67
1 1 5 223.19 4.94
1 2 5 845.41 14.81
1 3 5 321.41 6.63
1 4 5 197.1 3.07
1 5 5 15.61 0.97
1 6 5 418.86 5.49
1 7 5 133.01 2.53
1 8 5 126.4 2.51
1 9 5 164.17 2.66
1 10 5 17.36 1.05
1 11 5 65.37 1.74
1 12 5 45.72 1.57
1 13 5 81.55 2.1
1 14 5 73.29 2.04
1 15 5 54.41 1.87
1 16 5 143.33 2.98
1 17 5 20.89 1.46
1 18 5 12.69 1.18
1 19 5 34.06 1.78
1 20 5 117.9 2.99
1 21 5 45.78 2.03
1 22 5 3.15 0.78
1 23 5 8.35 0.91
1 24 5 31.79 1.82
1 0 6 0.13 1.15
1 1 6 1.63 1.13
1 2 6 13.76 1.52
1 3 6 22.65 1.8
1 4 6 29.17 1.98
1 5 6 24.23 1.22
1 6 6 39.9 1.49
1 7 6 14.18 1.13
1 8 6 16.58 1.24
1 9 6 20.19 1.4
1 10 6 4.43 0.8
1 11 6 17.93 1.24
1 12 6 52.88 1.75
1 13 6 13.75 1.1
1 14 6 51.08 1.83
1 15 6 20.07 1.48
1 16 6 5.44 0.78
1 17 6 39.24 1.83
1 18 6 25.27 1.63
1 19 6 21.52 1.57
1 20 6 57.61 2.27
1 21 6 17.15 1.41
1 22 6 15.73 1.38
1 23 6 21.95 1.61
1 0 7 452.05 9.39
1 1 7 48.96 2.64
1 2 7 111.88 3.86
1 3 7 148.51 4.54
1 4 7 257.66 6.41
1 5 7 55.76 1.9
1 6 7 112.57 2.68
1 7 7 17.35 1.4
1 8 7 102.75 2.65
1 9 7 122.86 2.94
1 10 7 34.21 1.75
1 11 7 39.83 1.66
1 12 7 3.48 0.84
1 13 7 77.22 2.28
1 14 7 44.9 1.91
1 15 7 58.94 2.14
1 16 7 47.16 1.96
1 17 7 37.4 1.85
1 18 7 78.51 2.53
1 19 7 12.31 1.12
1 20 7 28.17 1.8
1 21 7 16.98 1.21
1 0 8 19.05 2.19
1 1 8 64.45 3.26
1 2 8 36.21 2.62
1 3 8 58.58 3.12
1 4 8 59.81 3.2
1 5 8 186.53 5.67
1 6 8 27.45 1.68
1 7 8 166.66 3.57
1 8 8 5.92 0.89
1 9 8 93.47 2.77
1 10 8 72.49 2.52
1 11 8 174.29 3.87
1 12 8 21.47 1.77
1 13 8 51.66 2.31
1 14 8 2.19 0.92
1 15 8 84.44 2.52
1 16 8 10.19 0.95
1 17 8 48.94 2.15
1 18 8 9.96 0.95
1 19 8 4.14 0.8
1 20 8 0.2 0.71
1 0 9 0.07 1.69
1 1 9 4.07 1.82
1 2 9 94.04 4.14
1 3 9 2.98 1.79
1 4 9 5.94 2.07
1 5 9 52.17 3.34
1 6 9 18.34 2.37
1 7 9 28.96 1.85
1 8 9 15.23 1.35
1 9 9 36.19 2.04
1 10 9 53.97 2.39
1 11 9 84.12 2.88
1 12 9 16.32 1.5
1 13 9 29.36 2.07
1 14 9 14.46 1.5
1 15 9 40.58 2.26
1 16 9 78.35 2.89
1 17 9 33.39 1.91
1 18 9 21.11 1.63
1 0 10 6.35 2.14
1 1 10 46.95 3.42
1 2 10 2.85 2.05
1 3 10 36.78 3.13
1 4 10 39.61 3.32
1 5 10 59.66 3.81
1 6 10 75.92 4.21
1 7 10 57.84 3.84
1 8 10 44.75 2.29
1 9 10 13.47 1.48
1 10 10 102.14 3.29
1 11 10 29.74 2.09
1 12 10 83.16 2.99
1 13 10 0.42 0.93
1 14 10 12 1.22
1 15 10 19.22 1.61
1 0 11 1.47 2.35
1 1 11 21.91 2.94
1 2 11 61.71 4.13
1 3 11 42.71 3.56
1 4 11 21.72 2.96
1 5 11 11.21 2.64
1 6 11 7.21 2.46
1 7 11 15.71 2.88
1 8 11 28.52 2.15
1 9 11 42.92 2.39
1 10 11 34.18 2.23
1 11 11 6.58 1.08
1 12 11 2.95 0.97
1 0 12 32.62 3.51
1 1 12 138.68 5.81
1 2 12 15.14 3.17
1 3 12 5.9 2.84
1 4 12 53.01 4.04
1 5 12 125.21 5.68
1 6 12 5.21 2.78
1 7 12 41.72 3.8
2 0 0 76.41 0.98
2 1 0 56.72 0.8
2 2 0 3059.1 26.95
2 3 0 1433.37 13.07
2 4 0 65.32 0.97
2 5 0 166.07 1.97
2 6 0 3792.47 33.67
2 7 0 535.28 5.48
2 8 0 1.39 0.55
2 9 0 428.14 4.71
2 10 0 463.49 5.08
2 11 0 4.4 0.66
2 12 0 79.08 1.66
2 13 0 306.08 3.9
2 14 0 19.92 1.1
2 15 0 127.47 2.42
2 16 0 67.41 1.87
2 17 0 65.02 1.91
2 18 0 79.64 2.19
2 19 0 68.81 2.12
2 20 0 1.68 0.68
2 21 0 14.09 1.17
2 22 0 27.55 1.69
2 23 0 20.34 1.6
2 24 0 59.02 2.26
2 25 0 7.51 1.05
2 26 0 1.96 0.82
2 0 1 2.98 0.29
2 1 1 142.15 1.61
2 2 1 505.52 4.97
2 3 1 977.56 9.2
2 4 1 287.56 3.04
2 5 1 777.71 7.56
2 6 1 41.76 0.88
2 7 1 178.54 2.24
2 8 1 8.82 0.66
2 9 1 497.84 5.36
2 10 1 15.86 0.84
2 11 1 8.66 0.79
2 12 1 74.16 1.62
2 13 1 145.46 2.46
2 14 1 81.52 1.87
2 15 1 43.28 1.47
2 16 1 6.49 0.72
2 17 1 18.36 1.26
2 18 1 18.14 1.32
2 19 1 53.28 1.93
2 20 1 130.59 2.98
2 21 1 52.62 2.04
2 22 1 42.52 1.95
2 23 1 4.67 0.81
2 24 1 74.98 2.44
2 25 1 41.91 2.41
2 26 1 55.53 2.65
2 0 2 7.65 0.41
2 1 2 562.42 5.56
2 2 2 1976.28 17.89
2 3 2 195.16 2.28
2 4 2 162.33 1.99
2 5 2 15.3 0.63
2 6 2 532.33 5.49
2 7 2 255.84 3.03
2 8 2 262.59 3.2
2 9 2 233.54 2.95
2 10 2 4.83 0.67
2 11 2 116.84 2.04
2 12 2 104.45 1.98
2 13 2 133.95 2.38
2 14 2 61.64 1.66
2 15 2 58 1.7
2 16 2 133.48 2.66
2 17 2 0.12 0.61
2 18 2 19.71 1.34
2 19 2 2.07 0.66
2 20 2 58.04 2.05
2 21 2 55.13 2.12
2 22 2 6.5 0.86
2 23 2 4.62 0.82
2 24 2 15.89 1.39
2 25 2 72.76 3.03
2 0 3 240.76 2.79
2 1 3 255.89 2.88
2 2 3 699.31 6.94
2 3 3 817.02 8.08
2 4 3 120.03 1.71
2 5 3 454.6 4.86
2 6 3 165.91 2.24
2 7 3 198 2.58
2 8 3 218.11 2.82
2 9 3 527.67 5.81
2 10 3 468.45 5.33
2 11 3 21.9 1.06
2 12 3 154.02 2.58
2 13 3 79.97 1.88
2 14 3 87.84 2.07
2 15 3 30.94 1.45
2 16 3 5.08 0.72
2 17 3 23.26 1.37
2 18 3 3.84 0.7
2 19 3 70.84 2.22
2 20 3 18.01 1.22
2 21 3 79 2.5
2 22 3 14.22 1.31
2 23 3 9.5 1.03
2 24 3 0.07 0.72
2 25 3 23.81 1.95
2 0 4 103.5 2.79
2 1 4 194.87 2.81
2 2 4 239.11 3.33
2 3 4 243.15 3.37
2 4 4 23.7 1.04
2 5 4 109.08 1.8
2 6 4 197.27 2.65
2 7 4 186.84 2.61
2 8 4 212.38 2.91
2 9 4 88.66 1.78
2 10 4 252.18 3.43
2 11 4 90.82 1.95
2 12 4 23.12 1.2
2 13 4 0.73 0.6
2 14 4 21.32 1.29
2 15 4 23.39 1.36
2 16 4 45.94 1.67
2 17 4 70.65 2.16
2 18 4 46.27 1.9
2 19 4 15.89 1.29
2 20 4 48.59 2
2 21 4 36.97 1.9
2 22 4 30.61 1.89
2 23 4 42.75 1.95
2 24 4 6.09 0.85
2 0 5 263.44 5.66
2 1 5 61.93 2.38
2 2 5 294.15 4.09
2 3 5 57.67 1.54
2 4 5 270.47 3.87
2 5 5 116.22 2.27
2 6 5 22.76 1.16
2 7 5 25.81 1.28
2 8 5 114.39 2.13
2 9 5 47.77 1.47
2 10 5 252.75 3.6
2 11 5 110.01 2.3
2 12 5 26.09 1.35
2 13 5 4.12 0.68
2 14 5 168.54 3.13
2 15 5 23.16 1.39
2 16 5 2.07 0.65
2 17 5 9.72 0.88
2 18 5 80.81 2.49
2 19 5 20.27 1.53
2 20 5 2.57 0.76
2 21 5 1.73 0.74
2 22 5 38.23 1.9
2 23 5 29.99 1.86
2 0 6 139.43 4.02
2 1 6 171.34 4.57
2 2 6 4.21 1.3
2 3 6 4.12 1.05
2 4 6 41.27 1.5
2 5 6 179.76 3.2
2 6 6 1.08 0.88
2 7 6 140.67 2.85
2 8 6 0.42 0.95
2 9 6 8.97 0.88
2 10 6 22.09 1.26
2 11 6 190.51 3.26
2 12 6 14.37 0.99
2 13 6 113.65 2.58
2 14 6 20.54 1.36
2 15 6 103.53 2.62
2 16 6 28.02 1.63
2 17 6 85.56 2.49
2 18 6 90.54 2.65
2 19 6 4.28 0.8
2 20 6 6.95 0.88
2 21 6 25.07 1.75
2 22 6 83.36 2.59
2 0 7 13.53 1.8
2 1 7 80.12 3.31
2 2 7 22.91 2.05
2 3 7 26.41 2.18
2 4 7 237.71 4.87
2 5 7 129.49 2.86
2 6 7 53.48 1.93
2 7 7 152.59 3.24
2 8 7 150.23 3.23
2 9 7 9.08 0.97
2 10 7 17.31 1.45
2 11 7 178.02 3.76
2 12 7 3.97 0.7
2 13 7 89.21 2.48
2 14 7 73.41 2.28
2 15 7 59.76 2.17
2 16 7 7.82 0.88
2 17 7 92.7 2.69
2 18 7 18.05 1.39
2 19 7 12.78 1.16
2 20 7 1.79 0.74
2 21 7 18.95 1.45
2 0 8 98.63 4.01
2 1 8 107.28 4.19
2 2 8 43 2.89
2 3 8 52.95 3.06
2 4 8 29.06 2.52
2 5 8 103.11 2.78
2 6 8 85.82 2.63
2 7 8 76.28 2.49
2 8 8 0.56 0.75
2 9 8 21.45 1.46
2 10 8 2.56 0.89
2 11 8 15.54 1.42
2 12 8 0.03 0.79
2 13 8 57.31 2.49
2 14 8 18.19 1.48
2 15 8 12.8 1.27
2 16 8 5.93 0.86
2 17 8 42.86 2.07
2 18 8 3.49 0.79
2 19 8 12.26 0.99
2 0 9 138.07 5.05
2 1 9 31.89 2.74
2 2 9 199.49 6.26
2 3 9 9.77 2.01
2 4 9 88.97 4.19
2 5 9 20.91 2.53
2 6 9 90.93 2.86
2 7 9 19.27 1.68
2 8 9 6.12 0.98
2 9 9 69.97 2.61
2 10 9 25.76 1.87
2 11 9 28.51 1.96
2 12 9 31.67 2.06
2 13 9 64.08 2.66
2 14 9 131.87 3.62
2 15 9 2 0.95
2 16 9 28.33 1.84
2 17 9 7.9 0.96
2 0 10 90.64 4.46
2 1 10 122.54 5.15
2 2 10 5.22 2.15
2 3 10 11.98 2.43
2 4 10 8.54 2.29
2 5 10 85.12 4.39
2 6 10 30.96 3.04
2 7 10 47.83 2.41
2 8 10 55.44 2.55
2 9 10 22.3 1.67
2 10 10 61.1 2.65
2 11 10 80.85 2.89
2 12 10 88.14 3.07
2 13 10 12.94 1.24
2 14 10 31.18 2.1
2 15 10 5.39 1.04
2 0 11 22.97 3.05
2 1 11 18.09 2.91
2 2 11 6.04 2.49
2 3 11 13.24 2.65
2 4 11 4.15 2.57
2 5 11 1.28 2.38
2 6 11 24.88 3.05
2 7 11 0.94 2.38
2 8 11 10.32 1.19
2 9 11 0.56 0.93
2 10 11 11.49 1.43
2 11 11 8.37 1.12
2 0 12 85.12 4.83
2 1 12 37.52 3.82
2 2 12 11.34 2.96
2 3 12 77.71 4.61
2 4 12 20.4 3.24
2 5 12 4.12 2.78
2 6 12 53.51 4.03
3 1 0 56.51 0.93
3 3 0 126.07 1.61
3 4 0 753.47 7.35
3 5 0 380.05 4.04
3 6 0 71.84 1.27
3 7 0 442.88 4.75
3 8 0 147.14 2.11
3 9 0 196.34 2.62
3 10 0 54.73 1.32
3 11 0 458.03 5.22
3 12 0 14.92 0.96
3 13 0 4.99 0.81
3 14 0 6.84 0.89
3 15 0 43.79 1.55
3 16 0 78.2 2.07
3 17 0 77.07 2.12
3 18 0 3.88 0.68
3 19 0 5.36 0.75
3 20 0 50.89 1.96
3 21 0 55.34 2.09
3 22 0 7.44 0.88
3 23 0 0.11 0.72
3 24 0 14.68 1.19
3 25 0 53.88 2.6
3 0 1 320.06 3.39
3 1 1 672.3 6.64
3 2 1 107.44 1.44
3 3 1 791.29 7.74
3 4 1 149.19 1.9
3 5 1 44.27 0.96
3 6 1 125.64 1.79
3 7 1 290.07 3.38
3 8 1 77.81 1.46
3 9 1 696.18 7.32
3 10 1 67.24 1.49
3 11 1 97.63 1.88
3 12 1 99.13 1.98
3 13 1 163.16 2.76
3 14 1 49.31 1.56
3 15 1 3.62 0.68
3 16 1 71.74 2
3 17 1 55 1.84
3 18 1 93.07 2.42
3 19 1 35.94 1.68
3 20 1 6.74 0.83
3 21 1 123.3 2.98
3 22 1 112.93 2.98
3 23 1 28.18 1.74
3 24 1 54.34 2.2
3 25 1 14.21 1.4
3 0 2 0.19 0.42
3 1 2 327.45 3.57
3 2 2 495.23 5.08
3 3 2 486.12 5.05
3 4 2 100.33 1.56
3 5 2 573.72 5.94
3 6 2 1162.48 11.39
3 7 2 13.31 0.77
3 8 2 162.14 2.31
3 9 2 113.38 1.93
3 10 2 462.59 5.25
3 11 2 63.06 1.55
3 12 2 193.92 2.95
3 13 2 47.76 1.48
3 14 2 12.1 1.07
3 15 2 23.5 1.3
3 16 2 66.88 1.93
3 17 2 51.98 1.82
3 18 2 16.48 1.3
3 19 2 10.08 0.99
3 20 2 21.07 1.53
3 21 2 1.07 0.7
3 22 2 5.12 0.83
3 23 2 17.87 1.58
3 24 2 50.22 2.14
3 25 2 8.27 1.02
3 0 3 334.13 3.73
3 1 3 458.09 4.86
3 2 3 31.69 0.92
3 3 3 304.63 3.5
3 4 3 22.98 0.87
3 5 3 389.93 4.33
3 6 3 6.18 0.69
3 7 3 463.36 5.15
3 8 3 78.47 1.59
3 9 3 47.66 1.32
3 10 3 21.06 1.03
3 11 3 138.28 2.39
3 12 3 73.17 1.77
3 13 3 22.62 1.21
3 14 3 16.52 1.08
3 15 3 21.92 1.32
3 16 3 3.73 0.71
3 17 3 14.9 1.16
3 18 3 0.36 0.62
3 19 3 18.74 1.49
3 20 3 11.14 0.94
3 21 3 2.94 0.75
3 22 3 11.65 0.99
3 23 3 72.52 2.51
3 24 3 15.49 1.32
3 0 4 21.11 0.85
3 1 4 206.46 2.68
3 2 4 56.4 1.27
3 3 4 145.92 2.15
3 4 4 45.54 1.18
3 5 4 492.86 5.45
3 6 4 145.71 2.27
3 7 4 108.45 1.95
3 8 4 98.17 1.91
3 9 4 122.75 2.21
3 10 4 38.24 1.33
3 11 4 52.86 1.6
3 12 4 54.6 1.65
3 13 4 190.68 3.18
3 14 4 18.3 1.24
3 15 4 68.46 2.03
3 16 4 31.48 1.54
3 17 4 58.62 2.03
3 18 4 46.41 1.92
3 19 4 30.74 1.71
3 20 4 37.97 1.84
3 21 4 46.89 2.04
3 22 4 12.7 1.13
3 23 4 18.31 1.57
3 24 4 2 0.74
3 0 5 90.99 1.77
3 1 5 81.46 1.67
3 2 5 64.61 1.52
3 3 5 133.43 2.21
3 4 5 130.51 2.21
3 5 5 131.88 2.26
3 6 5 80.15 1.74
3 7 5 223.29 3.21
3 8 5 340.95 4.35
3 9 5 3.31 0.86
3 10 5 243.26 3.62
3 11 5 13.29 0.97
3 12 5 224.95 3.57
3 13 5 18.72 1.31
3 14 5 116.47 2.66
3 15 5 80.57 2.28
3 16 5 18.24 1.41
3 17 5 5.71 0.8
3 18 5 11.67 0.96
3 19 5 19.31 1.41
3 20 5 5.15 0.83
3 21 5 6.52 0.88
3 22 5 27.56 1.81
3 23 5 6.88 0.87
3 1 6 6.89 0.93
3 2 6 75.97 1.99
3 3 6 8.79 1.02
3 4 6 17.41 1.23
3 5 6 38.3 1.56
3 6 6 33.94 1.56
3 7 6 71.67 2.09
3 8 6 34.19 1.45
3 9 6 59.04 1.77
3 10 6 43.7 1.62
3 11 6 123.64 2.64
3 12 6 6.57 0.78
3 13 6 102.96 2.56
3 14 6 46.89 1.85
3 15 6 13.09 1.06
3 16 6 75.95 2.38
3 17 6 43.67 1.94
3 18 6 18.54 1.39
3 19 6 39.73 1.97
3 20 6 115.6 3.02
3 21 6 10.52 0.96
3 22 6 9.39 0.93
3 0 7 10.78 1.83
3 1 7 1.54 1.52
3 2 7 275.79 6.8
3 3 7 52.83 1.96
3 4 7 17.56 1.43
3 5 7 58.44 2.06
3 6 7 21.88 1.55
3 7 7 65.59 2.2
3 8 7 20.31 1.56
3 9 7 198.44 3.89
3 10 7 92.25 2.39
3 11 7 11.23 0.87
3 12 7 4.35 0.73
3 13 7 69.43 2.24
3 14 7 89.38 2.52
3 15 7 67.77 2.31
3 16 7 5.07 0.82
3 17 7 5.17 0.83
3 18 7 14.27 1.16
3 19 7 37.97 1.98
3 20 7 16.71 1.37
3 21 7 9.47 0.93
3 0 8 3.88 1.83
3 1 8 207.36 6.05
3 2 8 108.4 4.28
3 3 8 83.54 3.81
3 4 8 71.05 2.38
3 5 8 70.27 2.38
3 6 8 47.76 2.06
3 7 8 55.14 2.19
3 8 8 60.86 2.35
3 9 8 40.41 2.04
3 10 8 8.02 1.03
3 11 8 182.16 4.05
3 12 8 31.48 1.95
3 13 8 11.5 1.07
3 14 8 8.35 0.9
3 15 8 32.84 1.8
3 16 8 27.98 1.8
3 17 8 20.44 1.64
3 18 8 15.16 1.18
3 19 8 42.07 2.02
3 0 9 125.76 4.94
3 1 9 21.77 2.56
3 2 9 35.33 2.94
3 3 9 25.42 2.72
3 4 9 185.8 6.14
3 5 9 0.26 0.85
3 6 9 14.74 1.2
3 7 9 16.44 1.36
3 8 9 78.82 2.8
3 9 9 11.48 1.16
3 10 9 50.94 2.36
3 11 9 7.75 1.08
3 12 9 9 1.13
3 13 9 2.81 0.96
3 14 9 56.78 2.48
3 15 9 11.69 1.11
3 16 9 16.44 1.2
3 17 9 39.71 1.97
3 0 10 1.56 2.12
3 1 10 104.58 4.75
3 2 10 50.6 3.64
3 3 10 150.3 5.79
3 4 10 21.77 2.88
3 5 10 13.03 2.58
3 6 10 42.53 2.27
3 7 10 21.32 1.61
3 8 10 13.22 1.24
3 9 10 60.83 2.65
3 10 10 13.84 1.53
3 11 10 8.34 1.11
3 12 10 2.05 0.93
3 13 10 34.74 2.22
3 14 10 30.93 2.06
3 0 11 2.26 2.43
3 1 11 20 3.05
3 2 11 27.61 3.15
3 3 11 63.51 4.16
3 4 11 30.87 3.41
3 5 11 28.53 3.19
3 6 11 22.12 3.1
3 7 11 41.11 2.35
3 8 11 11.89 1.46
3 9 11 19.61 1.53
3 10 11 16.38 1.58
3 11 11 17.13 5.37
3 0 12 10.06 3.04
3 1 12 13.33 3.05
3 2 12 5.96 2.79
3 3 12 1.41 2.79
3 4 12 1.83 2.66
4 0 0 715.43 7.1
4 1 0 704.74 7.07
4 2 0 73.44 1.28
4 3 0 3.2 0.57
4 4 0 67.45 1.28
4 5 0 28.12 0.92
4 6 0 240.09 2.97
4 7 0 160.63 2.31
4 8 0 241.5 3.1
4 9 0 237.44 3.14
4 10 0 126.02 2.18
4 11 0 23.09 1.12
4 12 0 438.35 5.41
4 13 0 126.19 2.39
4 14 0 5.14 0.67
4 15 0 23.05 1.31
4 16 0 165.08 3.08
4 17 0 2.16 0.63
4 18 0 3.72 0.71
4 19 0 13.22 1.2
4 20 0 0.51 0.68
4 21 0 14.57 1.14
4 22 0 0.08 0.75
4 23 0 8.73 0.93
4 24 0 39.83 1.98
4 0 1 2.67 0.53
4 1 1 270.93 3.1
4 2 1 63.12 1.2
4 3 1 274.69 3.18
4 4 1 22.12 0.84
4 5 1 109.44 1.73
4 6 1 79.29 1.5
4 7 1 447.51 4.98
4 8 1 78.34 1.58
4 9 1 7.75 0.74
4 10 1 62.42 1.51
4 11 1 485.71 5.65
4 12 1 123.55 2.32
4 13 1 78.32 1.92
4 14 1 84.17 2.06
4 15 1 82.07 2.12
4 16 1 95.65 2.34
4 17 1 31.08 1.58
4 18 1 56.54 1.96
4 19 1 77.7 2.33
4 20 1 59.58 2.15
4 21 1 14.09 1.27
4 22 1 26.05 1.76
4 23 1 3.99 0.83
4 24 1 35.75 1.91
4 25 1 9.53 1.06
4 0 2 19.57 0.81
4 1 2 481.82 5.16
4 2 2 17.66 0.81
4 3 2 136.99 1.98
4 4 2 364.57 4.09
4 5 2 247.56 3.11
4 6 2 58.96 1.33
4 7 2 322.82 3.9
4 8 2 294.35 3.66
4 9 2 10.28 0.82
4 10 2 75.15 1.69
4 11 2 34.09 1.26
4 12 2 84.44 1.93
4 13 2 0.24 0.56
4 14 2 26.29 1.34
4 15 2 27.44 1.42
4 16 2 30.17 1.53
4 17 2 35.3 1.66
4 18 2 11.15 0.99
4 19 2 20.42 1.51
4 20 2 15.39 1.12
4 21 2 17.35 1.5
4 22 2 17.71 1.21
4 23 2 32.32 1.88
4 24 2 2.95 0.77
4 0 3 8.54 0.71
4 1 3 409.44 4.52
4 2 3 70.06 1.42
4 3 3 845.66 8.54
4 4 3 173.36 2.44
4 5 3 197.7 2.71
4 6 3 9.89 0.78
4 7 3 110.23 1.97
4 8 3 158.83 2.52
4 9 3 58.3 1.52
4 10 3 30.85 1.23
4 11 3 54.14 1.58
4 12 3 76.68 1.93
4 13 3 22.45 1.28
4 14 3 41.04 1.62
4 15 3 134.29 2.78
4 16 3 49.85 1.85
4 17 3 1.74 0.66
4 18 3 39.41 1.81
4 19 3 63.89 2.19
4 20 3 24.07 1.6
4 21 3 61.57 2.29
4 22 3 46.39 2.13
4 23 3 1.81 0.74
4 24 3 25.43 1.76
4 0 4 140.92 2.17
4 1 4 226.11 2.98
4 2 4 62.2 1.44
4 3 4 176.36 2.56
4 4 4 64.01 1.48
4 5 4 159.2 2.47
4 6 4 102.24 1.96
4 7 4 78.34 1.74
4 8 4 16.27 0.98
4 9 4 2.63 0.83
4 10 4 65.81 1.74
4 11 4 44.78 1.54
4 12 4 125.79 2.55
4 13 4 47.58 1.69
4 14 4 16.77 1.16
4 15 4 73.01 2.18
4 16 4 98.33 2.55
4 17 4 108.61 2.77
4 18 4 2.89 0.74
4 19 4 15.5 1.16
4 20 4 41.08 1.99
4 21 4 36.69 1.91
4 22 4 3.81 0.86
4 23 4 116.65 3.01
4 0 5 50.92 1.41
4 1 5 41.98 1.3
4 2 5 11.3 0.89
4 3 5 298.81 3.85
4 4 5 52.14 1.45
4 5 5 154.4 2.57
4 6 5 25.13 1.14
4 7 5 64.21 1.72
4 8 5 87.94 2
4 9 5 81.92 2.03
4 10 5 49.53 1.62
4 11 5 18.03 1.21
4 12 5 35.24 1.59
4 13 5 12.27 1.08
4 14 5 15.51 1.17
4 15 5 3.57 0.72
4 16 5 38.66 1.8
4 17 5 18.89 1.46
4 18 5 4.21 0.8
4 19 5 9.94 0.95
4 20 5 52.98 2.18
4 21 5 4.06 0.8
4 22 5 1.98 0.74
4 0 6 0.53 0.79
4 1 6 161.33 2.74
4 2 6 27.94 1.25
4 3 6 46.94 1.54
4 4 6 21.64 1.21
4 5 6 251.75 3.68
4 6 6 75.31 1.96
4 7 6 73.71 1.98
4 8 6 98.89 2.33
4 9 6 247.58 3.86
4 10 6 48.19 1.78
4 11 6 66.65 2
4 12 6 115.27 2.68
4 13 6 89.96 2.42
4 14 6 22.79 1.5
4 15 6 99.69 2.67
4 16 6 33.34 1.77
4 17 6 77.26 2.47
4 18 6 48.52 2.07
4 19 6 67.62 2.37
4 20 6 3.39 0.79
4 21 6 41.03 2.02
4 0 7 252.28 3.83
4 1 7 17.21 1.31
4 2 7 23.42 1.53
4 3 7 22.1 1.49
4 4 7 119.01 2.89
4 5 7 29.93 1.65
4 6 7 36.76 1.57
4 7 7 47.73 1.76
4 8 7 94.23 2.4
4 9 7 11.38 1.08
4 10 7 80.15 2.26
4 11 7 95.1 2.53
4 12 7 73.05 2.26
4 13 7 19.2 1.34
4 14 7 55.87 2.14
4 15 7 3.88 0.78
4 16 7 6.15 0.85
4 17 7 17.17 1.41
4 18 7 10.41 0.97
4 19 7 23.59 1.66
4 20 7 3.56 0.79
4 0 8 80.87 3.81
4 1 8 35.84 2.26
4 2 8 25.07 1.66
4 3 8 21.56 1.63
4 4 8 53.28 2.16
4 5 8 8.05 0.98
4 6 8 16.5 1.39
4 7 8 59.49 2.37
4 8 8 6.82 0.99
4 9 8 162.74 3.86
4 10 8 34.99 1.8
4 11 8 16.15 1.34
4 12 8 1.55 0.72
4 13 8 95.95 2.75
4 14 8 62.29 2.31
4 15 8 4.09 0.81
4 16 8 17.91 1.43
4 17 8 0.1 0.71
4 18 8 29.69 1.8
4 0 9 35.14 3.02
4 1 9 25.04 2.72
4 2 9 24.29 2.66
4 3 9 44.16 2.19
4 4 9 108.33 3.12
4 5 9 25.37 1.84
4 6 9 66.11 2.65
4 7 9 10.23 1.14
4 8 9 155.68 3.87
4 9 9 31.1 2.02
4 10 9 36.37 2.1
4 11 9 0.64 0.95
4 12 9 43.51 2.36
4 13 9 16.98 1.39
4 14 9 21.5 1.64
4 15 9 48.47 2.11
4 16 9 4.48 0.82
4 1 10 151.66 5.89
4 2 10 25.94 2.99
4 3 10 5.67 2.35
4 4 10 55.27 2.49
4 5 10 105.51 3.33
4 6 10 51.39 2.49
4 7 10 28.47 2.03
4 8 10 28.31 2.04
4 9 10 1.41 0.94
4 10 10 27.55 2.03
4 11 10 12.91 1.24
4 12 10 2.95 0.98
4 13 10 15.86 1.3
4 0 11 50.92 3.9
4 1 11 2.96 2.43
4 2 11 5.8 2.46
4 3 11 16.48 2.86
4 4 11 60.31 4.12
4 5 11 23.99 2.46
4 6 11 0.91 0.95
4 7 11 12.34 1.23
4 8 11 37.61 2.32
4 9 11 17.98 1.57
5 1 0 73.34 1.41
5 2 0 79.69 1.52
5 3 0 421.89 4.7
5 4 0 111.42 1.87
5 5 0 133.44 2.09
5 6 0 0.19 0.59
5 7 0 21.53 0.99
5 8 0 29.85 1.13
5 9 0 46.7 1.37
5 10 0 70.43 1.7
5 11 0 67.4 1.74
5 12 0 2.95 0.87
5 13 0 22.33 1.28
5 14 0 96.12 2.29
5 15 0 28.13 1.5
5 16 0 8.37 0.79
5 17 0 19.19 1.27
5 18 0 11.48 1.17
5 19 0 0.26 0.67
5 20 0 0.8 0.69
5 21 0 1.68 0.73
5 22 0 14.5 1.16
5 24 0 3.76 0.8
5 0 1 10.89 0.75
5 1 1 244.16 3.03
5 2 1 166.09 2.35
5 3 1 696.94 7.14
5 4 1 9.68 0.74
5 5 1 65.17 1.42
5 6 1 129.9 2.13
5 7 1 281.96 3.58
5 8 1 5.84 0.76
5 9 1 106.65 2.06
5 10 1 23.25 1.12
5 11 1 125.03 2.35
5 12 1 39.75 1.49
5 13 1 34.72 1.52
5 14 1 29.59 1.43
5 15 1 398.29 5.34
5 16 1 112.22 2.63
5 17 1 7.79 0.82
5 18 1 14.09 1.25
5 19 1 98.04 2.72
5 20 1 94.54 2.66
5 21 1 6.43 0.87
5 22 1 1.65 0.74
5 23 1 3.44 0.79
5 24 1 26.78 1.72
5 0 2 604.59 6.41
5 1 2 309.58 3.75
5 2 2 1.04 0.61
5 3 2 461.18 5.19
5 4 2 156.8 2.37
5 5 2 77.88 1.61
5 6 2 12.05 0.84
5 7 2 23.64 1.06
5 8 2 53.3 1.46
5 9 2 68.46 1.68
5 10 2 2.56 0.8
5 11 2 29.74 1.32
5 12 2 227.46 3.53
5 13 2 0.88 0.61
5 14 2 13.81 1.21
5 15 2 5.63 0.72
5 16 2 110.81 2.66
5 17 2 26.92 1.57
5 18 2 21.14 1.49
5 19 2 55.52 2.08
5 20 2 3.95 0.8
5 21 2 71.48 2.43
5 22 2 3.24 0.79
5 23 2 9.8 1.05
5 24 2 13.46 1.65
5 0 3 56.89 1.4
5 1 3 363.33 4.32
5 2 3 44.76 1.26
5 3 3 17.49 0.94
5 4 3 2.48 0.7
5 5 3 125.57 2.17
5 6 3 63.64 1.56
5 7 3 117.22 2.18
5 8 3 34.02 1.26
5 9 3 16.59 1.08
5 10 3 79.13 1.94
5 11 3 47.39 1.62
5 12 3 50.23 1.7
5 13 3 35.01 1.55
5 14 3 86.1 2.24
5 15 3 6.81 0.77
5 16 3 93.07 2.52
5 17 3 43.44 1.86
5 18 3 43.83 1.94
5 19 3 8.1 0.9
5 20 3 103.48 2.86
5 21 3 15.11 1.2
5 22 3 8.79 0.93
5 23 3 15.85 1.17
5 0 4 0.52 0.68
5 1 4 127.87 2.21
5 2 4 79.86 1.73
5 3 4 51.79 1.47
5 4 4 31.6 1.21
5 5 4 11.43 0.93
5 6 4 51.93 1.53
5 7 4 55.07 1.59
5 8 4 163.62 2.8
5 9 4 4.89 0.69
5 10 4 204.81 3.35
5 11 4 63.33 1.89
5 12 4 156.76 2.97
5 13 4 8.04 0.77
5 14 4 157.51 3.15
5 15 4 37.84 1.77
5 16 4 40.6 1.82
5 17 4 15.1 1.26
5 18 4 46.69 2
5 19 4 138.53 3.28
5 20 4 0.1 0.7
5 21 4 80.8 2.58
5 22 4 21.47 1.72
5 0 5 12.92 1.02
5 1 5 340.44 4.36
5 2 5 58.21 1.62
5 3 5 29.43 1.24
5 4 5 133.38 2.49
5 5 5 108.88 2.28
5 6 5 34.05 1.43
5 7 5 63.09 1.78
5 8 5 91.85 2.2
5 9 5 19.97 1.28
5 10 5 34.64 1.53
5 11 5 37.31 1.63
5 12 5 1.77 0.63
5 13 5 32.49 1.65
5 14 5 77.31 2.27
5 15 5 2.41 0.72
5 16 5 34.24 1.73
5 17 5 6.73 0.86
5 18 5 54.01 2.15
5 19 5 5.76 0.87
5 20 5 21.81 1.71
5 21 5 16.12 1.21
5 0 6 86.6 2.11
5 1 6 83.1 2.04
5 2 6 20.27 1.27
5 3 6 98.65 2.25
5 4 6 90.99 2.2
5 5 6 146.75 2.83
5 6 6 24.55 1.34
5 7 6 191.47 3.34
5 8 6 40.17 1.66
5 9 6 38.51 1.61
5 10 6 126.15 2.78
5 11 6 146.43 3.06
5 12 6 0.94 0.65
5 13 6 123 2.92
5 14 6 98.6 2.67
5 15 6 27.94 1.66
5 16 6 9.75 0.94
5 17 6 96.55 2.79
5 18 6 13.25 1.17
5 19 6 9.56 0.95
5 20 6 0.01 0.71
5 0 7 2.72 0.68
5 1 7 54.68 1.82
5 2 7 30.58 1.55
5 3 7 7.35 0.79
5 4 7 196.7 3.45
5 5 7 18.93 1.23
5 6 7 38.42 1.66
5 7 7 17.77 1.36
5 8 7 183.19 3.46
5 9 7 20.86 1.39
5 10 7 3.68 0.75
5 11 7 7.81 0.85
5 12 7 24.25 1.45
5 13 7 29.66 1.69
5 14 7 11.71 0.98
5 15 7 33.47 1.83
5 16 7 14.37 1.35
5 17 7 8.98 0.94
5 18 7 5.37 0.85
5 0 8 66.97 2.14
5 1 8 87.33 2.4
5 2 8 5.94 0.78
5 3 8 1.26 0.65
5 4 8 35.66 1.76
5 5 8 256.4 4.27
5 6 8 2.16 1.45
5 7 8 9.62 0.9
5 8 8 5.39 0.81
5 9 8 44.16 1.93
5 10 8 3.77 0.78
5 11 8 23.25 1.61
5 12 8 14.78 1.16
5 13 8 59.36 2.31
5 14 8 14.91 1.19
5 15 8 16.12 1.19
5 16 8 21.84 1.64
5 17 8 107.72 2.91
5 0 9 1.25 1.45
5 1 9 54.98 2.08
5 2 9 64.88 2.59
5 3 9 10.05 1.12
5 4 9 11.37 1.16
5 5 9 25.94 1.94
5 6 9 49.85 2.35
5 7 9 17.43 1.53
5 8 9 2.02 0.93
5 9 9 2.42 0.75
5 10 9 39.01 1.96
5 11 9 28.38 1.8
5 12 9 3.13 0.78
5 13 9 16.05 1.2
5 14 9 12.42 1
5 15 9 4.8 0.83
5 0 10 137.14 5.71
5 1 10 9.52 1.64
5 2 10 5.19 1.04
5 3 10 93.48 3.14
5 4 10 44.95 2.35
5 5 10 54.87 2.65
5 6 10 12.08 1.24
5 7 10 32.62 2.15
5 8 10 12.76 1.24
5 9 10 59.81 2.59
5 10 10 1.58 0.96
5 11 10 3.7 0.98
5 12 10 10.74 0.97
5 0 11 6.83 2.77
5 1 11 43.54 3.66
5 2 11 22.46 2.95
5 3 11 29.92 2.14
5 4 11 20.09 1.66
5 5 11 0.11 0.94
5 6 11 72.65 2.8
5 7 11 4.43 1.03
6 0 0 245.06 3.21
6 1 0 120.86 2.05
6 2 0 8.82 0.8
6 3 0 57.72 1.45
6 4 0 18.1 0.94
6 5 0 139.35 2.34
6 6 0 128.54 2.27
6 7 0 153.75 2.58
6 8 0 107.43 2.14
6 9 0 0.42 0.79
6 10 0 160.24 2.85
6 11 0 0.47 0.58
6 12 0 116.74 2.48
6 13 0 39.1 1.63
6 14 0 16.84 1.17
6 15 0 51.85 1.86
6 16 0 13.28 1.16
6 17 0 16.28 1.26
6 18 0 38.66 1.88
6 19 0 12.7 1.25
6 21 0 4.13 0.81
6 22 0 42.91 2
6 23 0 1.23 0.73
6 0 1 72.05 1.59
6 1 1 215.98 2.98
6 2 1 156.09 2.44
6 3 1 138.72 2.3
6 4 1 159.52 2.52
6 5 1 190.47 2.84
6 6 1 17.26 0.98
6 7 1 111.18 2.15
6 8 1 96.22 2.04
6 9 1 2.66 0.86
6 10 1 2.65 0.61
6 11 1 48.56 1.64
6 12 1 23.27 1.37
6 13 1 217.8 3.62
6 14 1 74.93 2.15
6 15 1 33.79 1.63
6 16 1 21.38 1.43
6 17 1 130.95 3.01
6 18 1 120.83 2.96
6 19 1 33.73 1.8
6 20 1 23.99 1.67
6 21 1 14.64 1.18
6 22 1 39.73 1.99
6 23 1 17 1.58
6 0 2 34.97 1.19
6 1 2 207.57 2.96
6 2 2 317.16 4.01
6 3 2 6.03 0.78
6 4 2 1.57 0.74
6 5 2 86.17 1.86
6 6 2 17.29 1.02
6 7 2 32.66 1.3
6 8 2 84.73 1.97
6 9 2 9.92 1.04
6 10 2 193.57 3.21
6 11 2 6.74 0.74
6 12 2 55.5 1.86
6 13 2 19.59 1.22
6 14 2 165.95 3.25
6 15 2 1.85 0.66
6 16 2 12.69 1.06
6 17 2 25.94 1.62
6 18 2 13.58 1.11
6 19 2 12.61 1.1
6 20 2 3.33 0.79
6 21 2 15.9 1.39
6 22 2 11.32 0.99
6 23 2 24.45 2.81
6 0 3 22.35 1.09
6 1 3 180.68 2.79
6 2 3 30.13 1.23
6 3 3 362.97 4.49
6 4 3 121.09 2.26
6 5 3 8.26 0.94
6 6 3 44.38 1.46
6 7 3 104.37 2.19
6 8 3 41.47 1.5
6 9 3 46.04 1.62
6 10 3 2.35 0.65
6 11 3 12.4 0.94
6 12 3 37.59 1.63
6 13 3 7.96 0.79
6 14 3 87.13 2.41
6 15 3 58.55 2.06
6 16 3 51.43 2.03
6 17 3 23.2 1.59
6 18 3 126.17 3.1
6 19 3 85.21 2.66
6 20 3 5.47 0.86
6 21 3 37.95 2
6 22 3 52.43 2.19
6 0 4 1.91 0.79
6 1 4 170.37 2.83
6 2 4 38.07 1.38
6 3 4 102.91 2.15
6 4 4 1.66 0.89
6 5 4 66.72 1.82
6 6 4 121.36 2.46
6 7 4 8.94 0.76
6 8 4 30.63 1.42
6 9 4 72.43 2.03
6 10 4 87.54 2.27
6 11 4 4.51 0.69
6 12 4 49.54 1.85
6 13 4 8.47 0.83
6 14 4 71.91 2.27
6 15 4 6.91 0.84
6 16 4 57.86 2.14
6 17 4 145.54 3.3
6 18 4 17.91 1.44
6 19 4 56.91 2.27
6 20 4 22.4 1.67
6 21 4 98.75 2.82
6 0 5 25.9 1.36
6 1 5 117.8 2.42
6 2 5 35.63 1.46
6 3 5 192.14 3.21
6 4 5 34.59 1.48
6 5 5 7.58 0.75
6 6 5 79.41 2.07
6 7 5 18.4 1.28
6 8 5 0.47 0.66
6 9 5 61.1 1.98
6 10 5 4.15 0.7
6 11 5 35.03 1.67
6 12 5 41.98 1.81
6 13 5 17.27 1.14
6 14 5 41.01 1.89
6 15 5 3.46 0.77
6 16 5 30.49 1.81
6 17 5 3.42 0.79
6 18 5 32.15 1.82
6 19 5 10.89 0.98
6 20 5 0.16 0.69
6 0 6 92.21 2.27
6 1 6 183.19 3.23
6 2 6 131.13 2.74
6 3 6 101.28 2.41
6 4 6 35.6 1.59
6 5 6 144.26 2.93
6 6 6 133.89 2.84
6 7 6 11.48 0.87
6 8 6 19.62 1.41
6 9 6 137.69 3.02
6 10 6 23.04 1.56
6 11 6 60.14 2.13
6 12 6 73.41 2.31
6 13 6 62.98 2.26
6 14 6 23.87 1.69
6 15 6 78.91 2.49
6 16 6 52.24 2.13
6 17 6 41.32 2
6 18 6 15.65 1.08
6 19 6 25.94 1.71
6 0 7 32.11 1.57
6 1 7 4.08 0.71
6 2 7 90.53 2.41
6 3 7 21.41 1.45
6 4 7 14.81 1.19
6 5 7 37.51 1.68
6 6 7 178.74 3.45
6 7 7 4.2 0.76
6 8 7 34.49 1.7
6 9 7 9.23 0.99
6 10 7 105.14 2.76
6 11 7 9.29 0.92
6 12 7 31.74 1.83
6 13 7 28.17 1.78
6 14 7 25.07 1.72
6 15 7 6.38 0.88
6 16 7 0.17 0.72
6 17 7 21.59 1.58
6 18 7 12.85 1
6 0 8 51.57 1.98
6 1 8 2.26 0.71
6 2 8 26.86 1.58
6 3 8 89.72 2.52
6 4 8 14.14 1.26
6 5 8 6.19 0.82
6 6 8 23.97 1.62
6 7 8 96.71 2.66
6 8 8 1.32 0.71
6 9 8 5.72 0.85
6 10 8 14.24 1.2
6 11 8 32.08 1.88
6 12 8 4.38 0.83
6 13 8 19.03 1.35
6 14 8 27.8 1.77
6 15 8 75.15 2.49
6 16 8 38.5 1.97
6 0 9 71.12 2.39
6 1 9 2.02 0.74
6 2 9 20.82 1.58
6 3 9 20.42 1.48
6 4 9 16.35 1.38
6 5 9 4.94 0.83
6 6 9 23.81 1.65
6 7 9 12.8 1.02
6 8 9 54.81 2.15
6 9 9 10.61 0.98
6 10 9 76.77 2.54
6 11 9 11.97 1.11
6 12 9 66.38 2.38
6 13 9 25.43 1.72
6 0 10 8.99 0.95
6 1 10 79.25 2.54
6 2 10 83.49 2.64
6 3 10 2.94 0.83
6 4 10 12.81 1.02
6 5 10 94.1 2.76
6 6 10 15.61 1.2
6 7 10 41.15 2.04
6 8 10 2.87 0.78
6 9 10 8.27 0.92
6 0 11 13.56 1.15
6 1 11 53.99 2.53
6 2 11 7.82 1.1
7 2 0 130.25 2.37
7 3 0 24.91 1.14
7 4 0 6.95 0.92
7 5 0 95.83 2.11
7 6 0 38.47 1.45
7 7 0 4.41 0.64
7 8 0 63.19 1.8
7 9 0 78.27 2.04
7 10 0 178.65 3.19
7 11 0 59.65 1.91
7 12 0 44.27 1.72
7 13 0 0.15 0.64
7 14 0 31.74 1.62
7 15 0 27.58 1.61
7 16 0 4.53 0.79
7 17 0 20.95 1.56
7 18 0 2.24 0.75
7 19 0 5.65 0.85
7 20 0 45.28 2.02
7 21 0 32.51 1.87
7 22 0 2.61 0.8
7 0 1 398.97 4.92
7 1 1 102.8 2.08
7 2 1 28.98 1.24
7 3 1 75.58 1.8
7 4 1 127.47 2.38
7 5 1 132.84 2.48
7 6 1 72.61 1.87
7 7 1 41.6 1.51
7 8 1 2.08 0.62
7 9 1 182.51 3.19
7 10 1 34.69 1.54
7 11 1 33.12 1.57
7 12 1 0.93 0.6
7 13 1 67.32 2.11
7 14 1 32.91 1.74
7 15 1 19.54 1.44
7 16 1 31.56 1.76
7 17 1 65.45 2.3
7 18 1 77.96 2.5
7 19 1 47.92 2.11
7 20 1 20.36 1.64
7 21 1 45.88 2.1
7 22 1 61.15 2.32
7 0 2 20.92 1.15
7 1 2 3.72 0.88
7 2 2 70.57 1.79
7 3 2 52.94 1.58
7 4 2 22.99 1.21
7 5 2 92 2.08
7 6 2 379.75 4.9
7 7 2 12.88 0.92
7 8 2 31.8 1.47
7 9 2 42.86 1.7
7 10 2 258.91 4.03
7 11 2 19.39 1.2
7 12 2 106.1 2.58
7 13 2 9.59 0.94
7 14 2 10.48 0.91
7 15 2 36.38 1.74
7 16 2 27.59 1.69
7 17 2 11.19 1.07
7 18 2 20.42 1.59
7 19 2 3.02 0.79
7 20 2 3.43 0.81
7 21 2 1.78 0.74
7 0 3 6.84 0.97
7 1 3 214.82 3.35
7 2 3 54.86 1.68
7 3 3 32.63 1.41
7 4 3 44.64 1.57
7 5 3 186.83 3.14
7 6 3 80.59 2.04
7 7 3 21.85 1.28
7 8 3 68.11 1.97
7 9 3 10.33 0.93
7 10 3 10.89 0.93
7 11 3 10.82 1.08
7 12 3 27.06 1.53
7 13 3 38.83 1.79
7 14 3 77.39 2.4
7 15 3 29.7 1.7
7 16 3 44.67 2.06
7 17 3 59.01 2.26
7 18 3 14.38 1.17
7 19 3 38.43 1.98
7 20 3 23 1.67
7 21 3 16.11 1.36
7 0 4 4.76 0.69
7 1 4 120.53 2.5
7 2 4 21.71 1.3
7 3 4 42.52 1.61
7 4 4 103.67 2.35
7 5 4 94.32 2.3
7 6 4 88.28 2.23
7 7 4 8.21 0.8
7 8 4 16.62 1.17
7 9 4 30.01 1.56
7 10 4 21.46 1.42
7 11 4 25.44 1.56
7 12 4 49.5 1.96
7 13 4 71.55 2.37
7 14 4 21.45 1.58
7 15 4 69.45 2.38
7 16 4 64.44 2.29
7 17 4 42.11 1.96
7 18 4 29.26 1.79
7 19 4 46.58 2.15
7 20 4 3.52 0.8
7 0 5 5.46 0.73
7 1 5 40.06 1.63
7 2 5 39.42 1.59
7 3 5 13.16 1.12
7 4 5 57.07 1.91
7 5 5 59.28 1.93
7 6 5 49.57 1.83
7 7 5 81.62 2.29
7 8 5 113.76 2.71
7 9 5 8.76 0.85
7 10 5 80.31 2.37
7 11 5 21.84 1.54
7 12 5 51.14 2.08
7 13 5 8.33 0.89
7 14 5 96.64 2.72
7 15 5 5.72 0.85
7 16 5 22.11 1.5
7 17 5 7.32 0.9
7 18 5 10.3 0.96
7 19 5 9.96 0.95
7 0 6 26.13 1.48
7 1 6 111.39 2.65
7 2 6 140.04 2.97
7 3 6 104.67 2.61
7 4 6 99.51 2.52
7 5 6 11.78 0.98
7 6 6 22 1.51
7 7 6 61.09 2.14
7 8 6 51.53 2.01
7 9 6 16.17 1.3
7 10 6 13.59 1.25
7 11 6 45.79 1.96
7 12 6 12.13 1.1
7 13 6 24.35 1.66
7 14 6 19.62 1.41
7 15 6 31.7 1.86
7 16 6 34.32 1.9
7 17 6 26.88 1.79
7 18 6 12.77 1.13
7 0 7 55.52 2.07
7 1 7 2.22 0.7
7 2 7 131.32 3.02
7 3 7 14.86 1.27
7 4 7 5.67 0.8
7 5 7 8.74 0.88
7 6 7 5.92 0.82
7 7 7 40.41 1.88
7 8 7 64.44 2.24
7 9 7 31.14 1.82
7 10 7 67.13 2.36
7 11 7 23.4 1.5
7 12 7 37.27 1.99
7 13 7 13.85 1.16
7 14 7 52.71 2.26
7 15 7 12.47 1.01
7 16 7 0.34 1.48
7 0 8 2.16 0.74
7 1 8 58.5 2.22
7 2 8 129.17 3.07
7 3 8 33.07 1.78
7 4 8 11.5 1.09
7 5 8 19.04 1.53
7 6 8 8.15 0.9
7 7 8 15.72 1.33
7 8 8 7.1 0.96
7 9 8 42.61 2.02
7 10 8 3.82 0.82
7 11 8 50.09 2.15
7 12 8 31.18 1.82
7 13 8 38.2 1.92
7 14 8 4.42 0.81
7 0 9 8.45 0.93
7 1 9 8.09 0.91
7 2 9 18.92 1.44
7 3 9 13.06 1.08
7 4 9 35 1.9
7 5 9 19.44 1.27
7 6 9 18.75 1.34
7 7 9 6.93 0.89
7 8 9 104.59 2.91
7 9 9 1.26 1.59
7 10 9 57.62 2.23
7 11 9 11.99 0.99
7 0 10 0.4 0.77
7 1 10 56.67 2.25
7 2 10 7.15 0.88
7 3 10 120.23 3.07
7 4 10 13.56 1.03
7 5 10 1.31 0.76
7 6 10 17.67 1.6
8 0 0 4.28 0.66
8 1 0 3.12 0.64
8 2 0 89.93 2.11
8 3 0 0.26 0.6
8 4 0 4.32 0.68
8 5 0 19.3 1.24
8 6 0 238.96 3.78
8 7 0 32.72 1.55
8 8 0 10.41 0.93
8 9 0 116.7 2.68
8 10 0 32.42 1.61
8 11 0 41.47 1.75
8 12 0 18.55 1.2
8 13 0 106.36 2.73
8 14 0 2.32 0.73
8 15 0 3.26 0.77
8 16 0 65.94 2.3
8 17 0 30.97 1.78
8 18 0 0.96 0.73
8 19 0 16.89 1.22
8 20 0 1.43 0.74
8 0 1 57.35 1.79
8 1 1 56.61 1.75
8 2 1 175.33 3.05
8 3 1 2.25 0.63
8 4 1 59.4 1.82
8 5 1 121.54 2.57
8 6 1 4.64 0.72
8 7 1 39.76 1.62
8 8 1 9.29 0.9
8 9 1 111.14 2.66
8 10 1 7.9 0.8
8 11 1 7.23 0.81
8 12 1 38.62 1.8
8 13 1 47.78 1.94
8 14 1 8.27 0.89
8 15 1 33.79 1.79
8 16 1 15.88 1.38
8 17 1 33.47 1.88
8 18 1 7.15 0.9
8 19 1 73.89 2.48
8 20 1 68.19 2.37
8 0 2 1.01 0.61
8 1 2 5.69 0.71
8 2 2 58.79 1.82
8 3 2 20.77 1.31
8 4 2 235.67 3.75
8 5 2 5.6 0.74
8 6 2 90.93 2.29
8 7 2 22.74 1.47
8 8 2 332.23 4.79
8 9 2 3.58 0.69
8 10 2 42.14 1.79
8 11 2 7.65 0.83
8 12 2 50.5 1.97
8 13 2 5 0.8
8 14 2 49.53 2.03
8 15 2 6.74 0.86
8 16 2 38.68 1.92
8 17 2 9.81 0.97
8 18 2 5.32 0.85
8 19 2 5.5 0.85
8 20 2 18.98 1.39
8 0 3 150.89 2.92
8 1 3 3.47 0.69
8 2 3 26.8 1.44
8 3 3 63.66 1.92
8 4 3 76.6 2.13
8 5 3 41.88 1.7
8 6 3 65.28 2
8 7 3 63.69 2.02
8 8 3 38.73 1.67
8 9 3 108.79 2.67
8 10 3 129.26 2.96
8 11 3 20 1.48
8 12 3 114.98 2.88
8 13 3 68.33 2.29
8 14 3 29.04 1.69
8 15 3 0.98 0.71
8 16 3 22.36 1.63
8 17 3 5.9 0.87
8 18 3 10.88 0.97
8 19 3 3.38 0.79
8 0 4 10.04 0.9
8 1 4 25.66 1.39
8 2 4 29.79 1.5
8 3 4 83.64 2.25
8 4 4 43.34 1.74
8 5 4 22.02 1.36
8 6 4 12.58 0.94
8 7 4 74.98 2.26
8 8 4 118.95 2.84
8 9 4 44.76 1.85
8 10 4 56.12 2.09
8 11 4 99.09 2.69
8 12 4 28.57 1.67
8 13 4 44.99 1.99
8 14 4 45.57 2.06
8 15 4 70.89 2.43
8 16 4 15.33 1.08
8 17 4 13.05 1.14
8 18 4 1.01 0.72
8 0 5 1.21 0.64
8 1 5 42.68 1.73
8 2 5 33.21 1.61
8 3 5 27.11 1.54
8 4 5 31.17 1.61
8 5 5 61.89 2.12
8 6 5 84.95 2.42
8 7 5 15.16 1.26
8 8 5 67.46 2.27
8 9 5 24.58 1.62
8 10 5 90.43 2.63
8 11 5 2.01 0.73
8 12 5 98.21 2.81
8 13 5 2.24 0.77
8 14 5 10 0.97
8 15 5 25.63 1.71
8 16 5 18.66 1.6
8 17 5 9.87 0.95
8 0 6 156.16 3.29
8 1 6 3.44 0.74
8 2 6 15.34 1.26
8 3 6 22.45 1.55
8 4 6 67.41 2.23
8 5 6 40.87 1.86
8 6 6 29.96 1.7
8 7 6 51.7 2.15
8 8 6 23.73 1.69
8 9 6 9.63 0.94
8 10 6 0.25 0.73
8 11 6 53.94 2.22
8 12 6 0.05 0.7
8 13 6 17.9 1.34
8 14 6 6.02 0.87
8 15 6 27 1.79
8 16 6 34.21 1.89
8 0 7 100.01 2.79
8 1 7 9.14 0.91
8 2 7 2.39 0.75
8 3 7 20.68 1.39
8 4 7 109.51 2.86
8 5 7 1.85 0.74
8 6 7 5.68 0.84
8 7 7 65.48 2.34
8 8 7 55.56 2.22
8 9 7 18.9 1.43
8 10 7 0.23 0.78
8 11 7 51.76 2.23
8 12 7 59.82 2.26
8 13 7 15.84 1.2
8 14 7 24.07 1.7
8 0 8 86.72 2.65
8 1 8 81.9 2.59
8 2 8 18.25 1.39
8 3 8 64.46 2.38
8 4 8 21.44 1.49
8 5 8 25.83 1.78
8 6 8 16.26 1.15
8 7 8 24.42 1.72
8 8 8 5.67 0.86
8 9 8 7.15 0.9
8 10 8 8.14 0.91
8 11 8 40.99 1.99
8 0 9 11.42 0.99
8 1 9 10.62 0.98
8 2 9 36.45 1.98
8 3 9 31.31 1.85
8 4 9 32.72 1.91
8 5 9 1.65 0.79
8 6 9 80.73 2.5
8 7 9 42.36 2.02
8 8 9 13.72 1.18
9 1 0 1.04 0.6
9 2 0 44 1.73
9 4 0 324.84 4.78
9 5 0 1.06 1.25
9 6 0 12.22 0.99
9 7 0 13.21 1.17
9 8 0 230.97 4.02
9 9 0 8.03 0.85
9 10 0 28.83 1.66
9 11 0 45.88 1.96
9 12 0 10.13 0.94
9 13 0 12.4 1
9 14 0 77.28 2.51
9 15 0 68.6 2.39
9 16 0 0.2 0.74
9 18 0 8.53 0.92
9 0 1 13.61 0.99
9 1 1 21.78 1.38
9 2 1 48.58 1.8
9 3 1 23.81 1.46
9 4 1 10.74 0.94
9 5 1 12.77 1.12
9 6 1 35.99 1.67
9 7 1 72.14 2.26
9 8 1 26.2 1.53
9 9 1 71.11 2.22
9 10 1 7.92 0.87
9 11 1 63.45 2.23
9 12 1 6 0.84
9 13 1 109.32 2.9
9 14 1 24.99 1.72
9 15 1 7.71 0.91
9 16 1 18.78 1.55
9 17 1 40.18 1.98
9 18 1 2.55 0.77
9 0 2 205.68 3.64
9 1 2 3.32 0.68
9 2 2 8.39 0.81
9 3 2 5.14 0.74
9 4 2 169.14 3.31
9 5 2 59.86 2.01
9 6 2 18.36 1.44
9 7 2 20.49 1.5
9 8 2 11.55 0.93
9 9 2 117.16 2.86
9 10 2 18.45 1.42
9 11 2 29.12 1.7
9 12 2 35.63 1.87
9 13 2 64.86 2.35
9 14 2 19.46 1.45
9 15 2 19.98 1.55
9 16 2 33.62 1.88
9 17 2 6.74 0.87
9 18 2 23.97 1.63
9 0 3 36.96 1.65
9 1 3 37.76 1.7
9 2 3 135.05 2.95
9 3 3 0.12 0.62
9 4 3 14.27 1.05
9 5 3 39.69 1.82
9 6 3 51.11 1.99
9 7 3 30.28 1.67
9 8 3 158.06 3.37
9 9 3 18.32 1.51
9 10 3 91.25 2.62
9 11 3 28.76 1.73
9 12 3 81.55 2.53
9 13 3 7.22 0.9
9 14 3 56.2 2.27
9 15 3 6.57 0.88
9 16 3 3.96 0.81
9 17 3 8.98 0.93
9 0 4 122.21 2.91
9 1 4 2.9 0.73
9 2 4 6.33 0.8
9 3 4 28.05 1.58
9 4 4 77.94 2.34
9 5 4 35.31 1.76
9 6 4 53.5 2
9 7 4 24.29 1.61
9 8 4 64.38 2.25
9 9 4 37.69 1.83
9 10 4 90.06 2.68
9 11 4 1.06 0.72
9 12 4 65.57 2.32
9 13 4 2.41 0.78
9 14 4 8.21 0.92
9 15 4 9.78 0.96
9 16 4 8.69 0.93
9 0 5 127.17 3.07
9 1 5 22.46 1.57
9 2 5 80.12 2.44
9 3 5 73.86 2.37
9 4 5 24.32 1.62
9 5 5 2.1 0.73
9 6 5 32.73 1.81
9 7 5 67.35 2.31
9 8 5 37.87 1.87
9 9 5 2.95 0.78
9 10 5 5.34 0.85
9 11 5 38.15 1.94
9 12 5 21.43 1.61
9 13 5 14.3 1.19
9 14 5 5.15 0.85
9 15 5 17.36 1.39
9 0 6 1.62 0.72
9 1 6 5.25 0.83
9 2 6 29.44 1.75
9 3 6 55.65 2.15
9 4 6 16.85 1.36
9 5 6 19.9 1.57
9 6 6 18.55 1.51
9 7 6 29.38 1.79
9 8 6 5.86 0.88
9 9 6 43.67 2.03
9 10 6 9.59 1.05
9 11 6 38.75 1.96
9 12 6 16.9 1.36
9 13 6 14.4 1.05
9 0 7 33.66 1.88
9 1 7 11.12 1.1
9 2 7 38.03 1.98
9 3 7 10.11 0.96
9 4 7 36.06 1.96
9 5 7 36.93 1.96
9 6 7 116.08 3.04
9 7 7 2.48 0.77
9 8 7 38.75 1.91
9 9 7 21.13 1.69
9 10 7 24.63 1.69
9 11 7 2.58 0.77
9 0 8 8.06 0.92
9 1 8 4.31 0.82
9 2 8 5.42 0.85
9 3 8 25.05 1.73
9 4 8 43.33 2.08
9 5 8 12.77 1.13
9 6 8 34.76 1.84
9 7 8 53.92 2.21
9 8 8 9.31 0.93
10 0 0 501.89 6.58
10 1 0 0.14 1.36
10 2 0 18.9 1.45
10 3 0 3.21 0.74
10 4 0 219.32 3.97
10 5 0 19.3 1.49
10 6 0 45.08 1.94
10 7 0 2.43 0.74
10 8 0 5.66 0.84
10 9 0 34.09 1.82
10 10 0 6.82 0.87
10 11 0 4.5 0.82
10 12 0 3.55 0.81
10 14 0 13.72 1.3
10 15 0 2.93 0.78
10 16 0 0.28 0.7
10 0 1 1.37 0.68
10 1 1 75.37 2.33
10 2 1 24.33 1.47
10 3 1 35.18 1.73
10 4 1 24.12 1.62
10 5 1 10.68 1.03
10 6 1 76.32 2.39
10 7 1 21.79 1.43
10 8 1 4.01 0.79
10 9 1 18.53 1.54
10 10 1 20.33 1.57
10 11 1 89.49 2.69
10 12 1 16.47 1.41
10 13 1 17.17 1.24
10 14 1 16.3 1.39
10 15 1 31.23 1.83
10 16 1 4.34 0.81
10 0 2 95.25 2.63
10 1 2 6.76 0.84
10 2 2 93.34 2.64
10 3 2 26.53 1.61
10 4 2 34.65 1.73
10 5 2 9.85 0.92
10 6 2 4.97 0.81
10 7 2 68.15 2.3
10 8 2 13.63 1.29
10 9 2 4.98 0.83
10 10 2 60.14 2.3
10 11 2 82.15 2.62
10 12 2 4.3 0.83
10 13 2 1.78 0.75
10 14 2 64.07 2.34
10 15 2 61.53 2.31
10 0 3 13.98 1.28
10 1 3 1.33 0.7
10 2 3 27.89 1.64
10 3 3 9.4 0.92
10 4 3 28.76 1.68
10 5 3 15.21 1.16
10 6 3 106.41 2.82
10 7 3 4.47 0.81
10 9 3 19.99 1.59
10 10 3 42.5 2.07
10 11 3 3.35 0.79
10 12 3 40.51 1.96
10 13 3 50.58 2.18
10 14 3 4.65 0.83
10 15 3 4.58 0.82
10 0 4 5.91 0.84
10 1 4 16.2 1.32
10 2 4 27.26 1.64
10 3 4 33.1 1.85
10 4 4 28.77 1.71
10 5 4 60.32 2.27
10 6 4 7.22 0.88
10 7 4 72.26 2.5
10 8 4 40.88 2
10 9 4 28.95 1.76
10 10 4 42.3 2.05
10 11 4 39.07 1.98
10 12 4 2.84 0.78
10 13 4 1.76 0.74
10 14 4 36.62 1.91
10 0 5 33.29 1.83
10 1 5 60.27 2.26
10 2 5 56.05 2.26
10 3 5 2.36 0.77
10 4 5 42.87 2
10 5 5 105.73 2.94
10 6 5 36.7 1.94
10 7 5 4.07 0.83
10 8 5 23.25 1.65
10 9 5 76.83 2.57
10 10 5 24.3 1.74
10 11 5 4 0.82
10 12 5 17.29 1.42
10 0 6 0.32 0.75
10 1 6 17.22 1.17
10 2 6 21.65 1.69
10 3 6 0.82 0.72
10 4 6 3.67 0.81
10 5 6 7.33 0.91
10 6 6 5.87 0.86
10 7 6 24.22 1.55
10 8 6 11.63 0.99
10 9 6 12.35 1.11
10 10 6 28.94 1.75
10 0 7 6.3 0.88
10 1 7 10.76 0.97
10 2 7 158.39 3.56
10 3 7 6.82 0.88
10 4 7 17.14 1.41
10 5 7 8.59 0.92
10 6 7 68.61 2.39
10 7 7 21.73 1.67
11 1 0 1.44 0.72
11 2 0 342.12 5.34
11 3 0 19.39 1.44
11 4 0 1.22 0.72
11 5 0 0.7 0.73
11 6 0 36.76 1.91
11 7 0 109.16 2.93
11 8 0 1.66 0.75
11 9 0 3.18 0.79
11 10 0 19.36 1.47
11 11 0 103.67 2.85
11 12 0 8.32 0.92
11 13 0 18.08 1.46
11 0 1 0.57 0.69
11 1 1 56.81 2.21
11 2 1 2.95 0.78
11 3 1 16.03 1.36
11 4 1 15.07 1.16
11 5 1 48.85 2.11
11 6 1 3.05 0.79
11 7 1 53.16 2.14
11 8 1 28.13 1.78
11 9 1 3.93 0.82
11 10 1 14.88 1.19
11 11 1 9.72 0.95
11 12 1 1.6 0.74
11 13 1 25.15 1.48
11 0 2 14.05 1.29
11 1 2 18.86 1.54
11 2 2 27.15 1.79
11 3 2 39.08 1.99
11 4 2 24.14 1.63
11 5 2 2.77 0.79
11 6 2 3.62 0.81
11 7 2 37.1 1.93
11 8 2 17.56 1.4
11 9 2 4.24 0.83
11 10 2 5.97 0.87
11 11 2 40.52 1.98
11 12 2 11.17 1.08
11 0 3 29.76 1.78
11 1 3 36.32 1.87
11 2 3 16.28 1.36
11 3 3 1.13 0.73
11 4 3 51.74 2.18
11 5 3 35.9 1.86
11 6 3 34.09 1.88
11 7 3 23.52 1.7
11 8 3 28.71 1.85
11 9 3 5.86 0.85
11 10 3 6.92 0.88
11 11 3 30.47 1.87
11 0 4 13.07 1.15
11 1 4 27.2 1.75
11 2 4 51.82 2.16
11 3 4 66.22 2.39
11 4 4 13.91 1.06
11 5 4 6.1 0.86
11 6 4 30.83 1.76
11 7 4 9.5 0.96
11 8 4 2.64 0.77
11 9 4 20.42 1.46
11 10 4 6.32 0.86
11 0 5 16.79 1.24
11 1 5 27.11 1.8
11 2 5 65.51 2.39
11 3 5 42.4 1.96
11 4 5 4.52 0.82
11 5 5 5.75 0.85
11 6 5 90.04 2.75
11 7 5 22.78 1.63
11 8 5 0.49 0.74
11 0 6 34.02 1.92
11 1 6 8.93 0.93
11 2 6 1.72 0.79
11 3 6 51.97 2.15
11 4 6 13.03 1.12
12 0 0 16.7 1.24
12 1 0 25.88 1.75
12 2 0 10 1.07
12 3 0 46.16 2.09
12 4 0 4.34 0.82
12 5 0 32.75 1.83
12 6 0 38.07 1.92
12 7 0 14.99 1.06
12 8 0 1.11 0.74
12 9 0 66.79 2.38
12 0 1 23.01 1.65
12 1 1 9.54 0.95
12 2 1 7.09 0.9
12 3 1 41.75 2.05
12 4 1 16.47 1.28
12 5 1 64.2 2.39
12 6 1 0.96 0.73
12 7 1 42.37 2.04
12 8 1 18.76 1.58
12 0 2 1.84 0.75
12 1 2 9.56 0.95
12 2 2 88.38 2.75
12 3 2 2.84 0.78
12 4 2 16.1 1.39
12 5 2 14.41 1.16
12 6 2 28.12 1.82
12 7 2 9.11 0.93
12 8 2 9.89 1.07
12 0 3 1.98 1.55
12 1 3 33.54 1.8
12 2 3 1.53 0.75
12 3 3 38.64 1.96
12 4 3 3.45 0.79
12 5 3 13.09 1.29
12 6 3 1.66 0.74
12 0 4 26.41 1.72
12 1 4 81.97 2.58
12 2 4 16.87 1.55
12 3 4 31.88 1.84
loop_
_geom_angle_atom_site_label_1
_geom_angle_atom_site_label_2
_geom_angle_atom_site_label_3
_geom_angle
_geom_angle_site_symmetry_1
_geom_angle_site_symmetry_3
_geom_angle_publ_flag
H2 N1 H1 109.4(5) . . ?
H3 N1 H1 109.0(5) . . ?
H3 N1 H2 108.4(5) . . ?
C1 N1 H1 111.3(4) . . ?
C1 N1 H2 109.1(4) . . ?
C1 N1 H3 109.5(4) . . ?
H4 C1 N1 107.5(3) . . ?
C2 C1 N1 109.76(2) . . ?
C2 C1 H4 110.4(3) . . ?
C3 C1 N1 110.04(2) . . ?
C3 C1 H4 108.0(3) . . ?
C3 C1 C2 111.07(2) . . ?
H5 C2 C1 110.0(3) . . ?
H6 C2 C1 111.0(3) . . ?
H6 C2 H5 108.1(4) . . ?
H7 C2 C1 110.6(3) . . ?
H7 C2 H5 109.2(5) . . ?
H7 C2 H6 107.9(4) . . ?
O2 C3 O1 125.84(3) . . ?
C1 C3 O1 118.28(2) . . ?
C1 C3 O2 115.87(2) . . ?
loop_
_geom_bond_atom_site_label_1
_geom_bond_atom_site_label_2
_geom_bond_distance
_geom_bond_site_symmetry_2
_geom_bond_publ_flag
O1 C3 1.2476(4) . ?
O2 C3 1.2665(4) . ?
N1 H1 1.013(6) . ?
N1 H2 1.017(6) . ?
N1 H3 1.044(7) . ?
N1 C1 1.4898(4) . ?
C1 H4 1.095(5) . ?
C1 C2 1.5266(4) . ?
C1 C3 1.5348(4) . ?
C2 H5 1.088(6) . ?
C2 H6 1.090(6) . ?
C2 H7 1.084(6) . ?
loop_
_geom_torsion_atom_site_label_1
_geom_torsion_atom_site_label_2
_geom_torsion_atom_site_label_3
_geom_torsion_atom_site_label_4
_geom_torsion
_geom_torsion_site_symmetry_1
_geom_torsion_site_symmetry_2
_geom_torsion_site_symmetry_3
_geom_torsion_site_symmetry_4
_geom_torsion_publ_flag
O1 C3 C1 N1 -18.19(3) . . . . ?
O1 C3 C1 C2 103.55(3) . . . . ?
O2 C3 C1 N1 162.15(2) . . . . ?
O2 C3 C1 C2 -76.10(2) . . . . ?
