#------------------------------------------------------------------------------
#$Date: 2022-02-01 10:52:50 +0200 (Tue, 01 Feb 2022) $
#$Revision: 272371 $
#$URL: file:///home/coder/svn-repositories/cod/cif/1/56/62/1566218.cif $
#------------------------------------------------------------------------------
#
# This file is available in the Crystallography Open Database (COD),
# http://www.crystallography.net/
#
# All data on this site have been placed in the public domain by the
# contributors.
#
data_1566218
loop_
_publ_author_name
'Vladislav V. Gurzhiy'
'Alina R. Izatulina'
'Maria G. Krzhizhanovskaya'
'Mikhail N. Murashko'
'Dar-ya V. Spiridonova'
'Vladimir V. Shilovskikh'
'Sergey V. Krivovichev'
_publ_section_title
;
 Thermal behavior of uranyl selenite minerals derriksite and
 demesmaekerite
;
_journal_name_full               'Journal of GeoSciences'
_journal_page_first              249
_journal_page_last               259
_journal_paper_doi               10.3190/jgeosci.315
_journal_volume                  65
_journal_year                    2020
_chemical_formula_moiety         'Cu5 H10 O30 Pb2 Se6 U2'
_chemical_formula_sum            'Cu5 H10 O30 Pb2 Se6 U2'
_chemical_formula_weight         2171.98
_space_group_crystal_system      triclinic
_space_group_IT_number           2
_space_group_name_Hall           '-P 1'
_space_group_name_H-M_alt        'P -1'
_atom_sites_solution_hydrogens   difmap
_atom_sites_solution_primary     dual
_cell_angle_alpha                88.659(3)
_cell_angle_beta                 79.634(5)
_cell_angle_gamma                89.844(5)
_cell_formula_units_Z            1
_cell_length_a                   5.6594(5)
_cell_length_b                   10.0663(4)
_cell_length_c                   11.9792(5)
_cell_measurement_reflns_used    2810
_cell_measurement_temperature    243(2)
_cell_measurement_theta_max      30.1670
_cell_measurement_theta_min      3.6580
_cell_volume                     671.12(7)
_computing_cell_refinement       'CrysAlisPro 1.171.39.44a (Rigaku OD, 2018)'
_computing_data_collection       'CrysAlisPro 1.171.39.44a (Rigaku OD, 2018)'
_computing_data_reduction        'CrysAlisPro 1.171.39.44a (Rigaku OD, 2018)'
_computing_molecular_graphics    'Olex2 1.3 (Dolomanov et al., 2009)'
_computing_publication_material  'Olex2 1.3 (Dolomanov et al., 2009)'
_computing_structure_refinement  'SHELXL 2018/3 (Sheldrick, 2015)'
_computing_structure_solution    'SHELXT 2018/3 (Sheldrick, 2015)'
_diffrn_ambient_environment      N~2~
_diffrn_ambient_temperature      243(2)
_diffrn_detector                 'CCD plate'
_diffrn_detector_area_resol_mean 10.3829
_diffrn_detector_type            Atlas
_diffrn_measured_fraction_theta_full 0.997
_diffrn_measured_fraction_theta_max 0.997
_diffrn_measurement_details
;
List of Runs (angles in degrees, time in seconds):

  # Type    Start    End  Width  t~exp~   \w     \q     \k     \f   Frames
--------------------------------------------------------------------------
  1  \w    -26.00   1.00   1.00   22.50    --  -15.14 -77.00-150.00   27
  2  \w    -40.00  17.00   1.00   22.50    --  -15.14 -77.00 -30.00   57
  3  \w     39.00 102.00   1.00   22.50    --   16.86 178.00  60.00   63
  4  \w     -2.00  93.00   1.00   22.50    --   16.86  38.00-120.00   95
  5  \w    -57.00  41.00   1.00   22.50    --   16.86 -57.00  90.00   98
;
_diffrn_measurement_device       'four-circle diffractometer'
_diffrn_measurement_device_type  'SuperNova, Dual, Cu at home/near, Atlas'
_diffrn_measurement_method       '\w scans'
_diffrn_orient_matrix_type
'CrysAlisPro convention (1999,Acta A55,543-557)'
_diffrn_orient_matrix_UB_11      -0.0780665000
_diffrn_orient_matrix_UB_12      -0.0268903000
_diffrn_orient_matrix_UB_13      -0.0337964000
_diffrn_orient_matrix_UB_21      0.0884331000
_diffrn_orient_matrix_UB_22      0.0111914000
_diffrn_orient_matrix_UB_23      -0.0491297000
_diffrn_orient_matrix_UB_31      0.0480540000
_diffrn_orient_matrix_UB_32      -0.0640510000
_diffrn_orient_matrix_UB_33      0.0071150000
_diffrn_radiation_monochromator  mirror
_diffrn_radiation_probe          x-ray
_diffrn_radiation_type           'Mo K\a'
_diffrn_radiation_wavelength     0.71073
_diffrn_reflns_av_R_equivalents  0.0376
_diffrn_reflns_av_unetI/netI     0.0614
_diffrn_reflns_Laue_measured_fraction_full 0.997
_diffrn_reflns_Laue_measured_fraction_max 0.997
_diffrn_reflns_limit_h_max       7
_diffrn_reflns_limit_h_min       -7
_diffrn_reflns_limit_k_max       13
_diffrn_reflns_limit_k_min       -13
_diffrn_reflns_limit_l_max       14
_diffrn_reflns_limit_l_min       -15
_diffrn_reflns_number            5542
_diffrn_reflns_point_group_measured_fraction_full 0.997
_diffrn_reflns_point_group_measured_fraction_max 0.997
_diffrn_reflns_theta_full        25.242
_diffrn_reflns_theta_max         27.497
_diffrn_reflns_theta_min         3.459
_diffrn_source                   'micro-focus sealed X-ray tube'
_diffrn_source_type              'SuperNova (Mo) X-ray Source'
_exptl_absorpt_coefficient_mu    36.646
_exptl_absorpt_correction_T_max  0.238
_exptl_absorpt_correction_T_min  0.049
_exptl_absorpt_correction_type   analytical
_exptl_absorpt_process_details
;
CrysAlisPro 1.171.39.44a (Rigaku Oxford Diffraction, 2018)
Analytical numeric absorption correction using a multifaceted crystal
			model based on expressions derived by R.C. Clark & J.S. Reid.
(Clark, R. C. & Reid, J. S. (1995). Acta Cryst. A51, 887-897)
Empirical absorption correction using spherical harmonics,
 implemented in SCALE3 ABSPACK scaling algorithm.
;
_exptl_crystal_colour            brown
_exptl_crystal_density_diffrn    5.374
_exptl_crystal_description       prism
_exptl_crystal_F_000             947
_exptl_crystal_size_max          0.12
_exptl_crystal_size_mid          0.063
_exptl_crystal_size_min          0.055
_refine_diff_density_max         2.663
_refine_diff_density_min         -2.358
_refine_diff_density_rms         0.397
_refine_ls_extinction_coef       .
_refine_ls_extinction_method     none
_refine_ls_goodness_of_fit_ref   1.021
_refine_ls_hydrogen_treatment    mixed
_refine_ls_matrix_type           full
_refine_ls_number_parameters     197
_refine_ls_number_reflns         3070
_refine_ls_number_restraints     4
_refine_ls_restrained_S_all      1.020
_refine_ls_R_factor_all          0.0445
_refine_ls_R_factor_gt           0.0348
_refine_ls_shift/su_max          0.000
_refine_ls_shift/su_mean         0.000
_refine_ls_structure_factor_coef Fsqd
_refine_ls_weighting_details
'w=1/[\s^2^(Fo^2^)+(0.0283P)^2^] where P=(Fo^2^+2Fc^2^)/3'
_refine_ls_weighting_scheme      calc
_refine_ls_wR_factor_gt          0.0718
_refine_ls_wR_factor_ref         0.0772
_reflns_Friedel_coverage         0.000
_reflns_Friedel_fraction_full    .
_reflns_Friedel_fraction_max     .
_reflns_number_gt                2598
_reflns_number_total             3070
_reflns_threshold_expression     'I > 2\s(I)'
_cod_data_source_file            Demesmaekerite_SN_-30C_last.cif
_cod_data_source_block           demesmaekerite_sn_-30C
_cod_database_code               1566218
_chemical_oxdiff_formula         'Pb2 Cu5 U2 Se6 O30'
_shelx_space_group_comment
;
The symmetry employed for this shelxl refinement is uniquely defined
by the following loop, which should always be used as a source of
symmetry information in preference to the above space-group names.
They are only intended as comments.
;
_reflns_odcompleteness_completeness 99.74
_reflns_odcompleteness_iscentric 1
_reflns_odcompleteness_theta     28.51
_olex2_refinement_description
;
1. Fixed Uiso
 At 1.5 times of:
  All O(H) groups, All O(H,H) groups
2. Restrained distances
 O14-H14
 0.95 with sigma of 0.02
 O13-H13
 0.95 with sigma of 0.02
 O12-H12
 0.95 with sigma of 0.02
 H15A-O5_$3
 2 with sigma of 0.02
3. Uiso/Uaniso restraints and constraints
Uanis(O3) = Uanis(O6)
Uanis(O10) = Uanis(O9)
Uanis(O8) = Uanis(O7)
4.a Rotating group:
 O15(H15A,H15B)
;
_shelx_res_file
;
TITL demesmaekerite_sn_243k_a.res in P-1
    demesmaekerite_sn_243k.res
    created by SHELXL-2018/3 at 02:21:20 on 09-Sep-2020
REM Old TITL Demesmaekerite_SN_243K in P-1
REM SHELXT solution in P-1: R1 0.066, Rweak 0.005, Alpha 0.034
REM <I/s> 0.000 for 0 systematic absences, Orientation as input
REM Formula found by SHELXT: O30 Cu5 Se6 Pb4
CELL 0.71073 5.6594 10.0663 11.9792 88.659 79.634 89.844
ZERR 1 0.0005 0.0004 0.0005 0.003 0.005 0.005
LATT 1
SFAC Cu H O Pb Se U
UNIT 5 10 30 2 6 2
EQIV $1 +X,-1+Y,+Z
EQIV $2 -1+X,+Y,+Z
EQIV $3 2-X,1-Y,-Z
EADP O3 O6
EADP O10 O9
DFIX 0.95 O14 H14
DFIX 0.95 O13 H13
DFIX 0.95 O12 H12
EADP O8 O7
DFIX 2 H15a O5_$3

L.S. 20
PLAN  20
CONF
HTAB O12 O8_$1
HTAB O13 O9_$2
HTAB O14 O3_$3
HTAB O15 O5_$3
HTAB O15 O6_$1
Htab
BOND $H
MORE -1
fmap 2
acta
OMIT -4 55
OMIT 1 2 11
OMIT -1 1 0
REM <olex2.extras>
REM <HklSrc "%.\\Demesmaekerite_SN_243K.hkl">
REM </olex2.extras>

WGHT    0.028300
FVAR       0.24019
U1    6    1.260842    0.916528    0.252527    11.00000    0.01369    0.00718 =
         0.00406    0.00052   -0.00068   -0.00386
PB1   4    0.171420    0.311059    0.194329    11.00000    0.01533    0.01260 =
         0.01248    0.00228   -0.00189   -0.00396
SE1   5    1.288274    0.888866   -0.046408    11.00000    0.01391    0.00763 =
         0.00534    0.00024   -0.00119   -0.00324
SE2   5    1.225390    1.168906    0.487473    11.00000    0.02124    0.01347 =
         0.00676    0.00087   -0.00059   -0.00372
SE3   5    0.906371    0.625048    0.221210    11.00000    0.01484    0.00844 =
         0.00954   -0.00236    0.00082   -0.00299
CU1   1    1.000000    0.500000    0.500000    10.50000    0.01136    0.01257 =
         0.00623   -0.00178   -0.00098   -0.00418
CU2   1    0.707145    0.443139    0.046306    11.00000    0.01224    0.00866 =
         0.01055    0.00063   -0.00325   -0.00309
CU3   1    0.564272    0.423684    0.384958    11.00000    0.01353    0.01626 =
         0.00646   -0.00087   -0.00051   -0.00745
O1    3    1.522156    0.865744    0.304732    11.00000    0.01745    0.02422 =
         0.01866    0.00218   -0.00724   -0.00473
O2    3    1.002528    0.966116    0.196121    11.00000    0.02250    0.02245 =
         0.01610   -0.00072   -0.00416   -0.00130
O3    3    1.446997    0.865473    0.062325    11.00000    0.02787    0.01376 =
         0.00280   -0.00228   -0.00140   -0.00460
O4    3    1.159628    0.738232   -0.057868    11.00000    0.01814    0.00702 =
         0.01708   -0.00005   -0.00394   -0.00062
O5    3    1.517648    0.886569   -0.162493    11.00000    0.01479    0.01332 =
         0.00875    0.00164    0.00061   -0.00620
O6    3    1.156757    1.100932    0.369286    11.00000    0.02787    0.01376 =
         0.00280   -0.00228   -0.00140   -0.00460
O7    3    1.239852    1.331047    0.442055    11.00000    0.02774    0.01792 =
         0.01365    0.00027    0.00801   -0.00335
O8    3    0.956326    1.170195    0.574194    11.00000    0.02774    0.01792 =
         0.01365    0.00027    0.00801   -0.00335
O9    3    1.180261    0.691171    0.222265    11.00000    0.01550    0.01602 =
         0.00883    0.00339   -0.00177   -0.00880
O10   3    0.886810    0.513461    0.332075    11.00000    0.01550    0.01602 =
         0.00883    0.00339   -0.00177   -0.00880
O11   3    0.980229    0.515078    0.114158    11.00000    0.01308    0.00838 =
         0.00210   -0.00021    0.00199   -0.00434
O12   3    0.693470    0.409094    0.525239    11.00000    0.01728    0.01237 =
         0.01203    0.00430    0.00179   -0.00630
H12   2    0.757076    0.334488    0.558435    11.00000   -1.50000
O13   3    0.469720    0.457593    0.237997    11.00000    0.01364    0.01124 =
         0.00779   -0.00051    0.00001   -0.00152
H13   2    0.363007    0.528119    0.233574    11.00000   -1.50000
O14   3    0.404214    0.383579    0.006692    11.00000    0.01263    0.00810 =
         0.01008   -0.00391   -0.00080   -0.00118
H14   2    0.406844    0.297288   -0.023732    11.00000   -1.50000
O15   3    0.698953    0.203146    0.341678    11.00000    0.03555    0.04170 =
         0.02675   -0.01906   -0.00754   -0.00702
AFIX   7
H15A  2    0.680693    0.181326    0.272018    11.00000   -1.50000
H15B  2    0.857293    0.196246    0.337927    11.00000   -1.50000
AFIX   0
HKLF 4




REM  demesmaekerite_sn_243k_a.res in P-1
REM wR2 = 0.0772, GooF = S = 1.021, Restrained GooF = 1.020 for all data
REM R1 = 0.0348 for 2598 Fo > 4sig(Fo) and 0.0445 for all 3070 data
REM 197 parameters refined using 4 restraints

END

WGHT      0.0285      0.0000

REM Instructions for potential hydrogen bonds
HTAB O12 Se2_$1
HTAB O12 O8_$1
HTAB O13 Se3_$2
HTAB O13 O9_$2
HTAB O14 Se1_$3
HTAB O14 O3_$3
HTAB O15 Se1_$3
HTAB O15 O5_$3
HTAB O15 Se2_$1
HTAB O15 O6_$1

REM Highest difference peak  2.663,  deepest hole -2.358,  1-sigma level  0.397
Q1    1   0.0808  0.2430  0.1792  11.00000  0.05    2.66
Q2    1   1.4058  0.9017  0.1944  11.00000  0.05    2.42
Q3    1   0.0142  0.3216  0.2609  11.00000  0.05    2.19
Q4    1   1.3171  0.8746  0.3008  11.00000  0.05    2.05
Q5    1   1.3597  0.9784  0.2675  11.00000  0.05    2.03
Q6    1   1.1290  0.9294  0.3080  11.00000  0.05    2.02
Q7    1   0.3162  0.2919  0.1423  11.00000  0.05    1.95
Q8    1   1.0629  1.1834  0.4616  11.00000  0.05    1.90
Q9    1   1.2651  0.9993  0.1846  11.00000  0.05    1.86
Q10   1   1.1644  0.8470  0.2460  11.00000  0.05    1.84
Q11   1   0.3116  0.3768  0.1836  11.00000  0.05    1.67
Q12   1   0.1589  0.2217  0.2646  11.00000  0.05    1.66
Q13   1   0.1205  0.3395  0.1382  11.00000  0.05    1.48
Q14   1   0.9951  1.0440  0.6612  11.00000  0.05    1.40
Q15   1   1.0008  0.4653  0.1656  11.00000  0.05    1.38
Q16   1   1.4775  0.8954  0.0772  11.00000  0.05    1.38
Q17   1   1.3547  0.9821 -0.0023  11.00000  0.05    1.33
Q18   1   0.1564  0.3488  0.3026  11.00000  0.05    1.30
Q19   1   1.5929  0.8392 -0.2196  11.00000  0.05    1.22
Q20   1   1.2701  0.8494  0.3184  11.00000  0.05    1.22
;
_shelx_res_checksum              55623
_shelx_hkl_file
;
   0   0   2 1112.85   36.30
   0   0  -3  817.73   35.42
   0   0   3  853.10   31.68
   0   0   4 4731.81  142.37
   0   0  -4 4829.59  135.50
   0   0  -4 4691.97  149.19
   0   0   5 1192.23   46.76
   0   0  -5 1141.40   40.38
   0   0  -5 1275.96   54.78
   0   0  -6  113.88    9.19
   0   0   6  142.25   13.74
   0   0  -6  128.51   16.62
   0   0   7 2841.18   95.68
   0   0  -7 2587.40   82.59
   0   0  -7 2914.54  108.39
   0   0  -8   53.12    5.52
   0   0   8   46.91    9.29
   0   0  -9  533.65   42.78
   0   0 -10   37.31   13.82
   0   0 -11  192.81   29.26
   0   0 -12    9.26    9.88
   0   0 -13  631.94   59.06
   0   0 -14  350.04   45.48
   0   0 -15   32.19   18.09
   0   1 -15    6.74   13.37
   0   1 -14 1095.77   83.33
   0   1 -13   92.19   23.56
   0   1 -12 1070.67   75.18
   0   1 -11 1041.83   70.59
   0   1 -10 2536.91  116.68
   0   1  -9  624.64   32.77
   0   1  -9  787.77   52.51
   0   1  -8  395.91   33.94
   0   1  -8  323.46   22.13
   0   1  -7 4035.32  137.99
   0   1  -7 3562.41  119.74
   0   1  -6   39.49    7.42
   0   1  -6   53.13   10.56
   0   1  -6   45.77    8.59
   0   1  -5 1803.29   64.82
   0   1  -5 1655.61   62.21
   0   1  -5 1767.27   70.44
   0   1  -4   51.81    8.66
   0   1  -4   57.25    7.50
   0  -1   4   60.37    6.04
   0   1  -3 1989.03   66.12
   0  -1   3 2069.60   63.00
   0   1  -3 1933.36   68.64
   0   1  -2    8.61    2.95
   0  -1   2    9.12    2.67
   0  -1  -2 1195.43   41.08
   0  -1  -3  506.79   25.09
   0  -1  -4 1450.27   56.63
   0  -1  -5   46.81    8.96
   0   1   5   43.35    6.97
   0  -1  -6 2764.75  103.10
   0   1   6 2801.69   94.48
   0   1   7  814.93   40.11
   0  -1  -7  761.15   46.08
   0   1   8  221.14   20.27
   0  -1  -8  240.71   25.79
   0  -1  -9   94.69   18.17
   0   1   9   77.88   13.00
   0  -1 -10  242.93   30.43
   0  -1 -11  554.54   48.77
   0  -1 -12  285.43   36.60
   0  -1 -13    9.02   11.13
   0  -1 -14   42.08   17.97
   0  -1 -15    5.95   12.90
   0  -1 -16  114.15   30.02
   0   2 -15  443.96   52.63
   0   2 -14   19.07   13.98
   0   2 -13   58.64   18.55
   0   2 -12  171.53   28.80
   0   2 -11   -2.89    8.92
   0   2 -10  199.91   26.00
   0   2 -10   78.85   13.12
   0   2  -9   24.45    8.30
   0   2  -9   18.29    6.62
   0   2  -9   23.53   10.19
   0   2  -8  271.21   23.89
   0   2  -8  312.42   29.22
   0   2  -8  290.25   24.95
   0   2  -7  767.50   42.64
   0  -2   7  860.58   46.56
   0   2  -7  858.93   48.40
   0   2  -6 1245.58   57.81
   0   2  -6 1205.61   54.60
   0   2  -5  867.77   42.73
   0  -2   5  878.82   37.28
   0   2  -5  923.66   44.08
   0  -2   4  404.08   19.13
   0   2  -4  388.89   24.06
   0  -2   4  410.91   22.57
   0   2  -4  397.35   25.09
   0   2  -3 3007.56  103.56
   0  -2   3 3279.07  100.78
   0  -2   3 3094.11   94.63
   0   2  -3 3151.56   99.49
   0  -2   2   38.79    5.25
   0  -2   2   44.90    7.17
   0   2  -2   35.04    5.14
   0   2  -2   44.46    5.60
   0   2  -1 1800.39   54.51
   0  -2   1 1899.45   64.67
   0  -2   1 1836.87   61.72
   0  -2   0  220.77   15.50
   0  -2   0  218.79   15.37
   0   2   1 1839.84   54.46
   0   2   1 1800.56   53.11
   0  -2  -1 1910.87   54.58
   0  -2  -1 1793.43   52.67
   0  -2  -1 1764.06   62.20
   0  -2  -2    7.64    2.52
   0   2   2    5.47    2.09
   0  -2  -2    5.89    3.00
   0   2   2    9.08    2.63
   0  -2  -3    8.73    3.06
   0   2   3    8.16    3.19
   0  -2  -3   12.18    3.83
   0  -2  -4    7.97    2.35
   0  -2  -4    8.71    4.09
   0   2   5   15.88    5.11
   0  -2  -5   19.35    6.93
   0  -2  -5   17.06    3.20
   0  -2  -6  222.54   20.82
   0   2   6  219.52   19.58
   0  -2  -7  267.99   24.83
   0   2   7  204.28   20.27
   0   2   8 2142.90   83.89
   0  -2  -8 2275.41   95.67
   0   2   9  223.65   21.96
   0  -2  -9  203.50   25.22
   0  -2 -10 1600.58   84.76
   0  -2 -11  653.16   52.71
   0  -2 -12 1099.88   74.31
   0  -2 -13  481.78   49.37
   0  -2 -14  393.54   46.74
   0  -2 -15 1299.08   99.62
   0  -2 -15 1412.87   97.16
   0  -2 -16  497.76   61.52
   0   3 -15  423.54   50.65
   0   3 -14   69.52   22.59
   0   3 -13  394.40   44.15
   0   3 -12  627.87   53.28
   0   3 -11 1816.56   94.38
   0   3 -10  348.68   34.83
   0  -3  10  284.94   20.08
   0   3 -10  337.63   31.15
   0  -3   9  385.18   22.90
   0   3  -9  379.16   31.67
   0   3  -8   15.19    8.21
   0   3  -8    0.42    6.66
   0   3  -8   14.15    7.14
   0  -3   8   16.66    5.12
   0   3  -7  317.78   27.53
   0   3  -7  362.01   28.06
   0   3  -7  338.31   28.85
   0  -3   7  317.10   20.13
   0  -3   7  353.17   28.26
   0  -3   6  145.34   12.67
   0  -3   6  154.44   15.20
   0   3  -6  162.96   17.55
   0   3  -6  165.56   18.87
   0   3  -5  932.79   47.81
   0  -3   5  835.17   36.83
   0  -3   5  941.08   43.46
   0   3  -5  924.77   43.60
   0  -3   5  922.20   43.83
   0  -3   4  646.33   33.00
   0  -3   4  627.27   29.64
   0  -3   4  676.63   35.34
   0   3  -4  671.01   32.60
   0   3  -4  704.85   38.53
   0   3  -3 1621.55   56.58
   0   3  -3 1664.06   58.84
   0  -3   3 1597.07   57.63
   0  -3   3 1618.67   64.30
   0  -3   3 1502.92   57.31
   0   3  -3 1616.15   66.20
   0  -3   2 4430.78  129.32
   0  -3   2 4418.58  141.49
   0   3  -2 4303.95  135.74
   0   3  -2 4339.56  127.38
   0  -3   2 4366.14  136.00
   0   3  -1  432.37   25.44
   0  -3   1  415.15   16.68
   0  -3   1  407.07   25.43
   0   3  -1  413.56   15.65
   0  -3   1  427.10   27.10
   0  -3   0   28.64    7.41
   0   3   0   31.42    3.90
   0  -3   0   31.04    7.13
   0   3   1 4278.82  121.10
   0  -3  -1 4208.36  136.15
   0  -3  -1 4255.88  121.33
   0  -3  -2 2136.96   63.81
   0   3   2 2016.93   63.93
   0  -3  -2 2098.54   65.52
   0   3   2 2173.20   72.73
   0  -3  -2 2026.44   75.33
   0  -3  -3 8180.63  248.44
   0  -3  -3 8595.87  241.57
   0   3   3 8497.07  241.50
   0  -3  -3 8562.40  243.49
   0   3   3 8595.45  243.64
   0  -3  -4  565.74   29.68
   0  -3  -4  599.20   29.49
   0   3   4  618.88   29.22
   0  -3  -5 5115.48  161.95
   0   3   5 5603.92  167.15
   0  -3  -5 5654.56  169.24
   0  -3  -6  342.64   19.45
   0   3   6  414.65   26.41
   0  -3  -6  380.80   27.20
   0   3   7  672.77   37.94
   0  -3  -7  712.30   42.01
   0  -3  -7  633.80   24.31
   0  -3  -8 2473.59  100.95
   0  -3  -9  821.19   51.87
   0   3   9  753.77   43.90
   0  -3 -10  290.28   31.57
   0  -3 -11   35.57   14.28
   0  -3 -12    4.99    9.00
   0  -3 -13  461.73   47.80
   0  -3 -14   57.76   20.84
   0  -3 -14   55.84   20.03
   0  -3 -15   76.90   22.95
   0  -3 -15  104.69   28.38
   0  -3 -16  177.45   37.30
   0   4 -15   60.85   19.86
   0   4 -14  -12.30   11.47
   0   4 -13  720.59   58.79
   0   4 -12  562.01   49.10
   0   4 -11  712.19   53.17
   0   4 -11  891.88   59.38
   0   4 -10  399.49   35.94
   0  -4  10  297.27   22.06
   0   4 -10  419.79   36.83
   0   4  -9 1728.16   87.51
   0  -4   9 1768.58   68.90
   0   4  -9 1866.11   86.39
   0   4  -8  421.80   33.76
   0   4  -8  393.54   34.81
   0  -4   8  340.53   23.22
   0   4  -8  409.86   32.67
   0   4  -7 2343.51   89.41
   0   4  -7 2388.05   97.43
   0   4  -7 2197.86   90.71
   0  -4   7 2034.68   77.79
   0  -4   7 2259.92   86.51
   0   4  -6  986.36   53.15
   0  -4   6  807.18   39.28
   0  -4   6  916.52   46.99
   0   4  -6  895.91   47.78
   0   4  -6  882.04   44.46
   0  -4   5 2073.56   78.33
   0   4  -5 2242.36   89.10
   0   4  -5 2130.38   76.75
   0  -4   5 1929.10   73.99
   0  -4   5 2066.42   83.13
   0  -4   4 2852.71  101.43
   0   4  -4 3009.01   98.58
   0  -4   4 3058.10  110.42
   0   4  -4 3266.82  114.67
   0  -4   4 3071.84  101.62
   0  -4   3    8.05    4.22
   0   4  -3   12.23    5.32
   0  -4   3   13.61    6.30
   0   4  -3   12.72    3.61
   0  -4   3   14.00    4.38
   0   4  -3   20.12    7.89
   0  -4   2 1176.75   53.19
   0  -4   2 1116.10   56.32
   0   4  -2 1092.02   51.41
   0  -4   2 1195.85   41.91
   0   4  -2 1152.82   39.39
   0  -4   1  238.96   22.12
   0   4  -1  261.92   17.04
   0  -4   1  225.81   11.22
   0   4  -1  253.51   21.86
   0   4  -1  235.30   10.02
   0  -4   1  256.66   22.08
   0   4   0 2164.10   67.04
   0  -4   0 2359.54   86.77
   0  -4   0 2200.32   85.99
   0   4   1   33.67    3.95
   0  -4  -1   32.75    4.42
   0  -4  -1   32.62    8.66
   0   4   2  170.10   15.77
   0   4   2  155.73    9.11
   0  -4  -2  157.84   17.27
   0  -4  -2  167.46   10.97
   0  -4  -3  188.92   13.38
   0   4   3  207.45   16.96
   0   4   3  191.93   12.50
   0  -4  -3  194.92   12.55
   0  -4  -3  186.87   18.78
   0  -4  -4   10.62    4.94
   0  -4  -4   10.15    4.44
   0   4   4   21.49    5.07
   0  -4  -4    9.39    3.91
   0  -4  -5  371.67   25.97
   0  -4  -5  395.40   26.15
   0  -4  -5  428.62   25.49
   0   4   5  386.29   23.67
   0  -4  -6  101.57   13.63
   0   4   6   93.27   12.00
   0  -4  -6  104.19   12.61
   0  -4  -6  102.02   14.35
   0  -4  -7 1170.75   54.85
   0  -4  -7 1054.73   55.64
   0   4   7 1076.84   50.57
   0  -4  -7 1001.51   43.57
   0  -4  -8    7.31    7.25
   0  -4  -8    2.32    1.88
   0  -4  -9 2750.97  112.87
   0  -4 -10  130.00   22.16
   0  -4 -10  140.07   21.08
   0  -4 -11  147.32   25.12
   0  -4 -11  125.14   21.77
   0   4  12  338.25   31.13
   0  -4 -12  310.23   36.37
   0  -4 -12  286.29   37.46
   0  -4 -13  225.49   35.45
   0  -4 -13  305.71   37.37
   0   4  13  308.44   30.99
   0  -4 -14  114.24   27.40
   0  -4 -14  171.14   30.06
   0  -4 -15   48.89   20.64
   0  -4 -15   47.17   19.99
   0   5 -15   29.41   15.06
   0   5 -14 1030.07   73.13
   0   5 -13   84.35   22.18
   0   5 -12  355.00   39.85
   0   5 -12  393.75   39.35
   0   5 -11   32.83   12.39
   0   5 -11   31.63   13.94
   0   5 -10  589.09   48.34
   0   5 -10  669.07   47.09
   0   5  -9    2.62    7.63
   0  -5   9   -2.04    3.67
   0   5  -9   11.44    7.93
   0  -5   8  227.77   23.21
   0   5  -8  220.90   22.95
   0  -5   8  212.29   19.11
   0   5  -8  216.21   25.54
   0  -5   7   29.43    7.19
   0   5  -7   38.74    9.68
   0   5  -7   42.45   11.28
   0  -5   7   36.54    9.67
   0   5  -6  675.87   36.40
   0  -5   6  592.93   35.10
   0  -5   6  613.56   40.82
   0   5  -5  202.59   16.75
   0  -5   5  192.36   21.95
   0  -5   5  184.16   17.65
   0   5  -5  230.15   25.00
   0  -5   5  184.47   18.47
   0  -5   4  153.60   14.22
   0  -5   4  119.20   17.99
   0   5  -4  143.74   16.93
   0  -5   4  147.49   16.80
   0   5  -4  154.13   19.42
   0   5  -4  126.63   11.84
   0   5  -3 1131.13   41.46
   0  -5   3 1132.29   55.22
   0  -5   3 1149.65   59.50
   0   5  -3 1069.06   54.27
   0  -5   3 1126.18   44.25
   0   5  -2 1130.85   56.59
   0   5  -2 1127.50   37.78
   0  -5   2 1176.64   57.21
   0  -5   2 1106.33   40.62
   0   5  -2 1059.10   46.33
   0  -5   2 1201.57   60.16
   0  -5   1 1163.25   60.70
   0  -5   1 1243.53   60.30
   0   5  -1 1254.76   48.93
   0   5  -1 1159.11   58.10
   0  -5   0 2790.56  105.91
   0   5   0 2650.83   80.69
   0  -5  -1  308.90   16.13
   0   5   1  262.69   13.03
   0  -5  -1  280.18   26.11
   0   5   2 1751.32   53.86
   0  -5  -2 1815.63   58.47
   0  -5  -2 1736.12   77.81
   0  -5  -3   20.57    4.68
   0   5   3   21.56    3.92
   0  -5  -3   13.00    7.22
   0   5   3   18.25    6.44
   0  -5  -4 1573.88   71.26
   0   5   4 1598.13   56.18
   0  -5  -4 1525.41   58.37
   0   5   4 1743.88   66.36
   0  -5  -4 1600.14   56.83
   0   5   5   41.38    7.00
   0  -5  -5   45.66    8.19
   0   5   5   40.09   10.04
   0  -5  -5   35.80    9.24
   0  -5  -5   46.39    8.46
   0   5   6   37.43    7.37
   0  -5  -6   43.85    9.01
   0   5   6   39.60   10.46
   0  -5  -6   30.52    8.15
   0  -5  -6   39.27    8.83
   0  -5  -7   73.82   11.95
   0  -5  -7   84.39   12.87
   0  -5  -7   74.62   13.60
   0   5   7   91.80   12.54
   0   5   7   73.10   13.44
   0   5   8   23.85    8.62
   0  -5  -8   11.97    4.93
   0  -5  -8    8.92    6.35
   0  -5  -8   20.13    7.61
   0  -5  -9  312.42   31.69
   0  -5  -9  327.33   29.77
   0   5   9  287.74   27.97
   0  -5 -10    8.09    7.97
   0  -5 -10    8.62    7.35
   0   5  10   31.15   10.30
   0  -5 -11  193.04   28.23
   0   5  11  179.48   23.24
   0  -5 -11  189.04   25.87
   0   5  12   20.29    9.95
   0  -5 -12   17.95   10.88
   0  -5 -12    4.67   10.96
   0  -5 -13 1856.49  100.19
   0  -5 -13 1804.91  105.10
   0   5  13 1894.62   92.72
   0   5  14   36.30   11.69
   0  -5 -14   29.89   18.76
   0  -5 -14   51.17   17.53
   0  -5 -15  182.52   34.21
   0   6 -14 1295.46   81.30
   0   6 -13  -10.04   12.23
   0   6 -13   26.20   15.79
   0   6 -12  122.04   21.41
   0   6 -12  103.23   24.68
   0   6 -11   86.20   21.47
   0   6 -11   65.32   15.60
   0   6 -10 1723.71   92.10
   0   6 -10 1690.80   81.31
   0   6  -9  308.33   33.56
   0   6  -9  311.71   28.54
   0   6  -8  641.34   47.35
   0  -6   8  692.60   46.02
   0   6  -8  659.55   40.51
   0  -6   8  621.36   39.18
   0  -6   7 1019.80   53.60
   0   6  -7 1105.75   52.32
   0  -6   7 1096.58   61.50
   0   6  -6   29.99    7.83
   0  -6   6   28.46   10.84
   0  -6   6   18.24    8.04
   0  -6   5  321.19   23.86
   0  -6   5  320.78   31.44
   0  -6   5  327.61   28.26
   0   6  -5  359.62   22.44
   0  -6   4   83.33   16.56
   0  -6   4   77.40   10.23
   0   6  -4   77.65    9.03
   0  -6   4   86.77   14.32
   0   6  -4   72.54   13.65
   0  -6   3 1258.10   67.32
   0   6  -3 1272.56   44.74
   0   6  -3 1153.25   63.02
   0  -6   3 1242.79   48.13
   0  -6   2   75.87    7.30
   0   6  -2   70.89   13.67
   0   6  -2   76.25   10.65
   0  -6   2   85.64   16.05
   0   6  -2   75.24    6.10
   0  -6   2  109.39   16.60
   0   6  -1 2345.64   78.44
   0   6  -1 2478.41   98.07
   0  -6   1 2207.04  100.30
   0  -6   1 2519.95  100.54
   0   6   0  112.06   16.00
   0   6   0  104.80    8.05
   0  -6   0   90.79   16.64
   0  -6  -1  414.01   35.29
   0   6   1  389.70   17.15
   0  -6  -2 1634.57   78.97
   0  -6  -2 1702.09   56.80
   0  -6  -3 1988.42   89.41
   0  -6  -3 2121.51   67.89
   0   6   3 1979.24   62.72
   0  -6  -4  583.68   41.46
   0   6   4  554.02   39.87
   0   6   4  567.96   25.88
   0  -6  -4  617.54   29.41
   0  -6  -5  176.16   15.85
   0   6   5  169.83   13.82
   0  -6  -5  144.01   19.96
   0   6   5  166.38   21.11
   0  -6  -6 7083.24  210.21
   0  -6  -6 6427.01  220.15
   0   6   6 6479.97  221.35
   0  -6  -6 7086.74  206.62
   0   6   6 6596.14  202.84
   0   6   7   14.08    5.65
   0   6   7   16.91    8.60
   0  -6  -7   23.66    7.63
   0  -6  -7   10.21    6.72
   0  -6  -7   10.54    6.82
   0  -6  -8  641.27   40.45
   0   6   8  698.60   47.43
   0  -6  -9   19.06    7.62
   0  -6  -9   33.33   12.18
   0  -6  -9   10.71    5.37
   0   6   9   16.86    9.93
   0   6  10 1715.89   86.38
   0  -6 -10 1845.12   85.54
   0  -6 -10 1935.56   93.55
   0  -6 -11  174.94   26.72
   0   6  11  133.33   21.34
   0  -6 -11  163.90   23.78
   0   6  12   38.12   13.53
   0  -6 -12   42.11   16.11
   0  -6 -12   73.55   17.91
   0  -6 -13  508.12   46.61
   0  -6 -13  564.60   53.94
   0   6  13  521.14   46.09
   0   6  14  158.02   25.62
   0  -6 -14  208.78   35.21
   0  -6 -15   90.11   24.60
   0   7 -14   70.62   18.68
   0   7 -14  126.47   33.26
   0   7 -13   51.39   17.19
   0   7 -13   67.55   21.34
   0   7 -12  323.94   33.64
   0   7 -12  255.59   37.44
   0   7 -11   47.30   16.20
   0   7 -11   67.87   15.71
   0   7 -10  128.57   19.76
   0   7 -10  136.40   25.73
   0   7  -9  316.65   28.00
   0   7  -9  310.46   35.08
   0  -7   8 1917.08   95.43
   0   7  -8 2153.07   84.18
   0   7  -8 2027.22   98.28
   0  -7   7   46.99   12.90
   0  -7   7   30.70   12.45
   0   7  -7   32.12    7.93
   0  -7   6  801.85   49.54
   0  -7   6  767.80   54.33
   0   7  -6  797.41   38.94
   0  -7   5  715.07   46.84
   0  -7   5  685.46   50.75
   0   7  -5  763.08   34.82
   0  -7   5  702.65   37.57
   0   7  -5  773.99   49.54
   0   7  -4 2823.00   88.68
   0   7  -4 2742.39  114.59
   0  -7   4 2872.81  113.03
   0   7  -4 2653.29  101.69
   0  -7   4 2784.83  119.69
   0  -7   4 2720.48   93.38
   0  -7   3 1032.47   40.29
   0   7  -3  958.34   47.44
   0  -7   3 1037.92   63.19
   0   7  -3 1008.98   60.73
   0   7  -2 1424.88   57.64
   0   7  -2 1511.45   74.17
   0  -7   2 1323.25   74.89
   0  -7   1 1570.35   81.66
   0   7  -1 1686.85   76.50
   0   7  -1 1525.96   53.85
   0  -7   0    5.72    7.77
   0   7   0    4.13    6.34
   0   7   0    9.09    2.63
   0  -7  -1  701.57   51.03
   0   7   1  800.49   48.15
   0  -7  -2  320.00   33.02
   0   7   2  331.58   30.09
   0  -7  -2  330.27   16.96
   0   7   3 1074.14   34.95
   0   7   3 1146.51   61.53
   0  -7  -3 1071.32   64.58
   0  -7  -3 1152.41   41.63
   0   7   4   13.95    3.51
   0   7   4   19.91    8.91
   0   7   4   19.47    7.10
   0  -7  -4   16.99   10.03
   0  -7  -4   18.72    5.08
   0  -7  -5   12.42    8.44
   0   7   5    3.31    6.21
   0  -7  -5    2.71    3.22
   0   7   5   11.07    3.57
   0  -7  -6  143.18   21.11
   0   7   6  116.90   12.34
   0   7   6  165.29   22.48
   0  -7  -6  186.77   17.10
   0   7   7   36.72   12.31
   0  -7  -7   69.26   11.65
   0  -7  -7   64.60   13.92
   0   7   7   63.39    9.61
   0  -7  -8   60.61   13.36
   0  -7  -8   84.25   14.58
   0   7   8   65.39   15.86
   0  -7  -9  189.39   23.17
   0   7   9  152.51   23.28
   0  -7  -9  120.40   16.75
   0  -7 -10  670.36   48.63
   0   7  10  513.87   44.84
   0   7  11   17.44    9.74
   0  -7 -11   23.00   12.94
   0  -7 -12  895.77   64.00
   0   7  12  733.09   56.86
   0  -7 -13  124.85   25.50
   0   7  13   92.42   20.57
   0  -7 -14  244.85   36.73
   0   7  14  223.38   30.69
   0  -7 -15   -0.52   11.51
   0   8 -13  989.27   79.67
   0   8 -12   10.98    9.49
   0   8 -12  -16.31   16.56
   0   8 -11  507.54   39.43
   0   8 -11  515.92   52.45
   0   8 -10  219.69   32.80
   0   8 -10  235.61   24.88
   0   8  -9  551.55   36.76
   0   8  -9  522.16   48.44
   0  -8   8    0.05    8.10
   0   8  -8   -2.92    5.77
   0   8  -8   -4.20   10.13
   0  -8   7  263.98   32.10
   0   8  -7  286.82   22.23
   0   8  -6   43.63    8.15
   0  -8   6   48.57   14.62
   0   8  -5   56.31   11.96
   0  -8   5   48.97    8.94
   0   8  -5   61.36    8.47
   0   8  -5   46.74   14.12
   0  -8   5   41.38   13.10
   0  -8   4  178.19   15.08
   0  -8   4  180.58   26.75
   0   8  -4  144.77   17.24
   0   8  -4  183.62   26.30
   0   8  -3   46.34   13.97
   0   8  -3   25.64    6.89
   0  -8   3   41.38   14.33
   0   8  -2  163.13   22.74
   0   8  -2  159.97   13.89
   0  -8   2  161.38   24.97
   0  -8   1  534.76   45.69
   0   8  -1  505.89   23.01
   0   8  -1  508.48   39.70
   0  -8   0  734.40   54.79
   0   8   0  672.01   24.93
   0   8   1  187.36   23.34
   0  -8  -1  208.08   28.18
   0   8   2  653.48   45.24
   0  -8  -2  588.22   48.79
   0   8   3 1293.45   69.92
   0  -8  -3 1408.75   48.57
   0  -8  -3 1219.69   74.66
   0   8   4    4.87    2.02
   0  -8  -4    1.75    3.00
   0   8   4    4.96    5.91
   0  -8  -5  684.25   30.31
   0  -8  -5  728.71   51.89
   0   8   5  750.95   49.18
   0   8   6   58.75    8.25
   0  -8  -6   41.43   13.02
   0  -8  -6   71.39   10.21
   0   8   6   76.21   16.29
   0  -8  -7  913.75   44.45
   0   8   7  880.02   57.88
   0   8   8   16.78    9.94
   0  -8  -8   18.89   11.38
   0  -8  -8   27.95    8.60
   0   8   9   28.17   11.25
   0  -8  -9   10.74    7.93
   0   8  10   10.08    9.53
   0  -8 -10   15.87   10.00
   0  -8 -11   98.44   19.92
   0   8  11   53.30   15.08
   0   8  12    4.53    8.39
   0  -8 -12   24.98   12.23
   0   8  13   43.67   12.95
   0   8  14  234.49   33.21
   0   9 -11  847.26   70.65
   0   9 -10  123.22   27.20
   0   9  -9  412.14   44.72
   0   9  -8   71.37   19.79
   0  -9   8   64.51   18.02
   0  -9   7  556.27   49.75
   0  -9   6  883.39   63.99
   0  -9   5 1382.42   82.66
   0   9  -5 1359.68   80.44
   0  -9   4  120.30   22.70
   0   9  -4  100.60   14.18
   0   9  -4  141.27   24.21
   0  -9   3    6.98    8.43
   0   9  -3   16.01    9.40
   0   9  -3   10.29    4.09
   0   9  -2   71.29   16.40
   0   9  -2   51.27    7.06
   0  -9   2   81.83   20.58
   0  -9   1  199.42   29.03
   0   9  -1  203.39   11.94
   0   9  -1  231.19   27.09
   0   9   0   37.71   12.61
   0  -9   0   62.57   17.28
   0  -9  -1  844.25   62.22
   0   9   1  875.49   55.61
   0   9   2   63.29   14.37
   0  -9  -2   87.08   20.14
   0  -9  -3  854.43   64.30
   0   9   3  951.47   58.95
   0  -9  -4  945.07   65.39
   0  -9  -4  915.08   35.90
   0   9   4  852.51   56.78
   0  -9  -5  112.47   22.43
   0  -9  -5  102.90   10.47
   0   9   5   93.01   18.69
   0  -9  -6  282.66   19.39
   0  -9  -6  279.82   33.86
   0   9   6  277.98   31.21
   0  -9  -7  766.86   37.84
   0   9   7  720.29   53.75
   0  -9  -7  708.89   55.41
   0  -9  -8  562.17   47.51
   0   9   8  725.79   53.23
   0   9   9 1510.15   82.30
   0  -9  -9 1221.29   72.61
   0   9  10  214.43   29.41
   0   9  11 1026.06   69.12
   0   9  12  110.42   21.57
   0   9  13  509.63   48.33
   0  10 -10   23.21   14.64
   0  10  -9   21.65   16.30
   0 -10   8   -0.36   10.23
   0  10  -8   -6.35   11.98
   0 -10   7  311.36   38.95
   0 -10   6  497.11   49.50
   0 -10   5  851.14   66.63
   0  10  -5  987.50   69.71
   0 -10   4   -5.26   10.07
   0  10  -4   13.59   10.98
   0  10  -3  908.21   61.60
   0 -10   3  757.46   62.91
   0  10  -2  140.12   23.23
   0 -10   2  184.88   30.22
   0  10  -1 1838.47   90.60
   0 -10   1 1673.27   99.16
   0  10   0  663.73   49.62
   0 -10   0  717.28   59.86
   0 -10  -1 1279.07   83.44
   0  10   1 1255.08   71.84
   0  10   2  727.75   52.27
   0 -10  -2  682.51   58.91
   0  10   3   88.16   17.77
   0 -10  -3   53.32   18.14
   0 -10  -4  299.31   38.73
   0  10   4  423.92   39.22
   0  10   5   54.18   15.06
   0 -10  -5   25.19   13.15
   0  10   6  498.63   43.81
   0 -10  -6  492.57   48.22
   0  10   7   46.39   15.73
   0 -10  -7    1.43    8.69
   0 -10  -8  -13.97    9.90
   0  10   8   10.92   10.05
   0  10   9   59.33   17.83
   0  10  10    5.72    9.54
   0  10  11  156.20   25.84
   0  10  12    1.96    9.14
   0  11  -9   -3.63   13.46
   0 -11   8  798.79   67.31
   0  11  -8  879.27   70.12
   0 -11   7   42.16   17.51
   0 -11   6  310.71   41.14
   0 -11   5   23.91   14.70
   0  11  -5   48.39   17.10
   0 -11   4  384.32   46.29
   0  11  -4  377.12   40.31
   0 -11   3   -1.12   10.56
   0  11  -3   10.28    9.53
   0  11  -2   11.80   10.37
   0 -11   2   10.49   12.52
   0  11  -1   97.55   20.31
   0 -11   1   76.90   21.54
   0 -11   0   65.30   20.39
   0  11   0   70.63   17.87
   0 -11  -1   54.71   18.64
   0  11   1   53.78   15.22
   0 -11  -2  158.88   30.97
   0  11   2  125.71   22.06
   0  11   3  437.53   41.73
   0 -11  -3  414.97   46.84
   0  11   4  385.42   38.78
   0 -11  -4  366.14   44.18
   0  11   5  290.62   34.20
   0 -11  -5  249.63   36.00
   0 -11  -6  499.85   51.91
   0  11   6  618.82   51.09
   0  11   7    9.09   11.15
   0 -11  -7   10.08   10.11
   0  11   8  227.74   31.97
   0 -11  -8  206.35   31.68
   0  11   9    7.45    9.71
   0  11  10  557.38   50.65
   0 -12   7   10.89   13.69
   0 -12   6   81.40   21.54
   0  12  -5   19.70   13.05
   0 -12   5   11.50   13.32
   0 -12   4 1096.58   83.20
   0  12  -4 1187.34   76.57
   0 -12   3  147.26   31.18
   0  12  -3  161.33   26.96
   0 -12   2  103.46   26.10
   0  12  -2  110.48   22.88
   0 -12   1  582.23   59.89
   0  12  -1  643.72   53.20
   0  12   0  222.32   31.05
   0 -12   0  170.98   32.48
   0 -12  -1  150.54   30.11
   0  12   1  129.67   23.54
   0  12   2   13.77   11.26
   0 -12  -2   16.57   12.75
   0 -12  -3  313.97   44.25
   0  12   3  451.36   43.44
   0 -12  -4   77.45   23.15
   0  12   4   89.99   20.03
   0  12   5  439.75   44.24
   0 -12  -5  429.64   49.45
   0 -12  -6   40.88   16.81
   0  12   6   77.38   19.96
   0  12   7   68.75   19.77
   0 -12  -7   78.88   21.70
   0  12   8  276.70   36.43
   0  13  -4   82.86   20.95
   0 -13   4  115.63   27.40
   0 -13   3  156.83   32.94
   0  13  -3  119.25   25.07
   0  13  -2  911.42   66.39
   0 -13   2  780.63   72.22
   0  13  -1   19.48   13.02
   0 -13   1    6.80   11.31
   0 -13   0  358.85   48.29
   0  13   0  424.09   44.13
   0  13   1   24.44   13.63
   0 -13  -1  -13.75   13.22
   0 -13  -2  929.49   79.56
   0  13   2 1048.95   71.21
   0 -13  -3  290.12   42.83
   0  13   3  269.47   35.10
   0  13   4  756.57   59.76
   0 -13  -4  699.55   66.70
   0 -13  -5  176.20   33.66
   0 -13  -6   92.20   24.62
   0  14  -4   62.32   19.73
   0  14  -3  354.54   42.20
   0  14  -2   32.75   18.50
   0  14  -1  201.36   33.21
   0 -14  -3    4.40   13.96
   0 -14  -4  -13.70   16.36
   0 -14  -5   11.36   14.26
  -1  14  -1   18.48   11.00
  -1  14  -2   99.88   23.34
  -1  14  -3   61.13   18.19
  -1  14  -4  279.79   37.08
  -1  13   4   50.38   16.63
  -1  13   3  195.38   30.92
  -1  13   2  145.67   25.32
  -1  13   1  390.93   41.39
  -1  13   0   74.20   19.14
  -1  13  -1  320.93   37.61
  -1  13  -2    6.56   10.45
  -1  13  -3   -9.98    9.84
  -1  13  -4   16.28   11.50
  -1  13  -5    1.99   10.12
  -1  12   7   72.01   19.41
  -1  12   6  123.45   23.11
  -1  12   5   -2.87    9.51
  -1  12   4   44.39   15.57
  -1  12   3  120.14   23.57
  -1  12   2  287.03   34.32
  -1  12   1  182.12   27.57
  -1  12   0  535.76   46.64
  -1  12  -1 1589.76   86.60
  -1  12  -2   23.10    9.46
  -1  12  -3  267.45   33.24
  -1  12  -4   16.13   12.00
  -1  12  -5 1943.78  100.51
  -1  12  -6   53.73   17.66
  -1  12  -7  210.84   34.22
  -1  11   9  833.17   65.83
  -1  11   8   33.25   14.95
  -1  11   7  467.83   46.19
  -1  11   6  991.82   68.93
  -1  11   5  620.68   52.16
  -1  11   4  103.63   21.25
  -1  11   3   80.38   18.48
   1 -11  -3   62.44   20.27
  -1  11   2  770.80   55.86
   1 -11  -2  674.98   62.61
  -1  11   1    6.66   10.17
   1 -11  -1   -0.13    9.84
   1 -11   0   43.70   18.51
  -1  11   0   52.86   15.35
   1 -11   1   -3.90   11.68
  -1  11  -1   16.23   10.72
  -1  11  -2   84.58   17.83
   1 -11   2   77.71   20.98
   1 -11   3  343.43   43.68
  -1  11  -3  315.47   34.05
  -1  11  -4  143.95   23.95
  -1  11  -5   16.28   10.54
  -1  11  -6    8.60   13.00
  -1  11  -7  669.30   57.69
  -1  11  -8   24.44   14.88
  -1  11  -9  403.53   47.58
  -1  10  11  133.27   25.57
  -1  10  10  146.34   27.55
  -1  10   9   47.60   16.27
  -1  10   8   54.34   17.51
  -1  10   7   19.40   10.73
  -1  10   6    5.16    9.44
  -1  10   5  175.87   27.26
  -1  10   4   39.12   15.02
   1 -10  -3  291.12   38.36
  -1  10   3  297.34   33.25
   1 -10  -2  987.31   72.82
  -1  10   2 1120.93   67.05
   1 -10  -1  203.42   33.54
  -1  10   1  246.34   29.27
  -1  10   0  237.27   28.08
   1 -10   0  206.76   32.24
   1 -10   1  128.51   26.65
  -1  10  -1  154.20   22.28
  -1  10  -2 1235.56   68.45
   1 -10   2 1153.39   79.02
  -1  10  -3   28.67   11.45
   1 -10   3   39.96   15.63
   1 -10   4  159.27   28.61
  -1  10  -4  189.68   25.58
  -1  10  -5   53.94   14.42
  -1  10  -6  278.42   33.72
  -1  10  -7   37.39   15.54
  -1  10  -8   37.68   15.99
  -1  10  -9   -7.45   14.31
  -1  10 -10  143.54   29.80
  -1   9  12  955.56   71.88
  -1   9  11   14.93   14.64
  -1   9  10  275.74   36.06
   1  -9  -9  190.51   24.30
  -1   9   9  188.24   28.45
   1  -9  -8   67.33   13.89
  -1   9   8   66.82   17.87
  -1   9   7  102.49   20.37
   1  -9  -7   68.96   12.59
  -1   9   6  467.68   43.15
   1  -9  -6  476.44   31.95
   1  -9  -5  327.74   24.80
  -1   9   5  348.73   36.35
   1  -9  -4  206.98   19.51
  -1   9   4  208.39   27.43
   1  -9  -4  181.96   28.18
   1  -9  -3  169.05   17.20
   1  -9  -3  141.60   24.91
  -1   9   3  110.18    6.03
  -1   9   3  159.98   23.40
   1  -9  -2   22.92   11.06
   1  -9  -2   39.26    8.77
  -1   9   2   36.41   12.68
  -1   9   2   39.46    7.31
  -1   9   1  131.14   20.98
   1  -9  -1  108.24   23.32
  -1   9   1  124.27   12.48
   1  -9   0   24.95   10.90
  -1   9   0   10.06    9.11
  -1   9   0   11.54    4.55
   1  -9   1  368.25   41.21
  -1   9  -1  451.02   36.97
  -1   9  -1  427.42   25.88
  -1   9  -2  735.70   47.60
   1  -9   2  667.81   55.08
  -1   9  -2  605.49   33.89
  -1   9  -3 1984.48   77.82
  -1   9  -3 1895.85   60.10
  -1   9  -3 2161.39   92.04
   1  -9   3 2132.90  106.22
  -1   9  -4 1743.18   81.75
   1  -9   4 1584.40   91.36
  -1   9  -4 1564.90   54.43
  -1   9  -5   16.86    9.59
  -1   9  -5   10.06    4.47
  -1   9  -6  822.26   58.18
  -1   9  -6  721.61   35.60
  -1   9  -7  330.71   36.63
  -1   9  -7  365.01   25.22
  -1   9  -8 1998.34   79.13
  -1   9  -8 1930.51  102.27
  -1   9  -9  416.67   44.66
  -1   9  -9  505.06   34.45
  -1   9 -10  907.10   70.11
  -1   9 -10  921.54   52.41
  -1   9 -11   -4.23    8.18
  -1   9 -11   -4.57   12.28
  -1   9 -12   10.19    8.86
  -1   8  14    4.51   10.98
  -1   8  13   50.98   17.12
   1  -8 -13   19.64   15.78
  -1   8  12   76.15   19.43
   1  -8 -12   68.21   19.81
   1  -8 -11  273.96   34.64
  -1   8  11  189.90   29.33
   1  -8 -10  297.20   33.60
  -1   8  10  248.67   31.98
  -1   8   9   21.89   11.72
   1  -8  -9   31.47   12.08
   1  -8  -8 1807.97   82.13
  -1   8   8 1578.03   85.38
  -1   8   7  437.64   39.24
   1  -8  -7  442.39   33.59
  -1   8   6  814.12   55.12
  -1   8   6  822.03   38.36
   1  -8  -6  857.18   46.29
  -1   8   5  671.85   48.25
  -1   8   5  665.61   31.07
   1  -8  -5  691.45   38.74
  -1   8   4 2053.66   87.82
   1  -8  -4 2031.56   70.15
   1  -8  -4 1818.39   89.75
  -1   8   3  770.21   50.83
  -1   8   3  681.65   26.93
   1  -8  -3  649.12   51.13
   1  -8  -3  745.02   38.94
   1  -8  -2  714.02   53.46
  -1   8   2  733.23   49.37
  -1   8   2  526.00   31.06
   1  -8  -2  867.49   42.27
  -1   8   2  663.90   22.95
   1  -8  -1 1282.45   54.23
  -1   8   1 1303.22   67.05
   1  -8  -1 1139.32   70.97
   1  -8   0  874.25   60.86
  -1   8   0  764.29   38.05
   1  -8   1  678.32   51.34
  -1   8  -1  773.66   45.88
  -1   8  -1  471.11   28.43
   1  -8   2  159.06   24.98
  -1   8  -2  110.88   13.82
  -1   8  -2  157.59    9.21
   1  -8   3  394.39   39.76
  -1   8  -3  436.70   34.29
  -1   8  -3  432.40   30.96
  -1   8  -3  394.54   19.43
   1  -8   4  125.28   22.43
  -1   8  -4  151.03   19.21
  -1   8  -4  154.41   20.79
  -1   8  -4  141.42   11.92
  -1   8  -5   57.54   14.54
  -1   8  -5   34.09    6.82
  -1   8  -6   74.72   10.62
  -1   8  -6   84.86   19.15
  -1   8  -7    2.56    7.70
  -1   8  -7    7.43    5.47
  -1   8  -8  284.90   24.47
  -1   8  -8  304.52   35.36
  -1   8  -9  130.64   25.01
  -1   8  -9  136.23   18.09
  -1   8 -10  369.23   42.34
  -1   8 -10  394.94   32.68
  -1   8 -11  149.03   21.10
  -1   8 -11  139.72   27.99
  -1   8 -12  322.39   43.29
  -1   8 -12  337.27   33.98
  -1   8 -13  -26.25   12.95
  -1   8 -13   11.83   15.41
  -1   8 -14  666.60   53.77
  -1   7  14  153.92   26.90
   1  -7 -14   97.52   24.72
   1  -7 -13  978.53   75.50
  -1   7  13  907.13   65.80
  -1   7  12   84.13   20.33
   1  -7 -12   59.75   18.90
   1  -7 -11  641.45   55.08
  -1   7  11  521.19   45.12
   1  -7 -10  -16.47   10.90
  -1   7  10    3.37    6.81
   1  -7  -9  703.08   51.11
   1  -7  -8  501.63   40.04
   1  -7  -7  104.82   17.05
  -1   7   6   31.33    7.25
   1  -7  -6   19.06    7.73
  -1   7   5  321.09   29.34
  -1   7   5  335.98   26.03
   1  -7  -5  310.14   24.93
  -1   7   4  300.39   25.34
   1  -7  -4  234.34   26.68
  -1   7   4  211.07   15.42
   1  -7  -4  272.65   22.07
  -1   7   4  271.39   26.58
  -1   7   3   89.53   15.97
   1  -7  -3   66.34   14.52
   1  -7  -3   83.54   11.67
  -1   7   3   85.79    8.16
  -1   7   3   92.23   11.66
  -1   7   2  225.40   18.00
   1  -7  -2  244.50   20.51
   1  -7  -2  225.39   27.04
  -1   7   2  252.38   25.69
  -1   7   2  225.34   12.30
  -1   7   1  205.10   23.61
   1  -7  -1  183.87   18.51
   1  -7  -1  208.78   26.16
  -1   7   1  200.81   16.42
  -1   7   1  205.76   11.57
  -1   7   1  199.81   10.09
  -1   7   0  588.73   21.90
  -1   7   0  678.01   43.20
  -1   7   0  689.21   33.35
   1  -7   0  571.18   44.99
   1  -7   0  588.17   34.12
  -1   7  -1  743.31   44.73
  -1   7  -1  743.50   36.78
   1  -7   1  725.30   51.19
  -1   7  -1  701.02   25.91
  -1   7  -2  103.11   13.72
  -1   7  -2   99.21   15.30
  -1   7  -2   99.14    8.38
   1  -7   2   90.88   18.21
  -1   7  -3 1117.45   43.10
   1  -7   3 1074.36   65.58
  -1   7  -3 1261.54   60.18
  -1   7  -3 1248.09   60.16
   1  -7   4  837.17   54.92
  -1   7  -4  762.11   48.24
  -1   7  -4  826.10   48.86
  -1   7  -4  816.68   35.92
  -1   7  -5  810.97   38.71
  -1   7  -5  809.29   50.74
  -1   7  -5  889.60   53.79
  -1   7  -6  224.87   26.51
  -1   7  -6  262.79   20.98
  -1   7  -6  260.04   26.07
  -1   7  -7  449.62   39.18
  -1   7  -7  427.51   29.64
  -1   7  -8    5.98    6.44
  -1   7  -8    9.04   10.07
  -1   7  -9   86.85   14.95
  -1   7  -9   85.07   19.29
  -1   7 -10   10.93   11.16
  -1   7 -10    1.07    6.47
  -1   7 -11   17.19    9.35
  -1   7 -11   12.25   11.83
  -1   7 -12   69.15   16.40
  -1   7 -12   37.60   17.20
  -1   7 -13  270.25   32.92
  -1   7 -13  259.09   39.22
  -1   7 -14  192.83   29.76
   1  -6 -15   71.56   24.28
  -1   6  14  217.41   29.73
   1  -6 -14  189.95   35.05
   1  -6 -13  464.57   51.88
  -1   6  13  455.92   41.75
   1  -6 -12   62.96   19.42
   1  -6 -11  220.36   31.80
   1  -6 -10  101.95   21.52
   1  -6  -9 2263.46  105.71
   1  -6  -8   40.30   12.44
   1  -6  -7 1021.62   56.72
  -1   6   6  408.67   26.49
   1  -6  -6  417.44   32.20
  -1   6   6  431.90   27.50
  -1   6   5   65.57   10.43
   1  -6  -5   91.55   13.89
  -1   6   5   86.97   10.67
   1  -6  -4  151.04   18.83
  -1   6   4  142.72   12.44
   1  -6  -4  153.73   16.77
   1  -6  -3  664.00   36.33
   1  -6  -3  649.74   42.32
  -1   6   3  695.16   35.75
  -1   6   3  674.96   28.87
   1  -6  -2 1715.38   67.17
  -1   6   2 1801.98   66.22
  -1   6   2 1793.78   74.50
   1  -6  -2 1602.65   77.03
  -1   6   2 1710.32   55.93
   1  -6  -1  146.49   20.24
  -1   6   1  176.78   15.38
  -1   6   1  163.89   18.91
   1  -6  -1  144.66   15.78
  -1   6   1  157.30    9.65
  -1   6   1  173.97   19.54
   1  -6   0 1299.63   56.63
   1  -6   0 1153.60   63.89
  -1   6   0 1212.68   42.70
  -1   6   0 1278.62   51.90
  -1   6   0 1283.11   61.24
  -1   6  -1    0.81    4.32
   1  -6   1   -2.00    5.88
  -1   6  -1    4.27    2.17
  -1   6  -1    7.75    4.77
  -1   6  -2   17.43    4.26
  -1   6  -2   26.35    8.60
   1  -6   2   11.22    7.07
  -1   6  -2    8.93    5.83
  -1   6  -3   54.38    7.41
  -1   6  -3   39.36    9.21
   1  -6   3   34.47   10.81
  -1   6  -3   30.50    9.21
   1  -6   4 1366.82   69.33
  -1   6  -4 1458.25   66.67
  -1   6  -4 1294.68   65.56
   1  -6   4 1305.76   58.41
  -1   6  -4 1423.99   53.96
  -1   6  -5  132.22   18.26
  -1   6  -5  124.28   13.75
  -1   6  -5  121.12   16.72
  -1   6  -6 1579.65   68.06
  -1   6  -6 1575.81   74.81
  -1   6  -6 1506.57   64.00
  -1   6  -7 3079.49  125.55
  -1   6  -7 3227.73  114.52
  -1   6  -8  499.60   41.93
  -1   6  -8  524.06   36.09
  -1   6  -9  454.48   35.44
  -1   6  -9  463.55   42.09
  -1   6 -10   67.52   14.64
  -1   6 -10   76.74   19.38
  -1   6 -11 3160.48  130.04
  -1   6 -11 3293.90  143.26
  -1   6 -12   45.65   14.76
  -1   6 -12   36.17   16.42
  -1   6 -13  451.58   43.57
  -1   6 -14  101.72   23.06
  -1   6 -15  405.06   45.48
   1  -5 -15   20.25   18.08
   1  -5 -14   64.87   21.82
   1  -5 -13   35.80   17.66
   1  -5 -12  235.65   36.03
   1  -5 -11   38.20   14.16
   1  -5 -10  237.72   31.72
   1  -5  -9  167.82   25.40
   1  -5  -8    7.66    6.63
   1  -5  -7 1824.45   83.06
  -1   5   6  419.40   27.01
   1  -5  -6  394.71   30.87
  -1   5   6  400.85   23.86
   1  -5  -5  585.83   36.86
  -1   5   5  658.28   32.95
  -1   5   5  573.94   31.11
  -1   5   4  146.21   12.84
   1  -5  -4  143.96   16.06
  -1   5   4  178.11   16.59
   1  -5  -3 4469.30  149.60
  -1   5   3 4972.89  150.41
   1  -5  -3 4535.00  146.79
  -1   5   3 4665.05  145.80
  -1   5   3 4346.38  135.34
  -1   5   2   40.04    5.40
  -1   5   2   49.53    8.43
  -1   5   2   49.25    9.52
   1  -5  -2   44.94    8.72
   1  -5  -2   40.04    9.46
   1  -5  -1 1376.20   57.76
  -1   5   1 1538.38   57.50
   1  -5  -1 1421.57   64.35
   1  -5   0 3438.75  125.04
  -1   5   0 3491.62  114.35
  -1   5   0 3595.43  120.44
   1  -5   0 3619.55  122.82
  -1   5  -1 2918.05   92.31
   1  -5   1 3052.66  111.74
   1  -5   1 3041.59  106.53
  -1   5  -1 3155.97  104.78
  -1   5  -1 3024.86  107.20
  -1   5  -2  224.17   22.05
   1  -5   2  223.23   22.12
  -1   5  -2  202.24   19.04
  -1   5  -2  204.37   13.74
  -1   5  -3 1296.48   56.23
  -1   5  -3 1235.69   48.04
  -1   5  -3 1320.32   63.48
   1  -5   3 1225.56   60.26
  -1   5  -4 2722.34  100.94
  -1   5  -4 2559.17   86.54
  -1   5  -4 2409.09   93.45
   1  -5   4 2456.69   91.05
  -1   5  -4 2371.89   97.65
  -1   5  -5   17.87    7.60
   1  -5   5   25.10    7.14
  -1   5  -5   23.59    7.40
  -1   5  -5   18.91    6.63
  -1   5  -6   43.84    9.55
  -1   5  -6   47.54   10.91
  -1   5  -7   -0.56    4.82
  -1   5  -7    5.96    7.88
  -1   5  -8  476.21   35.32
  -1   5  -8  471.11   38.69
  -1   5  -9  178.21   25.06
  -1   5  -9  197.83   23.73
  -1   5 -10   90.31   17.14
  -1   5 -10  118.57   21.47
  -1   5 -11  325.72   36.18
  -1   5 -11  373.93   36.20
  -1   5 -12  187.16   27.42
  -1   5 -13  506.11   47.05
  -1   5 -14   65.41   20.22
  -1   5 -15  353.13   42.97
   1  -4 -15  334.95   48.78
   1  -4 -14   78.21   24.44
   1  -4 -13  661.67   62.94
   1  -4 -12 1062.39   77.44
   1  -4 -11  210.04   31.25
  -1   4  10 1390.56   60.83
   1  -4 -10 1392.49   82.84
  -1   4   9  261.43   21.45
   1  -4  -9  279.81   32.04
   1  -4  -8 1733.18   85.46
   1  -4  -7   53.63   12.30
  -1   4   6 1062.38   48.60
   1  -4  -6 1108.97   56.24
  -1   4   6 1031.55   40.37
   1  -4  -5  413.61   29.70
  -1   4   5  442.67   23.47
  -1   4   5  406.61   25.30
  -1   4   4  583.50   28.74
   1  -4  -4  538.89   33.20
  -1   4   4  618.78   30.65
  -1   4   3   22.05    5.67
  -1   4   3   27.06    6.76
  -1   4   3   23.16    4.71
   1  -4  -3   30.61    7.08
  -1   4   2 1303.99   51.65
   1  -4  -2 1200.67   51.43
  -1   4   2 1246.33   51.04
  -1   4   2 1196.96   43.51
  -1   4   1  198.74   15.88
  -1   4   1  181.66   16.15
   1  -4  -1  178.01   15.49
   1  -4  -1  187.11   16.95
   1  -4   0  299.89   22.52
  -1   4   0  313.47   20.39
   1  -4   0  316.37   23.22
  -1   4  -1 2727.90   94.45
   1  -4   1 2417.15   91.76
  -1   4  -1 2603.72   88.43
   1  -4   1 2899.89   99.22
  -1   4  -1 2424.58   81.58
  -1   4  -2   81.52    8.78
  -1   4  -2  101.71   14.58
  -1   4  -2  100.21   12.13
   1  -4   3  121.09   13.50
  -1   4  -3  138.37   12.71
  -1   4  -3  149.48   14.29
  -1   4  -3  104.61   15.11
  -1   4  -4 2534.65   85.53
   1  -4   4 2340.64   88.68
  -1   4  -4 2687.75   93.85
  -1   4  -4 2221.21   83.60
  -1   4  -5  861.51   45.49
  -1   4  -5  802.08   36.17
   1  -4   5  777.42   43.74
  -1   4  -5  816.58   41.08
  -1   4  -6 1477.73   66.65
  -1   4  -6 1369.01   62.60
  -1   4  -7  563.98   38.24
  -1   4  -7  524.75   37.40
  -1   4  -7  529.57   36.56
  -1   4  -8 2228.35   97.10
  -1   4  -8 2372.14   99.55
  -1   4  -8 2423.84   98.63
  -1   4  -9   19.31   10.20
  -1   4  -9   24.38   10.40
  -1   4 -10  217.67   27.09
  -1   4 -10  196.09   26.28
  -1   4 -11   60.74   14.68
  -1   4 -12  352.48   38.10
  -1   4 -13   -8.31   12.44
  -1   4 -14    8.92   13.00
  -1   4 -15    4.18   12.53
   1  -3 -15  266.67   44.50
   1  -3 -14  223.51   37.92
   1  -3 -13   32.67   16.92
   1  -3 -12   34.40   15.50
   1  -3 -11  272.81   35.68
   1  -3 -10  710.83   56.28
  -1   3  10  645.46   36.41
  -1   3   9   38.26    7.75
   1  -3  -9   35.18   12.68
  -1   3   8  350.65   23.29
   1  -3  -8  375.55   35.42
  -1   3   7  185.09   15.52
   1  -3  -7  205.19   23.86
   1  -3  -6 4552.19  158.11
  -1   3   6 4534.42  147.35
  -1   3   5  347.17   17.76
   1  -3  -5  386.03   28.52
  -1   3   5  353.12   23.34
   1  -3  -4 2214.45   85.89
  -1   3   4 2220.78   79.27
  -1   3   3   75.94    8.44
   1  -3  -3   78.66   10.90
  -1   3   3   80.01   10.72
  -1   3   3   70.60    8.18
  -1   3   2  112.19   10.33
  -1   3   2  106.03   11.82
   1  -3  -2  102.40   11.83
  -1   3   1 2893.04   92.72
  -1   3   1 2897.28   95.54
   1  -3  -1 2841.62   95.86
   1  -3   0 1340.24   53.35
  -1   3   0 1276.42   50.46
  -1   3  -1 2330.87   79.50
   1  -3   1 2364.26   90.03
  -1   3  -1 2355.68   88.16
  -1   3  -2 1471.03   56.10
  -1   3  -2 1627.71   70.85
  -1   3  -2 1651.64   56.31
  -1   3  -3  121.46   15.30
  -1   3  -3  127.47   11.33
  -1   3  -3  121.90   12.23
   1  -3   3  101.98   12.68
  -1   3  -4   92.62    8.93
  -1   3  -4  108.17   12.62
   1  -3   4   87.68   12.14
  -1   3  -4  109.00   12.40
  -1   3  -5  412.20   27.69
   1  -3   5  368.92   27.99
  -1   3  -5  375.70   26.00
  -1   3  -6  956.25   49.46
  -1   3  -6  939.68   46.57
   1  -3   7  791.90   48.66
  -1   3  -7  791.81   43.33
  -1   3  -7  777.63   46.42
  -1   3  -8 1084.02   59.67
  -1   3  -8 1046.09   54.88
  -1   3  -8 1090.46   56.92
  -1   3  -9 2134.35   96.13
  -1   3  -9 1988.99   89.49
  -1   3  -9 2190.33   90.79
  -1   3 -10  735.61   48.66
  -1   3 -10  783.94   54.21
  -1   3 -11   96.48   19.91
  -1   3 -12  933.88   65.85
  -1   3 -13  931.27   68.70
  -1   3 -14 1325.57   88.50
  -1   3 -15  353.56   46.02
   1  -2 -15  266.16   45.50
   1  -2 -14  479.36   58.19
   1  -2 -13  542.72   57.93
   1  -2 -12  142.30   27.72
   1  -2 -11 1421.90   82.43
   1  -2 -11 1222.07   82.61
   1  -2 -10  258.05   31.08
   1  -2 -10  238.86   32.16
  -1   2   9   30.07    7.25
   1  -2  -9   27.95   10.54
   1  -2  -9   34.02   12.59
   1  -2  -8  354.80   34.62
  -1   2   8  349.72   22.95
   1  -2  -8  442.69   35.93
   1  -2  -7   60.79   12.47
   1  -2  -7   64.24   13.88
  -1   2   7   50.65    7.82
   1  -2  -6   22.86    7.70
   1  -2  -6   35.63    9.01
  -1   2   6   42.83    6.70
  -1   2   6   36.20    7.94
  -1   2   5 2228.79   66.49
  -1   2   5 2370.63   72.62
   1  -2  -5 2394.15   90.68
  -1   2   5 2177.38   80.74
   1  -2  -4  533.52   31.97
  -1   2   4  547.61   20.91
  -1   2   4  511.51   27.48
  -1   2   3  108.02   12.35
   1  -2  -3  111.89   12.55
  -1   2   3  121.87    8.22
  -1   2   3  107.49   10.32
   1  -2  -2 4060.97  130.40
  -1   2   2 4220.46  121.73
   1  -2  -1 3230.02  104.85
   1  -2   0 3795.61  119.53
  -1   2  -1  271.16   14.48
   1  -2   1  283.74   24.34
  -1   2  -2 4421.18  136.02
  -1   2  -3  325.95   21.71
  -1   2  -3  362.61   16.61
  -1   2  -4 1578.56   63.06
  -1   2  -4 1586.48   58.44
  -1   2  -5 2500.38   93.81
  -1   2  -5 2565.85   86.65
  -1   2  -6 4468.97  150.11
  -1   2  -6 4297.64  138.52
   1  -2   7  451.90   34.74
  -1   2  -7  453.81   34.67
  -1   2  -7  445.80   28.28
  -1   2  -8   20.26    9.62
  -1   2  -8   21.96    7.06
  -1   2  -9  204.36   20.79
  -1   2  -9  200.22   25.56
  -1   2 -10  286.76   26.12
  -1   2 -10  312.72   34.10
  -1   2 -11  202.80   23.25
  -1   2 -11  214.68   29.63
  -1   2 -12  141.50   26.40
  -1   2 -13    1.40   11.23
  -1   2 -14  363.00   45.33
  -1   2 -15  137.73   29.49
   1  -1 -15   10.56   14.68
   1  -1 -14  315.05   46.72
   1  -1 -13  197.50   36.71
   1  -1 -12  731.96   61.05
   1  -1 -12  687.64   64.21
   1  -1 -11   32.96   16.01
   1  -1 -11   12.75   10.06
   1  -1 -10 1672.02   96.92
   1  -1 -10 1904.75   94.42
   1  -1  -9 1352.79   82.02
   1  -1  -9 1592.94   80.57
   1  -1  -8   62.79   14.14
   1  -1  -8   46.46   13.42
   1  -1  -7 2755.93  106.07
   1  -1  -7 2522.45  109.25
   1  -1  -6  839.59   45.09
   1  -1  -6  751.34   47.07
   1  -1  -5 3245.91  119.99
   1  -1  -5 3427.78  115.64
  -1   1   4   16.16    3.07
   1  -1  -4   12.43    5.85
   1  -1  -3 2021.07   73.76
   1  -1  -2  243.09   17.05
   1  -1  -1   43.41    6.76
   1  -1   0   35.11    6.09
   1  -1   0   38.18    3.55
   1  -1   1 3446.92  114.64
   1  -1   1 3093.43   93.06
  -1   1  -2  724.70   35.53
   1  -1   2  767.54   30.15
  -1   1  -3  163.39   15.05
   1  -1   3  171.93   13.25
  -1   1  -4  800.22   41.10
   1  -1   4  847.54   37.15
  -1   1  -5    8.15    5.13
   1  -1   5    7.52    4.46
  -1   1  -6  962.57   51.18
   1  -1   6  888.56   43.70
  -1   1  -7 1551.04   71.77
  -1   1  -7 1494.35   54.67
   1  -1   7 1521.83   62.51
  -1   1  -8  212.03   17.47
  -1   1  -8  236.10   26.93
   1  -1   8  202.25   11.17
   1  -1   9 1389.39   47.29
  -1   1  -9 1440.38   59.39
  -1   1  -9 1509.51   78.76
   1  -1  10  988.26   34.96
  -1   1 -10 1054.69   65.70
   1  -1  11 1287.55   45.56
  -1   1 -11 1312.67   79.97
  -1   1 -11 1237.75   60.53
  -1   1 -12   24.58   12.96
  -1   1 -13  284.42   39.70
  -1   1 -14  -33.41   17.61
  -1   1 -15  136.35   31.51
  -1   1 -16   -1.35   14.19
   1   0 -15   51.74   24.19
   1   0 -14   10.23   16.62
   1   0 -13  207.59   38.26
   1   0 -13  320.93   42.37
   1   0 -12  354.96   41.91
   1   0 -12  308.16   43.69
   1   0 -11   36.87   14.58
   1   0 -10   38.40   13.91
   1   0  -9  478.92   41.66
   1   0  -8  872.68   53.87
   1   0  -7 1264.08   63.72
   1   0  -6   40.93   10.03
  -1   0   6   33.76    3.97
   1   0  -5  432.15   28.83
  -1   0   5  426.79   18.37
   1   0  -5  393.50   21.41
   1   0  -4 1608.79   53.27
   1   0  -4 1617.60   66.96
   1   0  -3 9861.00  289.77
   1   0  -3 9999.00  275.36
   1   0  -2  279.25   18.08
   1   0  -1 2204.50   72.62
   1   0   0  257.77   15.92
   1   0   1 3031.31  103.26
  -1   0  -2  447.58   17.45
  -1   0  -2  502.23   27.68
  -1   0  -3  309.76   21.03
  -1   0  -3  301.28   13.75
  -1   0  -4 4873.99  158.07
   1   0   4 4999.63  139.91
  -1   0  -5   42.22    8.84
   1   0   5   39.96    4.90
   1   0   5   44.11    7.61
   1   0   6  813.98   32.08
   1   0   6  800.59   40.48
  -1   0  -6  778.22   45.31
   1   0   7    6.70    2.98
  -1   0  -7    2.69    5.52
   1   0   7    0.51    4.57
  -1   0  -8   73.94   15.01
   1   0   8  100.15    9.90
  -1   0  -8   92.35    9.94
   1   0   9  164.91   13.58
  -1   0  -9  152.86   13.99
  -1   0  -9  135.18   21.93
  -1   0 -10 1603.60   85.04
  -1   0 -10 1430.45   59.19
   1   0  10 1587.36   58.34
  -1   0 -11   11.49    4.57
   1   0  11   12.13    5.81
  -1   0 -11    9.89    8.91
   1   0  12  397.57   24.74
  -1   0 -12  474.35   46.83
  -1   0 -13 1813.65  105.26
  -1   0 -14  583.53   58.28
  -1   0 -15  101.78   26.64
  -1   0 -16  115.88   30.33
   1   1 -15  230.54   45.80
   1   1 -14  603.55   68.81
   1   1 -13 1050.67   89.80
   1   1 -13 1210.40   84.78
   1   1 -12   85.11   22.45
   1   1 -11  309.40   36.62
   1   1 -10 3012.40  131.24
   1   1  -9   37.51   13.42
   1   1  -8  511.02   39.50
  -1  -1   7   42.72    5.70
   1   1  -7   20.47    8.48
  -1  -1   6 2247.38   72.89
   1   1  -6 2141.08   77.57
   1   1  -6 2131.77   87.28
  -1  -1   5  249.14   16.44
   1   1  -5  275.72   17.80
   1   1  -5  246.19   20.82
   1   1  -4    7.08    4.00
  -1  -1   4    6.17    2.98
   1   1  -3 1360.98   54.90
  -1  -1   3 1296.41   46.63
   1   1  -2  228.10   16.27
   1   1  -1 1222.82   44.15
   1   1   0  400.15   19.49
  -1  -1  -1  721.14   28.75
   1   1   1  788.13   35.61
  -1  -1  -2  398.09   23.13
  -1  -1  -2  391.28   19.41
  -1  -1  -3 7632.36  230.12
  -1  -1  -3 8038.66  234.63
   1   1   3 8256.55  227.96
   1   1   4  480.96   24.03
  -1  -1  -4  445.04   27.93
  -1  -1  -5  894.68   45.22
   1   1   5  892.88   38.79
   1   1   6 1403.69   55.25
  -1  -1  -6 1506.51   66.81
   1   1   7 2008.21   72.79
  -1  -1  -7 1943.89   85.92
   1   1   8  588.60   37.60
  -1  -1  -8  607.13   43.62
   1   1   8  640.09   33.25
   1   1   9 1251.94   54.26
  -1  -1  -9 1359.92   72.77
   1   1  10  974.32   44.92
  -1  -1 -10  825.46   36.06
  -1  -1 -10  840.73   58.47
  -1  -1 -11   93.61   10.03
  -1  -1 -11  115.65   22.11
   1   1  11  147.28   16.02
   1   1  12    7.40    5.25
  -1  -1 -12    9.75   10.33
  -1  -1 -13   26.85   14.87
  -1  -1 -14  113.22   25.52
  -1  -1 -15   80.62   24.13
  -1  -1 -16   22.45   16.21
   1   2 -15   18.58   16.09
   1   2 -14   47.03   23.34
   1   2 -13   15.73   13.72
   1   2 -12   20.22   13.16
   1   2 -11  310.16   35.96
   1   2 -10  161.71   24.92
   1   2 -10  138.96   19.03
   1   2  -9 1657.99   74.17
   1   2  -9 1756.17   85.45
   1   2  -8    4.14    6.56
  -1  -2   8    9.03    4.56
   1   2  -8   12.43    6.08
  -1  -2   7 2448.70   84.97
   1   2  -7 2453.02   98.23
  -1  -2   6 1178.90   50.06
   1   2  -6 1251.27   57.30
  -1  -2   6 1139.29   53.79
  -1  -2   5  455.41   27.27
   1   2  -5  448.13   28.85
  -1  -2   4 3067.24  101.83
  -1  -2   3  381.64   22.41
  -1  -2   2 5480.24  166.11
  -1  -2   2 5564.16  161.44
   1   2  -2 5562.72  165.59
   1   2  -1  766.49   31.27
  -1  -2   1  862.59   34.46
  -1  -2   0 1241.03   40.39
   1   2   0 1229.10   41.57
  -1  -2   0 1192.37   46.39
  -1  -2  -1  472.94   19.65
  -1  -2  -1  445.00   24.35
  -1  -2  -2  279.84   17.52
  -1  -2  -2  274.53   19.08
  -1  -2  -2  310.06   18.55
  -1  -2  -3  194.72   15.22
   1   2   3  211.02   17.18
  -1  -2  -3  199.85   17.62
   1   2   3  206.87   15.76
  -1  -2  -4   15.94    5.32
   1   2   4   14.15    5.61
   1   2   4   16.82    4.84
   1   2   5  112.31   13.47
  -1  -2  -5  129.56   14.93
   1   2   5  116.97   14.06
   1   2   6   17.14    5.99
   1   2   6   30.92    8.21
  -1  -2  -6   30.45    8.82
   1   2   7 2821.55  107.48
   1   2   7 2840.81  101.36
  -1  -2  -7 2874.45  110.49
   1   2   8   12.10    5.57
  -1  -2  -8    8.35    7.45
  -1  -2  -9  353.04   33.56
   1   2   9  306.29   24.80
  -1  -2 -10  687.81   51.19
  -1  -2 -11  168.52   11.33
  -1  -2 -11  208.06   10.98
  -1  -2 -12  904.88   65.91
  -1  -2 -13  531.70   51.51
  -1  -2 -14  987.43   75.55
  -1  -2 -15   16.35   13.72
  -1  -2 -16   98.15   27.09
   1   3 -15  -37.37   22.77
   1   3 -14 1231.91  103.84
   1   3 -12  300.60   37.22
   1   3 -11   14.60   10.16
   1   3 -11   31.62   12.27
   1   3 -10  448.03   37.28
   1   3 -10  516.28   42.94
   1   3  -9 1079.98   59.23
   1   3  -9 1148.21   64.47
  -1  -3   9 1153.06   50.42
  -1  -3   8    3.42    4.70
   1   3  -8   -0.29    5.75
   1   3  -7    8.82    6.46
   1   3  -7   10.09    5.71
  -1  -3   7    2.70    4.40
  -1  -3   6  600.63   35.86
  -1  -3   6  555.03   34.37
   1   3  -6  641.88   37.16
   1   3  -5  871.06   42.36
  -1  -3   5  845.20   44.30
  -1  -3   4 1849.72   66.23
  -1  -3   4 1762.28   70.42
  -1  -3   4 1682.24   64.37
  -1  -3   3  115.53   10.79
  -1  -3   3  128.00   12.70
  -1  -3   3  110.17   13.62
  -1  -3   2 1163.54   42.50
   1   3  -2 1126.99   45.72
  -1  -3   2 1101.47   50.12
  -1  -3   2 1255.54   49.19
   1   3  -1 1490.78   50.84
  -1  -3   1 1496.73   59.37
  -1  -3   1 1535.22   58.69
  -1  -3   0 6441.51  193.48
   1   3   0 6392.28  179.10
  -1  -3   0 6328.77  192.67
  -1  -3  -1  928.43   41.47
  -1  -3  -1  886.03   42.77
  -1  -3  -2 3302.01  106.85
  -1  -3  -2 3350.56  118.55
   1   3   3    3.15    2.71
  -1  -3  -3    3.25    4.96
  -1  -3  -3    3.44    3.26
  -1  -3  -4 1462.91   57.00
   1   3   4 1443.13   57.10
   1   3   4 1480.27   64.30
  -1  -3  -5 1311.81   56.26
   1   3   5 1269.05   54.92
   1   3   5 1327.68   59.54
   1   3   6 1112.03   52.96
   1   3   6 1194.91   55.87
  -1  -3  -6 1178.91   55.71
   1   3   7 1554.32   68.39
  -1  -3  -7 1557.29   71.07
  -1  -3  -8  196.52   23.00
  -1  -3  -9   12.53    8.61
  -1  -3  -9   13.21    4.23
  -1  -3 -10  626.56   46.28
  -1  -3 -10  467.88   24.18
  -1  -3 -11   56.50   15.99
   1   3  11   66.79   12.31
   1   3  12  791.16   48.07
  -1  -3 -12  761.58   58.14
  -1  -3 -13  110.72   23.46
   1   3  13  125.17   17.94
  -1  -3 -14  307.05   39.77
  -1  -3 -15  544.71   56.56
  -1  -3 -16  146.69   31.38
   1   4 -14  108.06   33.29
   1   4 -12 1209.53   74.29
   1   4 -11   97.49   19.90
   1   4 -11   92.65   20.46
   1   4 -10  385.54   36.39
  -1  -4  10  446.30   30.63
   1   4 -10  422.13   38.03
   1   4  -9 1230.92   65.65
   1   4  -9 1237.19   65.57
  -1  -4   9 1108.86   55.06
  -1  -4   9 1092.91   53.19
  -1  -4   8 2330.62   90.35
   1   4  -8 2491.50  101.51
  -1  -4   8 2458.65   95.51
   1   4  -8 2531.36  100.60
   1   4  -7  602.94   38.28
  -1  -4   7  587.81   38.31
  -1  -4   7  576.42   34.37
  -1  -4   6  389.47   30.16
  -1  -4   6  374.11   27.25
   1   4  -6  345.09   26.17
  -1  -4   6  354.74   25.69
  -1  -4   5 2845.26  107.72
  -1  -4   5 2811.54  100.20
  -1  -4   4  321.16   27.17
  -1  -4   4  343.31   24.24
  -1  -4   4  323.83   21.48
  -1  -4   3  558.79   35.97
  -1  -4   3  586.21   32.99
  -1  -4   3  557.46   27.31
  -1  -4   2  248.08   20.37
  -1  -4   2  257.20   22.70
  -1  -4   2  252.28   14.91
  -1  -4   1    2.74    2.18
  -1  -4   1    0.66    4.50
  -1  -4   1    4.53    3.36
   1   4  -1    2.92    2.40
  -1  -4   0  143.67   16.11
  -1  -4   0  150.07   16.60
  -1  -4  -1  809.12   30.48
  -1  -4  -1  713.88   41.25
  -1  -4  -1  692.88   39.15
  -1  -4  -2    6.29    2.57
  -1  -4  -2   10.04    5.96
  -1  -4  -2    8.46    4.99
   1   4   3    3.14    3.13
  -1  -4  -3    4.03    5.59
  -1  -4  -3    5.75    3.33
  -1  -4  -3   16.36    6.22
  -1  -4  -4 1648.89   60.19
   1   4   4 1581.39   59.14
  -1  -4  -4 1515.15   63.66
   1   4   5 1525.27   60.19
  -1  -4  -5 1392.59   59.93
  -1  -4  -5 1535.12   60.86
   1   4   6 2630.64   94.16
  -1  -4  -6 2507.91   91.29
  -1  -4  -6 2627.89   96.13
  -1  -4  -7   14.45    6.69
  -1  -4  -7    8.26    4.87
   1   4   7   12.24    5.06
   1   4   8 1729.16   77.06
  -1  -4  -8 1590.54   65.16
  -1  -4  -8 1839.17   78.95
  -1  -4  -9    2.41    3.61
  -1  -4  -9    7.07    5.59
   1   4   9    4.86    5.58
  -1  -4 -10  694.03   35.65
   1   4  10  802.19   48.51
  -1  -4 -10  799.34   52.30
   1   4  11  748.70   45.84
  -1  -4 -11  760.49   52.51
   1   4  12 1173.86   63.92
  -1  -4 -12 1218.44   74.26
   1   4  13  376.95   34.28
  -1  -4 -13  366.23   40.85
  -1  -4 -14  105.41   23.39
  -1  -4 -15    0.56   15.00
  -1  -4 -16   98.75   25.30
   1   5 -14    4.92   16.97
   1   5 -13   75.97   21.41
   1   5 -12   92.55   22.60
   1   5 -11   61.52   16.81
  -1  -5  10   19.45    8.54
   1   5 -10   28.85   12.20
  -1  -5   9   18.93    8.36
   1   5  -9    5.94    7.71
   1   5  -8  187.84   23.98
  -1  -5   8  199.36   23.65
  -1  -5   8  174.21   19.19
  -1  -5   7  126.19   18.66
  -1  -5   7  113.38   15.34
  -1  -5   6 1505.72   73.28
  -1  -5   6 1485.17   65.96
  -1  -5   6 1512.96   65.29
  -1  -5   5   43.54    9.81
  -1  -5   5   37.86   10.96
   1   5  -5   44.53   12.49
  -1  -5   4 3589.86  125.36
   1   5  -4 3603.95  139.39
  -1  -5   4 3740.02  136.00
  -1  -5   4 3550.81  116.90
  -1  -5   3  906.47   52.14
  -1  -5   3  903.95   46.85
  -1  -5   3  896.63   38.13
   1   5  -3  927.29   55.15
   1   5  -2  222.14   23.01
  -1  -5   2  243.43   21.98
  -1  -5   2  219.23   14.04
  -1  -5   2  248.82   24.46
   1   5  -1 2637.28   82.72
  -1  -5   1 2966.07  105.43
  -1  -5   1 2797.62  106.85
  -1  -5   1 2754.53   82.34
   1   5  -1 2894.45  108.22
  -1  -5   0 1002.62   32.76
  -1  -5   0 1056.52   54.47
  -1  -5   0 1081.64   54.51
  -1  -5  -1 4064.51  117.15
  -1  -5  -1 4074.87  147.09
  -1  -5  -1 4227.64  143.02
  -1  -5  -2   51.15   11.94
  -1  -5  -2   64.81   12.37
  -1  -5  -2   59.41    5.96
  -1  -5  -3 2019.74   61.33
  -1  -5  -3 1998.58   89.37
  -1  -5  -3 1910.78   81.38
  -1  -5  -3 2075.95   66.89
  -1  -5  -4   63.57   11.60
  -1  -5  -4   54.89    8.12
   1   5   4   63.27    8.29
  -1  -5  -5    5.95    4.54
  -1  -5  -5    5.18    4.16
   1   5   5    3.58    6.05
   1   5   5    6.96    3.78
  -1  -5  -6   33.39    8.24
   1   5   6   12.40    6.88
   1   5   6   26.68    6.86
  -1  -5  -6   14.50    6.94
   1   5   7  662.77   37.67
   1   5   7  625.94   42.77
  -1  -5  -7  571.60   36.80
  -1  -5  -7  703.25   39.68
  -1  -5  -8   11.55    5.49
  -1  -5  -8    7.58    6.38
   1   5   8   -0.31    5.25
  -1  -5  -9   28.40    8.14
  -1  -5  -9   20.64    8.97
   1   5   9   44.08   11.60
  -1  -5 -10  834.40   45.21
   1   5  10  921.88   55.17
  -1  -5 -10  962.87   56.74
  -1  -5 -11  158.51   22.99
   1   5  11  134.10   20.28
   1   5  12  529.66   41.77
  -1  -5 -12  561.08   47.71
  -1  -5 -13  124.86   24.46
   1   5  13   95.04   19.08
  -1  -5 -14  167.12   28.46
  -1  -5 -15  718.56   65.12
  -1  -5 -15  676.15   60.57
  -1  -5 -16  360.62   45.29
  -1  -5 -16  313.31   44.56
   1   6 -14  124.29   28.68
   1   6 -14  115.86   26.59
   1   6 -13  544.29   55.31
   1   6 -12    1.17   13.51
   1   6 -11 1767.90   98.46
  -1  -6  10  361.28   33.85
   1   6 -10  409.57   41.15
  -1  -6   9  147.27   21.91
   1   6  -9  190.57   27.39
  -1  -6   8   24.53    9.96
  -1  -6   7  704.20   49.12
  -1  -6   6  798.94   43.17
  -1  -6   6  785.53   52.23
  -1  -6   5   11.08    8.63
  -1  -6   4   40.70   11.87
  -1  -6   4   59.43    9.05
  -1  -6   4   47.88   10.27
   1   6  -3  275.55   27.70
  -1  -6   3  264.67   25.43
  -1  -6   3  268.27   28.78
  -1  -6   3  243.91   16.85
   1   6  -2  248.00   26.29
  -1  -6   2  240.91   26.70
   1   6  -2  219.71   15.31
  -1  -6   2  233.31   24.21
  -1  -6   2  213.78   13.81
  -1  -6   1 1727.75   82.23
   1   6  -1 1656.97   53.30
  -1  -6   1 1793.50   79.63
   1   6  -1 1820.40   84.10
  -1  -6   1 1734.45   53.99
  -1  -6   0  531.65   40.14
  -1  -6   0  590.06   42.59
   1   6   0  583.48   43.44
  -1  -6  -1    9.30    6.91
  -1  -6  -2  734.05   24.79
  -1  -6  -2  740.70   46.79
  -1  -6  -3 5565.22  191.41
  -1  -6  -3 5692.56  162.63
   1   6   4  104.58   17.45
  -1  -6  -4   95.06   16.49
  -1  -6  -4   90.65    7.66
  -1  -6  -4  111.27   10.31
   1   6   5  776.31   37.13
  -1  -6  -5  926.92   37.60
   1   6   5  886.09   53.34
  -1  -6  -5  897.12   38.71
  -1  -6  -5  750.70   47.85
  -1  -6  -6   44.86   11.03
  -1  -6  -6   67.46   10.17
   1   6   6   80.73   15.76
   1   6   6   55.80    9.20
  -1  -6  -6   72.98   10.46
   1   6   7 1757.65   72.41
  -1  -6  -7 1770.21   81.43
   1   6   7 1925.80   87.21
  -1  -6  -7 1913.46   74.66
  -1  -6  -8   55.42   13.52
  -1  -6  -8   74.74   12.75
   1   6   8   66.10   15.03
  -1  -6  -9  127.77   18.49
   1   6   9  141.58   21.35
  -1  -6  -9  162.03   20.06
  -1  -6 -10 1023.52   55.42
   1   6  10 1116.98   64.00
  -1  -6 -10 1121.54   61.53
  -1  -6 -11   19.93    9.83
   1   6  11   11.20    8.05
  -1  -6 -11   28.10   11.39
   1   6  12  103.26   19.46
  -1  -6 -12  143.28   23.32
  -1  -6 -12  117.00   22.00
  -1  -6 -13   15.62   12.81
   1   6  13   18.08   10.85
  -1  -6 -13   29.37   16.21
  -1  -6 -14   16.55   12.24
  -1  -6 -14   43.71   17.72
  -1  -6 -15   50.13   18.43
  -1  -6 -15   50.87   19.99
   1   7 -14   43.90   17.92
   1   7 -13   43.61   19.27
   1   7 -13  -19.39   15.26
   1   7 -12  -13.21   16.03
   1   7 -11 1183.26   80.07
  -1  -7  10   12.77    8.12
   1   7 -10   34.50   16.10
  -1  -7   9  151.55   22.94
   1   7  -9  161.50   26.33
  -1  -7   8  597.01   47.32
  -1  -7   7 2328.27  107.84
  -1  -7   6  154.99   17.46
  -1  -7   6  146.62   22.88
  -1  -7   5  812.40   55.59
  -1  -7   4 2583.08   89.93
  -1  -7   4 2806.80  117.95
  -1  -7   3  197.69   14.59
   1   7  -3  200.88   25.54
  -1  -7   3  211.20   26.83
  -1  -7   2  305.65   15.96
   1   7  -2  289.69   17.10
  -1  -7   2  304.28   32.34
   1   7  -2  266.99   30.06
   1   7  -1   25.36    3.03
   1   7  -1   28.89   11.56
  -1  -7   1   31.26   10.80
   1   7  -1   20.31    2.93
  -1  -7   1   21.18    2.76
  -1  -7   0 3322.24  134.14
   1   7   0 3204.04  134.51
  -1  -7  -1   41.02   13.39
   1   7   1   59.99   14.97
  -1  -7  -2   79.56   16.74
   1   7   2  136.71   20.90
   1   7   3  343.68   32.45
  -1  -7  -3  285.68   30.60
  -1  -7  -3  284.11   12.21
  -1  -7  -4  143.56   21.18
  -1  -7  -4  138.39    7.98
  -1  -7  -4  130.96    7.03
   1   7   4  160.31   23.28
  -1  -7  -4  160.92   11.12
  -1  -7  -5  473.46   39.53
   1   7   5  487.86   26.12
  -1  -7  -5  457.67   21.93
   1   7   5  544.04   41.78
  -1  -7  -5  509.38   25.50
   1   7   6  101.62   12.00
  -1  -7  -6  158.13   22.40
  -1  -7  -6  157.81   13.79
   1   7   6  179.87   23.52
  -1  -7  -6  153.46   14.64
  -1  -7  -7   50.65   13.66
  -1  -7  -7   63.78   10.83
   1   7   7   71.50   15.62
   1   7   7   83.25   11.24
  -1  -7  -7   72.78   11.07
   1   7   8  209.43   26.20
  -1  -7  -8  248.31   22.89
  -1  -7  -8  196.04   25.45
  -1  -7  -8  234.15   22.07
   1   7   9 2318.81  105.80
  -1  -7  -9 2180.75  100.96
  -1  -7  -9 2424.13   96.58
  -1  -7 -10   31.47    8.75
  -1  -7 -10   30.15   10.01
   1   7  10   42.36   13.42
  -1  -7 -10   29.78   11.45
  -1  -7 -11  527.52   41.83
  -1  -7 -11  622.09   46.92
   1   7  11  504.45   43.50
  -1  -7 -12    8.83    7.54
  -1  -7 -12    0.99    7.68
   1   7  12    7.90    7.81
   1   7  13  655.93   51.09
  -1  -7 -13  664.44   55.02
  -1  -7 -13  627.94   50.65
  -1  -7 -14  182.22   28.51
  -1  -7 -14  249.23   35.02
  -1  -7 -15  485.41   47.90
   1   8 -13  112.35   27.05
   1   8 -13  169.32   32.88
   1   8 -12  377.49   46.92
   1   8 -12  326.09   43.20
   1   8 -11  104.48   24.99
   1   8 -10  354.47   41.65
  -1  -8  10  312.71   36.18
  -1  -8   9  174.67   26.64
   1   8  -9  179.39   28.49
  -1  -8   8   95.22   20.60
  -1  -8   7   -0.55    7.88
  -1  -8   6  131.65   23.47
  -1  -8   5  114.61   22.00
  -1  -8   4   -2.64    7.31
  -1  -8   4    7.56    4.09
   1   8  -3  906.91   61.54
   1   8  -3  957.45   40.49
  -1  -8   3  926.99   37.09
  -1  -8   3  887.04   62.03
  -1  -8   2   25.54   10.61
   1   8  -2   29.31    5.57
  -1  -8   2   34.50    4.14
   1   8  -2   18.16   10.66
   1   8  -2   31.49    4.84
  -1  -8   1 2450.85  114.60
   1   8  -1 2456.67  115.14
  -1  -8   0  654.75   52.93
   1   8   0  774.24   54.64
  -1  -8  -1  457.06   42.67
   1   8   1  478.30   41.62
  -1  -8  -2  472.15   43.23
   1   8   2  493.80   41.60
   1   8   3  385.62   35.92
  -1  -8  -3  342.41   36.78
  -1  -8  -4 2881.05  128.74
   1   8   4 3144.38  126.95
  -1  -8  -5  207.85   10.47
   1   8   5  246.81   28.97
  -1  -8  -5  215.26   11.58
  -1  -8  -5  224.85   28.95
  -1  -8  -5  225.04   14.30
  -1  -8  -6  395.59   20.68
   1   8   6  423.15   38.16
  -1  -8  -6  411.54   39.70
  -1  -8  -6  421.21   23.99
  -1  -8  -7   11.10    8.69
  -1  -8  -7   17.60    6.00
   1   8   7   20.95   10.85
  -1  -8  -7   20.14    5.32
  -1  -8  -8   72.37   17.58
  -1  -8  -8   61.08   11.10
   1   8   8   72.43   17.05
  -1  -8  -8   81.54   12.11
  -1  -8  -9   35.12   12.36
  -1  -8  -9   54.84   11.83
   1   8   9   40.20   13.67
  -1  -8  -9   66.13   12.50
  -1  -8 -10   77.06   16.79
  -1  -8 -10   59.19   12.95
   1   8  10   88.92   19.08
  -1  -8 -10  105.24   17.11
   1   8  11   18.85    9.35
  -1  -8 -11    1.35    7.45
  -1  -8 -12   29.91   11.74
   1   8  12   54.62   15.66
   1   8  13  553.60   47.76
   1   9 -12  173.47   30.81
   1   9 -11  110.09   27.36
   1   9 -11  103.07   22.46
   1   9 -10  738.95   63.48
  -1  -9  10  637.89   55.09
   1   9  -9   29.02   12.83
  -1  -9   9   41.50   15.06
  -1  -9   8 1209.04   78.41
  -1  -9   7  313.88   38.04
  -1  -9   6  389.94   42.17
  -1  -9   5   12.94    9.68
   1   9  -5    7.29    5.21
   1   9  -4  703.29   35.75
  -1  -9   4  716.21   57.47
   1   9  -3  199.24   30.09
  -1  -9   3  244.08   32.85
   1   9  -3  227.10   15.50
  -1  -9   2   14.68   11.00
   1   9  -2   17.28    2.58
   1   9  -2   17.69    2.71
  -1  -9   1   11.26   11.73
   1   9  -1   -1.34    9.80
  -1  -9   0  693.22   56.35
   1   9   0  725.95   54.56
  -1  -9  -1  260.65   33.74
   1   9   1  295.00   33.41
   1   9   2  654.75   49.77
  -1  -9  -2  545.00   49.70
  -1  -9  -3   71.39   17.32
   1   9   3  102.50   20.31
  -1  -9  -4  391.33   41.38
   1   9   4  418.82   38.84
   1   9   5  906.34   60.53
  -1  -9  -5  908.87   65.05
   1   9   6 1427.57   79.12
  -1  -9  -6 1441.23   83.96
   1   9   7  305.80   33.86
  -1  -9  -7  325.66   36.91
  -1  -9  -8 1199.07   74.01
   1   9   8 1142.95   70.63
  -1  -9  -9  110.86   21.88
   1   9   9  100.29   20.58
   1   9  10  771.95   57.16
   1   9  11  382.47   39.60
   1   9  12  378.77   40.20
   1   9  13   49.34   15.89
   1  10 -10  202.17   34.80
  -1 -10  10  196.96   33.07
  -1 -10   9  172.49   29.46
   1  10  -9  168.41   31.74
  -1 -10   8  250.21   36.11
  -1 -10   7  129.58   26.32
  -1 -10   6  845.94   66.44
  -1 -10   5   13.77   13.07
  -1 -10   4  542.99   52.63
   1  10  -3  843.65   64.84
  -1 -10   3  789.83   64.13
   1  10  -2 2075.00  107.42
  -1 -10   2 2074.82  111.76
  -1 -10   1  639.73   56.44
   1  10  -1  646.52   53.43
  -1 -10   0    1.27    9.40
   1  10   0   34.89   14.32
  -1 -10  -1 1054.08   74.44
   1  10   1 1022.79   67.42
  -1 -10  -2  111.73   24.10
   1  10   2  154.41   24.85
  -1 -10  -3  684.48   57.68
   1  10   3  618.76   50.63
  -1 -10  -4  159.64   27.74
   1  10   4  161.58   25.34
  -1 -10  -5  206.35   31.51
   1  10   5  267.31   32.25
  -1 -10  -6   15.40   10.74
   1  10   6   24.81   11.52
  -1 -10  -7  234.73   33.25
   1  10   7  258.29   32.46
  -1 -10  -8   19.00   11.97
   1  10   8   50.64   16.74
  -1 -10  -9   16.80   10.30
   1  10   9   17.37   12.26
   1  10  10  100.99   21.81
   1  10  11  292.23   36.32
   1  10  12  576.54   51.22
  -1 -11  10   98.70   25.01
  -1 -11   9  226.48   35.63
  -1 -11   8   68.10   20.25
  -1 -11   7  439.47   49.56
  -1 -11   6  116.55   26.83
  -1 -11   5   53.31   19.20
  -1 -11   4   13.28   13.18
   1  11  -3    7.41   11.03
  -1 -11   3   15.06   11.92
  -1 -11   2   30.26   15.55
   1  11  -2   51.03   17.26
  -1 -11   1   39.97   17.51
   1  11  -1   55.06   19.01
  -1 -11   0  268.86   38.10
   1  11   0  291.82   36.10
  -1 -11  -1   60.40   20.42
   1  11   1   47.17   14.71
  -1 -11  -2 1874.59  109.37
   1  11   2 1961.40  101.22
  -1 -11  -3  212.11   36.19
   1  11   3  195.53   28.80
  -1 -11  -4  244.62   37.15
   1  11   4  254.13   32.70
  -1 -11  -5  300.77   40.07
   1  11   5  319.11   36.74
  -1 -11  -6  285.68   39.51
   1  11   6  358.01   38.28
  -1 -11  -7  729.74   62.67
   1  11   7  830.37   60.58
  -1 -11  -8   44.72   18.31
   1  11   8   88.00   20.38
   1  11   9  445.29   44.08
   1  11  10   54.72   16.47
  -1 -12   7  384.09   48.76
  -1 -12   6  -20.62   14.63
  -1 -12   5  916.92   75.63
  -1 -12   4  137.12   29.51
   1  12  -3  229.01   34.60
  -1 -12   3  220.15   36.75
  -1 -12   2   13.25   14.17
   1  12  -2    4.69   11.69
  -1 -12   1  748.41   68.32
   1  12  -1  743.89   60.12
  -1 -12   0  340.34   45.42
   1  12   0  366.03   41.28
  -1 -12  -1   -6.45   13.06
   1  12   1    5.05   10.79
  -1 -12  -2  135.89   28.85
   1  12   2  112.15   23.15
  -1 -12  -3  132.93   29.20
   1  12   3  145.56   26.35
  -1 -12  -4    1.09   10.03
   1  12   4   13.97   12.82
  -1 -12  -5  338.26   45.60
   1  12   5  407.46   43.26
  -1 -12  -6  280.27   40.30
   1  12   6  303.71   37.00
  -1 -12  -7   94.35   25.95
   1  12   7   25.09   14.79
   1  12   8  182.16   31.02
  -1 -12  -8  153.20   29.46
  -1 -13   3  208.36   38.15
   1  13  -3  336.95   42.04
   1  13  -2   73.78   21.18
  -1 -13   2   85.76   26.16
   1  13  -1 1158.56   79.04
  -1 -13   1 1160.18   90.16
  -1 -13   0   78.62   23.71
   1  13   0  101.93   24.71
  -1 -13  -1  599.11   63.29
   1  13   1  560.10   53.30
  -1 -13  -2  786.89   73.09
   1  13   2  871.74   67.05
  -1 -13  -3  198.46   37.29
   1  13   3  239.95   34.20
  -1 -13  -4   94.37   24.67
   1  13   4  109.66   25.00
  -1 -13  -5  -17.47   14.59
  -1 -13  -6  775.31   70.56
  -1 -13  -7   35.96   18.38
  -2  14  -2  -29.18   15.44
  -2  13   2  448.39   45.71
  -2  13   1   14.56   12.97
  -2  13   0  305.43   36.28
  -2  13  -1   62.59   17.74
  -2  13  -2  121.77   22.47
  -2  13  -3   27.87   12.95
  -2  13  -3  -12.48   11.37
  -2  13  -4   34.18   14.10
  -2  13  -4   13.89    9.65
  -2  13  -5   76.00   21.61
  -2  12   5   20.39   13.30
  -2  12   4  154.34   27.76
  -2  12   3  576.69   51.91
  -2  12   2  620.37   52.78
  -2  12   1    7.07   10.15
  -2  12   0  372.35   39.29
  -2  12  -1   23.56   12.28
  -2  12  -2  887.53   61.11
  -2  12  -3  116.95   21.36
  -2  12  -4  678.41   54.51
  -2  12  -4  554.20   47.24
  -2  12  -5  102.30   21.44
  -2  12  -5  104.19   20.26
  -2  12  -6   20.93   14.72
  -2  12  -7   31.70   16.04
  -2  11   7  188.95   31.89
  -2  11   6   96.61   22.63
  -2  11   5  529.87   50.64
  -2  11   4   -9.90   11.08
  -2  11   3   55.06   18.04
  -2  11   2  141.88   24.40
  -2  11   1   61.08   16.91
  -2  11   0   67.90   16.49
  -2  11  -1  121.02   21.46
  -2  11  -2   29.04   12.17
  -2  11  -3  276.12   30.85
  -2  11  -4  696.74   54.27
  -2  11  -4  725.67   51.74
  -2  11  -5  119.77   23.42
  -2  11  -5  146.82   22.97
  -2  11  -6  242.44   33.20
  -2  11  -6  245.49   30.37
  -2  11  -7   -4.58   10.65
  -2  11  -8 1176.84   81.59
  -2  10   9  117.26   25.64
  -2  10   8   15.27   14.59
  -2  10   7   20.43   12.46
  -2  10   6  860.87   63.42
  -2  10   5  136.87   23.56
   2 -10  -5  144.79   19.87
  -2  10   4  320.95   36.51
   2 -10  -4  257.83   26.61
  -2  10   3  262.58   32.61
   2 -10  -3  242.79   26.52
   2 -10  -2 1342.42   66.52
  -2  10   2 1369.34   78.89
   2 -10  -1  629.65   41.00
  -2  10   1  588.59   47.98
  -2  10   0   28.23   12.00
  -2  10  -1  788.04   53.88
  -2  10  -2   69.41   16.29
  -2  10  -3  462.80   39.22
  -2  10  -4  121.18   18.93
  -2  10  -4   84.09   19.49
  -2  10  -5  204.24   28.41
  -2  10  -5  252.13   27.81
  -2  10  -6   15.45    9.85
  -2  10  -6    0.67    7.85
  -2  10  -7    4.77   11.06
  -2  10  -7   -1.58    8.12
  -2  10  -8  125.70   26.82
  -2  10  -9   35.01   16.66
  -2  10 -10  163.92   32.15
  -2   9  11  244.81   35.69
  -2   9  10   15.83   12.67
   2  -9 -10   31.61   14.39
  -2   9   9  710.07   57.98
   2  -9  -9  752.91   55.68
   2  -9  -8  328.02   33.92
  -2   9   8  317.33   37.20
  -2   9   7  148.94   24.76
   2  -9  -7  132.16   20.26
  -2   9   6   90.25   19.61
   2  -9  -6   88.51   16.09
  -2   9   5   49.01   14.49
   2  -9  -5   40.92   11.49
  -2   9   4   38.32   13.61
   2  -9  -4   28.16    9.41
  -2   9   3  195.53   25.98
   2  -9  -3  147.50   20.31
  -2   9   2    6.95    6.42
   2  -9  -2   11.96    7.22
  -2   9   1  121.38   10.73
  -2   9   1  117.97   20.17
   2  -9  -1  135.48   18.72
  -2   9   0  784.20   32.54
   2  -9   0  775.52   47.11
  -2   9   0  842.50   55.07
  -2   9  -1 1798.60   61.26
  -2   9  -1 1936.70   89.69
  -2   9  -2   20.77    4.65
  -2   9  -2   32.73   10.14
  -2   9  -3  182.84   14.31
  -2   9  -3  197.34   23.70
  -2   9  -4  113.32   19.86
  -2   9  -4  156.15   20.47
  -2   9  -4  127.97   12.98
  -2   9  -5 1863.33   94.08
  -2   9  -5 2086.36   90.20
  -2   9  -5 2036.73   74.73
  -2   9  -6  103.52   13.46
  -2   9  -6  139.49   22.84
  -2   9  -6  120.40   19.36
  -2   9  -7  840.18   61.05
  -2   9  -7  832.82   44.72
  -2   9  -7  965.43   60.29
  -2   9  -8  235.92   32.63
  -2   9  -8  206.34   21.33
  -2   9  -9  123.75   17.37
  -2   9  -9  142.16   26.65
  -2   9 -10   21.85    8.83
  -2   9 -10    2.59   11.30
  -2   9 -11   47.86   18.87
  -2   9 -11   63.74   15.43
  -2   9 -12  338.33   33.71
  -2   9 -13  101.32   20.54
   2  -8 -12   39.75   18.23
   2  -8 -11  489.84   51.61
   2  -8 -10   15.80   11.20
   2  -8  -9  565.85   49.22
   2  -8  -8  141.09   23.21
   2  -8  -7 1237.44   69.96
   2  -8  -6  526.24   40.56
   2  -8  -5  226.20   25.38
   2  -8  -4  891.08   51.55
  -2   8   4  927.80   40.73
   2  -8  -3 1623.27   74.54
  -2   8   3 1530.09   57.16
  -2   8   2  609.88   42.90
   2  -8  -2  552.66   40.21
  -2   8   2  629.95   38.56
  -2   8   2  568.38   27.48
  -2   8   1  185.59   19.79
   2  -8  -1  156.96   21.90
  -2   8   1  210.14   24.16
  -2   8   0  785.56   35.42
  -2   8   0  822.04   44.82
  -2   8   0  757.47   49.81
   2  -8   0  818.39   49.13
  -2   8  -1   -1.42    3.05
  -2   8  -1   -0.97    7.34
  -2   8  -1    2.08    5.44
  -2   8  -2    1.90    6.54
  -2   8  -2    5.42    4.92
  -2   8  -2    7.48    3.63
  -2   8  -3   48.23    8.16
  -2   8  -3   48.35   11.90
  -2   8  -4   41.26   11.35
  -2   8  -4   43.27   10.57
  -2   8  -4   40.12    7.68
  -2   8  -5  139.02   15.26
  -2   8  -5   98.09   18.52
  -2   8  -5  156.58   19.60
  -2   8  -6 1299.92   74.26
  -2   8  -6 1423.63   69.69
  -2   8  -6 1380.06   60.19
  -2   8  -7  162.53   22.20
  -2   8  -7  139.03   23.81
  -2   8  -7  174.50   19.04
  -2   8  -8    0.62    9.22
  -2   8  -8   -2.14    5.88
  -2   8  -9  774.28   47.86
  -2   8  -9  805.99   61.16
  -2   8 -10  246.82   26.64
  -2   8 -10  169.61   29.44
  -2   8 -11  720.66   50.17
  -2   8 -11  811.06   65.69
  -2   8 -12   65.80   21.16
  -2   8 -12   76.77   17.11
  -2   8 -13  775.00   56.65
  -2   8 -14   12.12   13.44
   2  -7 -13   93.91   28.27
   2  -7 -12  389.76   48.83
   2  -7 -11  688.19   62.37
   2  -7 -10  175.32   30.24
   2  -7  -9   22.31   13.66
   2  -7  -8   23.25   13.74
   2  -7  -7   81.99   18.39
   2  -7  -6    4.81    8.19
  -2   7   5  314.08   26.93
   2  -7  -5  254.58   26.62
  -2   7   5  242.85   20.01
   2  -7  -4  516.45   37.74
  -2   7   4  485.11   28.01
  -2   7   3  316.22   26.32
   2  -7  -3  264.14   25.28
  -2   7   2  507.26   33.08
   2  -7  -2  497.09   35.96
   2  -7  -1 1343.27   68.71
  -2   7   1 1443.49   64.19
  -2   7   0  173.01   18.79
   2  -7   0  151.45   20.13
   2  -7   1 1642.41   78.00
  -2   7  -1 1788.49   65.01
  -2   7  -1 1726.93   76.90
  -2   7  -1 1708.89   74.02
  -2   7  -2 1159.73   48.41
  -2   7  -2 1168.63   59.46
  -2   7  -2 1158.50   58.70
  -2   7  -3  365.04   31.57
  -2   7  -3  335.84   22.44
  -2   7  -3  306.16   28.42
  -2   7  -3  329.03   28.17
  -2   7  -4  917.14   42.65
  -2   7  -4  788.41   50.03
  -2   7  -4  928.65   48.77
  -2   7  -5    2.86    5.18
  -2   7  -5    3.18    7.97
  -2   7  -5   10.62    5.08
  -2   7  -6  562.08   34.73
  -2   7  -6  523.77   41.95
  -2   7  -6  560.73   38.54
  -2   7  -7   87.51   17.99
  -2   7  -7   83.89   13.75
  -2   7  -7   82.10   14.23
  -2   7  -8  210.64   28.62
  -2   7  -8  172.83   20.57
  -2   7  -9   12.90   10.55
  -2   7  -9   17.59    9.71
  -2   7 -10   37.64   12.32
  -2   7 -10   29.35   14.74
  -2   7 -11  132.53   21.74
  -2   7 -11  145.68   27.92
  -2   7 -12   28.70   13.69
  -2   7 -13  273.45   33.71
  -2   7 -14   -7.96   10.71
   2  -6 -14   20.79   18.65
   2  -6 -13  208.74   37.81
   2  -6 -12  517.25   57.08
   2  -6 -11  149.63   29.53
   2  -6 -10 1126.52   78.20
   2  -6  -9   22.19   11.88
   2  -6  -8  189.05   27.23
   2  -6  -7    5.42    8.51
   2  -6  -6 2216.06   99.06
   2  -6  -5  566.72   41.38
  -2   6   5  544.77   31.82
  -2   6   4    1.04    3.28
   2  -6  -4    5.50    5.13
   2  -6  -3  153.00   19.47
  -2   6   3  162.02   18.30
  -2   6   3  141.10   17.94
  -2   6   3  150.62   14.30
  -2   6   2  454.64   32.25
  -2   6   2  458.63   31.64
   2  -6  -1   41.89   10.18
  -2   6   1   80.35   12.84
   2  -6   0    2.35    5.51
  -2   6   0    5.21    4.64
   2  -6   1   15.96    7.33
  -2   6  -1   16.06    5.78
  -2   6  -1   22.71    6.78
  -2   6  -2  333.76   22.97
   2  -6   2  316.01   29.81
  -2   6  -2  382.25   27.57
  -2   6  -2  388.13   31.55
  -2   6  -3 1791.44   68.83
  -2   6  -3 1845.06   76.69
  -2   6  -3 1733.90   74.15
  -2   6  -3 1898.06   86.79
  -2   6  -4 3037.31  104.41
  -2   6  -4 3021.98  113.66
  -2   6  -4 2963.31  107.74
  -2   6  -5  223.33   20.23
  -2   6  -5  225.02   24.69
  -2   6  -5  230.17   20.74
  -2   6  -6  668.75   39.58
  -2   6  -6  713.62   47.59
  -2   6  -6  688.88   40.64
  -2   6  -7  454.46   32.72
  -2   6  -7  389.70   25.94
  -2   6  -7  428.11   37.68
  -2   6  -8 2302.22  105.18
  -2   6  -8 2298.50   95.71
  -2   6  -9  206.63   27.97
  -2   6  -9  187.40   23.14
  -2   6 -10 1257.02   70.17
  -2   6 -10 1413.26   81.06
  -2   6 -11  143.35   22.31
  -2   6 -11  144.67   25.22
  -2   6 -12  300.91   34.34
  -2   6 -13    6.97   10.95
  -2   6 -14  137.20   26.19
  -2   6 -15  367.61   43.07
   2  -5 -14  181.58   36.71
   2  -5 -13    5.46   13.62
   2  -5 -12   -6.84   14.17
   2  -5 -11   -5.99   14.04
   2  -5 -10  324.38   39.77
   2  -5  -9    1.43    9.24
  -2   5   8  370.25   18.61
   2  -5  -8  461.04   42.37
  -2   5   7   11.37    4.93
  -2   5   7    7.93    3.35
   2  -5  -7   -0.56    7.24
   2  -5  -6 2434.51  108.28
  -2   5   6 2658.58   91.46
  -2   5   5   37.48    7.66
  -2   5   5   25.66    6.78
   2  -5  -5   39.38   11.37
  -2   5   4 1470.45   60.77
  -2   5   4 1665.06   72.98
  -2   5   4 1511.51   61.73
   2  -5  -4 1414.54   70.54
   2  -5  -3 2244.01   95.37
  -2   5   3 2314.96   83.34
   2  -5  -2 1553.19   71.57
  -2   5   2 1602.88   69.70
  -2   5   1  905.58   47.04
   2  -5  -1  820.34   48.10
   2  -5   0  903.40   53.37
  -2   5   0  981.54   50.05
  -2   5   0 1092.19   51.48
  -2   5  -1 2992.50  101.27
  -2   5  -1 3090.78  111.62
   2  -5   1 2812.39  116.12
  -2   5  -2  231.26   19.73
   2  -5   2  182.83   22.28
  -2   5  -2  247.87   25.36
  -2   5  -2  206.18   18.86
  -2   5  -3   76.02   11.38
  -2   5  -3   69.34   11.04
  -2   5  -3   84.63   13.07
  -2   5  -3   84.34   15.84
  -2   5  -4  569.69   32.77
  -2   5  -4  540.19   31.83
  -2   5  -4  471.73   39.37
  -2   5  -4  530.60   35.32
  -2   5  -5 1742.23   72.74
  -2   5  -5 1877.60   69.45
  -2   5  -5 1801.42   78.84
  -2   5  -6  109.16   15.10
  -2   5  -6  102.09   16.55
  -2   5  -6   82.17   11.17
  -2   5  -7  206.56   21.99
  -2   5  -7  192.15   23.72
  -2   5  -8   70.68   16.18
  -2   5  -8   72.32   14.48
  -2   5  -9  176.36   24.64
  -2   5  -9  178.50   23.39
  -2   5 -10  713.78   50.69
  -2   5 -11  400.07   39.31
  -2   5 -12   60.65   16.74
  -2   5 -13    5.89    9.78
  -2   5 -14 1373.94   86.23
  -2   5 -15   -3.63   10.89
   2  -4 -14   24.45   16.91
   2  -4 -13 1696.60  112.02
   2  -4 -12  136.08   29.91
   2  -4 -11  772.05   65.33
   2  -4 -10   11.55   11.01
   2  -4  -9 1320.18   80.62
   2  -4  -8  178.66   26.13
  -2   4   7   15.13    4.35
   2  -4  -7   17.94   10.79
   2  -4  -6  354.18   32.30
  -2   4   6  376.92   20.98
  -2   4   5  358.85   25.85
   2  -4  -5  375.63   32.53
  -2   4   5  385.40   22.76
  -2   4   4   11.74    4.97
  -2   4   4   -0.34    3.54
   2  -4  -4    0.78    5.19
  -2   4   4    2.70    5.40
  -2   4   3  822.32   46.48
   2  -4  -3  806.89   47.15
  -2   4   3  805.36   38.07
  -2   4   2  108.02   12.59
   2  -4  -2   90.20   15.01
  -2   4   2   88.67   13.33
  -2   4   1   40.46    8.26
   2  -4  -1   23.97    7.75
  -2   4   1   25.19    7.12
  -2   4   0 1204.43   45.05
  -2   4   0 1161.59   55.68
   2  -4   0 1101.79   57.99
  -2   4  -1   78.36    9.85
   2  -4   1   63.30   13.78
  -2   4  -1   89.64   13.77
   2  -4   2  901.93   54.35
  -2   4  -2 1076.10   50.30
  -2   4  -2 1052.30   58.94
  -2   4  -2  965.20   43.89
  -2   4  -3  638.59   36.20
  -2   4  -3  632.95   44.76
  -2   4  -3  619.76   34.74
  -2   4  -4 4138.09  136.70
  -2   4  -4 4069.60  154.63
  -2   4  -4 4004.15  126.53
  -2   4  -4 4084.97  137.79
  -2   4  -5 1005.56   51.25
  -2   4  -5 1051.92   42.76
  -2   4  -5 1039.78   62.11
  -2   4  -5 1116.67   54.00
  -2   4  -6  350.50   19.77
  -2   4  -6  415.08   30.46
   2  -4   6  403.91   34.97
  -2   4  -6  385.13   30.83
  -2   4  -7  646.28   41.72
  -2   4  -7  600.56   41.28
  -2   4  -8   86.01   17.23
  -2   4  -8   92.46   16.30
  -2   4  -9  928.81   57.32
  -2   4 -10   21.15   10.98
  -2   4 -11  266.15   32.38
  -2   4 -12    5.39    9.98
  -2   4 -13   80.40   20.64
  -2   4 -14  339.61   41.97
  -2   4 -15   17.43   13.76
   2  -3 -14  108.10   27.26
   2  -3 -13  184.58   34.82
   2  -3 -12   15.43   11.00
   2  -3 -11   21.89   15.10
   2  -3 -10  217.82   32.16
   2  -3  -9 1908.74  101.13
   2  -3  -8  289.37   33.24
   2  -3  -7  819.64   55.68
  -2   3   7  859.43   31.69
  -2   3   6    7.23    3.16
   2  -3  -6    4.24    5.83
   2  -3  -5  839.44   51.68
  -2   3   5  878.75   45.09
  -2   3   5  957.64   36.97
   2  -3  -4  195.81   21.74
  -2   3   4  213.40   23.18
  -2   3   4  194.66   14.46
  -2   3   4  178.80   16.99
   2  -3  -3 2518.93  102.51
  -2   3   3 2919.92  106.69
   2  -3  -2 2591.66  100.42
  -2   3   2 2803.26  100.82
  -2   3   2 2562.89   75.09
   2  -3  -1  297.48   26.28
  -2   3   1  295.61   14.64
  -2   3   1  319.68   25.31
   2  -3   0  196.76   20.76
  -2   3   0  193.06   19.31
  -2   3   0  198.90   13.07
  -2   3  -1  414.05   22.06
   2  -3   1  350.41   31.00
  -2   3  -1  403.04   30.10
   2  -3   2    7.47    6.47
  -2   3  -2   10.18    4.37
  -2   3  -2    6.85    5.36
  -2   3  -2   -1.08    6.62
  -2   3  -3   25.21    6.59
  -2   3  -3   17.92    7.54
  -2   3  -3    4.94    4.42
  -2   3  -4   94.49   13.74
  -2   3  -4  109.08   13.39
  -2   3  -5   80.36   12.97
  -2   3  -5   92.21   16.46
  -2   3  -5   77.62    7.61
  -2   3  -5   86.42   12.96
  -2   3  -6 1227.50   60.91
   2  -3   6 1178.50   66.25
  -2   3  -6 1338.76   59.08
  -2   3  -7 3603.72  135.70
  -2   3  -7 3822.52  131.12
  -2   3  -8  420.99   35.37
  -2   3  -9  469.48   39.93
  -2   3 -10  955.34   62.30
  -2   3 -11 2189.11  107.98
  -2   3 -12  204.60   30.62
  -2   3 -13 1091.54   76.24
  -2   3 -14   80.15   22.18
  -2   3 -15  303.45   42.27
   2  -2 -14  227.51   41.89
   2  -2 -13  269.71   44.20
   2  -2 -12  275.24   42.07
   2  -2 -11  135.89   27.97
   2  -2 -10   92.22   22.21
   2  -2  -9    2.82    8.93
   2  -2  -8  388.03   39.02
  -2   2   7   55.74    4.86
   2  -2  -7   67.07   15.93
   2  -2  -6  350.63   32.48
   2  -2  -5  956.91   54.72
  -2   2   5 1036.11   49.37
   2  -2  -4  801.70   47.05
  -2   2   4  828.98   41.31
   2  -2  -3 3305.26  119.97
   2  -2  -2    1.95    4.63
   2  -2  -1 4290.78  145.48
   2  -2   0   60.20   11.52
   2  -2   1 1178.64   62.26
   2  -2   1 1362.90   47.12
   2  -2   2 2866.38  120.45
   2  -2   2 3118.15   97.95
   2  -2   3 5150.79  161.97
   2  -2   3 5239.02  192.59
  -2   2  -4 2162.73   85.03
   2  -2   4 1916.89   73.38
  -2   2  -5  107.97   15.40
   2  -2   5  101.73   13.07
  -2   2  -6  866.93   49.71
   2  -2   6  805.49   42.92
  -2   2  -7  147.62   20.16
  -2   2  -8   44.71   12.73
  -2   2  -8   65.06   11.54
  -2   2  -9  185.77   25.32
  -2   2  -9  155.75   17.82
  -2   2 -10  239.88   23.67
  -2   2 -10  262.40   31.89
  -2   2 -11  264.00   33.81
  -2   2 -12 1137.63   77.50
  -2   2 -13  117.09   26.66
  -2   2 -14  -12.79   13.49
  -2   2 -15  374.01   49.74
   2  -1 -14   11.86   13.62
   2  -1 -13  447.52   57.73
   2  -1 -12  983.72   81.59
   2  -1 -11  489.51   53.08
   2  -1 -10 1129.85   78.99
   2  -1  -9   33.58   14.01
   2  -1  -8 4178.80  165.97
   2  -1  -7  425.09   38.09
  -2   1   7  377.24   18.43
   2  -1  -6 1301.39   69.08
   2  -1  -5 1276.62   64.28
   2  -1  -4  407.68   30.77
   2  -1  -3   64.23   11.61
   2  -1  -2   39.77    9.06
   2  -1  -1  490.84   32.33
   2  -1   0   52.20   10.38
   2  -1   1  231.97   23.08
   2  -1   2  235.23   15.49
   2  -1   2  239.90   26.45
   2  -1   3 1635.69   60.76
   2  -1   3 1569.21   80.99
  -2   1  -4  468.29   35.36
   2  -1   4  393.50   24.58
  -2   1  -5 1077.20   55.89
   2  -1   5  986.00   44.82
  -2   1  -6  501.39   38.30
   2  -1   6  470.21   30.57
  -2   1  -7 3588.15  138.84
  -2   1  -8 1659.23   83.80
  -2   1  -9  309.49   34.25
  -2   1 -10  246.49   22.62
  -2   1 -10  281.83   34.32
  -2   1 -11   61.32   11.70
  -2   1 -11   48.07   16.56
  -2   1 -12  583.48   55.01
  -2   1 -13    5.42   11.55
  -2   1 -14  365.24   45.88
  -2   1 -15   23.88   13.66
  -2   1 -16   33.47   20.00
   2   0 -14   56.35   25.20
   2   0 -13  370.96   52.45
   2   0 -12   14.62   15.86
   2   0 -11  322.67   43.66
   2   0 -10   82.84   20.50
   2   0  -9    0.06    8.60
  -2   0   8   38.10    5.53
   2   0  -8   60.15   16.55
   2   0  -7 1100.75   67.92
  -2   0   7 1190.29   44.96
   2   0  -6 1322.42   70.17
   2   0  -6 1300.29   48.99
   2   0  -5   67.69    7.46
   2   0  -5   80.15   14.53
   2   0  -4 3587.32  128.62
   2   0  -3  357.23   26.97
   2   0  -2  282.93   23.21
   2   0  -1   18.39    6.32
   2   0   0 3139.69  110.30
   2   0   1  976.84   50.17
   2   0   2   60.04   12.96
   2   0   3  118.33   19.29
  -2   0  -3  107.66   16.70
  -2   0  -4 1318.99   64.05
  -2   0  -4 1134.69   42.65
  -2   0  -5   81.25   14.30
  -2   0  -5   68.86    7.74
  -2   0  -6  131.07   18.87
  -2   0  -7   70.00   15.20
  -2   0  -8   83.60   16.83
  -2   0  -9  827.38   56.93
  -2   0 -10 1902.22   98.25
  -2   0 -11  357.67   26.98
  -2   0 -11  333.50   38.86
  -2   0 -12  390.43   43.68
  -2   0 -13  836.45   68.70
  -2   0 -14 1281.06   91.21
  -2   0 -15    2.58   11.88
  -2   0 -16  406.35   53.53
   2   1 -14  962.54   92.25
   2   1 -13  320.20   49.00
   2   1 -12  134.68   30.87
   2   1 -11  170.64   32.91
   2   1 -10  170.03   29.38
   2   1  -9  980.25   73.47
  -2  -1   9 1196.78   44.63
   2   1  -8  824.09   62.02
  -2  -1   8 1026.10   43.39
   2   1  -7    8.81    4.57
  -2  -1   7   14.55    5.48
   2   1  -7   18.83    9.65
   2   1  -6   50.83    8.46
  -2  -1   6   52.23    8.34
   2   1  -5   63.39   12.54
   2   1  -4  681.83   41.26
   2   1  -3   11.08    5.20
   2   1  -2  359.74   25.70
   2   1  -1    4.40    4.62
   2   1   0 6858.28  210.06
   2   1   1  484.57   30.78
  -2  -1  -2 3434.38  114.19
   2   1   2 2675.51  110.79
  -2  -1  -3 1818.34   78.27
  -2  -1  -3 1873.47   79.25
  -2  -1  -3 1700.29   62.89
  -2  -1  -4 2538.19  100.19
  -2  -1  -4 2660.76  102.91
  -2  -1  -4 2453.29   84.73
  -2  -1  -5  235.28   23.49
  -2  -1  -5  219.63   17.68
   2   1   6 1700.39   59.12
  -2  -1  -6 1671.24   76.75
  -2  -1  -6 1688.48   64.21
   2   1   7 4494.10  137.37
  -2  -1  -7 4743.72  163.92
  -2  -1  -8  854.04   54.49
   2   1   8  864.22   36.03
  -2  -1  -9  148.32   22.72
   2   1   9   92.26    9.92
  -2  -1 -10   83.08   18.14
   2   1  10   72.98    9.08
   2   1  11  604.39   28.69
  -2  -1 -11  709.38   56.00
  -2  -1 -12    4.14   11.73
  -2  -1 -13    1.45   10.76
  -2  -1 -14    9.64   13.08
  -2  -1 -15   44.89   18.84
  -2  -1 -16  389.39   50.58
   2   2 -14  278.16   50.78
   2   2 -13   28.58   18.95
   2   2 -12  141.87   32.37
   2   2 -11  339.09   47.25
  -2  -2  10 2529.92   83.78
   2   2 -10 2360.12   98.29
   2   2  -9  454.54   47.29
  -2  -2   9  496.66   29.52
   2   2  -9  505.52   35.10
  -2  -2   8   90.12   12.89
   2   2  -8   82.00   19.70
   2   2  -7 2946.10  130.82
  -2  -2   7 3274.33  111.15
   2   2  -6  619.38   46.33
  -2  -2   6  659.84   36.11
   2   2  -5 2578.67  104.98
  -2  -2   5 2549.82   91.47
  -2  -2   5 2576.13   94.99
  -2  -2   4   30.70    7.13
   2   2  -4   46.26   10.49
   2   2  -3 4743.35  155.42
  -2  -2   2  133.59   14.17
   2   2  -2  121.23   14.11
   2   2  -1   47.55    8.78
  -2  -2   1   50.77    8.49
   2   2   0 1280.51   54.00
  -2  -2   0 1387.97   52.99
  -2  -2  -1  699.35   33.54
   2   2   1  688.23   36.37
  -2  -2  -1  723.00   33.43
  -2  -2  -2  807.90   39.25
   2   2   2  798.59   43.06
  -2  -2  -2  752.78   37.03
  -2  -2  -3  636.36   36.96
  -2  -2  -3  626.04   33.64
   2   2   4  394.97   24.66
  -2  -2  -4  390.44   29.55
  -2  -2  -4  470.68   32.85
  -2  -2  -4  382.38   25.91
   2   2   5  142.63   18.15
  -2  -2  -5  109.79   15.30
  -2  -2  -5  124.54   15.11
  -2  -2  -5  160.23   19.54
   2   2   5  127.31   13.72
  -2  -2  -6  949.61   51.67
   2   2   6  948.59   52.44
  -2  -2  -6  844.01   45.98
   2   2   6  947.14   43.30
  -2  -2  -7   11.58    7.64
   2   2   7    1.15    3.39
  -2  -2  -8  829.07   52.50
   2   2   8  874.55   42.34
  -2  -2  -9  124.35   20.27
   2   2   9  112.14   13.76
   2   2  10 1908.14   73.70
  -2  -2 -10 1857.36   94.63
   2   2  11  856.69   42.63
  -2  -2 -11  846.32   61.49
   2   2  12  527.27   31.56
  -2  -2 -12  536.45   50.12
  -2  -2 -13  106.24   22.70
  -2  -2 -14   26.28   13.77
  -2  -2 -15  339.98   44.72
  -2  -2 -16   41.20   16.88
   2   3 -14   22.15   19.93
   2   3 -13  321.61   51.10
   2   3 -12  659.68   69.42
   2   3 -11   57.47   14.53
   2   3 -11   71.96   22.98
   2   3 -10  237.94   37.24
   2   3 -10  296.72   30.25
  -2  -3   9    6.97    5.30
   2   3  -9   -0.95    8.99
   2   3  -9   -1.74    7.86
  -2  -3   8   46.31   10.83
   2   3  -8   28.88    9.83
   2   3  -8   36.09   14.19
   2   3  -7  276.00   32.63
  -2  -3   7  328.66   27.16
  -2  -3   6  193.32   19.77
   2   3  -6  149.97   22.10
   2   3  -5  339.70   31.32
  -2  -3   5  362.13   27.07
  -2  -3   5  366.72   26.32
   2   3  -4  892.57   49.11
  -2  -3   4  905.14   45.96
   2   3  -3 2098.52   73.30
  -2  -3   3 2067.50   71.82
  -2  -3   2  138.00   14.50
   2   3  -2  132.17   14.24
  -2  -3   1 2317.18   82.84
   2   3  -1 2157.87   80.04
  -2  -3   1 2323.63   78.71
   2   3   0  987.86   42.48
  -2  -3   0  979.76   40.17
  -2  -3   0  988.52   45.83
  -2  -3  -1 2229.12   73.54
   2   3   1 2124.73   78.25
  -2  -3  -1 2161.76   81.35
  -2  -3  -2  197.38   18.51
  -2  -3  -2  212.86   15.55
   2   3   2  222.55   19.19
   2   3   3 2450.50   89.64
  -2  -3  -3 2256.90   83.07
  -2  -3  -3 2546.71   91.81
  -2  -3  -3 2331.91   89.75
  -2  -3  -4 1978.83   80.33
  -2  -3  -4 1934.87   81.88
   2   3   4 2024.61   81.28
  -2  -3  -5   67.84   12.71
   2   3   5   71.91   12.14
  -2  -3  -5   68.24   11.71
   2   3   5  105.47   14.86
  -2  -3  -5   63.10   12.84
  -2  -3  -6  411.97   30.97
   2   3   6  387.56   30.77
  -2  -3  -6  376.35   30.54
   2   3   6  407.04   29.71
  -2  -3  -7  948.90   53.14
  -2  -3  -8   41.73   11.76
  -2  -3  -9   12.36    9.50
  -2  -3 -10  470.78   41.53
  -2  -3 -11   90.08   19.27
  -2  -3 -12  299.50   36.20
  -2  -3 -13 1006.31   71.98
  -2  -3 -14  143.30   27.86
  -2  -3 -15  441.29   50.49
  -2  -3 -16  802.53   71.27
   2   4 -14   69.40   28.48
   2   4 -13  255.91   45.95
   2   4 -12    9.06    9.55
   2   4 -12   14.74   14.32
   2   4 -11 1625.17   85.30
   2   4 -11 1372.19  100.76
  -2  -4  10  172.39   20.52
   2   4 -10  147.90   29.98
   2   4 -10  213.81   26.82
   2   4  -9  145.33   21.40
  -2  -4   9  179.38   21.52
   2   4  -9  121.08   25.57
   2   4  -8  679.39   45.05
   2   4  -8  587.54   52.10
  -2  -4   8  707.63   44.94
   2   4  -7  540.96   46.66
  -2  -4   7  677.37   43.68
   2   4  -6  604.87   44.93
  -2  -4   6  588.24   40.27
  -2  -4   5   31.49    8.43
  -2  -4   5   25.12    7.98
   2   4  -5   15.34    8.31
  -2  -4   4  578.25   35.02
   2   4  -4  531.34   35.98
  -2  -4   4  571.15   37.46
  -2  -4   3  271.08   22.99
   2   4  -3  255.31   21.77
  -2  -4   3  272.80   24.18
   2   4  -2 1160.22   50.74
  -2  -4   2 1236.98   57.98
  -2  -4   2 1274.41   56.96
  -2  -4   1    6.75    5.65
   2   4  -1    3.10    3.34
  -2  -4   1   -3.05    3.97
   2   4   0  163.75   13.32
  -2  -4   0  156.31   11.89
  -2  -4   0  138.30   16.24
   2   4   1 1110.19   44.58
  -2  -4  -1  980.76   37.68
  -2  -4  -1  971.85   49.93
  -2  -4  -2  781.83   38.93
  -2  -4  -2  779.72   31.91
  -2  -4  -2  819.95   44.96
  -2  -4  -3 2385.36   85.12
  -2  -4  -3 2276.28   92.68
  -2  -4  -3 2228.14   76.53
  -2  -4  -4   44.46   11.13
  -2  -4  -4   43.54    8.80
  -2  -4  -4   61.01    9.88
  -2  -4  -5 4938.26  160.18
  -2  -4  -5 5000.07  160.40
  -2  -4  -5 4754.71  171.33
  -2  -4  -6   23.83   10.30
  -2  -4  -6   18.09    6.61
   2   4   6   17.66    6.76
  -2  -4  -7  526.18   36.53
   2   4   7  513.13   35.99
  -2  -4  -8 1623.69   76.28
   2   4   8 1544.79   75.20
   2   4   9 2543.69  104.92
  -2  -4  -9 2463.97  106.83
   2   4  10  920.52   54.95
  -2  -4 -10  890.23   58.13
  -2  -4 -11   40.53   15.03
  -2  -4 -11   37.48    8.78
   2   4  11   27.27   10.37
   2   4  12  390.29   33.48
  -2  -4 -12  356.34   38.65
  -2  -4 -13  354.56   40.49
  -2  -4 -14   40.56   14.58
  -2  -4 -15  181.84   32.75
  -2  -4 -16   70.53   21.58
   2   5 -13   77.82   24.34
   2   5 -13   43.69   18.64
   2   5 -12  215.49   32.14
   2   5 -12  140.10   34.68
   2   5 -11   50.88   17.23
   2   5 -11   63.20   20.39
   2   5 -10  291.83   34.31
   2   5 -10  327.27   41.65
  -2  -5  10  341.38   31.97
   2   5  -9  866.32   57.63
   2   5  -9  717.36   60.44
  -2  -5   9  869.51   53.92
  -2  -5   8   11.14    7.23
   2   5  -8   15.66    9.66
   2   5  -7 1732.51   89.28
  -2  -5   7 1846.80   86.84
   2   5  -6 1994.49   91.34
  -2  -5   6 1972.63   90.54
   2   5  -5 1787.30   80.52
  -2  -5   5 1863.67   84.80
  -2  -5   5 1779.51   72.22
   2   5  -4 1246.19   58.97
  -2  -5   4 1289.26   65.52
  -2  -5   3  124.02   17.93
   2   5  -3  130.91   14.30
   2   5  -2 5635.64  174.94
  -2  -5   2 5768.01  172.84
  -2  -5   2 5881.37  192.00
   2   5  -1  639.34   30.38
  -2  -5   1  616.08   40.66
   2   5   0 2143.35   71.80
  -2  -5   0 2257.77   89.57
  -2  -5   0 2236.25   90.14
  -2  -5  -1  252.06   13.33
   2   5   1  287.34   16.57
  -2  -5  -1  273.96   25.45
  -2  -5  -1  276.20   24.97
  -2  -5  -2  360.07   22.55
  -2  -5  -2  304.13   14.85
  -2  -5  -2  329.01   28.60
  -2  -5  -2  301.54   26.66
  -2  -5  -3  132.82   13.69
  -2  -5  -3  113.71    9.32
  -2  -5  -3  125.47   18.45
   2   5   3  129.31   19.54
  -2  -5  -3  136.62   17.79
  -2  -5  -4  345.00   23.60
  -2  -5  -4  311.62   19.64
   2   5   4  381.79   33.85
  -2  -5  -4  402.97   30.54
  -2  -5  -5  632.82   35.67
   2   5   5  630.74   46.00
  -2  -5  -5  654.12   34.97
  -2  -5  -6   12.20    5.49
  -2  -5  -6   15.37    6.30
   2   5   6   26.95    7.83
   2   5   6   13.16    8.82
  -2  -5  -7  273.36   24.58
   2   5   7  208.58   21.92
   2   5   7  258.33   28.58
  -2  -5  -7  252.32   24.34
  -2  -5  -8   92.60   15.60
  -2  -5  -8  109.39   15.96
   2   5   8   94.38   18.47
   2   5   9  440.99   38.86
  -2  -5  -9  445.78   33.05
  -2  -5  -9  484.80   38.02
  -2  -5 -10    5.16    8.56
  -2  -5 -10    1.15    6.61
   2   5  10    3.62    7.95
   2   5  11  388.95   36.12
  -2  -5 -11  357.90   28.62
  -2  -5 -11  403.90   38.02
  -2  -5 -12   75.10   18.53
   2   5  12   60.24   14.76
  -2  -5 -13  848.64   62.39
  -2  -5 -14  260.92   35.10
  -2  -5 -15  251.32   35.67
   2   6 -13  360.26   50.97
   2   6 -13  346.15   45.33
   2   6 -12  509.48   57.96
   2   6 -12  518.92   50.97
   2   6 -11   71.91   23.02
   2   6 -11   95.48   22.40
   2   6 -10  991.42   67.64
   2   6 -10  975.33   73.18
  -2  -6  10 1022.68   63.44
   2   6  -9  638.42   50.42
   2   6  -9  550.62   51.13
  -2  -6   9  613.84   47.64
  -2  -6   8   -0.17    7.80
   2   6  -8    0.98    8.20
   2   6  -7  810.21   55.36
  -2  -6   7  942.09   59.46
  -2  -6   6   44.97   13.74
   2   6  -6   45.20   11.87
   2   6  -5  124.43   17.85
  -2  -6   5  153.98   22.83
  -2  -6   4  160.88   23.14
   2   6  -4  174.24   18.45
  -2  -6   3   92.65   16.57
  -2  -6   3   83.11   10.37
   2   6  -3   91.88   11.87
   2   6  -2  249.65   17.99
  -2  -6   2  225.77   25.75
  -2  -6   2  240.09   17.14
   2   6  -1 1724.70   59.21
  -2  -6   1 1625.92   58.94
  -2  -6   1 1775.94   81.55
   2   6   0 1202.36   65.82
   2   6   0 1098.06   39.39
  -2  -6   0 1084.85   60.25
  -2  -6  -1   60.55   12.99
   2   6   1   93.92   18.18
  -2  -6  -2 1351.13   51.60
  -2  -6  -2 1283.75   66.45
   2   6   2 1244.60   71.33
  -2  -6  -3  466.60   24.98
  -2  -6  -3  394.41   14.87
   2   6   3  453.61   39.76
  -2  -6  -3  484.31   36.45
  -2  -6  -4  885.72   39.90
  -2  -6  -4  804.50   31.60
  -2  -6  -4  888.30   52.13
  -2  -6  -5  294.12   21.60
  -2  -6  -5  271.10   18.74
   2   6   5  265.23   31.04
  -2  -6  -5  272.49   27.21
  -2  -6  -6 1098.80   51.51
  -2  -6  -6 1061.87   49.61
   2   6   6 1148.75   68.50
  -2  -6  -6 1136.22   60.91
   2   6   7  477.91   33.88
   2   6   7  540.30   44.19
  -2  -6  -7  532.35   38.95
  -2  -6  -7  523.44   34.39
  -2  -6  -8    5.59    6.33
  -2  -6  -8   18.96    8.57
   2   6   8    1.24    8.21
  -2  -6  -9   17.04    9.04
  -2  -6  -9   10.95    8.71
   2   6   9   20.73   11.26
   2   6  10  598.08   46.82
  -2  -6 -10  477.35   37.25
  -2  -6 -10  561.05   41.80
  -2  -6 -11    7.82    6.08
  -2  -6 -11    9.11    8.91
   2   6  11    8.95    9.72
  -2  -6 -12    7.92    8.84
   2   6  12   19.28   10.86
   2   6  13  296.03   33.02
  -2  -6 -13  346.27   37.34
  -2  -6 -14    9.89   11.17
  -2  -6 -15  212.18   32.63
   2   7 -13   40.17   20.28
   2   7 -13   36.98   19.40
   2   7 -12   75.14   25.67
   2   7 -12   62.18   20.90
   2   7 -11   10.45    9.01
   2   7 -11   -0.61   13.19
   2   7 -10  392.73   43.36
   2   7 -10  399.47   43.98
  -2  -7  10  446.83   42.07
  -2  -7   9   10.83    9.65
   2   7  -9   14.05   10.35
   2   7  -8 1034.03   66.63
  -2  -7   8 1147.44   70.88
  -2  -7   7  329.34   35.40
   2   7  -7  294.82   30.67
   2   7  -6  468.23   36.46
  -2  -7   6  482.56   43.28
  -2  -7   5   55.67   15.20
   2   7  -5   31.70    8.80
  -2  -7   4  140.73   23.52
   2   7  -4  143.61   16.16
   2   7  -3 1075.63   46.31
  -2  -7   3 1060.34   64.87
  -2  -7   3 1000.50   44.09
   2   7  -2  431.05   23.47
  -2  -7   2  437.55   39.19
  -2  -7   2  398.01   22.52
  -2  -7   1  128.40   20.87
   2   7  -1  128.31    9.57
  -2  -7   1  107.77   10.06
   2   7   0    7.90    9.39
  -2  -7   0    9.94    3.25
  -2  -7   0   14.72    8.68
  -2  -7  -1  142.36   11.91
  -2  -7  -1  139.72   21.10
   2   7   1  180.45   25.61
  -2  -7  -2  656.51   28.97
  -2  -7  -2  675.77   48.73
   2   7   2  701.66   53.40
  -2  -7  -3  465.93   23.67
  -2  -7  -3  405.16   36.68
   2   7   3  478.56   44.72
  -2  -7  -4   32.57    6.30
  -2  -7  -4   50.42   13.51
   2   7   4   31.89   13.74
  -2  -7  -5   25.30   10.59
  -2  -7  -5   40.01    7.88
  -2  -7  -5   32.04    4.63
   2   7   5   43.29   14.55
  -2  -7  -6 4014.53  130.16
   2   7   6 4229.07  164.12
  -2  -7  -6 4053.05  154.03
  -2  -7  -6 4184.86  135.12
  -2  -7  -7  237.90   20.96
   2   7   7  280.61   32.30
  -2  -7  -7  252.34   28.47
  -2  -7  -7  225.46   20.91
   2   7   8 1147.85   69.31
  -2  -7  -8 1020.23   61.14
  -2  -7  -8 1093.97   54.98
  -2  -7  -9   56.80   13.91
  -2  -7  -9   55.39   12.29
   2   7   9   76.31   18.14
   2   7  10 2053.21   99.08
  -2  -7 -10 1801.27   88.29
  -2  -7 -10 1949.13   87.14
  -2  -7 -11   55.24   11.98
  -2  -7 -11   53.68   13.54
   2   7  11   49.99   14.67
   2   7  12  544.05   47.60
  -2  -7 -12  590.35   45.79
   2   7  13 1254.96   76.15
  -2  -7 -13 1295.78   75.53
  -2  -7 -14  471.89   44.65
  -2  -7 -15   95.82   21.88
   2   8 -12   15.94   12.79
   2   8 -12   42.14   22.94
   2   8 -11  -10.68   18.47
   2   8 -11  -15.96   12.27
  -2  -8  10   -0.06    6.57
   2   8 -10   21.27   15.62
   2   8 -10    1.51   10.12
  -2  -8   9   -4.55    8.05
   2   8  -9    4.76   11.05
   2   8  -8  204.21   26.78
  -2  -8   8  242.70   32.79
  -2  -8   7   21.00   12.18
   2   8  -7    7.85    7.89
  -2  -8   6  212.00   30.61
   2   8  -6  181.84   21.70
   2   8  -5  258.85   23.46
  -2  -8   5  237.97   32.58
   2   8  -4 2783.68   99.71
  -2  -8   4 2953.30  131.37
  -2  -8   3  420.93   42.89
   2   8  -3  437.53   25.36
  -2  -8   3  452.74   25.99
   2   8  -2  777.31   31.75
  -2  -8   2  761.20   58.12
  -2  -8   2  761.68   33.76
   2   8  -1 1376.66   82.02
  -2  -8   1 1484.57   82.60
  -2  -8   1 1384.37   48.80
   2   8   0 1280.32   78.28
  -2  -8   0 1372.97   45.33
  -2  -8   0 1312.65   76.25
  -2  -8   0 1210.95   42.43
  -2  -8  -1 2678.84   78.13
  -2  -8  -1 2615.18  118.44
  -2  -8  -1 2496.32   76.56
   2   8   1 2827.07  126.54
  -2  -8  -2   13.95   10.03
  -2  -8  -2   35.31    4.31
   2   8   2   23.65   11.35
  -2  -8  -3 2633.70  115.71
   2   8   3 2795.65  123.98
  -2  -8  -3 2409.73   76.85
  -2  -8  -4   -0.74    6.90
  -2  -8  -4    1.97    2.80
   2   8   4   -2.56    9.75
  -2  -8  -5  298.60   33.12
   2   8   5  337.11   37.19
  -2  -8  -5  290.41   19.36
  -2  -8  -6  164.70   25.25
  -2  -8  -6  156.95    9.23
   2   8   6  216.13   29.77
  -2  -8  -6  171.28   15.79
  -2  -8  -7  285.87   18.20
   2   8   7  340.87   36.96
  -2  -8  -7  284.33   32.48
  -2  -8  -7  289.55   22.61
  -2  -8  -8  163.37   24.41
   2   8   8  152.63   25.49
  -2  -8  -8  186.41   19.18
  -2  -8  -9    4.96    7.77
  -2  -8  -9    2.66    6.30
   2   8   9   10.09    9.73
  -2  -8 -10   83.95   18.48
  -2  -8 -10   94.01   16.24
   2   8  10   88.31   19.83
  -2  -8 -11   -0.28    6.87
   2   8  11   -1.08    8.79
  -2  -8 -12  182.76   24.24
   2   8  12  188.65   28.44
   2   8  13   -0.74   10.25
   2   9 -11 1213.30   89.39
   2   9 -10  390.97   47.83
   2   9 -10  393.16   40.84
  -2  -9  10  347.15   40.52
   2   9  -9  889.13   59.90
  -2  -9   9  974.46   71.02
  -2  -9   8   -4.93    9.94
   2   9  -8    2.85    6.73
   2   9  -7  899.08   53.66
  -2  -9   7  995.44   71.18
   2   9  -6  931.89   51.29
  -2  -9   6 1037.40   72.42
  -2  -9   5   82.03   20.96
   2   9  -5   96.64   13.90
  -2  -9   4  200.31   31.15
   2   9  -4  175.37   16.31
  -2  -9   3   11.44   11.67
   2   9  -3    4.08    3.20
  -2  -9   2    6.50    8.32
   2   9  -1  401.22   43.56
  -2  -9   1  367.50   41.53
  -2  -9   0   24.51   13.25
   2   9   0    0.95   10.09
  -2  -9  -1  171.60   28.25
   2   9   1  147.92   27.18
  -2  -9  -2  626.17   54.15
   2   9   2  687.88   56.62
  -2  -9  -3  899.20   65.25
   2   9   3  926.81   66.79
  -2  -9  -4    4.86    8.02
   2   9   4   24.64   12.72
  -2  -9  -5  378.50   40.81
   2   9   5  397.31   41.93
  -2  -9  -6  124.82   24.57
   2   9   6  173.08   28.28
  -2  -9  -7 1171.70   75.28
   2   9   7 1180.35   75.16
  -2  -9  -8  132.56   23.93
   2   9   8  156.63   26.12
   2   9   9  245.91   33.44
  -2  -9  -9  305.31   36.19
  -2  -9 -10  112.78   21.87
   2   9  10  105.71   22.93
   2   9  11   21.18   12.47
   2   9  12    8.44   12.42
   2   9  13  321.40   38.44
  -2 -10  10   10.98   11.29
  -2 -10   9   97.75   23.64
  -2 -10   8   12.45   11.41
  -2 -10   7  186.30   32.51
  -2 -10   6   75.57   20.44
  -2 -10   5 1654.52  100.26
  -2 -10   4  232.74   34.97
  -2 -10   3  137.42   27.70
  -2 -10   2  228.32   34.20
   2  10  -1  366.77   43.82
  -2 -10   1  394.12   45.08
   2  10   0  475.98   48.47
  -2 -10   0  416.69   46.84
  -2 -10  -1   19.44   13.02
   2  10   1   10.71   12.69
  -2 -10  -2  354.72   43.41
   2  10   2  337.58   40.41
  -2 -10  -3  233.37   34.91
   2  10   3  256.37   34.80
  -2 -10  -4  241.65   35.00
   2  10   4  275.45   35.95
  -2 -10  -5   12.30   15.04
   2  10   5    2.63   11.45
  -2 -10  -6    4.10    8.87
   2  10   6    5.30    9.07
  -2 -10  -7   90.00   22.57
   2  10   7   78.02   20.04
  -2 -10  -8  470.35   48.74
   2  10   8  489.78   47.75
  -2 -10  -9  548.10   51.24
   2  10   9  575.12   52.04
   2  10  10   25.07   15.02
   2  10  11 1192.90   78.36
   2  10  12   76.51   20.16
  -2 -11   9  174.67   32.26
  -2 -11   8   20.88   14.37
  -2 -11   7  170.44   31.79
  -2 -11   6  169.86   32.48
  -2 -11   5   -4.25   11.35
  -2 -11   4   -5.70   11.38
  -2 -11   3  365.69   45.53
  -2 -11   2   13.09   11.80
   2  11  -1 1343.67   88.72
  -2 -11   1 1273.99   89.16
   2  11   0  580.37   54.87
  -2 -11   0  690.61   63.09
   2  11   1 1111.63   77.53
  -2 -11  -1 1145.46   83.97
  -2 -11  -2  349.86   44.07
   2  11   2  364.50   42.83
  -2 -11  -3  584.27   57.87
   2  11   3  569.01   53.52
  -2 -11  -4 1237.02   87.83
   2  11   4 1348.22   85.14
  -2 -11  -5  184.61   33.71
   2  11   5  229.29   33.90
  -2 -11  -6 1273.75   86.76
   2  11   6 1220.68   81.04
  -2 -11  -7   -9.76   15.02
   2  11   7   10.15   11.32
  -2 -11  -8  243.39   36.43
   2  11   8  216.10   32.32
  -2 -11  -9    2.44   11.04
   2  11   9  -11.85   14.05
   2  11  10  188.47   31.21
  -2 -12   5    3.99   13.03
  -2 -12   4 1526.12  102.46
  -2 -12   3  247.50   39.12
  -2 -12   2   41.51   20.60
   2  12  -1  252.87   38.13
  -2 -12   1  295.79   42.83
   2  12   0  113.84   25.65
  -2 -12   0  101.73   27.95
  -2 -12  -1   -3.65   12.96
   2  12   1   -6.79   12.87
  -2 -12  -2   86.23   24.17
   2  12   2   95.72   25.19
  -2 -12  -3    6.54   13.16
   2  12   3   21.04   14.94
  -2 -12  -4  -12.50   10.88
   2  12   4   -8.60   13.05
  -2 -12  -5  547.70   57.89
   2  12   5  544.60   53.30
  -2 -12  -6  383.40   47.45
   2  12   6  346.56   42.45
  -2 -12  -7   -5.06   12.79
   2  12   7    5.13   11.67
  -2 -12  -8  246.24   37.60
   2  13   0  387.07   46.22
  -2 -13   0  491.13   57.34
   2  13   1  -10.99   15.42
  -2 -13  -1  -41.24   19.77
  -2 -13  -2  125.28   31.54
   2  13   2  125.07   26.82
  -2 -13  -3  631.73   65.84
   2  13   3  630.24   58.63
  -2 -13  -4   19.58   13.83
  -2 -13  -5   37.84   17.69
  -2 -13  -6  -18.61   16.68
  -2 -13  -7   15.93   14.76
  -3  13   0  167.71   27.81
  -3  13  -1  -11.80   10.40
  -3  13  -2   18.55   11.11
  -3  13  -2  -27.20   13.06
  -3  13  -3   30.93   13.18
  -3  13  -3  -27.29   13.70
  -3  13  -4   -6.60   10.22
  -3  12   3    3.90   11.57
  -3  12   2   98.99   23.29
  -3  12   1  259.16   34.64
  -3  12   0   12.32    8.17
  -3  12   0   10.09   11.08
  -3  12  -1  531.67   45.08
  -3  12  -1  780.36   56.64
  -3  12  -2   -7.99    7.80
  -3  12  -2   14.34   10.74
  -3  12  -3   66.12   16.13
  -3  12  -3   20.13    9.80
  -3  12  -4   26.99   12.29
  -3  12  -4   -7.41    8.84
  -3  12  -5  302.03   37.83
  -3  12  -6   37.90   14.73
  -3  11   6   96.08   22.59
  -3  11   5    2.37   12.05
  -3  11   4   29.41   14.26
  -3  11   3   95.44   20.59
  -3  11   2  -22.78   14.00
  -3  11   1   14.11    8.18
  -3  11   1    5.54   10.88
  -3  11   0  271.54   28.88
  -3  11   0  297.12   34.37
  -3  11  -1  228.50   27.47
  -3  11  -1  223.94   30.10
  -3  11  -2   64.37   16.38
  -3  11  -2   25.32   10.87
  -3  11  -3  272.57   32.56
  -3  11  -3  409.29   37.91
  -3  11  -4   -5.64    9.48
  -3  11  -4   -6.11    9.44
  -3  11  -5 1150.22   76.87
  -3  11  -5 1342.93   72.42
  -3  11  -6    6.20   10.48
  -3  11  -7  714.93   61.39
  -3  11  -8  251.17   37.32
   3 -10  -6  331.90   34.97
  -3  10   5 1612.51   89.02
   3 -10  -5 1421.50   79.71
  -3  10   4  314.95   36.31
   3 -10  -4  277.18   32.28
  -3  10   3   96.86   20.82
   3 -10  -3   57.80   15.98
  -3  10   2 1176.79   60.01
   3 -10  -2 1270.66   73.96
  -3  10   2 1396.18   77.23
  -3  10   1   65.13   16.73
  -3  10   1   68.30   13.62
   3 -10  -1   50.36   14.41
  -3  10   0  386.47   33.28
   3 -10   0  403.44   37.48
  -3  10   0  428.77   40.44
  -3  10  -1   -1.29    8.54
  -3  10  -1   12.45    8.40
  -3  10  -2 1144.25   68.09
  -3  10  -2 1147.59   65.82
  -3  10  -3   17.37   11.41
  -3  10  -3   -2.61    8.04
  -3  10  -4   71.06   15.80
  -3  10  -4   59.65   16.18
  -3  10  -5   57.28   16.79
  -3  10  -5   90.72   17.43
  -3  10  -6   57.98   16.90
  -3  10  -6   63.21   15.17
  -3  10  -7   71.27   20.19
  -3  10  -8   23.64   14.11
  -3  10  -9   58.30   19.53
   3  -9 -10  272.56   39.70
   3  -9  -9  152.27   27.98
   3  -9  -8  167.18   27.99
   3  -9  -7   50.51   16.36
   3  -9  -6   48.05   14.98
   3  -9  -5  193.71   26.63
   3  -9  -4   45.89   14.19
   3  -9  -3  304.00   33.82
  -3   9   3  257.03   21.70
  -3   9   2  425.74   30.39
   3  -9  -2  506.83   44.25
  -3   9   1   37.60    9.93
   3  -9  -1   37.29   13.66
  -3   9   0   38.19   12.23
  -3   9   0   26.34    7.28
  -3   9   0   40.51   10.57
   3  -9   0   27.99   11.53
  -3   9  -1  250.85   20.51
  -3   9  -1  261.81   26.26
  -3   9  -1  246.50   28.05
   3  -9   1  200.85   26.85
  -3   9  -2  444.71   28.32
  -3   9  -2  423.79   35.71
  -3   9  -2  397.27   36.82
  -3   9  -3   33.24   11.11
  -3   9  -3   25.32    7.31
  -3   9  -3   16.29    8.98
  -3   9  -4 1021.66   49.67
  -3   9  -4 1095.13   65.44
  -3   9  -4 1123.27   61.95
  -3   9  -5   59.21   15.98
  -3   9  -5   60.65   11.90
  -3   9  -5   75.75   15.00
  -3   9  -6  227.22   22.20
  -3   9  -6  231.52   31.38
  -3   9  -6  249.28   25.78
  -3   9  -7   83.31   20.24
  -3   9  -7   97.58   15.46
  -3   9  -8  268.78   35.71
  -3   9  -8  237.73   24.80
  -3   9  -9  296.56   39.19
  -3   9  -9  293.92   29.30
  -3   9 -10   10.63    8.71
  -3   9 -10    2.98   12.45
  -3   9 -11   67.59   16.44
  -3   9 -12   27.47   12.46
   3  -8 -12  268.92   45.50
   3  -8 -11   61.28   21.99
   3  -8 -10  308.81   43.08
   3  -8  -9  196.33   32.46
   3  -8  -8  216.89   32.16
   3  -8  -7   25.56   12.72
   3  -8  -6  704.11   53.92
   3  -8  -5  408.49   39.28
  -3   8   4   75.69    9.53
   3  -8  -4   88.29   18.67
  -3   8   3  111.22   12.67
   3  -8  -3  128.41   21.70
  -3   8   2    4.23    4.57
   3  -8  -2   17.95   11.39
  -3   8   1   57.25   10.59
   3  -8  -1   38.27   13.82
   3  -8   0  128.29   23.84
  -3   8   0  112.44   15.55
  -3   8  -1    1.65    4.48
  -3   8  -1    0.81    5.33
   3  -8   1   -1.95    8.66
  -3   8  -2   17.91    8.44
  -3   8  -2   25.00    7.64
  -3   8  -2   22.90    8.57
  -3   8  -3  834.93   44.37
  -3   8  -3  875.97   53.41
  -3   8  -3  841.17   50.89
  -3   8  -4  244.51   22.21
  -3   8  -4  244.18   28.37
  -3   8  -4  237.25   25.27
  -3   8  -5   65.63   16.74
  -3   8  -5   86.08   14.80
  -3   8  -5   90.36   13.97
  -3   8  -6  534.90   36.07
  -3   8  -6  512.34   35.52
  -3   8  -6  547.42   46.07
  -3   8  -7  106.71   16.92
  -3   8  -7  100.99   15.89
  -3   8  -7  118.23   22.37
  -3   8  -8 1052.13   58.24
  -3   8  -8 1035.05   70.46
  -3   8  -9   -5.87   12.21
  -3   8  -9   -7.17   10.21
  -3   8 -10 1970.94  107.86
  -3   8 -10 1950.12   92.18
  -3   8 -11   62.81   16.21
  -3   8 -12  241.12   30.65
  -3   8 -13  248.86   32.86
   3  -7 -12  -29.10   18.91
   3  -7 -11    6.59   12.37
   3  -7 -10  -10.31   12.48
   3  -7  -9   34.98   18.79
   3  -7  -8  258.05   35.91
   3  -7  -7  217.59   31.44
   3  -7  -6  286.70   34.64
   3  -7  -5  495.78   43.60
  -3   7   4 1168.76   43.37
   3  -7  -4 1232.67   70.85
  -3   7   3   54.15    7.89
   3  -7  -3   42.27   13.53
  -3   7   2 1236.93   51.30
   3  -7  -2 1287.42   73.14
  -3   7   1 1611.59   63.97
   3  -7  -1 1524.29   83.81
   3  -7   0 1648.20   88.30
  -3   7   0 1627.62   67.87
  -3   7  -1  833.69   45.01
  -3   7  -1  816.65   44.67
   3  -7   1  768.15   54.85
  -3   7  -2   56.46   12.09
   3  -7   2   45.06   12.97
  -3   7  -2   45.39   10.69
  -3   7  -3 2154.91   86.55
  -3   7  -3 2126.41   87.42
  -3   7  -3 2183.56   91.39
  -3   7  -4  190.46   20.27
  -3   7  -4  193.01   21.67
  -3   7  -4  188.55   23.63
  -3   7  -5  862.46   47.69
  -3   7  -5  855.81   47.39
  -3   7  -5  778.99   52.94
  -3   7  -6  257.37   25.04
  -3   7  -6  263.08   23.14
  -3   7  -6  245.38   29.20
  -3   7  -7   64.22   11.76
  -3   7  -7   69.08   14.13
  -3   7  -7   76.57   16.92
  -3   7  -8   45.27   15.13
  -3   7  -8   36.18   11.65
  -3   7  -9   60.36   14.33
  -3   7  -9   48.67   17.23
  -3   7 -10   75.57   16.37
  -3   7 -11   40.95   14.51
  -3   7 -12  410.03   40.92
  -3   7 -13   18.60   13.53
  -3   7 -14  354.75   41.37
   3  -6 -12   97.94   28.99
   3  -6 -11  493.03   57.73
   3  -6 -10   68.94   20.25
   3  -6  -9 1272.60   87.55
   3  -6  -8  779.87   63.25
   3  -6  -7  733.08   58.28
   3  -6  -6   92.29   20.51
   3  -6  -5  371.06   38.30
   3  -6  -4   86.66   18.93
  -3   6   3   51.67    6.37
   3  -6  -3   37.23   13.32
  -3   6   2  246.42   16.84
   3  -6  -2  253.62   29.43
  -3   6   1   61.55    9.05
   3  -6  -1   90.14   17.89
   3  -6   0  285.47   33.03
  -3   6   0  318.17   22.90
  -3   6  -1  503.83   31.40
   3  -6   1  454.94   42.47
  -3   6  -2  118.48   16.28
   3  -6   2  134.88   22.22
  -3   6  -2  121.94   15.77
  -3   6  -3   90.45   14.28
  -3   6  -3   80.69   14.12
   3  -6   3   62.93   15.25
  -3   6  -4 1106.85   57.73
  -3   6  -4 1172.67   59.85
  -3   6  -5  663.97   41.57
  -3   6  -5  633.19   37.61
  -3   6  -5  651.31   45.11
  -3   6  -6   16.67    8.03
  -3   6  -6   10.45    5.45
  -3   6  -6    8.64    7.93
  -3   6  -7 1491.50   79.53
  -3   6  -7 1553.34   74.64
  -3   6  -7 1649.69   65.54
  -3   6  -8   -0.60    6.31
  -3   6  -8   12.74    8.85
  -3   6  -8    9.18    3.44
  -3   6  -9  207.63   25.72
  -3   6 -10   48.12   13.66
  -3   6 -11  661.48   51.58
  -3   6 -12  169.89   26.91
  -3   6 -13   85.82   21.37
  -3   6 -14    6.57   10.70
   3  -5 -12  182.57   36.42
   3  -5 -11   93.71   27.56
   3  -5 -10   17.04   14.87
   3  -5  -9  135.96   27.66
   3  -5  -8  121.02   24.24
   3  -5  -7  844.75   62.66
   3  -5  -6   61.95   16.73
   3  -5  -5  440.92   41.18
   3  -5  -4  252.24   30.17
  -3   5   4  318.92   24.60
   3  -5  -3 1780.14   91.34
  -3   5   3 2084.77   80.89
   3  -5  -2  538.78   43.25
   3  -5  -1  238.91   28.73
  -3   5   1  277.09   17.94
   3  -5   0  504.35   43.34
  -3   5   0  555.38   29.32
  -3   5  -1   45.70    8.44
   3  -5   1   41.63   12.60
  -3   5  -2  186.16   20.15
   3  -5   2  142.70   23.11
  -3   5  -2  177.66   17.99
  -3   5  -3   33.75    9.44
   3  -5   3   37.10   12.85
  -3   5  -3   52.34   10.60
  -3   5  -4   10.43    6.45
  -3   5  -4   21.44    8.25
  -3   5  -5   11.31    7.48
  -3   5  -5    3.12    5.64
  -3   5  -6  614.29   42.07
  -3   5  -6  602.44   41.18
  -3   5  -6  579.40   31.91
  -3   5  -7  468.46   37.61
  -3   5  -7  522.64   28.12
  -3   5  -8  450.61   37.47
  -3   5  -9  205.44   25.75
  -3   5 -10   -2.82    7.85
  -3   5 -11 1768.71   92.76
  -3   5 -12    5.02   10.80
  -3   5 -13 1186.65   78.56
  -3   5 -14  112.01   25.40
   3  -4 -13   67.54   26.80
   3  -4 -12  621.48   67.77
   3  -4 -11  -12.34   17.06
   3  -4 -10   -0.22   11.72
   3  -4  -9  221.86   34.84
   3  -4  -8  408.36   44.72
   3  -4  -7   75.82   19.50
  -3   4   6  127.58   13.43
   3  -4  -6  118.00   21.79
   3  -4  -5   13.90    9.42
   3  -4  -4  184.94   25.46
   3  -4  -3 2351.60  105.29
   3  -4  -2    6.25    6.57
   3  -4  -1  438.00   38.23
   3  -4   0  789.04   53.97
   3  -4   1 4617.39  175.24
   3  -4   2  806.82   57.22
  -3   4  -3  607.52   38.97
   3  -4   3  593.54   46.89
  -3   4  -4 1897.81   83.91
  -3   4  -5  399.11   33.97
  -3   4  -6  966.18   54.92
  -3   4  -6  867.73   36.84
  -3   4  -7   22.55    4.62
  -3   4  -7   28.46   10.90
  -3   4  -8 2514.94  108.46
  -3   4  -9   18.82   10.89
  -3   4 -10   69.63   17.27
  -3   4 -11   27.33   12.12
  -3   4 -12   41.33   14.92
  -3   4 -13   10.64   13.33
  -3   4 -14   40.26   17.04
  -3   4 -15  105.98   26.44
   3  -3 -13  553.82   66.42
   3  -3 -12  296.35   45.90
   3  -3 -11  112.38   28.92
   3  -3 -10 2073.10  119.15
   3  -3  -9  205.24   32.76
   3  -3  -8  592.43   54.07
  -3   3   7  138.50   12.36
   3  -3  -7  152.59   26.02
   3  -3  -6 3060.81  132.37
   3  -3  -5 1388.32   76.94
   3  -3  -4  994.74   61.22
   3  -3  -3  136.45   20.69
   3  -3  -2 1310.31   71.12
   3  -3  -1   88.43   16.96
   3  -3   0  128.09   20.77
  -3   3   0  117.27   17.23
   3  -3   1  294.68   33.01
   3  -3   2  199.79   16.45
   3  -3   2  196.86   28.17
   3  -3   3  511.74   29.53
  -3   3  -3  466.24   34.06
   3  -3   3  419.85   40.16
  -3   3  -4 1556.46   74.80
   3  -3   4 1735.11   68.09
  -3   3  -5   26.85   10.56
  -3   3  -6   19.10    8.81
  -3   3  -7 1253.27   68.90
  -3   3  -8 1265.29   70.43
  -3   3  -9  145.55   23.02
  -3   3 -10  750.27   56.32
  -3   3 -11   95.93   21.73
  -3   3 -12  696.28   58.39
  -3   3 -13  173.19   30.18
  -3   3 -14  356.54   45.30
  -3   3 -15  215.82   37.40
   3  -2 -13  343.17   51.88
   3  -2 -12    7.07   12.42
   3  -2 -11   71.62   22.88
   3  -2 -10    7.87   11.84
   3  -2  -9  124.09   25.81
   3  -2  -8   -1.72    9.77
   3  -2  -7    2.43    7.73
   3  -2  -6  608.72   49.02
   3  -2  -5  240.40   28.86
   3  -2  -4  617.65   45.85
   3  -2  -3   28.41   10.39
   3  -2  -2  569.90   42.81
   3  -2  -1  151.09    9.79
   3  -2  -1  178.03   23.62
   3  -2   0 2605.63   81.85
   3  -2   0 2444.98  107.79
   3  -2   1 1254.26   72.25
   3  -2   1 1427.34   52.53
   3  -2   2  648.49   51.46
   3  -2   2  661.63   32.57
   3  -2   3  309.41   34.49
  -3   2  -3  287.06   26.86
   3  -2   3  351.53   23.31
   3  -2   4   63.47   10.98
  -3   2  -4   51.38   12.29
   3  -2   4   65.82   16.06
   3  -2   5   64.68   11.30
  -3   2  -5   64.12   15.23
  -3   2  -6   13.86    8.72
  -3   2  -7  144.07   22.17
  -3   2  -8    3.91    9.49
  -3   2  -9 1115.16   69.40
  -3   2 -10  296.70   35.47
  -3   2 -11  144.01   25.40
  -3   2 -12  297.31   39.46
  -3   2 -13  369.92   45.64
  -3   2 -14 1097.42   84.15
  -3   2 -15  -11.45   14.59
   3  -1 -13  230.40   42.37
   3  -1 -12   20.57   17.57
   3  -1 -11  767.05   71.24
   3  -1 -10  521.70   55.93
   3  -1  -9  349.05   42.29
   3  -1  -8  182.38   28.77
  -3   1   8  189.00   15.76
   3  -1  -7  343.96   38.14
   3  -1  -6    0.42    8.60
   3  -1  -5    3.86    6.81
   3  -1  -4  333.00   32.26
   3  -1  -3  461.25   37.65
   3  -1  -2 1755.52   82.53
   3  -1  -1 1909.54   87.20
   3  -1   0  640.99   44.67
   3  -1   1  112.80   18.80
   3  -1   2 3029.08  130.43
   3  -1   3   23.07   10.76
   3  -1   4 3392.89  110.61
  -3   1  -4 3167.10  123.40
  -3   1  -5 3747.62  141.52
   3  -1   5 3188.51  114.88
  -3   1  -6 3565.29  135.05
  -3   1  -6 2579.48   85.77
  -3   1  -7  755.23   54.74
  -3   1  -7  566.14   26.07
  -3   1  -8  114.10   21.36
  -3   1  -9 2774.95  128.67
  -3   1 -10  145.35   26.23
  -3   1 -11  974.74   72.24
  -3   1 -12   95.08   25.73
  -3   1 -13  196.91   35.14
  -3   1 -14   80.54   24.73
  -3   1 -15    9.54   16.52
   3   0 -13  325.93   53.50
   3   0 -12  106.45   29.29
   3   0 -11   96.68   27.32
   3   0 -10  300.74   42.04
   3   0  -9  522.47   53.52
  -3   0   9  550.91   29.76
   3   0  -8  908.98   67.92
  -3   0   8  977.69   44.86
   3   0  -7 2000.75  101.97
   3   0  -6  102.77    9.38
   3   0  -6  117.05   21.19
   3   0  -5 1654.36   55.35
   3   0  -5 1656.66   83.37
   3   0  -4  960.89   57.70
   3   0  -3 3857.03  143.64
   3   0  -2 2306.86   98.08
   3   0  -1 1503.82   73.25
   3   0   0  310.03   28.96
   3   0   1 1944.45   89.55
   3   0   2  245.44   28.74
   3   0   3  127.77   20.11
  -3   0  -4  266.10   26.84
   3   0   4  286.88   31.51
  -3   0  -5  155.31   22.16
  -3   0  -5  136.81   22.92
  -3   0  -5  160.55   13.78
  -3   0  -6  426.32   40.99
  -3   0  -6  443.99   24.81
  -3   0  -7  569.78   46.08
  -3   0  -7  459.38   27.24
  -3   0  -8    8.61   10.04
  -3   0  -9  162.91   27.61
  -3   0 -10 1468.66   87.10
  -3   0 -11  415.81   46.06
  -3   0 -12   22.64   15.03
  -3   0 -13  524.02   55.40
  -3   0 -14   -7.64   12.82
  -3   0 -15  274.92   44.14
   3   1 -13  583.06   71.77
   3   1 -12  488.16   61.21
   3   1 -11  153.16   33.60
   3   1 -10  996.93   79.59
  -3  -1   9   53.73    9.57
   3   1  -9   36.94   16.58
   3   1  -8   88.54   21.54
  -3  -1   8   58.43   10.73
  -3  -1   7    8.41    5.75
   3   1  -7    2.10    3.83
   3   1  -7   -0.99    7.67
   3   1  -6  146.55   23.42
   3   1  -5    3.36    5.72
   3   1  -4   49.98   12.48
   3   1  -3  615.00   43.20
  -3  -1   3  736.48   45.39
   3   1  -2  246.11   25.46
   3   1  -1 2093.06   90.35
   3   1   0   37.72   10.49
   3   1   1  340.67   30.91
   3   1   2  138.59   20.79
   3   1   3 2374.19  104.07
  -3  -1  -4 1578.63   75.64
  -3  -1  -4 1759.39   65.22
  -3  -1  -5 1008.84   59.14
  -3  -1  -5 1056.88   62.13
  -3  -1  -5  998.71   45.49
  -3  -1  -6   23.90    9.72
  -3  -1  -6   25.68   10.70
  -3  -1  -6   25.82    6.36
  -3  -1  -7   81.15   12.58
  -3  -1  -7   61.67   13.99
  -3  -1  -8  253.45   30.89
  -3  -1  -9    8.24    8.70
  -3  -1 -10   -1.20    7.26
  -3  -1 -11   18.69   12.29
  -3  -1 -12  193.00   31.54
  -3  -1 -13  483.22   51.61
  -3  -1 -14  280.54   40.87
  -3  -1 -15   27.14   13.69
   3   2 -13  544.36   68.25
   3   2 -12   69.18   26.71
   3   2 -11   79.90   25.30
   3   2 -10  884.56   75.48
   3   2 -10  895.92   51.45
   3   2  -9  314.04   26.97
  -3  -2   9  307.84   26.93
   3   2  -9  230.66   35.67
   3   2  -8  581.84   53.58
  -3  -2   8  675.89   40.46
  -3  -2   7   54.46   11.05
   3   2  -7   48.44   13.86
   3   2  -6 2216.37  104.94
  -3  -2   6 2208.18   87.26
   3   2  -5   -3.58    6.25
   3   2  -4   83.87   15.78
   3   2  -3  681.91   45.49
  -3  -2   3  809.85   46.63
   3   2  -2 1356.09   66.59
   3   2  -1   58.84   11.85
   3   2   0  491.59   34.82
  -3  -2   0  497.56   32.24
   3   2   1  215.45   22.87
  -3  -2  -1  216.67   20.12
  -3  -2  -2    5.65    4.45
   3   2   2    5.17    7.11
  -3  -2  -2   11.55    6.03
   3   2   3 2972.69  118.93
  -3  -2  -3 3202.92  112.56
  -3  -2  -3 2900.01  103.52
  -3  -2  -4  626.52   40.99
  -3  -2  -4  613.41   35.26
  -3  -2  -5  137.44   19.84
  -3  -2  -5  133.03   15.86
  -3  -2  -6  245.58   28.07
  -3  -2  -6  246.35   23.00
  -3  -2  -7 4952.57  174.29
  -3  -2  -7 4540.85  160.18
  -3  -2  -8  540.94   44.01
  -3  -2  -9  988.24   63.57
  -3  -2 -10 1410.12   81.13
  -3  -2 -11 1109.67   73.30
  -3  -2 -12  380.69   42.84
  -3  -2 -13   19.25   13.87
  -3  -2 -14 1307.48   90.31
  -3  -2 -15  -41.31   18.62
   3   3 -13  500.24   66.54
   3   3 -12   14.43   16.68
   3   3 -11  144.09   32.82
   3   3 -10  106.75   18.60
   3   3 -10   43.49   18.97
  -3  -3   9   29.60    8.26
   3   3  -9   45.03   11.16
   3   3  -9   26.11   12.05
   3   3  -8   71.13   13.57
  -3  -3   8   57.29   12.38
   3   3  -8   64.72   19.49
   3   3  -7 1278.03   79.42
  -3  -3   7 1445.39   68.48
   3   3  -6  285.14   32.14
  -3  -3   6  276.20   25.74
   3   3  -5  481.55   40.18
  -3  -3   5  512.64   35.12
   3   3  -4 1724.29   81.16
   3   3  -3  672.84   43.14
   3   3  -2 1651.07   73.57
   3   3  -1 1628.24   71.54
  -3  -3   0 4777.55  160.65
  -3  -3   0 5292.78  162.16
   3   3   0 5047.83  166.57
  -3  -3  -1  642.13   36.49
   3   3   1  632.66   40.26
  -3  -3  -1  675.95   36.19
   3   3   2  719.31   45.97
  -3  -3  -2  730.07   38.41
  -3  -3  -2  703.36   39.44
  -3  -3  -3  107.41   15.73
   3   3   3   93.75   15.79
  -3  -3  -3  115.18   14.32
  -3  -3  -3  108.15   14.86
  -3  -3  -4 3400.23  123.31
  -3  -3  -4 3209.50  116.01
  -3  -3  -4 3421.00  120.57
  -3  -3  -5  344.67   30.39
  -3  -3  -5  331.67   28.50
  -3  -3  -6  313.95   29.96
  -3  -3  -6  256.48   25.79
  -3  -3  -7   13.03    8.49
  -3  -3  -7   -1.18    7.50
  -3  -3  -8   29.51   10.83
  -3  -3  -9   62.47   15.71
  -3  -3 -10  582.56   47.74
  -3  -3 -11   55.42   16.24
  -3  -3 -12   20.99   14.08
  -3  -3 -13  779.56   64.12
  -3  -3 -14  824.44   68.67
  -3  -3 -15   76.00   24.62
   3   4 -13   83.96   28.09
   3   4 -12  899.61   83.84
   3   4 -11   32.34   13.69
   3   4 -11   34.96   16.37
   3   4 -10  579.72   45.84
   3   4 -10  394.79   49.17
   3   4  -9 1330.08   71.20
  -3  -4   9 1418.56   72.58
   3   4  -8  704.67   59.35
  -3  -4   8  980.68   57.55
   3   4  -7 1042.43   69.17
  -3  -4   7 1167.83   62.89
  -3  -4   6    7.34    6.58
   3   4  -6   21.43   10.32
   3   4  -5   95.59   17.53
  -3  -4   5  131.38   18.06
   3   4  -4  366.91   31.54
  -3  -4   4  350.68   29.86
   3   4  -3  222.62   22.95
  -3  -4   3  254.38   24.44
   3   4  -2  101.43   14.60
   3   4  -1    1.97    4.09
  -3  -4   1   -2.00    4.03
   3   4   0  673.79   38.59
  -3  -4   0  681.71   35.54
  -3  -4  -1  112.10   12.53
   3   4   1  124.77   15.93
   3   4   2 1606.63   70.74
  -3  -4  -2 1612.10   62.91
  -3  -4  -3    6.99    5.19
  -3  -4  -3    8.77    5.00
  -3  -4  -4  486.82   33.52
  -3  -4  -4  437.80   28.06
  -3  -4  -5  266.97   25.87
  -3  -4  -5  200.31   19.37
   3   4   6 2540.11  102.58
  -3  -4  -6 2588.91  104.34
   3   4   7 1452.45   70.15
  -3  -4  -7 1465.49   72.70
  -3  -4  -7 1489.97   74.51
   3   4   8  223.42   24.18
  -3  -4  -8  248.20   27.54
   3   4   9  201.56   23.21
  -3  -4  -9  206.36   26.00
  -3  -4 -10  202.96   27.53
   3   4  10  247.39   25.81
  -3  -4 -11   31.36   13.36
   3   4  11   42.59   10.92
  -3  -4 -12   53.57   17.09
  -3  -4 -13  121.94   25.03
  -3  -4 -14   18.18   12.49
  -3  -4 -15  269.94   39.81
   3   5 -12    0.27   13.73
   3   5 -11   28.50   15.18
   3   5 -11   -7.17   12.72
   3   5 -10  519.63   46.46
   3   5 -10  462.83   51.85
  -3  -5  10  515.42   43.17
   3   5  -9  354.85   37.20
   3   5  -9  292.23   38.46
  -3  -5   9  309.04   33.05
   3   5  -8  732.05   58.12
  -3  -5   8  789.45   55.25
  -3  -5   7  130.31   20.76
   3   5  -7  153.82   23.92
  -3  -5   6   47.01   13.05
   3   5  -6   42.92   12.78
   3   5  -5 1977.57   89.68
  -3  -5   5 1996.23   90.82
   3   5  -4  736.44   45.49
  -3  -5   4  737.54   47.77
   3   5  -3 1022.10   52.87
  -3  -5   3  988.33   57.12
   3   5  -2  401.76   29.15
  -3  -5   2  426.87   33.70
   3   5  -1  598.49   35.32
  -3  -5   1  574.98   39.84
   3   5   0   -0.57    3.52
  -3  -5   0   -1.19    2.97
   3   5   1    4.73    4.12
  -3  -5  -1   11.04    4.22
   3   5   2  845.90   43.35
  -3  -5  -2  915.06   39.21
  -3  -5  -3  150.50   17.12
  -3  -5  -3  150.29   13.76
  -3  -5  -4  464.33   31.72
  -3  -5  -4  415.34   25.53
   3   5   5 1080.86   60.96
  -3  -5  -5 1143.50   56.07
   3   5   6  812.70   52.77
  -3  -5  -6  834.16   48.51
  -3  -5  -7   20.01    8.60
   3   5   7   21.44   10.46
  -3  -5  -8 1199.42   64.36
   3   5   8 1172.58   66.73
  -3  -5  -9  152.21   21.57
   3   5   9  103.75   19.43
  -3  -5 -10  930.10   60.18
   3   5  10  893.96   57.02
   3   5  11 1169.67   66.20
  -3  -5 -11 1146.07   71.00
  -3  -5 -12 1727.22   79.83
  -3  -5 -12 1655.07   92.04
   3   5  12 1686.55   83.29
  -3  -5 -13  116.05   22.96
  -3  -5 -14  344.44   41.46
  -3  -5 -15  410.49   47.33
   3   6 -12  255.77   41.65
   3   6 -11  202.31   33.30
   3   6 -11  201.57   36.29
   3   6 -10  320.57   39.16
  -3  -6  10  401.08   40.37
   3   6 -10  297.61   40.10
  -3  -6   9   86.16   20.23
   3   6  -9   70.38   19.15
  -3  -6   8    5.61    8.69
   3   6  -8   20.68   12.13
   3   6  -7  328.91   34.52
  -3  -6   7  345.06   36.88
  -3  -6   6   10.68    8.02
   3   6  -6   23.82   11.34
   3   6  -5  353.01   31.26
  -3  -6   5  321.35   33.90
   3   6  -4 1620.36   73.70
  -3  -6   4 1574.29   81.37
   3   6  -3  308.56   25.77
  -3  -6   3  301.61   30.88
   3   6  -2  513.23   32.35
  -3  -6   2  483.09   30.66
  -3  -6   2  520.44   39.99
   3   6  -1 1134.21   50.87
  -3  -6   1 1111.89   62.81
   3   6   0  542.14   31.10
  -3  -6   0  505.82   39.16
  -3  -6  -1 1570.13   56.54
   3   6   1 1615.09   62.69
  -3  -6  -1 1657.56   78.28
  -3  -6  -2  941.48   45.71
  -3  -6  -2  887.91   35.93
  -3  -6  -2  995.76   56.21
  -3  -6  -3 3372.41  112.79
  -3  -6  -3 3129.05   99.90
   3   6   4  150.38   23.79
  -3  -6  -4  150.54   17.29
  -3  -6  -4  137.34   12.23
   3   6   5  433.45   39.76
  -3  -6  -5  422.16   30.14
  -3  -6  -5  356.80   22.45
  -3  -6  -6   85.47   13.96
  -3  -6  -6   56.91    9.24
   3   6   6   74.50   17.37
  -3  -6  -7 2495.87   99.34
   3   6   7 2430.02  113.43
  -3  -6  -8  134.89   19.09
   3   6   8  130.33   22.40
  -3  -6  -9  187.50   24.00
   3   6   9  183.56   26.80
  -3  -6  -9  196.22   24.34
  -3  -6 -10    4.90    7.38
  -3  -6 -10   12.82    9.81
   3   6  10    7.34   10.08
  -3  -6 -11   11.27    9.51
  -3  -6 -11    0.67    7.03
   3   6  11   23.85   11.82
  -3  -6 -12  143.84   24.19
   3   6  12  134.70   22.85
  -3  -6 -13  225.46   31.80
  -3  -6 -14   32.36   13.32
  -3  -6 -15   48.38   17.86
   3   7 -12   50.35   23.52
   3   7 -11 1627.20  100.04
   3   7 -11 1444.62   95.75
  -3  -7  10   38.78   14.67
   3   7 -10   29.71   13.78
   3   7 -10   31.56   14.29
   3   7  -9  812.49   61.52
  -3  -7   9  921.51   65.47
  -3  -7   8  133.02   25.25
   3   7  -8  120.28   22.07
   3   7  -7  683.22   49.90
  -3  -7   7  787.59   60.13
   3   7  -6  455.67   37.68
  -3  -7   6  458.50   43.64
   3   7  -5  510.87   37.90
  -3  -7   5  493.70   45.22
   3   7  -4 1617.82   71.25
  -3  -7   4 1492.03   83.58
  -3  -7   3  131.24   22.27
   3   7  -3  142.92   16.70
  -3  -7   2    4.13    3.86
  -3  -7   2   13.57    8.77
   3   7  -2    9.15    5.04
  -3  -7   1   95.10   18.74
   3   7  -1   76.28   10.36
  -3  -7   0  117.94   19.99
   3   7   0  113.61   11.81
  -3  -7  -1   -0.49    6.34
  -3  -7  -2   61.41    9.98
  -3  -7  -2   80.61   16.77
   3   7   3  531.64   46.39
  -3  -7  -3  500.00   29.24
  -3  -7  -3  360.08   16.20
  -3  -7  -3  398.84   36.59
   3   7   4    1.14    9.27
  -3  -7  -4   11.01    6.14
  -3  -7  -4   18.11   10.03
  -3  -7  -4   11.94    3.23
   3   7   5 1037.79   69.91
  -3  -7  -5 1057.06   50.33
  -3  -7  -5  983.79   61.38
  -3  -7  -6    2.47    7.53
  -3  -7  -6   12.86    7.25
   3   7   6   17.20   12.54
  -3  -7  -7  841.66   46.23
  -3  -7  -7  726.42   52.60
   3   7   7  775.79   60.55
  -3  -7  -8   16.45   10.30
  -3  -7  -8    6.47    8.05
   3   7   8    8.39   10.32
  -3  -7  -9  903.06   58.70
   3   7   9  860.67   64.15
  -3  -7  -9  901.25   53.46
  -3  -7 -10  718.37   51.33
   3   7  10  634.37   55.50
  -3  -7 -10  738.50   49.59
  -3  -7 -11  586.90   45.37
   3   7  11  520.03   49.63
  -3  -7 -11  608.94   46.36
  -3  -7 -12   41.76   14.51
   3   7  12   46.16   15.32
  -3  -7 -13   77.41   19.07
  -3  -7 -14   84.07   20.42
   3   8 -11  -12.53   16.00
   3   8 -11   51.11   19.60
  -3  -8  10   44.75   16.40
   3   8 -10   39.43   18.07
   3   8 -10   -8.74   10.27
  -3  -8   9   -1.95   12.08
   3   8  -9    0.81    8.29
  -3  -8   8  224.41   33.22
   3   8  -8  195.34   27.35
   3   8  -7 1189.21   67.54
  -3  -8   7 1279.31   82.22
  -3  -8   6   48.35   16.99
   3   8  -6   80.40   15.55
   3   8  -5  267.16   25.58
  -3  -8   5  301.56   36.67
   3   8  -4  560.58   36.02
  -3  -8   4  580.94   51.17
   3   8  -3  711.83   38.04
  -3  -8   3  640.69   52.83
   3   8  -2  504.48   28.22
  -3  -8   2  468.07   44.31
  -3  -8   1   40.44   14.65
   3   8  -1   35.59    5.90
  -3  -8   0 2732.77  122.32
  -3  -8  -1   97.70   11.42
  -3  -8  -1  105.76   21.07
  -3  -8  -2  129.80   13.18
  -3  -8  -2  102.86   20.39
   3   8   3  158.97   28.41
  -3  -8  -3  170.54   15.78
  -3  -8  -3  143.36   23.81
   3   8   4  628.20   55.02
  -3  -8  -4  604.93   32.60
  -3  -8  -4  582.36   48.22
  -3  -8  -5   61.70   16.00
  -3  -8  -5   68.26   10.58
   3   8   5   51.17   17.21
  -3  -8  -6   47.36   14.45
  -3  -8  -6   47.09    9.85
   3   8   6   36.11   17.69
  -3  -8  -7    0.63    8.19
  -3  -8  -7   13.69    7.12
   3   8   7  -11.11   14.02
  -3  -8  -8   23.39   13.08
  -3  -8  -8    2.40    6.24
   3   8   8    6.60   11.57
  -3  -8  -9  739.50   55.52
   3   8   9  737.66   62.36
  -3  -8  -9  808.66   48.02
   3   8  10  269.15   37.88
  -3  -8 -10  282.42   33.37
  -3  -8 -10  285.36   28.31
  -3  -8 -11  114.02   21.54
  -3  -8 -11  146.06   21.32
   3   8  11  101.88   25.07
   3   8  12  -10.62   14.59
   3   9 -10 1035.34   81.29
  -3  -9  10 1095.53   79.79
  -3  -9   9   94.32   25.49
  -3  -9   8   24.17   14.07
  -3  -9   7  501.53   51.19
  -3  -9   6   16.93   15.18
  -3  -9   5    4.13   10.25
  -3  -9   4  119.44   24.97
  -3  -9   3   54.42   17.76
  -3  -9   2  155.27   26.81
  -3  -9   1 1414.28   85.22
  -3  -9   0   39.90   13.45
  -3  -9  -1  320.64   37.67
   3   9   2  270.01   38.58
  -3  -9  -2  327.96   37.34
   3   9   3  515.81   52.17
  -3  -9  -3  495.67   47.52
   3   9   4 1217.68   83.49
  -3  -9  -4 1161.08   75.42
   3   9   5  851.21   68.57
  -3  -9  -5  817.00   61.77
  -3  -9  -6 1919.23  102.27
   3   9   6 1927.45  109.46
  -3  -9  -7  125.64   23.87
   3   9   7  105.91   24.56
  -3  -9  -8  280.36   34.94
   3   9   8  283.97   38.74
  -3  -9  -9   24.93   14.28
   3   9   9   52.48   21.55
  -3  -9 -10  811.57   60.89
   3   9  10  762.85   64.07
   3   9  11  174.60   30.36
   3   9  12  175.68   30.56
  -3 -10   9  157.00   30.51
  -3 -10   8 1108.05   83.07
  -3 -10   7   79.73   22.51
  -3 -10   6 1178.96   84.45
  -3 -10   5    0.62    9.84
  -3 -10   4  864.17   70.51
  -3 -10   3  604.09   58.24
  -3 -10   2  407.66   45.57
  -3 -10   1  670.60   59.80
  -3 -10   0  141.43   27.30
  -3 -10  -1   64.26   19.56
   3  10   2  173.42   31.90
  -3 -10  -2  112.04   24.70
   3  10   3   43.67   18.15
  -3 -10  -3   73.12   19.56
   3  10   4    0.34   11.60
  -3 -10  -4   -0.63   10.50
  -3 -10  -5   70.23   20.16
   3  10   5   56.19   19.67
   3  10   6  439.78   48.05
  -3 -10  -6  303.59   38.73
  -3 -10  -7  -12.84   15.26
   3  10   7   12.19   12.92
  -3 -10  -8  713.94   61.17
   3  10   8  773.37   65.34
  -3 -10  -9   42.64   16.67
   3  10   9   -4.05   11.64
  -3 -10 -10  437.02   46.44
   3  10  10  386.42   46.61
   3  10  11  -21.03   14.52
   3  10  12  596.86   57.34
  -3 -11   6   51.21   18.64
  -3 -11   5    4.88   12.34
  -3 -11   4  249.93   38.98
  -3 -11   3  408.73   49.40
  -3 -11   2 1130.88   84.39
  -3 -11   1   25.26   13.91
  -3 -11   0   59.52   20.54
  -3 -11  -1 1062.76   80.74
   3  11   2  377.25   47.30
  -3 -11  -2  364.42   46.07
   3  11   3  803.20   70.00
  -3 -11  -3  936.37   74.96
   3  11   4   20.01   15.13
  -3 -11  -4   14.03   15.73
   3  11   5  499.02   52.41
  -3 -11  -5  499.80   53.75
  -3 -11  -6   81.76   23.10
   3  11   6  123.93   27.66
  -3 -11  -7   63.54   20.58
   3  11   7   51.26   20.73
  -3 -11  -8  303.41   42.48
   3  11   8  301.88   40.65
  -3 -11  -9   30.14   14.30
   3  11   9   16.99   14.04
   3  11  10   58.60   21.83
  -3 -12   2   61.46   22.03
  -3 -12   1  200.09   35.74
  -3 -12   0    6.73   17.47
  -3 -12  -1   88.46   25.38
  -3 -12  -2 1039.77   83.53
   3  12   3   91.65   24.86
  -3 -12  -3   93.83   27.41
   3  12   4  209.37   35.66
  -3 -12  -4  221.37   39.31
   3  12   5  131.87   28.61
  -3 -12  -5  121.04   29.68
  -3 -12  -6  306.16   44.39
   3  12   6  304.16   42.16
  -3 -12  -7  487.49   56.03
  -3 -12  -8  364.53   47.52
  -4  12   1  -22.96   13.31
  -4  12   0  350.51   39.63
  -4  12  -1  119.29   21.93
  -4  12  -2  263.67   33.95
  -4  12  -3  197.03   28.57
  -4  12  -4  174.52   29.18
  -4  12  -5   -6.64    9.85
  -4  12  -6   43.56   18.44
  -4  11   3    3.63    9.80
  -4  11   2   21.27   12.04
  -4  11   1   10.65   10.57
  -4  11   0   81.80   18.62
   4 -11   0   55.18   16.61
  -4  11  -1    3.65    9.23
  -4  11  -2  140.77   23.32
  -4  11  -2  243.59   29.57
  -4  11  -3    2.93    6.23
  -4  11  -3  -18.94   10.80
  -4  11  -4  904.68   57.62
  -4  11  -4  535.87   49.77
  -4  11  -5   20.11   11.97
  -4  11  -6  161.31   28.99
  -4  11  -7   65.24   19.73
   4 -10  -7  115.75   25.05
   4 -10  -6  193.14   34.17
   4 -10  -5  303.08   39.36
   4 -10  -4  -14.21   12.71
   4 -10  -3  143.80   27.56
   4 -10  -2   -3.51   11.18
   4 -10  -1  468.23   47.11
  -4  10   0   11.12    9.28
   4 -10   0    0.59    9.76
  -4  10  -1    7.48    7.31
   4 -10   1   14.39   12.17
  -4  10  -1    0.04    6.53
  -4  10  -2   56.92   14.52
  -4  10  -2   51.04   13.71
  -4  10  -3   -2.38    7.72
  -4  10  -3   34.68   12.61
  -4  10  -4   36.18   11.92
  -4  10  -4   24.54   13.24
  -4  10  -5    8.73   11.79
  -4  10  -6   33.15   16.11
  -4  10  -7   15.50   10.43
   4  -9  -9   43.67   19.64
   4  -9  -8  316.27   43.60
   4  -9  -7   21.59   13.89
   4  -9  -6  288.70   38.86
   4  -9  -5   18.71   12.30
   4  -9  -4   71.69   18.56
   4  -9  -3   61.49   17.02
   4  -9  -2  588.18   55.20
   4  -9  -1   13.02   11.92
  -4   9   0  361.39   29.36
   4  -9   0  362.49   41.66
  -4   9   0  321.64   28.40
  -4   9  -1 1770.25   75.74
   4  -9   1 1602.07   92.79
  -4   9  -1 1736.61   79.85
  -4   9  -2   44.09   12.61
  -4   9  -2   27.08   10.24
  -4   9  -2   31.85    9.16
   4  -9   2   21.56   12.59
  -4   9  -3  286.19   26.74
  -4   9  -3  309.85   30.80
  -4   9  -3  284.77   30.56
  -4   9  -4   65.67   15.44
  -4   9  -4  124.57   17.25
  -4   9  -4  106.08   20.00
  -4   9  -5 1392.81   78.89
  -4   9  -5 1383.13   67.21
  -4   9  -5 1337.06   71.23
  -4   9  -6   80.01   19.48
  -4   9  -6   97.55   16.54
  -4   9  -7   84.71   15.94
  -4   9  -8  112.81   18.88
  -4   9  -9  178.06   24.25
  -4   9 -10   58.17   15.17
  -4   9 -11   65.30   17.29
   4  -8 -10   28.67   19.17
   4  -8  -9 1057.31   85.80
   4  -8  -8  129.79   29.01
   4  -8  -7  653.88   61.21
   4  -8  -6  150.82   28.12
   4  -8  -5   75.99   19.71
   4  -8  -4  344.56   41.31
   4  -8  -3  151.27   27.87
   4  -8  -2  250.30   35.44
   4  -8  -1  -11.38   11.13
   4  -8   0    0.69   10.32
  -4   8   0    0.15    5.21
  -4   8  -1  188.20   21.26
  -4   8  -1  167.09   20.35
   4  -8   1  156.26   28.10
  -4   8  -2   92.24   15.69
  -4   8  -2   64.63   12.82
   4  -8   2   68.37   19.50
  -4   8  -3   19.34    8.74
  -4   8  -3   28.82   10.74
  -4   8  -4    1.05    5.83
  -4   8  -4   10.28    8.20
  -4   8  -4   13.18    8.52
  -4   8  -5  458.75   40.12
  -4   8  -5  481.60   37.01
  -4   8  -5  426.30   35.64
  -4   8  -6  103.51   16.70
  -4   8  -6   66.68   15.16
  -4   8  -7 1203.31   66.10
  -4   8  -8   76.11   16.37
  -4   8  -9  330.10   33.79
  -4   8 -10   -3.92    8.24
  -4   8 -11  192.50   27.74
  -4   8 -12  390.86   41.58
   4  -7 -10  -36.26   19.26
   4  -7  -9  131.77   30.96
   4  -7  -8   20.39   12.99
   4  -7  -7   95.33   23.84
   4  -7  -6  127.39   26.52
   4  -7  -5  610.52   56.18
   4  -7  -4  334.60   40.01
   4  -7  -3  696.61   58.38
   4  -7  -2  445.01   47.23
   4  -7  -1    1.90   11.47
   4  -7   0  674.93   59.93
   4  -7   1   50.81   17.35
  -4   7  -2  662.74   43.09
   4  -7   2  629.15   54.64
  -4   7  -3  120.60   17.93
   4  -7   3  131.89   25.19
  -4   7  -4   84.44   15.79
  -4   7  -5   41.60   10.08
  -4   7  -5   39.35   11.99
  -4   7  -6   17.26    6.18
  -4   7  -6   20.50    8.26
  -4   7  -7   77.74   16.51
  -4   7  -8   -3.08    7.74
  -4   7  -9  248.93   29.82
  -4   7 -10  216.64   28.89
  -4   7 -11  566.66   48.60
  -4   7 -12   33.68   13.58
  -4   7 -13  691.89   59.00
   4  -6 -10  758.48   74.77
   4  -6  -9   33.13   18.69
   4  -6  -8    1.45   12.70
   4  -6  -7   67.12   21.70
   4  -6  -6  181.65   31.04
   4  -6  -5   88.07   21.80
   4  -6  -4  446.71   46.08
   4  -6  -3   -1.37    8.36
   4  -6  -2  366.06   41.48
   4  -6  -1  531.83   51.48
   4  -6   0   48.28   17.07
   4  -6   1  631.93   58.10
  -4   6  -2  395.23   33.03
   4  -6   2  329.94   40.44
  -4   6  -3 1134.69   59.69
   4  -6   3 1000.90   71.32
  -4   6  -4  945.04   54.90
  -4   6  -5    3.55    6.14
  -4   6  -6  876.16   44.79
  -4   6  -6  897.93   56.76
  -4   6  -7  577.61   44.41
  -4   6  -7  500.02   31.52
  -4   6  -8 1505.66   80.39
  -4   6  -9  222.06   28.75
  -4   6 -10  171.76   26.95
  -4   6 -11   21.18   13.23
  -4   6 -12  221.77   32.38
  -4   6 -13   -7.76   13.30
   4  -5 -11  258.24   45.45
   4  -5 -10  404.56   55.35
   4  -5  -9   26.70   16.22
   4  -5  -8  466.13   52.91
   4  -5  -7    3.97   11.98
   4  -5  -6 1823.72  105.50
   4  -5  -5  171.39   29.70
   4  -5  -4 1564.60   91.78
   4  -5  -3  176.43   28.86
   4  -5  -2  448.96   45.41
   4  -5  -1  172.37   29.07
   4  -5   0  177.87   29.75
   4  -5   1 1134.26   79.05
   4  -5   2   32.36   14.43
  -4   5  -3   75.16   14.42
   4  -5   3   51.76   17.99
  -4   5  -4   86.15   16.84
   4  -5   4   98.18   21.33
  -4   5  -5   -2.00    6.16
  -4   5  -6  192.92   26.15
  -4   5  -7  108.38   12.23
  -4   5  -7  103.03   19.09
  -4   5  -8  392.55   38.23
  -4   5  -9    4.31    9.07
  -4   5 -10 1868.82   97.58
  -4   5 -11    7.74   10.00
  -4   5 -12  370.52   42.78
  -4   5 -13   51.66   17.93
  -4   5 -14  490.63   52.62
   4  -4 -11  311.10   50.15
   4  -4 -10  -15.56   16.42
   4  -4  -9  526.60   58.82
   4  -4  -8    1.79   10.39
   4  -4  -7   12.94   12.57
   4  -4  -6  462.54   48.75
   4  -4  -5   50.09   16.03
   4  -4  -4   35.22   14.72
   4  -4  -3  220.63   31.49
   4  -4  -2 1398.88   83.81
   4  -4  -1  500.87   47.60
   4  -4   0  773.91   61.52
   4  -4   1 1072.44   75.30
   4  -4   2  130.41   26.47
  -4   4  -3  401.95   34.10
   4  -4   3  452.16   46.33
  -4   4  -4   12.27    7.35
   4  -4   4   -5.48    7.43
  -4   4  -5 1711.66   81.62
  -4   4  -6   68.66   15.92
  -4   4  -7  -11.18   10.07
  -4   4  -8  118.14   21.91
  -4   4  -8   85.51    7.38
  -4   4  -9    8.44    9.18
  -4   4 -10   34.84   13.87
  -4   4 -11  124.59   25.07
  -4   4 -12   17.45   13.66
  -4   4 -13   17.90   14.81
  -4   4 -14 1209.16   86.40
   4  -3 -11   94.65   28.96
   4  -3 -10    0.36   13.80
   4  -3  -9 2029.60  122.75
   4  -3  -8   43.73   18.54
   4  -3  -7  298.51   40.03
   4  -3  -6  684.98   59.56
   4  -3  -5  763.83   60.88
   4  -3  -4   11.26   11.12
   4  -3  -3   17.83   12.37
   4  -3  -2 1174.37   74.47
   4  -3  -1  326.41   37.62
   4  -3   0  817.19   62.36
   4  -3   1   48.41    8.49
   4  -3   1   32.96   13.15
   4  -3   2    7.17    4.42
   4  -3   2    0.81   10.16
   4  -3   3   13.89    6.31
   4  -3   3   35.75   13.82
  -4   3  -4 2708.17  111.29
   4  -3   4 2919.40  132.37
  -4   3  -5    8.67    6.09
  -4   3  -6  565.21   44.23
  -4   3  -7 1519.81   82.00
  -4   3  -8  147.86   24.37
  -4   3  -8   74.11    6.13
  -4   3  -9  658.00   54.43
  -4   3 -10  412.13   43.67
  -4   3 -11 2071.16  110.65
  -4   3 -12   51.18   18.20
  -4   3 -13  105.01   25.87
  -4   3 -14    6.76   12.43
   4  -2 -11   33.99   20.61
   4  -2 -10   10.69   14.29
   4  -2  -9   27.61   18.16
   4  -2  -8  559.01   57.46
   4  -2  -7  684.07   60.74
   4  -2  -6   84.05   20.51
   4  -2  -5  454.92   45.79
   4  -2  -4   62.32   17.93
   4  -2  -3 2708.40  124.47
   4  -2  -2  425.34   42.17
   4  -2  -1 3330.50  101.46
   4  -2  -1 3118.05  139.21
   4  -2   0  184.35   14.76
   4  -2   0  138.36   24.29
   4  -2   1  251.02   34.68
   4  -2   1  342.85   22.70
   4  -2   2   81.11   20.27
   4  -2   2  112.53   13.97
   4  -2   3  308.58   39.52
   4  -2   3  390.53   27.32
  -4   2  -4  753.83   48.93
   4  -2   4  784.05   60.82
  -4   2  -5   -3.10    6.06
  -4   2  -6    2.26    6.01
  -4   2  -7  417.89   22.87
  -4   2  -7  487.53   42.94
  -4   2  -8   47.62    5.94
  -4   2  -8   40.89   14.60
  -4   2  -9   55.17   17.98
  -4   2 -10   64.56   18.43
  -4   2 -11  617.47   57.12
  -4   2 -12   73.54   23.00
  -4   2 -13 1024.12   80.64
  -4   2 -14   66.12   22.06
   4  -1 -11  230.69   43.63
   4  -1 -10  204.51   38.37
   4  -1  -9    4.49   11.96
   4  -1  -8  388.93   47.95
   4  -1  -7  -13.98   12.79
   4  -1  -6  450.41   46.69
   4  -1  -5   68.08   19.45
   4  -1  -4    3.55    8.43
   4  -1  -3  504.43   44.96
   4  -1  -2  104.50   20.28
   4  -1  -1  548.67   46.59
   4  -1   0   -2.68    8.69
   4  -1   1  986.30   68.45
   4  -1   2 1494.29   91.07
   4  -1   3 2141.18  112.67
  -4   1  -4  429.22   36.39
   4  -1   4  350.82   39.36
  -4   1  -5  163.52   22.28
  -4   1  -6 1057.41   45.30
  -4   1  -6 1050.14   63.95
  -4   1  -7  189.60   27.71
  -4   1  -7  162.48   14.40
  -4   1  -8  831.97   62.18
  -4   1  -8  742.73   34.36
  -4   1  -9  256.81   37.22
  -4   1 -10  653.18   60.85
  -4   1 -11   37.50   18.78
  -4   1 -12   38.97   21.09
  -4   1 -13  183.30   36.86
  -4   1 -14   27.26   22.01
   4   0 -12  214.51   44.90
   4   0 -11  316.57   50.54
   4   0 -10  750.91   73.70
   4   0  -9   32.15   18.56
   4   0  -8 1011.00   78.45
   4   0  -7  828.53   66.97
   4   0  -6 1729.68   96.41
   4   0  -6 1559.84   51.81
   4   0  -5 1054.36   70.92
   4   0  -4 1285.28   77.08
   4   0  -3   62.63   14.95
   4   0  -2  670.99   51.43
   4   0  -1  944.98   62.53
   4   0   0  970.26   64.13
   4   0   1  234.91   31.12
   4   0   2 1364.89   82.34
   4   0   3   13.80    9.37
  -4   0  -4  311.89   30.70
   4   0   4  298.33   34.52
  -4   0  -5  164.67   15.85
  -4   0  -5  131.55   19.81
  -4   0  -6  157.30   22.16
  -4   0  -6  190.98   17.06
  -4   0  -7 1080.53   68.68
  -4   0  -7 1244.98   52.03
  -4   0  -8  199.61   28.57
  -4   0  -8  219.69   18.94
  -4   0  -9 1316.79   81.55
  -4   0  -9  974.73   44.54
  -4   0 -10  423.28   46.83
  -4   0 -11   20.28   13.52
  -4   0 -12  818.46   70.28
  -4   0 -13  560.54   59.32
  -4   0 -14 1487.68  104.86
  -4   0 -15   37.91   19.99
   4   1 -12   24.84   20.19
   4   1 -11   80.84   25.34
   4   1 -10   38.70   18.81
   4   1  -9   62.57   21.57
   4   1  -8  187.65   33.33
  -4  -1   8  165.62   20.48
   4   1  -7   -1.89    4.16
   4   1  -7   10.85   11.49
   4   1  -6  -11.18    9.88
   4   1  -5  491.14   46.36
   4   1  -4  836.01   59.31
   4   1  -3  422.08   39.81
   4   1  -2  347.72   35.36
   4   1  -1  123.60   21.17
   4   1   0 3083.09  130.05
   4   1   1   78.20   17.64
   4   1   2 1892.91   97.75
   4   1   3  117.41   22.56
  -4  -1  -4 1359.61   58.36
  -4  -1  -4 1315.10   68.63
   4   1   4 1380.35   78.95
  -4  -1  -5   49.12   11.80
  -4  -1  -5   52.41    9.98
  -4  -1  -6   22.24    9.49
  -4  -1  -6    8.28    4.10
  -4  -1  -7  556.14   45.26
  -4  -1  -7  543.60   33.74
  -4  -1  -8   37.40   13.22
  -4  -1  -8   11.69    5.67
  -4  -1  -9   10.86    7.01
  -4  -1  -9    6.80   10.88
  -4  -1 -10  441.13   46.71
  -4  -1 -11   22.33   13.63
  -4  -1 -12  183.99   31.88
  -4  -1 -13  242.90   37.43
  -4  -1 -14  293.79   43.96
  -4  -1 -15   24.61   15.56
   4   2 -11  230.82   43.24
   4   2 -10  817.78   77.94
   4   2  -9  808.79   73.84
   4   2  -8  299.92   41.39
  -4  -2   8  303.50   29.10
   4   2  -7  410.89   45.96
  -4  -2   7  342.03   30.53
   4   2  -6   83.78   20.09
   4   2  -5  600.66   51.20
   4   2  -4   34.64   14.47
   4   2  -3  260.73   30.13
   4   2  -2   20.47    9.36
   4   2  -1   22.16    9.59
   4   2   0 1093.38   64.85
   4   2   1    2.07    6.21
   4   2   2  330.94   35.73
   4   2   3   40.10   12.66
  -4  -2  -4 1747.57   81.93
   4   2   4 1842.14   91.76
  -4  -2  -5  647.59   44.45
  -4  -2  -5  686.60   40.03
  -4  -2  -6  996.67   59.16
  -4  -2  -6 1037.64   52.05
  -4  -2  -7 1354.08   74.44
  -4  -2  -7 1323.74   63.03
  -4  -2  -8 1102.16   67.75
  -4  -2  -8 1013.95   55.92
  -4  -2  -9  248.30   32.44
  -4  -2  -9  196.88   23.40
  -4  -2 -10   23.45   13.12
  -4  -2 -11 2140.97  113.34
  -4  -2 -12    4.78   10.93
  -4  -2 -13   67.52   21.77
  -4  -2 -14   10.59   13.50
  -4  -2 -15  273.60   42.73
   4   3 -11   48.47   22.72
   4   3 -10  586.37   64.84
   4   3  -9    2.04    9.21
   4   3  -8   39.84   11.98
  -4  -3   8   56.94   13.95
   4   3  -8   33.85   14.71
   4   3  -7 1627.11   98.83
  -4  -3   7 1745.13   82.35
   4   3  -6  209.69   30.76
  -4  -3   6  199.94   23.36
   4   3  -5  344.26   37.42
   4   3  -4  536.55   44.61
   4   3  -3 4053.30  155.44
   4   3  -2  162.89   22.78
   4   3  -1  340.45   32.25
   4   3   0  730.93   49.27
   4   3   1 2070.04   98.59
  -4  -3  -1 2333.23   91.73
   4   3   2   66.12   15.11
  -4  -3  -2   59.68   12.03
   4   3   3  153.82   22.94
  -4  -3  -3  171.67   20.34
  -4  -3  -4  766.53   47.68
   4   3   4  760.53   53.33
  -4  -3  -4  796.81   46.31
  -4  -3  -5  131.95   19.03
  -4  -3  -6  304.29   30.11
  -4  -3  -7   13.50    9.28
  -4  -3  -8   69.73   15.79
  -4  -3  -9    9.08   10.40
  -4  -3 -10 1849.20   98.67
  -4  -3 -11   32.98   13.74
  -4  -3 -12  583.74   54.35
  -4  -3 -13  317.63   41.92
  -4  -3 -14  168.29   31.63
  -4  -3 -15  299.70   43.83
   4   4 -11  368.25   52.23
   4   4 -10 1146.63   90.52
  -4  -4   9   32.44   12.79
   4   4  -9    2.44   11.50
  -4  -4   8   51.35   15.76
   4   4  -8   71.41   20.78
  -4  -4   7    3.69    6.54
   4   4  -7   10.71   10.96
  -4  -4   6  128.84   19.67
   4   4  -6  111.36   22.11
   4   4  -5  359.98   36.91
  -4  -4   5  321.34   30.68
   4   4  -4    6.11    6.62
   4   4  -3   39.58   11.24
   4   4  -2  297.88   29.90
   4   4  -1  622.66   43.60
  -4  -4   0  145.51   17.47
   4   4   0  109.35   18.03
   4   4   1  780.54   51.10
  -4  -4  -1  756.93   42.35
   4   4   2  736.49   50.93
   4   4   3 1899.77   87.47
  -4  -4  -4  434.93   33.79
  -4  -4  -4  423.99   30.89
  -4  -4  -5 1766.64   79.42
  -4  -4  -5 1709.22   73.56
  -4  -4  -6   19.92    7.89
  -4  -4  -7  859.02   53.93
  -4  -4  -8  118.74   20.50
  -4  -4  -9  469.35   42.51
  -4  -4 -10  339.57   37.14
  -4  -4 -11   18.57   11.58
  -4  -4 -12   23.96   16.93
  -4  -4 -13  587.65   55.97
  -4  -4 -14   63.66   20.88
  -4  -4 -15   98.48   25.38
   4   5 -11  270.53   43.19
   4   5 -10    3.51   11.77
   4   5  -9  334.82   43.36
  -4  -5   9  362.56   38.92
  -4  -5   8  170.21   25.43
   4   5  -8  107.52   23.81
   4   5  -7  536.28   49.87
  -4  -5   7  496.11   43.34
   4   5  -6 1149.70   72.13
  -4  -5   6 1145.47   67.75
   4   5  -5  282.35   31.83
  -4  -5   5  299.16   31.46
   4   5  -4  451.24   38.95
  -4  -5   4  467.81   38.03
   4   5  -3  279.71   28.53
  -4  -5   3  252.93   27.52
   4   5  -2  283.61   28.24
   4   5  -1   81.74   14.80
  -4  -5   1   70.74   13.11
   4   5   0  573.74   40.46
   4   5   1   10.77    5.17
   4   5   2    0.48    5.04
  -4  -5  -3  341.36   29.04
   4   5   3  337.29   29.36
  -4  -5  -4   14.16    6.94
  -4  -5  -5  476.06   35.64
  -4  -5  -5  471.50   31.58
  -4  -5  -6  116.90   18.32
  -4  -5  -7  889.64   54.32
  -4  -5  -8  853.86   55.39
  -4  -5  -9 1496.66   81.12
  -4  -5 -10  249.25   30.93
  -4  -5 -11  427.21   42.81
  -4  -5 -12  628.30   54.59
  -4  -5 -13  265.58   35.75
  -4  -5 -14  367.46   43.92
   4   6 -11   31.15   18.68
   4   6 -10  689.39   64.21
  -4  -6   9  -18.99   12.08
   4   6  -9   26.85   14.16
  -4  -6   8   88.81   21.18
   4   6  -8   85.47   21.24
  -4  -6   7   89.97   19.97
   4   6  -7  107.70   21.93
  -4  -6   6  178.80   26.38
   4   6  -6  196.35   27.24
   4   6  -5  742.37   51.59
  -4  -6   5  660.83   50.69
   4   6  -4  314.73   30.92
  -4  -6   4  276.68   30.74
  -4  -6   3    7.33    6.01
   4   6  -3    5.25    6.39
   4   6  -2 1755.60   78.46
  -4  -6   2 1548.37   80.08
   4   6  -1 1813.66   78.16
  -4  -6   1 1588.03   80.17
   4   6   0 1907.53   83.04
   4   6   1  308.41   27.92
   4   6   2 1393.00   62.57
  -4  -6  -2 1277.86   53.95
  -4  -6  -3    0.95    5.11
  -4  -6  -3    1.70    3.49
  -4  -6  -4  958.43   51.13
  -4  -6  -5  710.96   44.25
  -4  -6  -6  750.26   46.52
  -4  -6  -7  102.31   17.22
  -4  -6  -8  252.68   28.34
  -4  -6  -9   25.10   11.31
  -4  -6 -10   64.57   16.33
  -4  -6 -11   18.18   12.68
  -4  -6 -12   30.11   11.37
  -4  -6 -13  658.45   56.73
  -4  -6 -14  255.33   35.30
   4   7 -10  493.09   52.90
   4   7  -9  366.99   43.13
  -4  -7   9  487.70   48.81
   4   7  -8  623.30   54.03
  -4  -7   8  673.17   58.39
   4   7  -7 1228.78   75.38
  -4  -7   7 1232.16   80.44
  -4  -7   6   38.27   14.75
   4   7  -6   36.71   13.49
   4   7  -5  239.63   27.56
  -4  -7   5  261.13   33.24
  -4  -7   4   16.19   10.92
   4   7  -4    8.44    5.89
  -4  -7   3  135.03   23.44
   4   7  -3  145.19   19.12
   4   7  -2  321.47   27.54
  -4  -7   2  301.42   32.91
  -4  -7   1   15.80    9.44
   4   7  -1   14.63    7.91
  -4  -7   0   19.17    9.06
   4   7   0   15.29    6.27
  -4  -7  -1   51.85   13.32
   4   7   1   48.40    9.52
  -4  -7  -2  783.37   44.42
  -4  -7  -2  826.27   54.19
  -4  -7  -3  295.26   24.98
  -4  -7  -3  330.79   33.20
  -4  -7  -4  274.62   24.49
  -4  -7  -4  282.05   31.19
  -4  -7  -5  348.27   28.66
  -4  -7  -6 1597.73   72.93
  -4  -7  -7   38.71   10.38
  -4  -7  -8  759.50   48.39
  -4  -7  -8  635.67   50.43
  -4  -7  -9  147.76   21.80
  -4  -7  -9  135.70   22.80
  -4  -7 -10 1019.75   61.63
  -4  -7 -10  900.78   61.75
  -4  -7 -11    9.21   10.95
  -4  -7 -11   11.04   10.10
  -4  -7 -12  112.94   23.11
  -4  -7 -13  138.58   25.68
  -4  -8   9  -30.50   15.98
  -4  -8   8  434.88   48.91
  -4  -8   7   12.42   11.83
   4   8  -6  452.48   39.56
  -4  -8   6  349.59   42.04
  -4  -8   5    8.29   11.63
   4   8  -5   67.99   15.72
   4   8  -4  651.79   43.06
  -4  -8   4  561.43   50.96
   4   8  -3 1326.45   63.62
  -4  -8   3 1279.79   78.21
   4   8  -2  343.05   27.29
  -4  -8   2  370.47   38.67
  -4  -8   1  238.68   30.64
  -4  -8   0  259.95   31.49
  -4  -8  -1  451.23   41.89
  -4  -8  -2   -0.71    8.74
  -4  -8  -2   -1.85    4.56
  -4  -8  -3   57.38   16.94
  -4  -8  -3   61.71   11.32
  -4  -8  -4    8.85    9.84
  -4  -8  -4    6.16    5.51
  -4  -8  -5  138.97   17.18
  -4  -8  -5  111.19   22.32
  -4  -8  -6  651.66   40.53
  -4  -8  -6  636.33   52.00
  -4  -8  -7   16.98   11.53
  -4  -8  -7    5.47    7.45
  -4  -8  -8   88.38   20.22
  -4  -8  -8   93.22   15.98
  -4  -8  -9    6.12    9.57
  -4  -8  -9    1.90    8.50
  -4  -8 -10 1041.34   70.17
  -4  -8 -10 1168.86   65.16
  -4  -8 -11   62.74   17.39
  -4  -9   8   34.52   17.39
  -4  -9   7  114.57   26.19
  -4  -9   6  191.93   32.84
  -4  -9   5   46.56   18.17
  -4  -9   4  641.10   56.46
  -4  -9   3    4.79    9.05
  -4  -9   2   36.91   15.39
  -4  -9   1  610.20   52.63
  -4  -9   0  268.04   34.45
  -4  -9  -1  259.45   33.79
  -4  -9  -2  382.44   40.93
  -4  -9  -3 3150.13  141.38
  -4  -9  -4   -9.07   10.04
  -4  -9  -5  105.47   23.08
  -4  -9  -6   61.03   18.65
  -4  -9  -7 1709.86   96.00
  -4  -9  -8  158.55   27.96
  -4  -9  -9  133.33   25.60
   4   9  10  169.52   33.15
  -4  -9 -10  163.93   28.19
  -4  -9 -11   23.82   12.84
  -4 -10   6  267.06   39.49
  -4 -10   5  396.76   46.46
  -4 -10   4  845.78   69.89
  -4 -10   3   27.46   14.99
  -4 -10   2  270.13   38.04
  -4 -10   1  118.06   24.37
  -4 -10   0  131.65   26.19
  -4 -10  -1  227.54   33.06
  -4 -10  -2   14.47   12.58
  -4 -10  -3   11.10   14.65
  -4 -10  -4   75.21   21.40
  -4 -10  -5  240.56   35.34
  -4 -10  -6  108.92   24.72
  -4 -10  -7  368.52   43.60
  -4 -10  -8  476.07   49.66
  -4 -10  -9  628.41   57.73
   4  10  10   74.07   24.07
  -4 -10 -10   43.68   15.68
  -4 -11   2   26.14   17.12
  -4 -11   1  614.78   59.75
  -4 -11   0  493.94   53.13
  -4 -11  -1  147.91   28.75
  -4 -11  -2  504.72   53.45
  -4 -11  -3  389.18   46.33
  -4 -11  -4  114.88   25.78
  -4 -11  -5    3.34   13.97
  -4 -11  -6  127.26   27.13
  -4 -11  -7  -30.06   16.67
  -4 -11  -8  -18.85   18.99
  -4 -11  -9   95.26   25.46
  -5  11   0  142.21   24.07
   5 -11   0  171.40   31.85
  -5  11  -1  375.01   38.73
  -5  11  -2  -28.26   12.76
   5 -10  -5  155.29   32.68
   5 -10  -4  192.33   36.01
   5 -10  -3   24.72   12.67
   5 -10  -2  163.36   34.64
   5 -10  -1  -18.74   17.55
   5 -10   0    7.98   11.78
   5 -10   1   27.66   14.70
  -5  10  -2   60.46   15.75
  -5  10  -3   59.92   15.40
   5  -9  -6  157.57   35.20
   5  -9  -5  216.18   39.14
   5  -9  -4   12.47   13.13
   5  -9  -3  175.26   33.38
   5  -9  -2  926.02   78.59
   5  -9  -1    6.42   16.37
  -5   9   0  250.12   27.15
   5  -9   0  200.39   36.25
  -5   9  -1   30.83    9.22
   5  -9   1   33.11   17.79
  -5   9  -2 1289.51   66.50
   5  -9   2 1271.13   88.50
  -5   9  -3   -4.36    7.71
  -5   9  -4  131.02   20.01
  -5   9  -4  111.11   19.36
  -5   9  -5  373.58   35.26
  -5   9  -6  128.88   21.00
  -5   9  -7   13.01    9.47
  -5   9  -8  -26.29   12.12
  -5   9  -9   82.01   18.53
  -5   9 -10  105.43   22.52
   5  -8  -7   90.53   26.80
   5  -8  -6  -17.03   14.70
   5  -8  -5  626.84   63.98
   5  -8  -4   17.42   14.76
   5  -8  -3   20.56   13.25
   5  -8  -2   39.87   20.71
   5  -8  -1   -0.56   14.57
   5  -8   0    0.72   12.18
  -5   8  -1   44.85   12.64
   5  -8   1   34.79   17.65
  -5   8  -2   10.26    8.25
   5  -8   2  -25.44   15.02
  -5   8  -3  189.65   24.32
   5  -8   3  192.66   33.98
  -5   8  -4  674.64   47.51
  -5   8  -5   46.96   12.01
  -5   8  -5   55.29   14.37
  -5   8  -6  458.32   40.62
  -5   8  -7   21.93   12.84
  -5   8  -8  555.38   47.29
  -5   8  -9   86.03   20.59
  -5   8 -10  329.09   37.32
  -5   8 -11   70.50   19.68
   5  -7  -8  137.82   33.69
   5  -7  -7   -2.00   11.84
   5  -7  -6  468.25   55.81
   5  -7  -5  106.40   27.98
   5  -7  -4  301.25   43.69
   5  -7  -3  103.70   27.63
   5  -7  -2  211.91   36.79
   5  -7  -1  705.45   68.92
   5  -7   0   86.66   26.46
   5  -7   1   79.63   23.58
  -5   7  -2   49.13   13.27
   5  -7   2   36.97   18.69
  -5   7  -3   37.27   12.04
   5  -7   3   22.52   17.99
  -5   7  -4   10.78    7.57
  -5   7  -5  -16.44    9.00
  -5   7  -6   28.22   12.66
  -5   7  -7   -2.71   10.18
  -5   7  -8  781.30   57.79
  -5   7  -9   14.80   14.36
  -5   7 -10  446.81   44.82
  -5   7 -11    9.52   14.69
   5  -6  -8   51.37   22.18
   5  -6  -7   19.21   15.87
   5  -6  -6   21.38   14.19
   5  -6  -5  219.18   37.94
   5  -6  -4  108.77   26.91
   5  -6  -3   14.60   14.31
   5  -6  -2  256.34   40.23
   5  -6  -1  146.96   31.60
   5  -6   0 1217.39   91.19
   5  -6   1  681.36   68.30
   5  -6   2   99.13   24.38
  -5   6  -3 1172.16   66.06
   5  -6   3 1195.98   86.17
  -5   6  -4  463.92   39.31
   5  -6   4  439.78   50.83
  -5   6  -5 1111.50   64.73
  -5   6  -6  211.66   27.77
  -5   6  -7  733.97   54.10
  -5   6  -8   13.15   11.12
  -5   6  -9   29.01   11.70
  -5   6 -10  152.19   27.37
  -5   6 -11  281.16   37.67
  -5   6 -12   38.81   17.67
   5  -5  -9  652.86   72.39
   5  -5  -8  256.92   41.97
   5  -5  -7 1292.58   97.46
   5  -5  -6  126.93   29.56
   5  -5  -5  128.64   29.51
   5  -5  -4  455.56   51.46
   5  -5  -3  333.71   44.29
   5  -5  -2  699.49   64.79
   5  -5  -1   89.10   25.57
   5  -5   0  153.72   32.67
   5  -5   1   36.97   17.81
   5  -5   2   12.78   14.24
  -5   5  -3   40.61   12.65
   5  -5   3   43.57   18.27
  -5   5  -4   29.60   11.64
   5  -5   4   58.67   19.85
  -5   5  -5   11.92    7.51
  -5   5  -6  277.00   31.25
  -5   5  -7  616.68   48.90
  -5   5  -8   20.64   11.52
  -5   5  -9  390.80   41.39
  -5   5 -10  127.66   25.41
  -5   5 -11  818.52   65.72
  -5   5 -12   47.39   20.81
   5  -4  -9   10.64   17.61
   5  -4  -8   42.09   20.65
   5  -4  -7   14.73   15.77
   5  -4  -6   40.99   19.87
   5  -4  -5  157.34   31.10
   5  -4  -4   38.88   14.87
   5  -4  -3  801.36   68.09
   5  -4  -2   48.61   17.69
   5  -4  -1  236.82   37.99
   5  -4   0   84.33   23.98
   5  -4   1  427.49   52.08
   5  -4   2  869.06   76.79
   5  -4   3   20.50   13.75
  -5   4  -4  360.77   34.40
   5  -4   4  322.13   44.62
  -5   4  -5   82.43   17.21
  -5   4  -6    9.81    7.61
  -5   4  -7    7.14    7.16
  -5   4  -8   11.05    9.03
  -5   4  -9  -11.40   12.84
  -5   4 -10   16.85   11.50
  -5   4 -11  645.16   57.96
  -5   4 -12    4.81   11.15
  -5   4 -13  496.24   54.39
   5  -3  -9   82.60   25.99
   5  -3  -8  420.63   55.23
   5  -3  -7   59.11   22.17
   5  -3  -6  437.05   52.56
   5  -3  -5  232.10   38.41
   5  -3  -4   45.87   19.78
   5  -3  -3  242.62   36.79
   5  -3  -2    2.90   10.89
   5  -3  -1    0.48   10.23
   5  -3   0  154.52   30.75
   5  -3   1 1243.32   90.96
   5  -3   2   12.99    5.95
   5  -3   2   19.27   14.52
   5  -3   3  780.21   69.95
  -5   3  -4 1291.17   71.40
   5  -3   4 1362.40   92.08
  -5   3  -5  163.17   22.91
   5  -3   5  251.69   37.46
  -5   3  -6  392.43   36.58
  -5   3  -7   68.67   15.88
  -5   3  -8 2941.70  128.94
  -5   3  -9   35.66   13.17
  -5   3 -10  172.84   28.77
  -5   3 -11  195.78   32.79
  -5   3 -12  364.04   45.45
  -5   3 -13  -30.19   17.38
   5  -2  -9  150.12   38.55
   5  -2  -8  145.31   34.31
   5  -2  -7   25.16   16.99
   5  -2  -6 1915.81  115.40
   5  -2  -5   11.33   12.65
   5  -2  -4 1554.97   97.67
   5  -2  -3  687.52   60.77
   5  -2  -2  975.95   73.31
   5  -2  -1  178.02   14.20
   5  -2  -1  168.27   29.37
   5  -2   0  321.10   43.23
   5  -2   0  364.80   24.17
   5  -2   1 1704.50  109.09
   5  -2   1 1961.61   75.91
   5  -2   2    4.83    6.10
   5  -2   2    1.54   11.21
   5  -2   3  125.70   28.45
  -5   2  -4   17.30    8.73
   5  -2   4    8.81    9.43
  -5   2  -5    8.60    7.24
   5  -2   5   12.45   10.01
  -5   2  -6   -1.47    6.16
  -5   2  -7   80.18   17.91
  -5   2  -8    6.85    7.89
  -5   2  -9  142.26   24.57
  -5   2 -10  772.86   61.39
  -5   2 -11    8.99   10.46
  -5   2 -12  469.39   52.97
  -5   2 -13   63.25   22.41
   5  -1 -10  -19.84   18.61
   5  -1  -9  471.67   62.04
   5  -1  -8  145.46   33.81
   5  -1  -7  136.20   29.82
   5  -1  -6   61.49   22.19
   5  -1  -5   15.75   12.91
   5  -1  -4   62.43   19.43
   5  -1  -3   16.38   15.14
   5  -1  -2  404.08   45.54
   5  -1  -1    4.76    9.18
   5  -1   0  777.48   66.15
   5  -1   1  229.58   36.72
   5  -1   2  587.15   60.31
   5  -1   3   -3.58   11.82
  -5   1  -4  246.29   30.19
   5  -1   4  245.95   37.10
  -5   1  -5  886.91   57.01
   5  -1   5  806.18   67.08
  -5   1  -6   29.38   10.23
  -5   1  -7  195.42   27.17
  -5   1  -7  223.53   19.43
  -5   1  -8  133.79   23.01
  -5   1  -9    5.87    9.72
  -5   1 -10    8.09    8.73
  -5   1 -11   11.37   14.43
  -5   1 -12   14.14   12.00
  -5   1 -13   42.38   19.83
   5   0 -10  599.17   72.24
   5   0  -9  481.56   61.70
   5   0  -8   17.36   16.51
   5   0  -7  430.52   52.42
   5   0  -6   16.61   16.31
   5   0  -5  553.73   55.80
   5   0  -4   29.67   16.03
   5   0  -3 1101.23   77.69
   5   0  -2    9.54   10.21
   5   0  -1  265.12   36.15
   5   0   0   17.75   11.85
   5   0   1  204.82   33.13
   5   0   2   80.92   22.20
   5   0   3   17.73   12.35
  -5   0  -4  388.85   36.56
   5   0   4  395.65   45.15
  -5   0  -5  308.77   32.28
   5   0   5  374.89   43.03
  -5   0  -6 1636.79   82.93
  -5   0  -7  283.96   31.71
  -5   0  -8    4.06    7.09
  -5   0  -9  712.56   55.24
  -5   0 -10  934.79   67.23
  -5   0 -11 1883.09  105.73
  -5   0 -12  107.65   25.25
  -5   0 -13  613.96   61.94
   5   1 -10  122.56   34.03
   5   1  -9   65.27   25.35
   5   1  -8  339.02   48.69
   5   1  -7  321.26   46.35
   5   1  -6   12.53   13.18
   5   1  -5  773.70   65.64
   5   1  -4  516.87   51.13
   5   1  -3  941.19   69.92
   5   1  -2  194.10   30.65
   5   1  -1 2326.47  117.39
   5   1   0  132.29   25.80
   5   1   1  969.45   72.12
   5   1   2  389.55   45.28
   5   1   3  602.54   56.62
  -5  -1  -4  937.72   58.93
   5   1   4  935.88   69.25
  -5  -1  -5    5.95    7.38
   5   1   5   16.68   13.15
  -5  -1  -6  225.92   27.19
  -5  -1  -7   38.20   13.27
  -5  -1  -8   13.64    9.37
  -5  -1  -9   -0.15    9.11
  -5  -1 -10  114.58   22.68
  -5  -1 -11    3.20   10.81
  -5  -1 -12  151.58   29.33
  -5  -1 -13  496.23   54.11
   5   2 -10  639.68   74.33
   5   2  -9  161.63   35.16
   5   2  -8  426.49   55.78
  -5  -2   7   27.86   11.00
   5   2  -7  -14.76   12.66
   5   2  -6 1152.91   84.43
   5   2  -5   36.26   15.81
   5   2  -4   48.51   16.38
   5   2  -3   54.82   16.57
   5   2  -2   21.36   11.25
   5   2  -1    6.10    9.87
   5   2   0  151.38   26.59
   5   2   1  112.54   23.04
   5   2   2   35.14   16.84
   5   2   3 1361.42   85.39
  -5  -2  -4   24.74   10.56
   5   2   4   41.15   14.45
  -5  -2  -5  544.51   42.23
  -5  -2  -6   94.15   17.24
  -5  -2  -7  645.68   47.88
  -5  -2  -8  549.25   45.31
  -5  -2  -9    3.43    7.59
  -5  -2 -10  420.73   43.08
  -5  -2 -11  195.96   31.64
  -5  -2 -12   82.42   21.65
  -5  -2 -13    3.74   11.23
   5   3 -10  196.48   42.35
   5   3  -9   23.58   20.93
   5   3  -8   33.57   18.45
   5   3  -7  521.36   57.09
  -5  -3   7  646.30   48.23
   5   3  -6 1125.14   81.23
  -5  -3   6 1149.47   65.47
   5   3  -5   72.12   20.29
   5   3  -4  232.69   32.34
   5   3  -3  151.39   25.53
   5   3  -2 1205.47   74.81
   5   3  -1   21.24   10.78
   5   3   0  781.31   59.13
   5   3   1  531.74   49.32
   5   3   2   15.41   12.38
   5   3   3  566.53   50.04
  -5  -3  -4    3.28    6.86
   5   3   4   11.13   10.87
  -5  -3  -5  165.95   22.81
  -5  -3  -6    6.97    6.48
  -5  -3  -7 1024.62   62.09
  -5  -3  -8   -6.95    8.17
  -5  -3  -9  751.97   55.00
  -5  -3 -10  895.27   63.17
  -5  -3 -11  432.45   44.39
  -5  -3 -12   78.25   21.36
  -5  -3 -13  134.10   26.99
   5   4 -10   79.89   25.74
   5   4  -9  199.42   37.74
  -5  -4   8   15.13   10.57
   5   4  -8   19.12   14.72
  -5  -4   7   13.70   10.03
   5   4  -7   41.97   16.28
  -5  -4   6   79.90   17.56
   5   4  -6   82.51   21.09
  -5  -4   5   23.55   10.63
   5   4  -5   18.75   10.25
   5   4  -4 1085.28   71.80
   5   4  -3  534.09   47.70
   5   4  -2  334.95   35.99
   5   4  -1  425.48   40.51
   5   4   0 2033.89  101.90
   5   4   1   -5.58   11.81
   5   4   2 1657.79   92.10
   5   4   3  479.85   43.34
  -5  -4  -4 1523.59   76.37
   5   4   4 1512.62   83.50
  -5  -4  -5   78.24   15.59
  -5  -4  -6  582.90   43.03
  -5  -4  -7  857.37   55.45
  -5  -4  -8    9.17   10.06
  -5  -4  -9  117.50   21.43
  -5  -4 -10   93.17   20.26
  -5  -4 -11   61.09   17.50
  -5  -4 -12    7.89   11.01
  -5  -4 -13   86.16   22.23
   5   5  -9  770.05   72.81
   5   5  -8  590.21   60.12
  -5  -5   8  562.08   50.19
   5   5  -7  694.80   62.00
  -5  -5   7  736.35   56.01
  -5  -5   6  135.54   23.75
   5   5  -6  101.21   22.32
   5   5  -5  808.86   61.15
  -5  -5   5  789.46   54.95
  -5  -5   4    5.65    6.99
   5   5  -4    5.79    7.95
   5   5  -3  865.93   60.13
   5   5  -2  150.85   23.11
   5   5  -1  380.10   37.48
   5   5   0   71.59   18.34
   5   5   1    2.72    8.54
   5   5   2    5.10    7.68
  -5  -5  -3   83.77   16.68
   5   5   3   97.68   18.89
  -5  -5  -4  200.85   23.98
  -5  -5  -5   19.77    9.53
  -5  -5  -6  293.46   29.66
  -5  -5  -7   53.60   14.45
  -5  -5  -8  712.14   50.14
  -5  -5  -9   23.65   11.85
  -5  -5 -10  383.72   38.75
  -5  -5 -11  328.37   36.91
  -5  -5 -12    7.04    9.62
  -5  -5 -13  283.63   37.43
   5   6  -9   24.45   16.95
  -5  -6   8  133.96   25.75
   5   6  -8  172.98   32.47
  -5  -6   7   32.34   16.58
   5   6  -7   57.01   16.85
  -5  -6   6   14.50   11.42
   5   6  -6   14.44   11.54
  -5  -6   5   76.98   17.98
   5   6  -5   87.08   18.70
   5   6  -4  889.61   60.84
  -5  -6   4  863.85   58.76
   5   6  -3  627.01   49.01
  -5  -6   3  593.20   46.37
  -5  -6   2   10.94    9.41
   5   6  -2    6.08    8.52
   5   6  -1  488.00   42.33
   5   6   0   89.76   17.20
   5   6   1  319.95   33.89
   5   6   2  107.89   18.22
  -5  -6  -3 1650.27   77.87
  -5  -6  -4    4.65    6.22
  -5  -6  -5  238.47   25.19
  -5  -6  -6   35.48   11.24
  -5  -6  -7  126.05   19.65
  -5  -6  -8   25.19   10.62
  -5  -6  -9  200.92   26.85
  -5  -6 -10  238.50   30.52
  -5  -6 -11  332.83   36.53
  -5  -6 -12 1112.88   73.02
  -5  -6 -13  120.58   25.06
  -5  -7   8  272.94   38.04
   5   7  -8  243.62   36.75
  -5  -7   7  314.60   39.33
   5   7  -7  284.82   37.72
  -5  -7   6   31.01   15.97
   5   7  -6   31.47   13.14
  -5  -7   5   60.08   17.14
   5   7  -5   63.88   16.82
  -5  -7   4   24.16   13.62
   5   7  -4   30.75   12.24
  -5  -7   3    3.07    7.86
   5   7  -3   20.51    9.99
   5   7  -2  245.91   28.06
  -5  -7   2  221.14   29.09
   5   7  -1  306.57   31.33
  -5  -7   1  220.25   28.58
  -5  -7   0   67.14   16.12
   5   7   0   38.00   12.15
   5   7   1  586.66   41.05
  -5  -7  -1  538.05   44.59
  -5  -7  -2  958.65   53.85
   5   7   2  865.68   50.39
  -5  -7  -3  998.63   54.82
  -5  -7  -4   39.55   10.57
  -5  -7  -5 1422.00   69.11
  -5  -7  -6  101.15   17.11
  -5  -7  -7 1327.33   68.25
  -5  -7  -8  227.78   26.46
  -5  -7  -9  801.13   53.69
  -5  -7 -10  376.45   36.62
  -5  -7 -11   10.95    9.15
  -5  -7 -12   91.17   20.21
  -5  -7 -12  140.73   24.05
  -5  -8   7 1005.55   75.62
  -5  -8   6  355.71   42.46
  -5  -8   5  403.98   44.05
  -5  -8   4  808.87   61.97
  -5  -8   3  590.81   50.93
  -5  -8   2  732.38   55.86
  -5  -8   1    7.10    7.29
  -5  -8   0  756.91   56.35
  -5  -8  -1   51.94   15.03
  -5  -8  -2  183.82   20.82
  -5  -8  -2  193.99   27.32
  -5  -8  -3   26.97   13.51
  -5  -8  -3   18.23    8.45
  -5  -8  -4  133.92   23.47
  -5  -8  -4  145.52   18.87
  -5  -8  -5   23.15   12.77
  -5  -8  -5    8.59    6.16
  -5  -8  -6  177.28   21.14
  -5  -8  -6  210.03   29.73
  -5  -8  -7  124.06   23.77
  -5  -8  -7   78.22   15.64
  -5  -8  -8   11.92   10.25
  -5  -8  -9  275.55   34.79
  -5  -8 -10   59.40   19.48
  -5  -8 -11  380.40   42.03
  -5  -9   5   54.56   18.27
  -5  -9   4   76.09   20.10
  -5  -9   3    1.06   10.44
  -5  -9   2   16.73   11.49
  -5  -9   1  439.07   44.92
  -5  -9   0 1462.59   85.96
  -5  -9  -1   74.35   19.74
  -5  -9  -2   64.22   19.48
  -5  -9  -3    9.42   11.43
  -5  -9  -4  726.48   58.16
  -5  -9  -5    8.58   11.53
  -5  -9  -6  299.02   37.61
  -5  -9  -7  181.37   30.32
  -5  -9  -8   44.65   17.61
  -5  -9  -9  288.79   37.98
  -5  -9 -10   14.35   12.99
  -5 -10   0   51.37   17.83
  -5 -10  -1  124.46   26.29
  -5 -10  -2  301.59   38.41
  -5 -10  -3  109.13   23.80
  -5 -10  -4  180.66   29.95
  -5 -10  -5  492.25   49.71
  -5 -10  -6 1018.14   74.62
  -5 -10  -7   37.43   19.51
   6  -9  -1  309.96   51.51
  -6   9   0    7.55    7.36
   6  -9   0    4.32   19.01
  -6   9  -1  164.41   23.47
   6  -9   1  175.25   36.41
  -6   9  -2   42.72   12.13
   6  -9   2   86.91   29.11
  -6   9  -3   10.54    8.45
  -6   9  -4    5.35    7.57
  -6   9  -5   79.41   18.51
  -6   9  -6   25.71   12.57
   6  -8  -3  113.84   33.35
   6  -8  -2   64.33   26.94
   6  -8  -1    3.09   15.16
   6  -8   0   41.03   21.56
  -6   8  -1  610.95   48.23
   6  -8   1  648.09   71.62
  -6   8  -2  176.54   25.30
   6  -8   2  187.16   38.43
  -6   8  -3  292.13   31.97
   6  -8   3  378.48   52.75
  -6   8  -4   12.01   11.04
  -6   8  -5  744.37   54.35
  -6   8  -6   18.33   12.03
  -6   8  -7  342.97   37.13
  -6   8  -8  362.60   39.46
  -6   8  -9  498.41   47.88
   6  -7  -4  314.11   50.93
   6  -7  -3  148.90   36.75
   6  -7  -2  525.37   65.89
   6  -7  -1   71.44   26.68
   6  -7   0  147.39   35.57
   6  -7   1  -68.40   25.71
  -6   7  -2  155.45   24.00
   6  -7   2  204.81   41.70
  -6   7  -3   27.88   12.15
   6  -7   3  104.74   29.80
  -6   7  -4    0.22    7.21
  -6   7  -5  112.87   21.27
  -6   7  -6    1.07    7.78
  -6   7  -7  101.31   20.85
  -6   7  -8    8.98   10.00
  -6   7  -9  245.20   33.99
   6  -6  -5    7.93   14.18
   6  -6  -4   -6.92   13.42
   6  -6  -3  279.75   47.91
   6  -6  -2  308.92   51.18
   6  -6  -1    4.67   15.12
   6  -6   0   96.65   29.04
   6  -6   1  208.28   43.35
   6  -6   2  701.88   75.71
  -6   6  -3   23.98   10.65
   6  -6   3    4.40   16.62
  -6   6  -4  402.91   38.32
   6  -6   4  480.15   60.46
  -6   6  -5   40.83   14.37
  -6   6  -6    7.29    7.64
  -6   6  -7   20.02   13.58
  -6   6  -8  347.08   38.07
  -6   6  -9   48.87   16.72
  -6   6 -10  122.64   25.88
   6  -5  -5  189.58   38.85
   6  -5  -4   20.57   16.62
   6  -5  -3  231.51   42.87
   6  -5  -2   49.59   24.60
   6  -5  -1   43.39   22.68
   6  -5   0   21.10   18.52
   6  -5   1   95.62   33.06
   6  -5   2   21.13   19.24
  -6   5  -3  473.72   43.26
   6  -5   3  543.24   65.36
  -6   5  -4  230.46   29.13
   6  -5   4  218.49   40.56
  -6   5  -5   -0.90    6.92
  -6   5  -6  750.77   54.84
  -6   5  -7  416.61   41.32
  -6   5  -8  424.31   42.44
  -6   5  -9   -4.93    9.59
  -6   5 -10  851.90   64.51
   6  -4  -6  697.56   74.50
   6  -4  -5   38.45   19.44
   6  -4  -4  746.91   73.61
   6  -4  -3   24.43   16.82
   6  -4  -2  584.01   65.21
   6  -4  -1  499.84   61.89
   6  -4   0  256.01   44.90
   6  -4   1  773.16   80.49
   6  -4   2  102.49   30.08
   6  -4   3  233.45   43.37
  -6   4  -4   31.70   13.99
   6  -4   4   17.00   17.40
  -6   4  -5  205.04   27.63
   6  -4   5  249.10   43.27
  -6   4  -6   23.53   11.44
  -6   4  -7   -2.89    7.75
  -6   4  -8   43.14   14.30
  -6   4  -9   32.36   11.89
  -6   4 -10  174.59   28.72
  -6   4 -11  141.65   28.28
   6  -3  -6   28.09   18.58
   6  -3  -5   50.72   23.80
   6  -3  -4   31.47   17.81
   6  -3  -3   79.71   25.24
   6  -3  -2   20.94   16.46
   6  -3  -1    2.05   14.93
   6  -3   0  599.76   67.48
   6  -3   1  317.99   50.09
   6  -3   2   -3.34   18.77
   6  -3   3  105.76   30.91
  -6   3  -4  288.74   32.59
   6  -3   4  304.97   48.10
  -6   3  -5  864.55   58.51
   6  -3   5  992.40   84.62
  -6   3  -6   37.85   13.25
  -6   3  -7  342.60   36.21
  -6   3  -8   41.61   14.33
  -6   3  -9   70.25   17.73
  -6   3 -10    0.89    9.91
  -6   3 -11  149.28   27.36
   6  -2  -7  372.30   54.86
   6  -2  -6  229.83   42.38
   6  -2  -5  684.69   69.38
   6  -2  -4   -6.08   12.15
   6  -2  -3   99.93   25.29
   6  -2  -2  705.34   69.21
   6  -2  -1   84.13   23.75
   6  -2   0   80.11   25.08
   6  -2   1  -18.99   19.60
   6  -2   2   54.75   25.33
   6  -2   3   70.26   25.42
  -6   2  -4  172.19   25.89
   6  -2   4  175.19   35.29
  -6   2  -5  112.21   20.54
   6  -2   5  120.21   30.50
  -6   2  -6  176.08   25.77
  -6   2  -7  667.59   51.52
  -6   2  -8  214.26   29.37
  -6   2  -9  320.40   37.01
  -6   2 -10  109.35   22.67
  -6   2 -11 1059.67   74.27
   6  -1  -7   -7.95   12.86
   6  -1  -6  141.56   36.15
   6  -1  -5  -31.37   18.28
   6  -1  -4  -21.10   15.43
   6  -1  -3  973.40   80.80
   6  -1  -2   27.27   16.89
   6  -1  -1  946.82   81.48
   6  -1   0   38.96   19.04
   6  -1   1 1038.51   88.86
   6  -1   2  674.20   72.73
   6  -1   3  215.06   38.83
  -6   1  -4  634.46   51.52
   6  -1   4  571.85   62.71
  -6   1  -5  171.45   25.94
   6  -1   5  161.48   33.66
  -6   1  -6  627.61   49.45
  -6   1  -7   66.47   17.02
  -6   1  -8  108.90   20.99
  -6   1  -9   70.20   19.28
  -6   1 -10  -13.49   12.88
  -6   1 -11   87.42   21.30
   6   0  -7   88.02   26.35
   6   0  -6 1240.98   98.13
   6   0  -5   96.85   26.95
   6   0  -4   86.62   26.01
   6   0  -3    8.54   11.77
   6   0  -2   38.16   17.58
   6   0  -1  147.67   31.16
   6   0   0   45.91   20.12
   6   0   1  -21.11   14.88
   6   0   2   -0.44   10.72
   6   0   3  746.92   71.35
  -6   0  -4  327.35   35.66
   6   0   4  328.37   47.09
  -6   0  -5   13.53    7.75
   6   0   5   32.02   18.99
  -6   0  -6   41.21   13.81
  -6   0  -7  496.99   43.51
  -6   0  -8  959.77   64.45
  -6   0  -9   -2.80    7.96
  -6   0 -10  421.14   42.38
  -6   0 -11   26.87   13.08
  -6   0 -12   61.88   20.11
   6   1  -7  227.16   42.94
   6   1  -6  131.45   31.34
   6   1  -5   56.91   21.41
   6   1  -4 1186.25   89.25
   6   1  -3   30.87   15.40
   6   1  -2  236.20   37.86
   6   1  -1   83.07   24.36
   6   1   0  844.44   73.69
   6   1   1  250.18   39.06
   6   1   2  127.65   30.59
   6   1   3  483.78   55.17
  -6  -1  -4  146.07   24.23
   6   1   4  147.71   29.14
  -6  -1  -5   26.27   10.13
   6   1   5    8.00   11.15
  -6  -1  -6    7.08    8.01
  -6  -1  -7    1.56    7.25
  -6  -1  -8    4.97    9.65
  -6  -1  -9  606.18   49.77
  -6  -1 -10   91.87   19.98
  -6  -1 -11   16.96   12.02
  -6  -1 -12  512.92   50.26
   6   2  -7   87.69   28.03
   6   2  -6   39.19   20.00
   6   2  -5   26.74   15.11
   6   2  -4    1.85    9.05
   6   2  -3  121.59   25.83
   6   2  -2   57.01   20.54
   6   2  -1  116.07   26.28
   6   2   0  631.58   61.40
   6   2   1   17.50   12.05
   6   2   2 1169.04   88.35
   6   2   3   14.14   12.12
  -6  -2  -4 1471.27   80.41
   6   2   4 1399.10   92.53
  -6  -2  -5  239.81   29.52
   6   2   5  316.45   41.62
  -6  -2  -6  248.38   29.40
  -6  -2  -7  728.15   52.28
  -6  -2  -8  293.35   33.35
  -6  -2  -9  359.02   37.47
  -6  -2 -10  118.15   22.93
  -6  -2 -11  237.03   32.25
  -6  -2 -12   -1.61   10.37
   6   3  -7  677.88   70.21
   6   3  -6  127.39   31.04
   6   3  -5  475.91   54.26
   6   3  -4   68.80   20.92
   6   3  -3 1779.00  105.29
   6   3  -2   82.44   20.75
   6   3  -1  110.16   25.97
   6   3   0   57.24   19.17
   6   3   1  228.84   36.51
   6   3   2  231.30   37.23
   6   3   3   41.33   16.66
  -6  -3  -4   18.39   10.16
   6   3   4    0.81    9.37
  -6  -3  -5   -0.34    8.29
  -6  -3  -6  500.00   41.90
  -6  -3  -7  292.94   31.71
  -6  -3  -8  122.85   21.94
  -6  -3  -9   21.58   11.55
  -6  -3 -10  217.65   29.74
  -6  -3 -11 1101.98   72.60
  -6  -3 -12   45.75   16.73
   6   4  -7  286.39   45.26
  -6  -4   6    0.84    8.46
   6   4  -6   58.96   21.14
  -6  -4   5   34.82   14.53
   6   4  -5   14.19   12.18
   6   4  -4   15.37   10.19
   6   4  -3  605.86   56.67
   6   4  -2   96.52   24.80
   6   4  -1  543.29   54.13
   6   4   0  494.79   51.30
   6   4   1  999.53   75.54
   6   4   2   -5.74   13.45
   6   4   3  295.80   38.19
  -6  -4  -4  642.46   48.25
   6   4   4  678.78   57.82
  -6  -4  -5   22.94   10.38
  -6  -4  -6   49.96   14.09
  -6  -4  -7   13.69    8.83
  -6  -4  -8  227.01   28.95
  -6  -4  -9   61.57   16.23
  -6  -4 -10  226.46   30.97
  -6  -4 -11   40.07   15.69
  -6  -4 -12  175.88   28.94
   6   5  -7   15.53   17.23
   6   5  -6  647.81   62.19
  -6  -5   6  666.80   54.62
  -6  -5   5   60.26   17.73
   6   5  -5   40.58   15.29
  -6  -5   4  144.20   24.81
   6   5  -4  158.31   29.44
   6   5  -3   25.66   15.30
   6   5  -2   56.68   17.90
   6   5  -1  -12.73    9.71
   6   5   0  295.78   38.69
   6   5   1   37.80   17.08
   6   5   2   88.96   20.66
  -6  -5  -3  338.08   34.34
   6   5   3  348.92   39.34
  -6  -5  -4   -1.50    7.02
  -6  -5  -5  840.80   54.74
  -6  -5  -6   -9.51    8.59
  -6  -5  -7  985.78   61.81
  -6  -5  -8  179.34   25.16
  -6  -5  -9  348.89   35.98
  -6  -5 -10  399.26   39.64
  -6  -5 -11  252.92   33.16
   6   6  -6  589.03   57.50
  -6  -6   6  575.29   52.58
   6   6  -5  513.09   51.87
  -6  -6   5  442.24   43.75
   6   6  -4  211.54   32.95
  -6  -6   4  264.82   33.02
  -6  -6   3  108.55   20.74
   6   6  -3  136.36   26.23
   6   6  -2  680.63   56.57
  -6  -6   2  543.66   46.15
   6   6  -1  151.71   27.84
   6   6   0 1362.18   84.00
   6   6   1  148.36   27.00
   6   6   2   72.59   18.31
  -6  -6  -3   72.85   15.92
   6   6   3   64.76   17.39
  -6  -6  -4  223.42   26.47
  -6  -6  -5   51.55   13.39
  -6  -6  -6   34.15   11.81
  -6  -6  -7   16.38   10.06
  -6  -6  -8   96.83   18.72
  -6  -6  -9  541.29   44.68
  -6  -6 -10   96.82   19.29
  -6  -6 -11   99.76   21.31
  -6  -7   5   33.85   15.53
  -6  -7   4   77.52   18.51
  -6  -7   3   41.46   13.15
  -6  -7   2  250.98   32.07
  -6  -7   1  318.43   35.16
  -6  -7   0  257.81   31.85
  -6  -7  -2  837.69   54.36
  -6  -7  -3   -9.67   10.04
  -6  -7  -4  452.82   36.73
  -6  -7  -5  148.83   20.38
  -6  -7  -6  988.52   58.87
  -6  -7  -7   67.80   15.93
  -6  -7  -8   22.98   10.12
  -6  -7  -9  215.78   27.85
  -6  -7 -10  114.33   21.94
  -6  -8   1  215.52   30.70
  -6  -8   0    5.09    9.28
  -6  -8  -1   60.27   17.32
  -6  -8  -2    4.23   10.42
  -6  -8  -3  124.87   23.66
  -6  -8  -4    1.42   10.53
  -6  -8  -5  158.01   27.87
  -6  -8  -6  205.49   30.68
  -7   7  -1   -0.64    9.84
  -7   7  -2    3.05   10.43
  -7   7  -3  -14.62   11.45
  -7   7  -4   38.16   14.55
  -7   6  -2   -2.54   11.63
  -7   6  -3  107.64   21.92
  -7   6  -4   37.26   15.46
  -7   6  -5  370.88   39.42
   7  -5   1   80.00   32.24
   7  -5   2   -4.25   21.36
  -7   5  -3  271.74   34.80
   7  -5   3  419.74   61.32
  -7   5  -4   48.97   15.79
   7  -5   4   80.63   32.37
  -7   5  -5  193.24   28.45
  -7   5  -6  -17.29   13.62
   7  -4  -1    9.55   17.71
   7  -4   0  421.93   62.72
   7  -4   1   92.51   32.48
   7  -4   2    6.97   16.89
  -7   4  -3  176.60   27.58
   7  -4   3  133.02   37.32
  -7   4  -4    5.48    9.34
   7  -4   4   40.09   27.15
  -7   4  -5   -7.84   10.35
   7  -4   5   11.65   18.68
  -7   4  -6   40.81   14.62
  -7   4  -7    5.97    9.60
   7  -3  -2    3.07   15.83
   7  -3  -1   37.94   21.08
   7  -3   0  -14.21   26.83
   7  -3   1  354.73   59.17
   7  -3   2  396.29   60.74
   7  -3   3  247.15   47.51
  -7   3  -4  555.11   48.88
   7  -3   4  581.17   73.87
  -7   3  -5   31.80   13.00
   7  -3   5   42.20   23.02
  -7   3  -6   38.96   13.04
  -7   3  -7   29.14   12.95
  -7   3  -8  467.60   45.69
   7  -2  -3   71.58   28.58
   7  -2  -2  127.47   34.04
   7  -2  -1   17.53   19.66
   7  -2   0  245.55   47.52
   7  -2   1   29.12   19.24
   7  -2   2   16.44   18.42
   7  -2   3   41.27   22.53
  -7   2  -4  194.41   29.06
   7  -2   4  253.57   47.16
  -7   2  -5   19.15   11.20
   7  -2   5   50.34   24.44
  -7   2  -6  114.94   22.24
  -7   2  -7   56.37   16.37
  -7   2  -8  618.39   52.68
   7  -1  -3   89.34   28.62
   7  -1  -2  847.46   84.43
   7  -1  -1  118.87   34.69
   7  -1   0   29.68   19.61
   7  -1   1 1008.29   95.70
   7  -1   2  351.48   56.42
   7  -1   3  260.36   47.51
  -7   1  -4    7.81   10.10
   7  -1   4    6.36   15.09
  -7   1  -5  392.61   40.65
   7  -1   5  382.80   55.82
  -7   1  -6   10.49    8.03
  -7   1  -7  -13.41   10.19
  -7   1  -8   62.40   16.93
   7   0  -4  126.67   33.59
   7   0  -3   71.34   26.05
   7   0  -2   63.35   22.46
   7   0  -1   85.09   26.62
   7   0   0  322.87   52.36
   7   0   1    7.50   15.98
   7   0   2   76.28   27.37
   7   0   3   63.06   24.82
  -7   0  -4  338.56   38.36
   7   0   4  372.41   54.20
  -7   0  -5  322.28   36.64
   7   0   5  407.98   55.02
  -7   0  -6  351.76   37.89
  -7   0  -7  417.47   41.34
  -7   0  -8   71.81   17.95
   7   1  -4   48.55   22.26
   7   1  -3  837.87   81.00
   7   1  -2   19.33   17.27
   7   1  -1  139.37   34.05
   7   1   0  115.43   33.21
   7   1   1  169.51   36.52
   7   1   2  -20.56   18.42
   7   1   3  119.17   31.77
  -7  -1  -4   22.82   11.42
   7   1   4   10.71   16.26
  -7  -1  -5   14.87   11.80
   7   1   5   18.27   15.84
  -7  -1  -6  294.01   34.35
  -7  -1  -7   59.08   17.45
  -7  -1  -8    7.03    9.01
  -7  -1  -9  322.49   36.79
   7   2  -4   58.32   24.16
   7   2  -3   82.82   23.44
   7   2  -2   88.16   27.95
   7   2  -1  781.64   76.69
   7   2   0  -43.43   20.87
   7   2   1  676.07   71.36
   7   2   2  423.24   55.36
   7   2   3  565.45   62.17
  -7  -2  -4  369.11   38.62
   7   2   4  415.78   51.77
  -7  -2  -5   50.95   15.33
  -7  -2  -6  579.62   48.54
  -7  -2  -7  212.05   28.63
  -7  -2  -8  121.00   22.36
  -7  -2  -9   82.42   19.89
   7   3  -4  192.50   37.50
   7   3  -3    0.52   12.30
   7   3  -2  174.51   35.42
   7   3  -1   87.16   25.64
   7   3   0    3.60   15.56
   7   3   1  128.04   31.56
   7   3   2  -32.99   18.05
   7   3   3  340.22   47.97
  -7  -3  -4    4.59    9.24
   7   3   4   10.44   14.62
  -7  -3  -5   55.58   15.71
  -7  -3  -6    9.79   10.14
  -7  -3  -7  324.81   35.67
  -7  -3  -8  160.77   26.20
  -7  -3  -9  122.46   23.40
   7   4  -4  126.43   33.14
   7   4  -3    6.99   18.09
   7   4  -2  300.74   46.31
   7   4  -1   40.11   18.01
   7   4   0  739.91   71.72
   7   4   1   49.58   20.37
   7   4   2  225.34   36.56
  -7  -4  -3   49.68   15.81
   7   4   3    3.47   13.29
  -7  -4  -4   76.57   17.41
   7   4   4  100.28   26.68
  -7  -4  -5  127.90   21.28
  -7  -4  -6  222.69   29.15
  -7  -4  -7   16.43   11.21
  -7  -4  -8    4.64    9.10
   7   5  -4  104.49   28.15
   7   5  -3   83.75   24.40
   7   5  -2   57.00   23.18
   7   5  -1  -71.90   23.59
   7   5   0  338.87   47.79
   7   5   1   33.27   18.97
   7   5   2  215.58   36.23
  -7  -5  -3    4.59   10.14
   7   5   3   -7.47   14.65
  -7  -5  -4 1206.52   72.56
  -7  -5  -5   68.30   16.59
  -7  -5  -6  310.98   33.20
  -7  -5  -7  467.57   42.39
  -7  -5  -8  270.33   32.29
  -7  -6  -3   35.96   13.59
  -7  -6  -4   32.62   12.89
  -7  -6  -5   18.98   10.62
  -7  -6  -6   97.57   19.22
  -7  -6  -7   86.18   19.72
  -7  -6  -8   58.09   15.70
  -7  -7  -2    9.12    8.93
  -7  -7  -3  791.50   54.90
  -7  -7  -4    1.66    9.78
  -7  -7  -5   73.97   17.23
   8   3   2  224.72   41.18
   8   3   3   30.53   18.59
   8   3   4  343.97   50.81
   0   0   0    0.00    0.00
;
_shelx_hkl_checksum              94905
_olex2_submission_special_instructions 'No special instructions were received'
_oxdiff_exptl_absorpt_empirical_details
;
Empirical correction (ABSPACK) includes:
- Absorption correction using spherical harmonics
- Frame scaling
;
_oxdiff_exptl_absorpt_empirical_full_max 1.587
_oxdiff_exptl_absorpt_empirical_full_min 0.525
loop_
_space_group_symop_operation_xyz
'x, y, z'
'-x, -y, -z'
loop_
_atom_site_label
_atom_site_type_symbol
_atom_site_fract_x
_atom_site_fract_y
_atom_site_fract_z
_atom_site_U_iso_or_equiv
_atom_site_adp_type
_atom_site_occupancy
_atom_site_site_symmetry_order
_atom_site_calc_flag
_atom_site_refinement_flags_posn
_atom_site_refinement_flags_adp
_atom_site_refinement_flags_occupancy
_atom_site_disorder_assembly
_atom_site_disorder_group
U1 U 1.26084(7) 0.91653(3) 0.25253(3) 0.00843(10) Uani 1 1 d . . . . .
Pb1 Pb 0.17142(7) 0.31106(3) 0.19433(3) 0.01358(11) Uani 1 1 d . . . . .
Se1 Se 1.28827(19) 0.88887(8) -0.04641(7) 0.0090(2) Uani 1 1 d . . . . .
Se2 Se 1.2254(2) 1.16891(8) 0.48747(8) 0.0141(2) Uani 1 1 d . . . . .
Se3 Se 0.90637(19) 0.62505(8) 0.22121(8) 0.0113(2) Uani 1 1 d . . . . .
Cu1 Cu 1.000000 0.500000 0.500000 0.0101(3) Uani 1 2 d S . P . .
Cu2 Cu 0.7071(2) 0.44314(10) 0.04631(10) 0.0103(3) Uani 1 1 d . . . . .
Cu3 Cu 0.5643(2) 0.42368(10) 0.38496(10) 0.0122(3) Uani 1 1 d . . . . .
O1 O 1.5222(14) 0.8657(6) 0.3047(6) 0.0196(16) Uani 1 1 d . . . . .
O2 O 1.0025(15) 0.9661(6) 0.1961(6) 0.0203(17) Uani 1 1 d . . . . .
O3 O 1.4470(14) 0.8655(6) 0.0623(5) 0.0149(11) Uani 1 1 d . . . . .
O4 O 1.1596(14) 0.7382(5) -0.0579(6) 0.0140(15) Uani 1 1 d . . . . .
O5 O 1.5176(13) 0.8866(6) -0.1625(5) 0.0126(15) Uani 1 1 d . . . . .
O6 O 1.1568(14) 1.1009(6) 0.3693(5) 0.0149(11) Uani 1 1 d . . . . .
O7 O 1.2399(15) 1.3310(6) 0.4421(6) 0.0212(12) Uani 1 1 d . . . . .
O8 O 0.9563(15) 1.1702(6) 0.5742(6) 0.0212(12) Uani 1 1 d . . . . .
O9 O 1.1803(13) 0.6912(6) 0.2223(5) 0.0135(11) Uani 1 1 d . . . . .
O10 O 0.8868(13) 0.5135(6) 0.3321(5) 0.0135(11) Uani 1 1 d . . . . .
O11 O 0.9802(13) 0.5151(5) 0.1142(5) 0.0083(14) Uani 1 1 d . . . . .
O12 O 0.6935(14) 0.4091(6) 0.5252(5) 0.0145(15) Uani 1 1 d D . . . .
H12 H 0.76(2) 0.334(7) 0.558(8) 0.022 Uiso 1 1 d D U . . .
O13 O 0.4697(13) 0.4576(5) 0.2380(5) 0.0111(14) Uani 1 1 d D . . . .
H13 H 0.363(15) 0.528(7) 0.234(9) 0.017 Uiso 1 1 d D U . . .
O14 O 0.4042(13) 0.3836(5) 0.0067(5) 0.0104(14) Uani 1 1 d D . . . .
H14 H 0.41(2) 0.297(4) -0.024(8) 0.016 Uiso 1 1 d D U . . .
O15 O 0.6990(17) 0.2031(7) 0.3417(7) 0.034(2) Uani 1 1 d . . . . .
H15A H 0.680693 0.181326 0.272018 0.051 Uiso 1 1 d DR U . . .
H15B H 0.857293 0.196246 0.337927 0.051 Uiso 1 1 d R U . . .
loop_
_atom_site_aniso_label
_atom_site_aniso_U_11
_atom_site_aniso_U_22
_atom_site_aniso_U_33
_atom_site_aniso_U_23
_atom_site_aniso_U_13
_atom_site_aniso_U_12
U1 0.0137(2) 0.00718(16) 0.00406(18) 0.00052(11) -0.00068(15) -0.00386(13)
Pb1 0.0153(2) 0.01260(18) 0.0125(2) 0.00228(13) -0.00189(16) -0.00396(14)
Se1 0.0139(5) 0.0076(4) 0.0053(4) 0.0002(3) -0.0012(4) -0.0032(3)
Se2 0.0212(6) 0.0135(4) 0.0068(5) 0.0009(3) -0.0006(4) -0.0037(4)
Se3 0.0148(6) 0.0084(4) 0.0095(5) -0.0024(3) 0.0008(4) -0.0030(3)
Cu1 0.0114(10) 0.0126(7) 0.0062(8) -0.0018(6) -0.0010(7) -0.0042(6)
Cu2 0.0122(7) 0.0087(5) 0.0105(6) 0.0006(4) -0.0033(5) -0.0031(4)
Cu3 0.0135(7) 0.0163(5) 0.0065(6) -0.0009(4) -0.0005(5) -0.0074(5)
O1 0.017(5) 0.024(4) 0.019(4) 0.002(3) -0.007(3) -0.005(3)
O2 0.022(5) 0.022(3) 0.016(4) -0.001(3) -0.004(4) -0.001(3)
O3 0.028(3) 0.014(2) 0.003(2) -0.0023(16) -0.001(2) -0.005(2)
O4 0.018(4) 0.007(3) 0.017(4) 0.000(2) -0.004(3) -0.001(3)
O5 0.015(4) 0.013(3) 0.009(3) 0.002(2) 0.001(3) -0.006(3)
O6 0.028(3) 0.014(2) 0.003(2) -0.0023(16) -0.001(2) -0.005(2)
O7 0.028(4) 0.018(2) 0.014(3) 0.0003(18) 0.008(2) -0.003(2)
O8 0.028(4) 0.018(2) 0.014(3) 0.0003(18) 0.008(2) -0.003(2)
O9 0.016(3) 0.016(2) 0.009(2) 0.0034(17) -0.002(2) -0.0088(19)
O10 0.016(3) 0.016(2) 0.009(2) 0.0034(17) -0.002(2) -0.0088(19)
O11 0.013(4) 0.008(3) 0.002(3) 0.000(2) 0.002(3) -0.004(3)
O12 0.017(4) 0.012(3) 0.012(4) 0.004(2) 0.002(3) -0.006(3)
O13 0.014(4) 0.011(3) 0.008(3) -0.001(2) 0.000(3) -0.002(3)
O14 0.013(4) 0.008(3) 0.010(3) -0.004(2) -0.001(3) -0.001(3)
O15 0.036(6) 0.042(5) 0.027(5) -0.019(4) -0.008(4) -0.007(4)
loop_
_atom_type_symbol
_atom_type_description
_atom_type_scat_dispersion_real
_atom_type_scat_dispersion_imag
_atom_type_scat_source
Cu Cu 0.3201 1.2651 'International Tables Vol C Tables 4.2.6.8 and 6.1.1.4'
H H 0.0000 0.0000 'International Tables Vol C Tables 4.2.6.8 and 6.1.1.4'
O O 0.0106 0.0060 'International Tables Vol C Tables 4.2.6.8 and 6.1.1.4'
Pb Pb -3.3944 10.1111 'International Tables Vol C Tables 4.2.6.8 and 6.1.1.4'
Se Se -0.0929 2.2259 'International Tables Vol C Tables 4.2.6.8 and 6.1.1.4'
U U -9.6767 9.6646 'International Tables Vol C Tables 4.2.6.8 and 6.1.1.4'
loop_
_exptl_crystal_face_index_h
_exptl_crystal_face_index_k
_exptl_crystal_face_index_l
_exptl_crystal_face_perp_dist
3 -13 5 0.0399
3 2 -14 0.0592
-2 13 -7 0.0239
-4 3 13 0.0446
7 -2 9 0.0377
-2 -13 -4 0.0406
-7 -3 -9 0.0219
0 14 1 0.0073
loop_
_geom_angle_atom_site_label_1
_geom_angle_atom_site_label_2
_geom_angle_atom_site_label_3
_geom_angle
_geom_angle_site_symmetry_1
_geom_angle_site_symmetry_3
O1 U1 O2 178.3(3) . .
O1 U1 O3 91.0(3) . .
O1 U1 O5 89.1(3) . 2_875
O1 U1 O6 98.5(3) . .
O1 U1 O8 85.9(3) . 2_776
O1 U1 O9 89.0(3) . .
O2 U1 O3 87.3(3) . .
O2 U1 O5 90.4(3) . 2_875
O2 U1 O6 82.8(3) . .
O2 U1 O8 95.4(3) . 2_776
O2 U1 O9 90.4(3) . .
O3 U1 O5 70.7(2) . 2_875
O6 U1 O3 140.5(2) . .
O6 U1 O5 71.1(2) . 2_875
O6 U1 O8 74.0(2) . 2_776
O6 U1 O9 145.8(2) . .
O8 U1 O3 145.3(2) 2_776 .
O8 U1 O5 143.6(2) 2_776 2_875
O8 U1 O9 73.3(2) 2_776 .
O9 U1 O3 72.0(2) . .
O9 U1 O5 142.7(2) . 2_875
O5 Pb1 O4 105.87(19) 2_765 2_665
O11 Pb1 O4 63.56(17) 1_455 2_665
O11 Pb1 O5 149.07(19) 1_455 2_765
O13 Pb1 O4 147.01(19) . 2_665
O13 Pb1 O5 91.4(2) . 2_765
O13 Pb1 O11 87.1(2) . 1_455
O13 Pb1 O14 75.3(2) . .
O14 Pb1 O4 79.8(2) . 2_665
O14 Pb1 O5 81.1(2) . 2_765
O14 Pb1 O11 68.6(2) . 1_455
O3 Se1 O5 100.8(3) . .
O4 Se1 O3 104.2(3) . .
O4 Se1 O5 100.3(3) . .
O6 Se2 O7 98.1(3) . .
O8 Se2 O6 101.9(4) . .
O8 Se2 O7 99.5(3) . .
O9 Se3 O10 100.3(3) . .
O9 Se3 O11 99.7(3) . .
O10 Se3 O11 97.5(3) . .
O7 Cu1 O7 180.0 2_776 1_545
O7 Cu1 O10 90.4(3) 2_776 2_766
O7 Cu1 O10 89.6(3) 2_776 .
O7 Cu1 O10 89.6(3) 1_545 2_766
O7 Cu1 O10 90.4(3) 1_545 .
O10 Cu1 O10 180.00(9) . 2_766
O12 Cu1 O7 99.5(3) . 1_545
O12 Cu1 O7 99.5(3) 2_766 2_776
O12 Cu1 O7 80.5(3) 2_766 1_545
O12 Cu1 O7 80.5(3) . 2_776
O12 Cu1 O10 76.3(3) . .
O12 Cu1 O10 103.7(3) 2_766 .
O12 Cu1 O10 76.3(3) 2_766 2_766
O12 Cu1 O10 103.7(3) . 2_766
O12 Cu1 O12 180.0 . 2_766
O4 Cu2 Cu2 134.6(2) 2_765 2_665
O4 Cu2 O11 89.1(3) 2_765 .
O4 Cu2 O11 88.1(2) 2_765 2_765
O11 Cu2 Cu2 99.14(17) 2_765 2_665
O11 Cu2 Cu2 136.29(17) . 2_665
O11 Cu2 O11 75.8(2) . 2_765
O14 Cu2 Cu2 40.49(19) 2_665 2_665
O14 Cu2 Cu2 41.09(17) . 2_665
O14 Cu2 O4 95.1(3) . 2_765
O14 Cu2 O4 165.6(3) 2_665 2_765
O14 Cu2 O11 169.3(3) . .
O14 Cu2 O11 96.7(2) 2_665 .
O14 Cu2 O11 114.1(2) . 2_765
O14 Cu2 O11 80.6(2) 2_665 2_765
O14 Cu2 O14 81.6(3) . 2_665
O7 Cu3 O12 74.5(2) 1_445 2_666
O7 Cu3 O15 83.4(3) 1_445 .
O10 Cu3 O7 178.6(3) . 1_445
O10 Cu3 O12 105.7(2) . 2_666
O10 Cu3 O15 96.3(3) . .
O12 Cu3 O7 98.0(3) . 1_445
O12 Cu3 O10 80.6(3) . .
O12 Cu3 O12 86.8(3) . 2_666
O12 Cu3 O13 171.9(3) . .
O12 Cu3 O15 89.0(3) . .
O12 Cu3 O15 156.6(3) 2_666 .
O13 Cu3 O7 89.7(3) . 1_445
O13 Cu3 O10 91.6(3) . .
O13 Cu3 O12 93.0(3) . 2_666
O13 Cu3 O15 94.4(3) . .
Se1 O3 U1 119.4(4) . .
Se1 O4 Pb1 124.7(3) . 2_665
Se1 O4 Cu2 129.8(4) . 2_765
Cu2 O4 Pb1 99.8(2) 2_765 2_665
U1 O5 Pb1 105.3(3) 2_875 2_765
Se1 O5 U1 125.3(3) . 2_875
Se1 O5 Pb1 121.7(3) . 2_765
Se2 O6 U1 139.8(4) . .
Se2 O7 Cu1 129.9(4) . 1_565
Se2 O7 Cu3 121.3(4) . 1_665
Cu3 O7 Cu1 102.5(3) 1_665 1_565
Se2 O8 U1 143.6(4) . 2_776
Se3 O9 U1 125.8(4) . .
Se3 O10 Cu1 137.8(3) . .
Se3 O10 Cu3 117.0(4) . .
Cu3 O10 Cu1 95.2(3) . .
Se3 O11 Pb1 107.9(3) . 1_655
Se3 O11 Cu2 116.6(4) . .
Se3 O11 Cu2 122.8(3) . 2_765
Cu2 O11 Pb1 105.3(2) . 1_655
Cu2 O11 Pb1 97.2(2) 2_765 1_655
Cu2 O11 Cu2 104.2(2) . 2_765
Cu1 O12 Cu3 101.1(2) . 2_666
Cu1 O12 Cu3 107.7(3) . .
Cu1 O12 H12 92(7) . .
Cu3 O12 Cu3 93.2(3) . 2_666
Cu3 O12 H12 130(6) . .
Cu3 O12 H12 129(7) 2_666 .
Pb1 O13 H13 88(6) . .
Cu3 O13 Pb1 115.0(3) . .
Cu3 O13 H13 117(6) . .
Pb1 O14 H14 94(6) . .
Cu2 O14 Pb1 112.4(3) 2_665 .
Cu2 O14 Pb1 102.2(3) . .
Cu2 O14 Cu2 98.4(3) . 2_665
Cu2 O14 H14 115(7) . .
Cu2 O14 H14 132(6) 2_665 .
Cu3 O15 H15A 111.6 . .
Cu3 O15 H15B 111.2 . .
H15A O15 H15B 102.5 . .
loop_
_geom_bond_atom_site_label_1
_geom_bond_atom_site_label_2
_geom_bond_distance
_geom_bond_site_symmetry_2
U1 O1 1.776(8) .
U1 O2 1.783(8) .
U1 O3 2.399(6) .
U1 O5 2.468(6) 2_875
U1 O6 2.360(6) .
U1 O8 2.363(7) 2_776
U1 O9 2.364(6) .
Pb1 O4 2.752(7) 2_665
Pb1 O5 2.641(7) 2_765
Pb1 O11 2.565(6) 1_455
Pb1 O13 2.381(6) .
Pb1 O14 2.487(6) .
Se1 O3 1.722(7) .
Se1 O4 1.703(6) .
Se1 O5 1.724(7) .
Se2 O6 1.694(6) .
Se2 O7 1.706(6) .
Se2 O8 1.682(8) .
Se3 O9 1.691(7) .
Se3 O10 1.708(6) .
Se3 O11 1.708(6) .
Cu1 O7 2.218(7) 1_545
Cu1 O7 2.218(7) 2_776
Cu1 O10 2.219(6) 2_766
Cu1 O10 2.219(6) .
Cu1 O12 1.935(7) 2_766
Cu1 O12 1.935(7) .
Cu2 Cu2 2.983(2) 2_665
Cu2 O4 1.985(6) 2_765
Cu2 O11 2.397(6) 2_765
Cu2 O11 2.015(7) .
Cu2 O14 1.982(6) 2_665
Cu2 O14 1.958(7) .
Cu3 O7 2.058(8) 1_445
Cu3 O10 2.029(7) .
Cu3 O12 1.952(7) .
Cu3 O12 2.372(7) 2_666
Cu3 O13 1.952(6) .
Cu3 O15 2.383(8) .
O12 H12 0.94(2) .
O13 H13 0.94(2) .
O14 H14 0.95(2) .
O15 H15A 0.8916 .
O15 H15B 0.8917 .
loop_
_geom_hbond_atom_site_label_D
_geom_hbond_atom_site_label_H
_geom_hbond_atom_site_label_A
_geom_hbond_distance_DH
_geom_hbond_distance_HA
_geom_hbond_distance_DA
_geom_hbond_angle_DHA
_geom_hbond_site_symmetry_A
_geom_hbond_publ_flag
O12 H12 O8 0.94(2) 2.02(4) 2.927(10) 160(10) 1_545 yes
O13 H13 O9 0.94(2) 1.95(3) 2.884(9) 172(10) 1_455 yes
O14 H14 O3 0.95(2) 1.86(6) 2.741(8) 153(10) 2_765 yes
O15 H15A O5 0.89 2.01 2.823(10) 151.7 2_765 yes
O15 H15B O6 0.89 2.03 2.856(12) 152.8 1_545 yes
loop_
_geom_torsion_atom_site_label_1
_geom_torsion_atom_site_label_2
_geom_torsion_atom_site_label_3
_geom_torsion_atom_site_label_4
_geom_torsion
_geom_torsion_site_symmetry_1
_geom_torsion_site_symmetry_2
_geom_torsion_site_symmetry_3
_geom_torsion_site_symmetry_4
O3 Se1 O4 Pb1 172.6(4) . . . 2_665
O3 Se1 O4 Cu2 -39.6(5) . . . 2_765
O3 Se1 O5 U1 -91.6(4) . . . 2_875
O3 Se1 O5 Pb1 53.1(4) . . . 2_765
O4 Se1 O3 U1 -93.1(4) . . . .
O4 Se1 O5 U1 161.7(4) . . . 2_875
O4 Se1 O5 Pb1 -53.6(4) . . . 2_765
O5 Se1 O3 U1 163.3(3) . . . .
O5 Se1 O4 Pb1 -83.4(4) . . . 2_665
O5 Se1 O4 Cu2 64.4(5) . . . 2_765
O6 Se2 O7 Cu1 111.6(5) . . . 1_565
O6 Se2 O7 Cu3 -101.2(5) . . . 1_665
O6 Se2 O8 U1 116.4(6) . . . 2_776
O7 Se2 O6 U1 137.4(6) . . . .
O7 Se2 O8 U1 -143.1(6) . . . 2_776
O8 Se2 O6 U1 -121.1(6) . . . .
O8 Se2 O7 Cu1 8.0(6) . . . 1_565
O8 Se2 O7 Cu3 155.2(4) . . . 1_665
O9 Se3 O10 Cu1 35.5(6) . . . .
O9 Se3 O10 Cu3 170.8(4) . . . .
O9 Se3 O11 Pb1 78.3(3) . . . 1_655
O9 Se3 O11 Cu2 -33.1(4) . . . 2_765
O9 Se3 O11 Cu2 -163.6(3) . . . .
O10 Se3 O9 U1 -118.4(4) . . . .
O10 Se3 O11 Pb1 -23.6(4) . . . 1_655
O10 Se3 O11 Cu2 94.6(4) . . . .
O10 Se3 O11 Cu2 -135.0(4) . . . 2_765
O11 Se3 O9 U1 142.0(4) . . . .
O11 Se3 O10 Cu1 136.8(6) . . . .
O11 Se3 O10 Cu3 -87.8(4) . . . .
loop_
_exptl_oxdiff_crystal_face_indexfrac_h
_exptl_oxdiff_crystal_face_indexfrac_k
_exptl_oxdiff_crystal_face_indexfrac_l
_exptl_oxdiff_crystal_face_x
_exptl_oxdiff_crystal_face_y
_exptl_oxdiff_crystal_face_z
2.7488 -12.7968 5.0768 -0.0421 -0.1495 0.9879
2.6772 1.8415 -14.4772 0.2308 0.9686 -0.0923
-2.3407 12.5631 -6.5853 0.0675 0.2571 -0.9640
-3.7935 3.0340 12.8520 -0.2198 -0.9329 -0.2852
7.3134 -2.4873 8.6646 -0.7969 0.1932 0.5724
-2.2948 -13.4171 -4.0183 0.6757 -0.1557 0.7205
-7.2355 -2.7805 -9.0520 0.9455 -0.2263 -0.2340
0.1619 14.1853 1.4952 -0.4446 0.0996 -0.8902
