#------------------------------------------------------------------------------
#$Date: 2022-02-01 10:53:55 +0200 (Tue, 01 Feb 2022) $
#$Revision: 272378 $
#$URL: file:///home/coder/svn-repositories/cod/cif/1/56/62/1566225.cif $
#------------------------------------------------------------------------------
#
# This file is available in the Crystallography Open Database (COD),
# http://www.crystallography.net/
#
# All data on this site have been placed in the public domain by the
# contributors.
#
data_1566225
loop_
_publ_author_name
'Vladislav V. Gurzhiy'
'Alina R. Izatulina'
'Maria G. Krzhizhanovskaya'
'Mikhail N. Murashko'
'Dar-ya V. Spiridonova'
'Vladimir V. Shilovskikh'
'Sergey V. Krivovichev'
_publ_section_title
;
 Thermal behavior of uranyl selenite minerals derriksite and
 demesmaekerite
;
_journal_name_full               'Journal of GeoSciences'
_journal_page_first              249
_journal_page_last               259
_journal_paper_doi               10.3190/jgeosci.315
_journal_volume                  65
_journal_year                    2020
_chemical_formula_moiety         'Cu4 H6 O14 Se2 U'
_chemical_formula_sum            'Cu4 H6 O14 Se2 U'
_chemical_formula_weight         880.16
_space_group_crystal_system      orthorhombic
_space_group_IT_number           31
_space_group_name_Hall           'P 2ac -2'
_space_group_name_H-M_alt        'P m n 21'
_atom_sites_solution_hydrogens   difmap
_cell_angle_alpha                90
_cell_angle_beta                 90
_cell_angle_gamma                90
_cell_formula_units_Z            2
_cell_length_a                   5.9689(3)
_cell_length_b                   5.5534(4)
_cell_length_c                   19.0643(10)
_cell_measurement_reflns_used    2592
_cell_measurement_temperature    153(2)
_cell_measurement_theta_max      30.4500
_cell_measurement_theta_min      4.2420
_cell_volume                     631.94(6)
_computing_cell_refinement       'CrysAlisPro 1.171.39.44a (Rigaku OD, 2018)'
_computing_data_collection       'CrysAlisPro 1.171.39.44a (Rigaku OD, 2018)'
_computing_data_reduction        'CrysAlisPro 1.171.39.44a (Rigaku OD, 2018)'
_computing_molecular_graphics    'Olex2 1.3 (Dolomanov et al., 2009)'
_computing_publication_material  'Olex2 1.3 (Dolomanov et al., 2009)'
_computing_structure_refinement  'SHELXL 2018/3 (Sheldrick, 2015)'
_computing_structure_solution    'SHELXT 2018/3 (Sheldrick, 2015)'
_diffrn_ambient_environment      N~2~
_diffrn_ambient_temperature      153(2)
_diffrn_detector                 'CCD plate'
_diffrn_detector_area_resol_mean 10.3829
_diffrn_detector_type            Atlas
_diffrn_measured_fraction_theta_full 0.997
_diffrn_measured_fraction_theta_max 0.998
_diffrn_measurement_details
;
List of Runs (angles in degrees, time in seconds):

  # Type    Start    End  Width  t~exp~   \w     \q     \k     \f   Frames
--------------------------------------------------------------------------
  1  \w    -47.00   3.00   1.00   22.50    --  -14.99  77.00-180.00   50
  2  \w    -27.00  19.00   1.00   22.50    --  -14.99 -77.00-150.00   46
  3  \w     42.00  83.00   1.00   22.50    --   16.86 178.00 -30.00   41
  4  \w     31.00  59.00   1.00   22.50    --   16.86 -99.00 120.00   28
  5  \w     -4.00  93.00   1.00   22.50    --   16.86  38.00 120.00   97
  6  \w     -8.00  93.00   1.00   22.50    --   16.86  38.00  30.00  101
;
_diffrn_measurement_device       'four-circle diffractometer'
_diffrn_measurement_device_type  'SuperNova, Dual, Cu at home/near, Atlas'
_diffrn_measurement_method       '\w scans'
_diffrn_orient_matrix_type
'CrysAlisPro convention (1999,Acta A55,543-557)'
_diffrn_orient_matrix_UB_11      -0.1104247000
_diffrn_orient_matrix_UB_12      -0.0356187000
_diffrn_orient_matrix_UB_13      0.0090761000
_diffrn_orient_matrix_UB_21      0.0265305000
_diffrn_orient_matrix_UB_22      -0.1209319000
_diffrn_orient_matrix_UB_23      -0.0086532000
_diffrn_orient_matrix_UB_31      0.0352043000
_diffrn_orient_matrix_UB_32      -0.0206325000
_diffrn_orient_matrix_UB_33      0.0350043000
_diffrn_radiation_monochromator  mirror
_diffrn_radiation_probe          x-ray
_diffrn_radiation_type           'Mo K\a'
_diffrn_radiation_wavelength     0.71073
_diffrn_reflns_av_R_equivalents  0.0446
_diffrn_reflns_av_unetI/netI     0.0427
_diffrn_reflns_Laue_measured_fraction_full 0.997
_diffrn_reflns_Laue_measured_fraction_max 0.998
_diffrn_reflns_limit_h_max       7
_diffrn_reflns_limit_h_min       -6
_diffrn_reflns_limit_k_max       7
_diffrn_reflns_limit_k_min       -6
_diffrn_reflns_limit_l_max       22
_diffrn_reflns_limit_l_min       -24
_diffrn_reflns_number            5114
_diffrn_reflns_point_group_measured_fraction_full 0.971
_diffrn_reflns_point_group_measured_fraction_max 0.969
_diffrn_reflns_theta_full        25.242
_diffrn_reflns_theta_max         27.496
_diffrn_reflns_theta_min         3.577
_diffrn_source                   'micro-focus sealed X-ray tube'
_diffrn_source_type              'SuperNova (Mo) X-ray Source'
_exptl_absorpt_coefficient_mu    25.224
_exptl_absorpt_correction_T_max  0.994
_exptl_absorpt_correction_T_min  0.989
_exptl_absorpt_correction_type   analytical
_exptl_absorpt_process_details
;
CrysAlisPro 1.171.39.44a (Rigaku Oxford Diffraction, 2018)
Analytical numeric absorption correction using a multifaceted crystal
			model based on expressions derived by R.C. Clark & J.S. Reid.
(Clark, R. C. & Reid, J. S. (1995). Acta Cryst. A51, 887-897)
Empirical absorption correction using spherical harmonics,
 implemented in SCALE3 ABSPACK scaling algorithm.
;
_exptl_crystal_colour            green
_exptl_crystal_density_diffrn    4.626
_exptl_crystal_description       prism
_exptl_crystal_F_000             788
_exptl_crystal_size_max          0.108
_exptl_crystal_size_mid          0.06
_exptl_crystal_size_min          0.041
_refine_diff_density_max         1.353
_refine_diff_density_min         -2.048
_refine_diff_density_rms         0.242
_refine_ls_abs_structure_details
;
 Flack x determined using 670 quotients [(I+)-(I-)]/[(I+)+(I-)]
 (Parsons, Flack and Wagner, Acta Cryst. B69 (2013) 249-259).
;
_refine_ls_abs_structure_Flack   -0.022(19)
_refine_ls_extinction_coef       .
_refine_ls_extinction_method     none
_refine_ls_goodness_of_fit_ref   1.051
_refine_ls_hydrogen_treatment    refxyz
_refine_ls_matrix_type           full
_refine_ls_number_parameters     123
_refine_ls_number_reflns         1541
_refine_ls_number_restraints     7
_refine_ls_restrained_S_all      1.049
_refine_ls_R_factor_all          0.0370
_refine_ls_R_factor_gt           0.0358
_refine_ls_shift/su_max          0.000
_refine_ls_shift/su_mean         0.000
_refine_ls_structure_factor_coef Fsqd
_refine_ls_weighting_details
'w=1/[\s^2^(Fo^2^)+(0.0549P)^2^] where P=(Fo^2^+2Fc^2^)/3'
_refine_ls_weighting_scheme      calc
_refine_ls_wR_factor_gt          0.0829
_refine_ls_wR_factor_ref         0.0838
_reflns_Friedel_coverage         0.886
_reflns_Friedel_fraction_full    0.944
_reflns_Friedel_fraction_max     0.938
_reflns_number_gt                1499
_reflns_number_total             1541
_reflns_threshold_expression     'I > 2\s(I)'
_cod_data_source_file            Derriksite_SN_-120C_last.cif
_cod_data_source_block           derriksite_sn_-120C
_cod_original_cell_volume        631.93(6)
_cod_database_code               1566225
_chemical_oxdiff_formula         'Cu4 U Se2 O14'
_shelx_space_group_comment
;
The symmetry employed for this shelxl refinement is uniquely defined
by the following loop, which should always be used as a source of
symmetry information in preference to the above space-group names.
They are only intended as comments.
;
_reflns_odcompleteness_completeness 99.70
_reflns_odcompleteness_iscentric 1
_reflns_odcompleteness_theta     28.51
_olex2_refinement_description
;
1. Fixed Uiso
 At 1.5 times of:
  All O(H) groups
2. Restrained distances
 O9-H9
 1 with sigma of 0.02
 H9-O5_$5
 2.15 with sigma of 0.02
 O7-H7
 0.9 with sigma of 0.02
 O10-H10
 0.9 with sigma of 0.02
 O8-H8
 0.95 with sigma of 0.02
 H8-O1_$3
 2.1 with sigma of 0.02
3. Others
 Fixed Sof: H9(0.5)
;
_shelx_res_file
;
TITL Derriksite_SN_153K in Pmn2(1)
    derriksite_sn_153k.res
    created by SHELXL-2018/3 at 01:58:23 on 05-Sep-2020
REM Pmn2(1) (#31, found as Pnm2(1) in ba-c setting)
CELL 0.71073 5.9689 5.553372 19.064251 90 90 90
ZERR 2 0.000298 0.000369 0.000969 0 0 0
LATT -1
SYMM 0.5-X,-Y,0.5+Z
SYMM 0.5+X,-Y,0.5+Z
SYMM -X,+Y,+Z
SFAC Cu H O Se U
UNIT 8 12 28 4 2
EQIV $1 1+X,+Y,+Z
EQIV $2 0.5-X,-Y,-0.5+Z
EQIV $3 -X,+Y,+Z
EQIV $4 -1-X,+Y,+Z
EQIV $5 -0.5+X,1-Y,-0.5+Z
DFIX 1 O9 H9
DFIX 2.15 H9 O5_$5
DFIX 0.9 O7 H7
DFIX 0.9 O10 H10
DFIX 0.95 O8 H8
DFIX 2.1 H8 O1_$3

L.S. 20
PLAN  20
CONF
HTAB O7 O3_$3
HTAB O10 O5_$2
FREE Cu2 Cu3_$1
FREE Cu2 Cu3_$3
FREE Cu2 Cu3_$4
FREE Cu2 Cu3
FREE Cu1 Cu1_$4
list 4
MORE -1
BOND $H
fmap 2
acta
OMIT -4 55
OMIT 4 0 2
OMIT 4 0 -2
OMIT 4 1 15
REM <olex2.extras>
REM <HklSrc "%.\\Derriksite_SN_153K.hkl">
REM </olex2.extras>

WGHT    0.054900
FVAR       0.98188
U1    5    0.500000    0.185799    0.606490    10.50000    0.01063    0.02056 =
         0.00729   -0.00324    0.00000    0.00000
SE1   4    0.000000   -0.140772    0.527353    10.50000    0.01264    0.02132 =
         0.00853    0.00248    0.00000    0.00000
SE2   4    1.000000    0.510282    0.690111    10.50000    0.01187    0.01964 =
         0.00863    0.00182    0.00000    0.00000
CU1   1   -0.250265    0.603549    0.361799    11.00000    0.00446    0.00541 =
         0.01155    0.00087    0.00100    0.00078
CU2   1    0.000000    0.108194    0.353886    10.50000    0.00292    0.00403 =
         0.01096   -0.00067    0.00000    0.00000
CU3   1   -0.500000    0.098523    0.356174    10.50000    0.00258    0.00413 =
         0.00976   -0.00119    0.00000    0.00000
O1    3    0.500000    0.463879    0.557812    10.50000    0.01422    0.02710 =
         0.01965    0.00371    0.00000    0.00000
O2    3    0.500000   -0.082591    0.655269    10.50000    0.02833    0.02470 =
         0.00622    0.00401    0.00000    0.00000
O3    3    0.220227    0.061843    0.534315    11.00000    0.01453    0.02936 =
         0.01125   -0.00836   -0.00014   -0.00515
O4    3    0.000000   -0.202935    0.441960    10.50000    0.01257    0.00646 =
         0.00573   -0.00214    0.00000    0.00000
O5    3    0.777818    0.314172    0.682107    11.00000    0.02258    0.02799 =
         0.01669   -0.00635   -0.00067   -0.00386
O6    3    1.000000    0.558526    0.775659    10.50000    0.00959    0.01218 =
         0.01106   -0.00303    0.00000    0.00000
O7    3   -0.254330    0.274238    0.402344    11.00000    0.01140    0.00636 =
         0.01169   -0.00441   -0.00026   -0.00239
H7    2   -0.256844    0.251287    0.448974    11.00000   -1.50000
O8    3   -0.500000    0.718715    0.414075    10.50000    0.00808    0.00852 =
         0.00666   -0.00265    0.00000    0.00000
H8    2   -0.500000    0.638309    0.459009    10.50000   -1.50000
O9    3    0.000000    0.487242    0.308433    10.50000    0.00862    0.01256 =
         0.00746    0.00174    0.00000    0.00000
H9    2    0.069788    0.576568    0.268530    10.50000   -1.50000
O10   3   -0.247372   -0.074303    0.311952    11.00000    0.00765    0.00544 =
         0.01147   -0.00315   -0.00534   -0.00146
H10   2   -0.293733   -0.092179    0.267719    11.00000   -1.50000
HKLF 4




REM  Derriksite_SN_153K in Pmn2(1)
REM wR2 = 0.0838, GooF = S = 1.051, Restrained GooF = 1.049 for all data
REM R1 = 0.0358 for 1499 Fo > 4sig(Fo) and 0.0370 for all 1541 data
REM 123 parameters refined using 7 restraints

END

WGHT      0.0549      0.0000

REM Highest difference peak  1.353,  deepest hole -2.048,  1-sigma level  0.242
Q1    1   0.5000  0.0267  0.6103  10.50000  0.05    1.35
Q2    1   1.0000  0.8630  0.6892  10.50000  0.05    1.14
Q3    1   0.5000  0.0773  0.5349  10.50000  0.05    1.04
Q4    1   0.0000  0.1091  0.4727  10.50000  0.05    1.03
Q5    1   0.2713  0.1847  0.6092  11.00000  0.05    1.00
Q6    1   0.5000  0.0688  0.6794  10.50000  0.05    0.98
Q7    1   0.5000  0.4873  0.6073  10.50000  0.05    0.98
Q8    1   1.0000  0.5169  0.7386  10.50000  0.05    0.94
Q9    1   0.0000  0.1818  0.6063  10.50000  0.05    0.93
Q10   1  -0.2557  0.6129  0.3375  11.00000  0.05    0.92
Q11   1   0.4134  0.3295  0.6058  11.00000  0.05    0.91
Q12   1   0.0000  0.6436  0.3567  10.50000  0.05    0.91
Q13   1   0.5000  0.6691  0.6052  10.50000  0.05    0.90
Q14   1   0.5000 -0.1155  0.5426  10.50000  0.05    0.88
Q15   1   0.0000 -0.0098  0.3533  10.50000  0.05    0.86
Q16   1   0.7591  0.4743  0.6883  11.00000  0.05    0.79
Q17   1   0.0000  0.8031  0.2226  10.50000  0.05    0.78
Q18   1  -0.5000  0.4783  0.4787  10.50000  0.05    0.77
Q19   1   0.3065  0.4438  0.6032  11.00000  0.05    0.76
Q20   1   0.0000 -0.2932  0.5442  10.50000  0.05    0.75
;
_shelx_res_checksum              1424
_shelx_hkl_file
;
   0   0 -26 1541.89 426.396   2
   0   0 -25 182.550 79.2736   6
   0   0 -25 400.717 212.286   2
   0   0 -24 33390.1 1157.78   6
   0   0 -24 26974.3 1668.67   2
   0   0 -23 536.914 149.402   6
   0   0 -23 392.001 203.117   2
   0   0 -22 919.016 284.521   2
   0   0 -22 789.406 158.338   6
   0   0 -21 37.6133 68.8579   6
   0   0 -21 48.8724 97.5248   2
   0   0 -20 14987.9 677.638   6
   0   0 -19 189.086 84.3614   6
   0   0 -18 8484.38 483.318   1
   0   0 -18 6925.13 425.708   6
   0   0 -17 12.7161 46.0931   1
   0   0 -17 248.924 98.0846   6
   0   0 -16 43650.0 1176.62   1
   0   0 -16 34028.4 1043.45   6
   0   0 -15 249.131 80.9409   6
   0   0 -15 121.262 59.2252   1
   0   0 -14 4231.83 285.914   6
   0   0 -14 5497.63 339.430   1
   0   0 -14 4436.57 349.754   4
   0   0 -13 44.3864 44.2564   1
   0   0 -13 177.792 75.2586   6
   0   0 -13 112.316 63.1998   3
   0   0 -13 99.5424 64.4680   4
   0   0 -12 104594. 2201.50   6
   0   0 -12 108732. 2384.97   4
   0   0 -11 64.3745 46.4451   4
   0   0 -11 147.928 61.4115   6
   0   0 -11 10.7490 33.2735   1
   0   0 -10 819.558 112.463   3
   0   0 -10 685.766 94.7842   6
   0   0 -10 625.755 98.2855   1
   0   0 -10 772.022 117.749   4
   0   0  -9 15.3375 22.9219   3
   0   0  -9 27.8751 32.0790   6
   0   0  -9 57.3900 41.0311   1
   0   0  -9 8.57020 26.3721   4
   0   0  -8 19890.4 559.823   1
   0   0  -8 20359.1 610.240   4
   0   0  -8 18325.9 537.074   6
   0   0  -8 21284.3 586.195   3
   0   0  -7 17.1544 22.8195   4
   0   0  -7 50.6624 32.2047   1
   0   0  -7 49.9794 35.0371   6
   0   0  -6 32800.8 762.199   4
   0   0  -6 30816.0 714.555   1
   0   0  -6 30347.3 694.951   6
   0   0  -5 70.3861 32.9305   6
   0   0  -5 19.4187 23.1669   1
   0   0  -4 98114.3 1730.08   1
   0   0  -4 96050.0 1713.98   6
   0   0  -3 6.64251 10.6559   1
   0   0   4 101868. 1837.56   4
   0   0   5 23.6885 25.4774   4
   0  -1 -26 477.802 163.215   6
   0   1 -26 366.761 212.389   2
   0  -1 -25 1068.03 208.646   6
   0  -1 -25 737.194 280.704   2
   0   1 -25 1170.59 376.479   2
   0  -1 -24 425.720 146.773   6
   0   1 -24 429.990 282.454   2
   0  -1 -24 202.324 153.158   2
   0   1 -23 4181.25 641.181   2
   0  -1 -23 4586.17 411.925   6
   0   1 -23 4733.64 362.324   6
   0  -1 -23 4944.61 658.488   2
   0   1 -22 5172.93 481.234   5
   0  -1 -22 4395.82 596.516   2
   0   1 -22 4812.99 349.162   6
   0  -1 -22 4710.72 403.372   6
   0  -1 -21 3448.12 509.073   2
   0   1 -21 2869.29 357.117   5
   0  -1 -21 3271.79 332.259   6
   0   1 -21 3586.04 292.802   6
   0   1 -20 1181.13 165.878   6
   0   1 -20 1286.30 231.725   5
   0  -1 -20 1316.06 213.321   6
   0  -1 -20 832.961 249.575   2
   0  -1 -19 12505.9 920.937   2
   0  -1 -19 13538.2 654.318   6
   0   1 -19 13010.9 554.101   6
   0   1 -19 13503.3 716.596   5
   0  -1 -18 1777.60 341.726   2
   0   1 -18 1466.02 168.351   6
   0  -1 -18 1672.09 162.118   5
   0  -1 -18 1643.16 215.491   6
   0  -1 -17 3768.47 236.027   5
   0  -1 -17 2821.66 270.874   6
   0  -1 -17 3495.04 447.343   2
   0   1 -17 3362.90 250.233   6
   0   1 -16 9978.73 427.181   6
   0  -1 -16 10342.5 506.274   6
   0  -1 -15 14773.1 597.481   6
   0   1 -15 14802.7 510.580   6
   0   1 -14 3383.18 223.295   6
   0  -1 -14 3680.73 208.234   5
   0   1 -14 4027.05 348.929   1
   0   1 -13 2747.10 282.329   1
   0   1 -13 2051.34 164.590   6
   0  -1 -13 2230.01 151.858   5
   0  -1 -13 2306.37 205.339   3
   0   1 -12 802.820 96.2494   6
   0  -1 -12 869.796 143.874   4
   0   1 -12 1003.24 163.396   1
   0  -1 -12 991.924 96.1462   5
   0   1 -11 10189.3 364.938   6
   0   1 -11 11849.5 564.459   1
   0  -1 -11 10586.3 340.905   5
   0  -1 -11 11429.5 520.015   4
   0   1 -10 13731.8 427.625   6
   0  -1 -10 15364.6 505.060   3
   0  -1 -10 15114.2 411.683   5
   0   1 -10 15477.9 669.141   1
   0   1  -9 15841.7 652.189   1
   0  -1  -9 15645.4 410.214   5
   0  -1  -9 16098.4 500.828   3
   0   1  -9 14556.7 426.371   6
   0   1  -8 4184.85 187.248   6
   0  -1  -8 3905.76 170.215   5
   0  -1  -8 4068.04 218.990   3
   0   1  -8 3702.12 301.750   1
   0  -1  -7 14828.2 440.785   3
   0   1  -7 13925.6 604.312   1
   0  -1  -7 14593.6 373.276   5
   0   1  -7 14012.3 383.829   6
   0  -1  -6 3076.62 138.549   5
   0   1  -6 3079.16 143.946   6
   0  -1  -5 21086.0 474.646   5
   0   1  -5 20676.2 477.770   6
   0  -1  -4 17495.0 417.837   5
   0   1  -4 17312.4 406.837   6
   0   1  -4 17950.4 527.284   5
   0  -1  -3 21342.4 489.601   5
   0   1  -3 21174.2 583.020   5
   0   1  -3 21259.8 468.103   6
   0   1  -2 13098.4 418.956   5
   0   1  -2 12422.9 327.393   6
   0   1  -1 13908.0 432.416   5
   0   1   0 2345.92 122.669   2
   0   1   0 2162.68 144.151   5
   0   1   1 14591.7 408.034   5
   0   1   1 13932.6 413.225   2
   0   1   2 11823.0 328.868   5
   0   1   3 23356.4 512.732   5
   0   1   4 16717.7 440.651   3
   0  -1   4 16178.7 397.497   6
   0   1   4 17476.2 402.110   5
   0   1   5 23300.4 504.241   5
   0   1   5 22510.6 561.226   3
   0  -1   5 21791.1 512.774   6
   0  -1   6 4682.40 197.773   6
   0   1   6 4848.33 221.934   3
   0   1   6 4724.67 155.424   1
   0  -1   7 15608.6 435.502   6
   0   1   7 15402.9 466.871   3
   0   1   7 15269.5 375.739   1
   0   1   8 5297.30 258.739   3
   0  -1   8 5116.93 288.145   4
   0   1   8 5241.87 209.467   1
   0  -1   8 4961.41 232.102   6
   0  -1   9 15458.0 482.671   6
   0  -1   9 16201.2 576.721   4
   0   1   9 16259.6 466.837   1
   0   1   9 17222.9 536.724   3
   0   1  10 18778.5 562.674   1
   0  -1  10 17413.2 541.607   6
   0   1  10 19192.5 599.385   3
   0  -1  10 19473.7 663.016   4
   0   1  11 10241.6 433.357   3
   0  -1  11 10259.0 478.482   4
   0  -1  12 838.709 139.064   4
   0  -1  13 3063.45 275.044   4
   0  -1  14 3426.95 302.686   4
   0  -1  15 18343.5 776.661   4
   0  -2 -26 3102.78 368.740   6
   0   2 -26 3014.15 593.723   2
   0   2 -25 2520.56 564.754   2
   0  -2 -25 2045.30 297.856   6
   0  -2 -24 381.365 208.321   2
   0  -2 -24 324.957 129.495   6
   0   2 -24 2.18090 55.4245   2
   0  -2 -23 873.822 180.816   6
   0  -2 -23 1234.19 332.045   2
   0   2 -23 919.851 311.849   2
   0   2 -23 917.662 219.438   5
   0   2 -22 2454.50 349.380   5
   0  -2 -22 2167.97 282.046   6
   0  -2 -22 1887.56 399.151   2
   0   2 -22 2601.16 241.415   6
   0  -2 -21 11506.0 936.159   2
   0   2 -21 11192.6 744.361   5
   0  -2 -21 9947.64 612.121   6
   0   2 -21 11312.3 518.974   6
   0   2 -20 1503.37 261.247   5
   0  -2 -20 1175.30 276.146   2
   0  -2 -20 1114.89 201.517   6
   0   2 -20 1357.07 172.692   6
   0  -2 -19 6049.72 442.111   6
   0   2 -19 6516.72 368.839   6
   0  -2 -19 6681.72 664.728   2
   0   2 -19 6346.05 519.334   5
   0   2 -18 7851.28 397.905   6
   0   2 -18 7882.90 554.678   5
   0  -2 -18 7306.98 664.269   2
   0   2 -17 12372.1 500.832   6
   0  -2 -17 12387.6 472.810   5
   0  -2 -17 12747.9 855.648   2
   0   2 -17 12721.5 692.963   5
   0  -2 -16 4784.90 270.714   5
   0   2 -16 4711.94 285.222   6
   0   2 -16 4256.96 381.390   5
   0  -2 -16 3983.80 467.444   2
   0  -2 -15 17547.0 936.610   2
   0   2 -15 16405.6 757.118   5
   0  -2 -15 15918.8 533.996   5
   0   2 -15 16783.7 564.551   6
   0   2 -14 6136.16 303.560   6
   0   2 -14 6101.80 429.181   5
   0  -2 -14 6696.89 540.011   2
   0   2 -13 12953.5 627.166   5
   0  -2 -13 13334.2 756.105   2
   0  -2 -13 13228.6 457.530   5
   0   2 -13 13213.8 465.069   6
   0  -2 -12 1313.44 233.109   2
   0   2 -12 1414.52 135.393   6
   0   2 -12 1419.00 195.650   5
   0  -2 -12 1410.69 132.042   5
   0   2 -11 14592.8 637.551   5
   0  -2 -11 14633.2 468.659   5
   0   2 -11 14379.1 465.439   6
   0  -2 -11 14297.6 743.420   2
   0  -2 -10 11383.3 403.095   5
   0   2 -10 10581.4 711.543   1
   0   2 -10 11464.3 553.414   5
   0   2 -10 11993.1 404.490   6
   0   2  -9 48482.3 1295.24   5
   0  -2  -9 46662.5 1059.28   5
   0   2  -9 48719.5 1047.31   6
   0   2  -8 4400.06 314.886   5
   0  -2  -8 4307.30 229.439   5
   0   2  -8 4296.51 216.909   6
   0   2  -7 31433.5 744.242   6
   0  -2  -7 30504.0 774.293   5
   0   2  -7 31305.1 949.520   5
   0  -2  -6 33840.6 1013.68   2
   0  -2  -6 30609.6 800.358   5
   0   2  -6 31169.5 750.438   6
   0   2  -6 32211.1 959.497   5
   0  -2  -5 49446.0 1159.83   5
   0  -2  -5 55194.5 1361.01   2
   0   2  -5 51386.8 1106.38   6
   0   2  -5 51832.2 1320.93   5
   0   2  -4 2921.97 244.493   5
   0  -2  -4 3080.78 257.581   2
   0   2  -4 2854.38 183.208   6
   0  -2  -4 2783.00 202.758   5
   0   2  -3 38112.6 1045.75   5
   0   2  -3 35714.1 890.421   6
   0  -2  -3 37411.4 970.597   5
   0  -2  -2 19137.7 613.694   2
   0  -2  -2 17551.9 625.380   5
   0   2  -2 18798.2 664.903   5
   0   2  -1 23132.7 596.772   2
   0   2  -1 23591.3 755.454   5
   0  -2  -1 22586.5 647.897   2
   0   2   0 123.782 50.8751   5
   0   2   0 141.148 48.1779   2
   0   2   1 17410.1 578.778   2
   0   2   1 19634.9 638.136   5
   0   2   2 16083.4 590.213   2
   0   2   2 14960.4 523.328   5
   0  -2   2 14525.0 480.235   6
   0   2   3 41214.1 991.210   5
   0  -2   3 40880.9 938.466   6
   0   2   4 5587.65 272.481   5
   0  -2   4 5702.09 259.458   6
   0   2   5 45928.9 1034.03   5
   0  -2   5 47259.3 1020.30   6
   0   2   6 30332.4 742.843   5
   0  -2   6 29237.4 722.758   6
   0  -2   7 39481.5 921.984   6
   0   2   7 42228.9 1042.72   3
   0   2   7 42496.9 944.141   5
   0   2   8 6228.82 330.551   3
   0   2   8 6213.58 275.029   5
   0  -2   8 5760.88 267.736   6
   0   2   9 50259.2 1209.64   3
   0  -2   9 49532.5 1111.98   6
   0   2   9 49291.9 1075.17   5
   0   2   9 48432.4 961.928   1
   0   2  10 13797.5 536.480   3
   0  -2  10 13332.2 472.389   6
   0   2  10 13016.7 367.028   1
   0   2  11 21605.6 720.727   3
   0  -2  11 20331.5 640.152   6
   0   2  11 20892.2 530.385   1
   0  -2  12 823.413 150.105   4
   0  -2  12 789.805 117.820   6
   0   2  12 814.549 135.377   3
   0   2  12 781.469 92.6852   1
   0   2  13 13482.1 473.387   1
   0   2  13 12965.1 582.419   3
   0  -2  13 13452.8 642.190   4
   0  -2  14 7445.97 485.527   4
   0   2  14 7996.25 458.693   3
   0  -2  15 23113.6 931.582   4
   0   2  15 23878.4 866.881   3
   0  -2  16 3864.15 370.553   4
   0  -2  17 12065.1 686.490   4
   0  -2  18 10307.0 652.180   4
   0  -2  19 10715.3 682.245   4
   0  -2  20 1638.66 278.495   4
   0  -3 -25 1949.12 301.004   6
   0  -3 -24 5933.08 517.635   6
   0  -3 -23 102.121 136.915   2
   0   3 -23 25.0798 90.4762   2
   0  -3 -23 113.792 77.9153   6
   0   3 -23-140.350 140.817   5
   0  -3 -22 3194.88 371.889   6
   0   3 -22 4424.71 503.308   5
   0  -3 -22 4350.78 620.624   2
   0   3 -21 2219.03 340.135   5
   0  -3 -21 2147.24 419.586   2
   0  -3 -20 1805.57 376.756   2
   0   3 -20 2249.54 331.186   5
   0   3 -20 1873.98 199.205   6
   0   3 -19 220.736 131.262   5
   0   3 -19 293.162 81.4624   6
   0  -3 -19 375.125 185.859   2
   0  -3 -18 551.819 188.883   2
   0   3 -18 561.250 108.405   6
   0   3 -18 592.367 192.969   5
   0  -3 -17 1663.86 319.529   2
   0   3 -17 1616.34 170.779   6
   0   3 -17 1499.55 251.867   5
   0  -3 -16 2255.41 354.278   2
   0   3 -16 2159.34 297.168   5
   0   3 -16 2359.86 207.376   6
   0  -3 -15 685.728 114.479   5
   0   3 -15 821.060 124.332   6
   0  -3 -15 767.091 205.674   2
   0   3 -15 812.807 191.046   5
   0  -3 -14 7704.35 617.073   2
   0   3 -14 7725.34 544.873   5
   0  -3 -14 8075.62 408.760   5
   0   3 -14 8330.27 386.484   6
   0   3 -13 4884.17 289.707   6
   0  -3 -13 4748.54 471.297   2
   0   3 -13 4254.90 393.997   5
   0  -3 -13 4173.55 287.629   5
   0   3 -12 17287.0 577.766   6
   0   3 -12 15629.9 774.625   5
   0  -3 -12 16739.5 869.612   2
   0  -3 -12 15264.3 591.172   5
   0   3 -11 1645.73 233.841   5
   0  -3 -11 1624.00 257.457   2
   0  -3 -11 1432.82 165.053   5
   0   3 -11 1783.36 171.572   6
   0   3 -10 9204.49 555.354   5
   0  -3 -10 9043.70 606.768   2
   0  -3 -10 9149.71 442.302   5
   0   3 -10 9116.88 404.825   6
   0  -3  -9 2934.44 326.781   2
   0  -3  -9 2679.09 231.775   5
   0   3  -9 2802.12 216.541   6
   0   3  -9 2803.20 295.681   5
   0  -3  -8 5007.41 417.656   2
   0  -3  -8 4313.59 300.348   5
   0   3  -8 4406.78 369.490   5
   0   3  -8 4370.71 273.544   6
   0  -3  -7 44.1693 43.4353   5
   0   3  -7 18.8906 48.3280   5
   0   3  -7 39.2247 43.5059   6
   0   3  -6 1719.53 173.432   6
   0   3  -6 1936.60 243.732   5
   0  -3  -6 1577.27 189.372   5
   0  -3  -5 911.067 144.529   5
   0   3  -5 966.019 167.365   5
   0  -3  -4 6070.35 394.964   2
   0  -3  -4 5857.79 384.722   5
   0   3  -4 5905.55 418.190   5
   0   3  -3 1770.07 225.185   5
   0   3  -3 1696.76 143.105   2
   0  -3  -3 1515.23 188.973   2
   0  -3  -3 1989.50 228.749   5
   0  -3  -2 17670.6 646.985   2
   0   3  -2 17992.8 754.343   5
   0   3  -2 18274.1 565.287   2
   0  -3  -2 18386.2 761.852   5
   0   3  -1 3672.09 319.484   5
   0   3  -1 3439.32 235.099   2
   0  -3  -1 3963.62 341.401   5
   0   3   0 26482.2 792.343   2
   0   3   0 25995.8 922.192   5
   0   3   1 3015.40 279.008   5
   0   3   1 3189.12 257.964   2
   0  -3   2 16508.5 614.684   6
   0   3   2 17296.6 684.321   5
   0  -3   3 2432.34 215.255   6
   0   3   3 2556.09 236.618   5
   0   3   4 3849.71 285.221   5
   0  -3   4 4028.37 269.937   6
   0   3   5 741.239 120.289   5
   0  -3   5 829.255 119.118   6
   0  -3   6 2304.26 197.419   6
   0   3   6 2241.65 203.375   5
   0  -3   7 49.6493 35.4286   6
   0   3   7 19.8247 28.2540   5
   0   3   8 3903.82 267.346   5
   0   3   9 3443.40 248.442   5
   0   3   9 2939.44 276.119   3
   0   3  10 12330.7 497.609   5
   0   3  10 11706.5 578.544   3
   0   3  11 1072.00 142.562   5
   0   3  11 1023.82 169.315   3
   0   3  12 20719.2 653.880   5
   0   3  12 21260.9 802.481   3
   0   3  13 4565.36 209.930   1
   0   3  13 6659.97 443.150   3
   0  -3  14 10046.7 478.995   6
   0   3  14 10391.7 565.052   3
   0   3  15 469.695 140.151   3
   0  -3  15 603.407 160.053   4
   0   3  16 2595.02 309.461   3
   0  -3  16 2611.15 322.857   4
   0  -3  17 1782.35 278.206   4
   0   3  17 2146.98 286.121   3
   0   3  18 624.476 180.376   3
   0  -3  18 837.162 198.209   4
   0  -3  19 229.394 129.727   4
   0  -3  20 1783.92 298.524   4
   0  -3  21 2142.49 344.005   4
   0  -3  22 4906.77 525.859   4
   0  -3  23 245.352 120.429   4
   0   4 -23 3978.15 544.705   5
   0   4 -22 2818.26 432.598   5
   0  -4 -22 2847.17 516.521   2
   0  -4 -21 4502.03 631.434   2
   0   4 -21 4840.37 549.822   5
   0   4 -20 3858.97 476.899   5
   0  -4 -20 3606.34 559.936   2
   0   4 -19 7650.83 661.358   5
   0  -4 -19 7250.53 748.135   2
   0   4 -18 2746.80 382.399   5
   0  -4 -18 2672.06 447.358   2
   0   4 -18 1950.29 214.383   6
   0   4 -17 5832.01 372.781   6
   0  -4 -17 5561.95 627.023   2
   0   4 -17 6463.35 575.672   5
   0   4 -16 6110.59 541.295   5
   0  -4 -16 5108.47 580.641   2
   0   4 -16 4774.67 337.545   6
   0  -4 -15 6390.41 616.430   2
   0   4 -15 5888.28 370.496   6
   0   4 -15 6085.60 542.367   5
   0   4 -14 6646.36 548.088   5
   0  -4 -14 7181.08 635.763   2
   0   4 -14 6128.01 380.577   6
   0   4 -13 2545.26 329.470   5
   0  -4 -13 2121.92 359.984   2
   0   4 -13 2091.46 220.051   6
   0  -4 -12 9027.68 673.197   2
   0   4 -12 8057.63 439.326   6
   0   4 -12 8082.02 593.355   5
   0  -4 -11 8704.01 643.354   2
   0   4 -11 8486.04 602.460   5
   0   4 -11 7526.26 431.912   6
   0  -4 -10 13315.0 787.270   2
   0   4 -10 13176.9 752.530   5
   0   4  -9 8107.69 577.094   5
   0  -4  -9 8390.54 601.347   2
   0   4  -8 16828.5 843.548   5
   0  -4  -8 16739.7 842.801   2
   0  -4  -7 23572.0 996.747   2
   0   4  -7 22382.0 984.616   5
   0   4  -6 12696.9 695.672   5
   0  -4  -6 12086.8 651.244   2
   0   4  -5 12012.9 688.913   5
   0   4  -5 8964.00 379.231   2
   0   4  -4 18568.8 848.961   5
   0   4  -4 15418.2 535.686   2
   0   4  -3 16323.6 576.337   2
   0   4  -3 18931.0 857.764   5
   0   4  -2 13022.3 694.460   5
   0   4  -2 10729.3 466.016   2
   0   4  -1 5102.73 325.291   2
   0   4  -1 4982.60 421.719   5
   0   4   0 10334.7 607.463   5
   0   4   1 6657.07 474.981   5
   0   4   2 10200.8 582.063   5
   0   4   3 15148.5 710.522   5
   0   4   4 16795.4 737.191   5
   0   4   5 15047.9 681.664   5
   0   4   6 12055.1 592.459   5
   0   4   7 19713.2 765.470   5
   0   4   8 14466.6 631.031   5
   0   4   9 10785.9 535.139   5
   0   4  10 12071.2 680.267   3
   0   4  10 14375.2 622.393   5
   0   4  11 6786.99 417.319   5
   0   4  11 5310.57 450.153   3
   0   4  12 7916.75 557.232   3
   0   4  12 9621.62 504.262   5
   0   4  13 4966.38 357.904   5
   0   4  13 4401.40 410.693   3
   0   4  14 6488.31 506.418   3
   0   4  15 4701.47 446.631   3
   0   4  16 6201.73 518.410   3
   0   4  17 8596.23 613.874   3
   0  -4  17 6870.73 602.181   4
   0  -4  18 2535.66 372.991   4
   0   4  18 3075.14 373.660   3
   0   4  19 6986.38 577.000   3
   0  -4  19 5637.11 563.869   4
   0   4  20 3504.93 418.561   3
   0  -4  20 2849.97 405.739   4
   0  -4  21 5201.81 567.622   4
   0  -4  22 2789.57 420.170   4
   0   5 -21 1111.83 285.252   5
   0   5 -20 2109.04 367.213   5
   0  -5 -20 1876.80 415.171   2
   0  -5 -19 834.402 269.572   2
   0   5 -19 909.064 251.272   5
   0   5 -18 6895.78 647.395   5
   0  -5 -18 7101.64 751.313   2
   0  -5 -17 1039.36 287.068   2
   0   5 -17 1148.32 266.199   5
   0  -5 -16 1881.20 359.809   2
   0   5 -16 2693.67 384.600   5
   0   5 -15 923.802 218.794   5
   0  -5 -15 665.017 222.807   2
   0   5 -14 3452.43 424.273   5
   0  -5 -14 2546.19 402.627   2
   0   5 -13 178.159 123.872   5
   0  -5 -13 240.449 140.626   2
   0   5 -12 1791.62 307.097   5
   0  -5 -12 1420.09 296.544   2
   0  -5 -11 1093.95 262.684   2
   0   5 -11 1639.54 295.255   5
   0   5 -10 1344.36 261.694   5
   0  -5 -10 1216.74 249.522   2
   0  -5  -9 1716.77 303.784   2
   0   5  -9 1991.44 309.200   5
   0  -5  -8 8953.59 650.967   2
   0   5  -8 9561.18 679.131   5
   0   5  -7 4004.41 434.317   5
   0  -5  -7 3915.95 397.875   2
   0   5  -6 11952.5 739.538   5
   0  -5  -6 11160.2 665.216   2
   0   5  -5 1985.16 302.712   5
   0  -5  -5 1483.06 246.824   2
   0   5  -5 1269.31 121.712   2
   0   5  -4 5087.31 487.550   5
   0   5  -3 2697.06 350.051   5
   0   5  -2 4636.16 451.986   5
   0   5  -1 580.387 158.839   5
   0   5   0 138.762 86.4784   5
   0   5   1 805.991 180.930   5
   0   5   2 3109.46 352.682   5
   0   5   3 3078.63 342.820   5
   0   5   4 4848.06 430.162   5
   0   5   5 2012.00 272.766   5
   0   5   6 9990.16 607.376   5
   0   5   7 3843.93 364.130   5
   0   5   8 9863.59 590.168   5
   0   5   9 1449.19 224.213   5
   0   5  10 820.311 205.469   3
   0   5  10 996.692 188.284   5
   0   5  11 1051.26 196.578   5
   0   5  11 733.483 175.514   3
   0   5  12 1864.06 303.249   3
   0   5  12 2425.67 293.823   5
   0   5  13 310.463 109.927   5
   0   5  13 246.088 119.027   3
   0   5  14 2221.00 282.939   5
   0   5  14 1812.92 300.417   3
   0   5  15 1065.91 191.106   5
   0   5  15 1135.92 259.188   3
   0   5  16 1945.38 332.576   3
   0   5  17 1217.53 278.360   3
   0   5  18 5248.11 559.585   3
   0  -5  19 964.204 264.393   4
   0   5  19 706.606 211.502   3
   0   5  20 2181.23 378.477   3
   0  -5  20 2302.17 384.848   4
   0   5  21 808.293 255.210   3
   0  -6 -18 1705.48 394.966   2
   0  -6 -17 184.743 136.568   2
   0   6 -16 148.539 104.965   5
   0  -6 -16 432.182 209.759   2
   0  -6 -15 4630.63 569.898   2
   0   6 -15 4998.97 552.708   5
   0  -6 -14 7805.54 720.485   2
   0   6 -14 8395.92 724.801   5
   0   6 -13 3217.96 447.478   5
   0  -6 -13 2747.87 412.946   2
   0  -6 -12 437.348 184.858   2
   0   6 -12 573.618 201.448   5
   0   6 -11 5014.51 548.074   5
   0  -6 -11 4598.93 541.115   2
   0   6 -10 10262.9 770.237   5
   0  -6 -10 10256.7 759.200   2
   0  -6  -9 3811.61 442.236   2
   0   6  -9 3393.86 437.965   5
   0   6  -8 959.504 259.349   5
   0   6  -7 3322.68 431.459   5
   0   6  -6 5204.40 529.152   5
   0   6  -5 2292.33 350.109   5
   0   6  -4 1851.01 315.440   5
   0   6  -3 9816.53 716.139   5
   0   6  -2 18150.1 991.789   5
   0   6  -1 8249.66 647.697   5
   0   6   0 103.968 106.161   5
   0   6   1 9749.55 693.403   5
   0   6   2 18145.7 959.923   5
   0   6   3 7505.02 598.082   5
   0   6   4 1764.58 291.420   5
   0   6   5 2496.82 337.142   5
   0   6   6 4503.35 440.014   5
   0   6   7 2675.24 331.434   5
   0   6   8 810.546 187.898   5
   0   6   9 4951.40 450.653   5
   0   6  10 10288.6 675.130   5
   0   6  11 2958.72 413.380   3
   0   6  11 4514.45 436.152   5
   0   6  12 179.445 127.485   3
   0   6  12 180.544 107.162   5
   0   6  13 4199.44 425.867   5
   0   6  13 2966.47 424.960   3
   0   6  14 7201.43 662.473   3
   0   6  15 2772.09 414.219   3
   0   6  16 434.790 179.736   3
   0   6  17 325.359 194.397   3
   0   6  18 1514.00 310.623   3
   0   7  -9 1779.63 342.683   5
   0   7  -8 1781.99 340.627   5
   0   7  -7 997.277 265.284   5
   0   7  -6 189.160 114.803   5
   0   7  -5 2147.13 364.621   5
   0   7  -4 120.420 83.9498   5
   0   7  -3 2449.03 385.484   5
   0   7  -2 1114.23 264.369   5
   0   7  -1 2215.62 366.256   5
   0   7   0 492.605 223.061   5
   0   7   1 1811.18 322.736   5
   0   7   2 1166.26 269.279   5
   0   7   3 2555.02 381.605   5
   0   7   4 452.352 171.772   5
   0   7   5 1690.53 309.973   5
   0   7   6 312.400 152.069   5
   0   7   7 568.602 183.814   5
   0   7   8 1260.89 266.605   5
   0   7   9 1998.37 336.459   5
   0   7  10 565.160 191.774   5
   0   7  11 314.204 198.715   3
   0   7  11 235.677 113.476   5
   0   7  12-61.3603 108.078   3
   1   0 -27 1298.30 251.779   6
   1   0 -26 257.621 155.772   6
  -1   0 -26 75.2085 214.629   2
  -1   0 -25 1159.43 387.136   2
   1   0 -25 1097.35 215.164   6
   1   0 -24-24.7704 72.2348   6
  -1   0 -24-523.776 247.811   2
  -1   0 -23 1195.47 177.848   6
  -1   0 -23 957.320 314.706   2
   1   0 -23 1083.29 198.003   6
  -1   0 -22 60.3485 72.8334   6
  -1   0 -22 111.553 131.390   2
   1   0 -22-21.8497 63.4622   6
  -1   0 -21 11016.5 995.623   2
   1   0 -21 11910.4 640.993   6
  -1   0 -21 12409.7 581.328   6
  -1   0 -20 157.960 136.982   2
  -1   0 -20 218.367 91.5496   6
   1   0 -20 0.89659 60.5561   6
   1   0 -19 18121.8 767.044   6
  -1   0 -19 19164.4 709.275   6
  -1   0 -19 17169.7 731.879   5
  -1   0 -18 48.2679 52.8113   5
   1   0 -18 80.2018 87.2105   1
   1   0 -18 92.5797 78.3149   6
  -1   0 -18 198.137 157.787   2
  -1   0 -18 65.0145 73.8654   6
  -1   0 -17 18219.6 730.515   5
   1   0 -17 18481.7 750.286   6
  -1   0 -17 17191.1 1073.99   2
  -1   0 -17 20307.0 701.070   6
  -1   0 -16 85.4778 71.6825   6
  -1   0 -16-65.4318 86.0570   2
  -1   0 -16 21.7985 53.2837   5
   1   0 -16 16.1371 50.2768   6
  -1   0 -15 8440.45 674.133   2
  -1   0 -15 8244.57 428.427   5
   1   0 -15 10134.3 503.042   1
   1   0 -15 8532.10 457.664   6
  -1   0 -15 9964.49 485.828   1
  -1   0 -15 9257.02 418.431   6
  -1   0 -14-17.2419 86.9067   2
  -1   0 -14 15.4646 42.9150   5
  -1   0 -14-13.1205 30.2966   6
  -1   0 -14 39.4274 64.4670   1
   1   0 -14 54.0168 59.3582   6
   1   0 -14 14.2619 54.9292   1
   1   0 -14 41.5797 57.1664   4
   1   0 -14 25.0587 37.5419   3
  -1   0 -13 1116.55 128.033   6
   1   0 -13 1216.60 159.970   1
  -1   0 -13 1444.43 162.808   1
  -1   0 -13 880.085 125.168   5
   1   0 -13 1027.51 144.385   6
   1   0 -13 962.842 138.835   4
  -1   0 -13 1062.39 223.070   2
   1   0 -12 24.6297 35.5028   4
   1   0 -12 37.3617 45.1985   6
  -1   0 -12 30.4540 34.8870   1
  -1   0 -12 102.580 84.0245   2
  -1   0 -12 9.74487 26.8118   5
  -1   0 -12 57.8786 44.7501   6
  -1   0 -12-9.86539 44.9966   4
   1   0 -12 98.3215 48.3272   1
  -1   0 -11 771.487 98.4523   5
  -1   0 -11 1006.06 126.925   1
  -1   0 -11 853.970 98.1738   6
  -1   0 -11 1064.81 158.724   4
   1   0 -11 851.274 123.885   1
   1   0 -11 918.454 125.657   4
   1   0 -11 910.640 116.946   3
   1   0 -11 949.786 127.764   6
  -1   0 -11 959.085 195.687   2
   1   0 -10-52.0065 32.4816   4
   1   0 -10-16.2713 36.3889   6
  -1   0 -10 34.9050 73.1176   2
   1   0 -10-27.5413 52.5644   1
  -1   0 -10 10.8877 19.2125   5
  -1   0 -10-8.13085 25.2683   1
   1   0 -10 30.1463 21.9523   3
  -1   0 -10 40.8397 42.1115   4
   1   0  -9 20827.0 599.923   4
  -1   0  -9 20182.3 849.799   2
   1   0  -9 21144.4 633.791   6
   1   0  -9 21065.8 583.726   3
  -1   0  -9 19604.9 544.112   5
  -1   0  -9 21875.4 617.732   1
   1   0  -8 21.9986 23.5742   4
   1   0  -8 13.3416 29.6066   3
   1   0  -8 47.7650 40.0571   6
  -1   0  -8-22.8436 39.0482   2
  -1   0  -8-9.55991 21.9036   5
  -1   0  -8 21.3501 28.4858   1
   1   0  -7 31737.5 745.041   4
  -1   0  -7 30463.0 693.434   5
   1   0  -7 35064.7 820.576   6
  -1   0  -7 32799.3 1064.56   2
  -1   0  -7 35731.1 794.734   1
  -1   0  -6 25.6530 31.9325   2
  -1   0  -6-10.2228 17.2415   5
  -1   0  -6 24.1547 19.5567   1
   1   0  -6-1.67433 12.5578   4
   1   0  -6 43.6938 31.7729   6
  -1   0  -5 64880.0 1141.40   5
  -1   0  -5 67215.4 1279.03   1
   1   0  -5 64036.3 1295.16   6
   1   0  -5 64777.8 1201.77   4
   1   0  -4 13.7687 19.2108   6
  -1   0  -4 9.56141 7.47763   5
  -1   0  -3 23980.9 449.509   5
  -1   0  -3 23771.4 477.102   6
   1   0  -3 23721.0 551.783   6
  -1   0  -2 12.7193 8.09766   6
   1   0  -2 31.5752 18.9654   6
  -1   0  -2 8.53688 8.10834   5
   1   0   1 3722.42 149.547   4
   1   0   2-16.4720 26.5580   2
   1   0   2 18.0220 12.3164   6
   1   0   2-2.24437 10.6809   4
   1   0   2 6.85595 11.3483   3
   1   0   3 26539.0 704.046   2
   1   0   3 25317.8 608.101   4
   1   0   3 24431.9 549.873   3
   1   0   3 24896.3 481.208   5
   1   0   4 19.1596 19.5658   4
   1   0   4 10.3256 11.1546   5
   1   0   4 56.6375 40.9662   2
   1   0   5 70865.3 1476.51   4
   1   0   5 74342.9 1614.65   2
   1   0   6-1.31175 22.0446   4
   1   0   7 38511.4 975.624   4
   1   0   7 37156.9 909.295   1
   1   0   8 18.4133 33.8768   4
   1   0   8 20.5836 31.0834   1
   1   0   9 23102.2 755.153   4
   1   0   9 23567.3 728.325   1
   1   0  10 9.26482 30.6261   1
   1  -1 -27 800.947 186.789   6
  -1   1 -27 1017.28 399.510   2
   1  -1 -26 3763.91 407.847   6
  -1   1 -26 3540.06 689.412   2
  -1  -1 -25 584.364 269.259   2
   1   1 -25 1236.15 210.082   6
   1  -1 -25 1088.46 318.935   2
  -1   1 -25 289.186 214.109   2
   1  -1 -25 840.691 180.457   6
   1  -1 -24 6258.84 758.859   2
   1  -1 -24 5243.13 465.417   6
   1   1 -24 5722.96 448.677   6
  -1  -1 -24 6366.89 475.819   6
  -1   1 -24 4924.01 787.472   2
  -1  -1 -24 5585.82 762.481   2
  -1  -1 -23 1875.42 250.338   6
   1   1 -23 1990.48 251.254   6
  -1  -1 -23 2048.44 442.589   2
   1  -1 -23 1900.44 276.345   6
  -1   1 -23 1044.01 362.414   2
  -1   1 -22 3318.37 591.939   2
  -1  -1 -22 3473.56 333.795   6
   1   1 -22 3876.39 355.586   6
   1  -1 -22 3530.91 365.587   6
  -1  -1 -22 3277.36 526.184   2
   1   1 -21 3473.55 319.511   6
   1  -1 -21 3440.08 353.616   6
  -1  -1 -21 4028.73 351.209   6
  -1   1 -21 2651.90 519.386   2
  -1   1 -21 3515.90 253.389   6
  -1  -1 -21 3196.18 513.436   2
  -1   1 -21 3956.74 416.392   5
  -1   1 -20 2206.67 321.544   5
  -1   1 -20 2201.83 190.946   6
  -1  -1 -20 2130.66 249.389   6
   1  -1 -20 1827.40 248.227   6
   1   1 -20 2302.54 251.221   6
  -1   1 -20 1439.28 354.599   2
  -1  -1 -20 2292.35 421.653   2
  -1   1 -19 208.896 103.346   5
  -1  -1 -19 313.399 98.7278   6
  -1   1 -19 270.304 71.3213   6
  -1  -1 -19 397.169 178.470   2
   1  -1 -19 443.375 122.327   6
   1   1 -19 406.459 113.553   6
  -1   1 -19 433.072 192.407   2
  -1   1 -18 4273.87 401.109   5
  -1   1 -18 3659.85 525.657   2
   1   1 -18 4009.58 310.089   6
  -1   1 -18 3901.01 241.790   6
  -1  -1 -18 3984.11 512.444   2
  -1  -1 -18 3481.04 225.959   5
  -1  -1 -18 3552.20 299.543   6
   1  -1 -18 3807.74 348.288   6
  -1   1 -17 1257.35 131.257   6
  -1  -1 -17 1107.87 281.378   2
   1   1 -17 1217.40 166.225   6
  -1   1 -17 1009.43 262.652   2
  -1   1 -17 1135.15 211.111   5
  -1  -1 -17 1193.46 165.348   6
   1  -1 -17 1426.17 201.740   6
  -1  -1 -17 1079.78 80.3852   5
   1  -1 -16 4928.84 301.934   5
  -1   1 -16 4484.71 525.248   2
   1   1 -16 4400.13 308.498   6
  -1   1 -16 4922.64 405.035   5
  -1   1 -16 4560.35 244.278   6
  -1  -1 -16 4487.87 502.686   2
  -1  -1 -16 4059.76 163.558   5
   1  -1 -16 4688.15 360.742   6
  -1   1 -15 1496.38 303.207   2
   1  -1 -15 2173.06 208.921   3
   1  -1 -15 2034.67 229.834   6
   1   1 -15 2230.85 211.832   6
   1  -1 -15 2009.07 185.823   5
  -1   1 -15 2014.47 249.714   5
   1   1 -15 1714.89 237.676   1
  -1   1 -15 1971.65 151.097   6
  -1  -1 -15 1595.09 94.1720   5
  -1  -1 -15 2173.30 340.969   2
   1  -1 -14 12349.5 465.793   5
  -1   1 -14 12320.2 802.418   2
  -1  -1 -14 11279.3 757.565   2
   1  -1 -14 11690.8 569.998   4
  -1   1 -14 12429.2 609.375   5
   1  -1 -14 12920.3 577.037   6
  -1   1 -14 11598.7 383.887   6
   1   1 -14 11585.0 624.851   1
  -1  -1 -14 10562.5 288.310   5
   1   1 -14 11834.5 485.564   6
   1   1 -13 3490.03 241.960   6
  -1  -1 -13 3745.44 418.565   2
  -1   1 -13 3479.95 182.698   6
   1  -1 -13 3770.28 233.187   5
   1  -1 -13 3346.46 283.263   6
   1  -1 -13 3571.09 291.026   4
  -1  -1 -13 3252.22 128.868   5
  -1   1 -13 3745.85 316.571   5
   1   1 -13 2948.95 308.039   1
  -1   1 -13 3419.47 401.692   2
  -1   1 -12 19346.8 727.661   1
   1  -1 -12 17509.2 658.820   6
   1  -1 -12 18223.0 551.544   5
  -1   1 -12 16485.8 450.199   6
  -1  -1 -12 17036.8 885.629   2
  -1   1 -12 16866.9 878.440   2
   1  -1 -12 17574.1 568.376   3
  -1   1 -12 18378.7 716.202   5
  -1  -1 -12 15877.7 365.008   5
   1   1 -12 16583.6 563.824   6
   1  -1 -11 6807.93 376.244   6
  -1   1 -11 6385.65 391.280   5
  -1  -1 -11 6125.20 177.119   5
  -1   1 -11 6762.26 510.012   2
   1   1 -11 6404.91 312.153   6
  -1  -1 -11 6997.81 358.273   3
  -1   1 -11 6331.02 229.785   6
  -1  -1 -11 7837.17 442.537   4
   1  -1 -11 6692.55 299.383   5
  -1   1 -11 7809.79 420.819   1
   1  -1 -11 6993.12 313.870   3
  -1   1 -10 11496.4 510.530   1
   1  -1 -10 10810.0 382.900   3
  -1   1 -10 10053.9 599.530   2
  -1   1 -10 10066.5 287.770   6
   1   1 -10 9914.63 390.843   6
   1  -1 -10 10674.1 471.010   6
  -1  -1 -10 9460.95 234.942   5
  -1   1 -10 10524.3 495.979   5
   1  -1 -10 10194.4 372.142   5
  -1   1  -9 6903.92 458.732   2
   1  -1  -9 6696.27 286.256   5
  -1   1  -9 6856.98 380.231   5
   1  -1  -9 6676.65 277.324   3
  -1   1  -9 6448.40 206.569   6
   1   1  -9 6504.53 296.135   6
  -1   1  -9 7300.44 387.225   1
  -1   1  -8 7783.52 398.366   5
  -1   1  -8 7635.81 213.569   6
  -1   1  -8 7696.26 456.057   2
   1  -1  -8 7714.14 285.534   3
   1   1  -8 7905.69 317.376   6
  -1   1  -8 8425.55 405.313   1
   1  -1  -8 7612.55 301.804   5
   1   1  -7 1884.69 142.320   6
  -1   1  -7 1841.23 179.710   5
  -1   1  -7 1999.31 86.0822   6
   1  -1  -7 1878.04 136.177   5
  -1   1  -7 2003.46 185.884   1
  -1   1  -7 1984.37 207.729   2
  -1   1  -6 8509.81 407.298   2
   1   1  -6 7493.54 290.778   6
   1  -1  -6 7987.64 294.527   5
  -1   1  -6 8044.93 191.100   6
  -1   1  -6 7496.88 363.618   5
  -1   1  -6 7898.47 367.504   1
  -1   1  -5 3541.66 234.965   2
   1   1  -5 3367.30 179.297   6
   1  -1  -5 3587.85 181.184   5
  -1   1  -5 3333.77 227.679   5
  -1   1  -5 3516.25 224.944   1
   1   1  -4 11906.7 371.954   6
  -1   1  -4 11661.6 426.462   1
  -1   1  -4 13100.5 417.632   2
  -1   1  -4 12076.0 431.670   5
   1  -1  -3 18235.2 395.638   1
  -1   1  -3 17499.2 521.281   1
   1   1  -3 17588.8 466.067   6
  -1   1  -3 16929.3 440.820   2
  -1   1  -3 18415.7 522.755   5
   1  -1  -2 27109.8 564.221   1
  -1   1  -2 25395.3 642.106   1
   1   1  -2 24035.5 600.315   6
  -1   1  -2 25750.3 642.700   5
   1  -1  -1 7408.63 252.631   1
  -1   1  -1 7266.31 272.147   5
   1   1  -1 7007.76 257.931   6
  -1   1  -1 7314.61 270.935   1
  -1   1   0 29675.5 655.200   1
  -1   1   0 29636.6 672.122   5
   1   1   0 28813.0 672.458   6
   1   1   1 8534.34 303.960   6
  -1   1   1 8764.30 291.270   5
   1   1   1 8659.96 369.307   2
  -1   1   1 8000.78 249.064   1
   1  -1   2 23687.8 518.963   2
  -1   1   2 24415.3 583.833   5
   1   1   2 24598.9 752.298   2
  -1   1   2 23668.8 501.224   1
   1   1   3 21514.9 716.750   2
   1   1   3 20402.3 478.201   5
   1   1   3 19271.6 526.145   3
   1  -1   3 20157.1 406.239   6
   1  -1   3 20776.9 491.384   2
  -1   1   3 20889.2 524.241   5
   1   1   4 10289.2 509.229   2
   1  -1   4 9956.33 399.520   5
  -1   1   4 11296.9 350.167   5
   1   1   4 10861.4 364.422   3
   1   1   4 10438.7 282.173   5
   1   1   5 4572.58 230.319   3
   1   1   5 4575.09 135.535   5
   1  -1   5 4419.47 257.517   5
   1   1   5 4738.11 340.191   2
  -1   1   5 4711.19 175.939   3
   1   1   6 9332.31 511.081   2
  -1   1   6 8360.93 267.881   3
   1  -1   6 8639.80 373.989   5
   1   1   6 8199.68 336.481   3
  -1  -1   7 2541.34 184.139   6
  -1   1   7 2381.27 138.486   3
   1   1   7 2767.24 167.191   1
  -1  -1   7 2350.98 154.831   4
   1   1   7 2496.42 183.622   3
   1   1   8 9275.64 345.643   1
  -1  -1   8 9290.56 389.988   6
   1  -1   8 9530.44 454.940   4
  -1   1   8 8802.66 311.312   3
  -1  -1   8 8770.22 333.977   4
   1   1   8 9397.58 390.167   3
  -1  -1   9 6934.44 342.858   6
   1  -1   9 6815.30 391.264   4
  -1  -1   9 6696.58 301.429   4
   1   1   9 6776.98 307.621   1
   1   1   9 7203.58 354.550   3
   1  -1  10 13103.0 578.280   4
   1   1  10 12806.5 509.686   3
  -1  -1  10 12263.5 456.363   4
   1   1  10 13075.5 468.227   1
   1  -1  11 6330.88 406.255   4
   1   1  11 6534.34 336.947   1
  -1  -1  11 6587.56 333.692   4
   1   1  11 6338.40 354.374   3
  -1  -1  12 22143.3 706.046   4
   1  -1  12 23056.2 852.226   4
  -1  -1  12 21101.8 729.769   6
   1   1  12 21687.7 739.450   3
   1   1  12 21908.5 716.365   1
  -1  -1  13 4207.35 303.684   6
   1  -1  13 4848.04 379.893   4
   1  -1  14 13427.7 673.711   4
   1  -1  15 3254.05 330.477   4
   1  -1  16 4855.83 422.302   4
   1  -1  17 1903.39 272.271   4
  -1   2 -26 2800.95 617.836   2
   1  -2 -26 2515.49 340.051   6
  -1   2 -25 1721.01 480.670   2
   1  -2 -25 1288.75 238.208   6
  -1  -2 -25 2091.06 287.899   6
  -1   2 -24 1504.78 429.562   2
   1   2 -24 2537.86 366.573   5
   1   2 -24 3541.13 339.382   6
  -1  -2 -24 2895.54 326.437   6
   1  -2 -24 2669.43 336.844   6
  -1  -2 -24 2586.78 524.061   2
   1  -2 -24 3246.76 568.651   2
   1   2 -23 2879.04 374.253   5
   1  -2 -23 4640.61 640.324   2
   1  -2 -23 3730.49 400.770   6
  -1   2 -23 2006.16 460.581   2
  -1  -2 -23 3326.85 349.736   6
   1   2 -23 4093.40 361.941   6
  -1  -2 -23 3094.04 537.921   2
   1   2 -22 1901.61 241.931   6
   1   2 -22 1698.74 272.983   5
  -1  -2 -22 1520.81 230.795   6
  -1   2 -22 865.931 317.909   2
   1  -2 -22 1861.79 280.524   6
   1  -2 -22 1853.85 395.477   2
  -1  -2 -22 1314.57 339.469   2
  -1   2 -21 4174.72 491.475   5
   1  -2 -21 4021.19 561.970   2
   1   2 -21 3299.20 385.255   5
  -1  -2 -21 2796.52 307.937   6
  -1  -2 -21 3673.89 554.357   2
  -1   2 -21 3517.31 575.514   2
   1  -2 -21 2636.50 317.150   6
   1   2 -21 3708.00 321.913   6
  -1   2 -20 1540.10 296.070   5
  -1   2 -20 1063.08 342.897   2
   1  -2 -20 786.116 171.282   6
  -1  -2 -20 811.548 249.450   2
   1   2 -20 1180.52 179.110   6
   1   2 -19 793.818 142.813   6
  -1   2 -19 730.860 99.8739   6
   1  -2 -19 584.590 154.390   6
  -1   2 -19 1170.34 308.148   2
  -1   2 -19 1053.61 250.556   5
  -1  -2 -19 689.800 211.051   2
   1   2 -18 1029.32 159.287   6
  -1   2 -18 880.011 107.077   6
  -1   2 -18 1078.93 229.856   5
   1  -2 -18 845.940 176.459   6
  -1   2 -18 1085.22 288.884   2
  -1  -2 -18 706.896 218.367   2
  -1  -2 -17 1125.63 271.104   2
   1   2 -17 1087.10 156.066   6
   1  -2 -17 880.145 165.420   6
  -1   2 -17 950.237 261.433   2
  -1   2 -17 1517.21 268.116   5
  -1   2 -17 1106.49 118.099   6
  -1  -2 -16 3393.56 460.845   2
  -1   2 -16 3185.26 195.277   6
  -1   2 -16 3226.98 460.370   2
   1  -2 -16 3159.12 308.038   6
  -1  -2 -16 3182.32 167.749   5
   1   2 -16 3549.16 273.593   6
  -1   2 -16 4308.90 421.603   5
   1  -2 -15 3693.41 268.383   5
   1   2 -15 3700.30 273.215   6
  -1   2 -15 3382.15 194.775   6
  -1   2 -15 4307.20 410.553   5
  -1  -2 -15 3546.35 182.303   5
  -1  -2 -15 3622.93 461.384   2
  -1   2 -15 3539.63 452.354   2
  -1   2 -14 8709.52 678.626   2
  -1   2 -14 8858.01 320.718   6
  -1  -2 -14 8405.46 313.258   5
  -1  -2 -14 9734.33 718.055   2
   1  -2 -14 9604.07 430.755   5
   1   2 -14 8785.05 425.660   6
  -1   2 -14 9161.08 590.254   5
  -1   2 -13 6523.61 556.705   2
   1   2 -13 7230.72 367.846   6
  -1  -2 -13 7174.67 605.837   2
  -1   2 -13 6877.39 269.973   6
   1  -2 -13 7088.50 353.894   5
  -1  -2 -13 6892.09 282.274   5
  -1   2 -13 8223.16 535.139   5
  -1   2 -12 11717.1 633.611   5
  -1   2 -12 9170.06 622.801   2
  -1   2 -12 9245.91 317.919   6
  -1  -2 -12 10958.3 732.997   2
   1  -2 -12 10228.0 422.635   5
  -1  -2 -12 8942.91 344.103   5
   1   2 -12 10089.3 427.816   6
  -1   2 -11 15540.7 721.018   5
  -1   2 -11 12811.1 708.277   2
   1   2 -11 13654.4 504.435   6
  -1  -2 -11 13578.6 443.593   5
  -1   2 -11 12687.5 383.196   6
  -1  -2 -11 15949.1 864.994   2
   1  -2 -11 13479.2 494.243   5
  -1   2 -10 8857.74 541.616   2
   1   2 -10 9527.36 398.435   6
  -1   2 -10 9444.64 306.236   6
  -1   2 -10 10854.6 583.902   5
  -1  -2 -10 9887.49 372.364   5
   1  -2 -10 9663.42 399.817   5
  -1  -2  -9 6705.12 308.183   5
  -1   2  -9 6395.35 417.131   2
  -1   2  -9 6729.86 475.284   1
  -1   2  -9 6707.51 248.445   6
   1   2  -9 6710.82 320.585   6
  -1   2  -9 6992.93 453.235   5
   1  -2  -9 6832.53 320.336   5
  -1   2  -8 4042.62 350.126   1
  -1   2  -8 3798.65 180.979   6
   1   2  -8 4161.16 241.063   6
  -1  -2  -8 3857.44 236.518   5
   1  -2  -8 4034.08 243.868   5
  -1   2  -8 3796.59 330.060   5
  -1   2  -8 3340.29 272.503   2
  -1  -2  -7 3681.89 240.564   5
  -1   2  -7 3840.17 257.047   2
   1   2  -7 4229.32 239.580   6
  -1   2  -7 3990.37 345.762   1
  -1   2  -7 3960.59 328.588   5
   1  -2  -7 4126.86 243.969   5
   1  -2  -6 2992.38 204.449   5
  -1   2  -6 2689.70 182.971   2
  -1   2  -6 2764.25 268.670   5
  -1  -2  -6 2613.51 205.921   5
  -1   2  -6 2695.36 275.408   1
   1   2  -6 2917.61 193.739   6
  -1   2  -5 2500.15 261.280   1
  -1   2  -5 2464.12 141.524   2
  -1  -2  -5 2494.03 206.678   5
   1   2  -5 2748.99 189.862   6
   1  -2  -5 2695.54 193.206   5
  -1   2  -5 2678.57 255.906   5
   1  -2  -4 5412.72 285.329   5
   1   2  -4 5679.79 274.989   6
  -1   2  -4 4881.77 357.507   1
  -1  -2  -4 5738.09 329.746   5
  -1   2  -4 5201.68 350.478   5
  -1   2  -3 7729.63 444.843   1
  -1   2  -3 8614.12 443.197   5
   1   2  -3 8199.31 350.478   6
   1   2  -2 13717.0 486.474   6
  -1   2  -2 14023.0 558.267   5
   1   2  -2 15166.7 545.766   5
  -1   2  -2 12898.0 571.602   1
  -1   2  -1 11033.9 470.467   5
  -1   2  -1 9806.45 483.635   1
   1   2  -1 12284.0 474.651   5
   1   2  -1 11465.9 440.326   6
   1   2   0 14643.1 527.199   5
   1   2   0 13582.9 538.054   2
  -1   2   0 14184.9 530.006   5
  -1   2   0 13867.2 551.937   1
   1   2   0 14908.7 525.399   6
   1   2   1 12283.3 472.878   5
  -1   2   1 11763.9 460.928   5
  -1   2   1 11043.9 465.599   1
   1   2   1 12379.9 525.579   2
   1   2   2 12318.6 472.134   5
   1   2   2 12802.6 569.198   2
  -1   2   2 12096.6 462.648   1
  -1   2   2 12404.1 466.015   5
   1   2   3 10123.0 413.767   5
  -1   2   3 10366.4 389.923   1
   1  -2   3 10187.6 355.723   6
   1   2   3 9932.22 523.484   2
  -1   2   3 10111.9 403.052   5
   1   2   4 4862.20 264.767   5
  -1   2   4 5563.39 285.740   5
  -1   2   4 5232.88 240.179   1
   1  -2   4 5177.31 224.793   6
   1   2   4 5502.29 401.971   2
  -1   2   5 3141.42 155.367   1
  -1  -2   5 2992.60 207.984   6
   1   2   5 2788.42 295.524   2
   1  -2   5 3061.90 275.380   5
   1   2   5 2926.57 188.157   5
   1  -2   5 2745.77 147.295   6
  -1   2   5 3014.88 208.196   5
   1  -2   6 2940.38 266.089   5
  -1  -2   6 2709.58 202.312   6
   1   2   6 2722.79 220.354   3
  -1   2   6 2587.03 109.048   1
   1  -2   6 2638.03 138.377   6
   1   2   6 2672.93 164.371   5
   1   2   6 2775.87 301.445   2
  -1   2   6 2776.93 200.880   5
   1   2   7 3973.67 274.044   3
  -1   2   7 3986.52 234.941   3
   1   2   7 3598.26 181.733   5
   1  -2   7 3805.98 165.795   6
  -1  -2   7 4064.82 250.113   6
   1  -2   7 5031.87 362.033   5
  -1   2   7 4043.66 247.919   5
  -1   2   8 4675.07 258.975   3
   1   2   8 4955.42 312.698   3
   1  -2   8 4413.16 186.794   6
   1   2   8 4845.43 204.775   5
  -1   2   8 4524.65 270.273   5
  -1   2   9 7980.94 352.007   3
   1   2   9 7563.08 401.309   3
   1  -2   9 7750.14 271.947   6
   1   2   9 7840.61 263.254   5
  -1   2  10 12059.6 462.719   3
   1  -2  10 11069.8 354.471   6
   1   2  10 12340.8 532.830   3
   1  -2  11 12740.2 405.790   6
  -1   2  11 14217.1 523.696   3
   1   2  11 14591.9 493.141   1
  -1  -2  11 15173.9 592.592   6
   1   2  11 14127.9 598.566   3
   1   2  12 11404.3 450.220   1
   1  -2  12 12110.8 639.435   4
  -1  -2  12 11543.8 527.150   6
   1   2  12 11725.1 557.828   3
  -1   2  12 11792.0 490.199   3
  -1  -2  12 11134.8 518.114   4
   1  -2  13 9817.89 587.271   4
   1   2  13 9650.14 520.847   3
  -1  -2  13 10057.5 501.265   4
  -1   2  13 9575.68 449.563   3
   1   2  13 9671.17 423.912   1
   1  -2  14 10523.2 620.970   4
  -1  -2  14 9791.29 513.615   4
   1   2  14 10255.0 552.047   3
  -1   2  14 9609.39 468.200   3
   1   2  14 9475.95 448.553   1
  -1  -2  15 4653.54 361.364   4
   1  -2  15 5174.97 442.536   4
   1   2  15 5250.05 396.882   3
   1   2  16 4269.75 371.569   3
   1  -2  16 4099.10 405.952   4
  -1  -2  16 3794.12 339.818   4
  -1  -2  17 1337.91 205.451   4
   1  -2  17 1070.13 217.417   4
   1  -2  18 1009.07 219.017   4
   1  -2  19 841.924 207.059   4
   1  -2  20 1769.73 303.461   4
   1  -2  21 2894.64 397.467   4
   1   3 -25 438.100 179.604   5
  -1  -3 -25 546.982 138.644   6
   1   3 -24 281.210 96.7095   5
   1  -3 -24 264.197 156.931   6
  -1  -3 -24 68.4795 81.3238   6
  -1  -3 -23 1142.89 349.677   2
   1  -3 -23 857.085 269.129   2
  -1  -3 -23 620.483 162.702   6
   1  -3 -23 643.307 192.052   6
   1   3 -23 318.743 140.905   5
   1  -3 -22 194.142 151.988   2
  -1  -3 -22 247.331 164.102   2
   1   3 -22 471.120 164.722   5
   1  -3 -22 251.381 117.157   6
   1   3 -22 367.544 118.367   6
  -1   3 -22 785.907 278.893   5
   1  -3 -21 3574.55 392.519   6
  -1   3 -21 4236.55 604.838   2
  -1   3 -21 5206.06 586.925   5
   1  -3 -21 4855.07 641.191   2
   1   3 -21 4257.04 347.481   6
   1   3 -21 3830.98 426.553   5
  -1  -3 -21 4786.15 645.186   2
  -1   3 -20 1462.26 306.551   5
   1   3 -20 1172.16 181.965   6
   1   3 -20 1296.86 250.978   5
  -1   3 -20 1386.08 341.867   2
   1  -3 -20 1938.85 391.668   2
   1  -3 -20 1014.06 198.754   6
  -1  -3 -20 1257.44 322.902   2
   1  -3 -19 7663.29 564.980   6
   1   3 -19 8970.87 635.105   5
   1   3 -19 9356.92 501.291   6
  -1  -3 -19 10179.6 876.023   2
   1  -3 -19 10512.5 882.533   2
  -1   3 -19 8370.09 799.967   2
   1   3 -18 1515.46 256.165   5
   1   3 -18 1773.08 209.973   6
  -1   3 -18 2413.03 368.719   5
   1  -3 -18 2257.28 384.632   2
  -1   3 -18 1673.79 347.671   2
  -1  -3 -18 2074.45 391.037   2
  -1   3 -17 11722.4 779.610   5
  -1   3 -17 8303.40 371.046   6
   1  -3 -17 10408.1 806.581   2
  -1  -3 -17 10387.9 838.598   2
   1   3 -17 9596.98 488.701   6
  -1   3 -17 10023.4 787.448   2
   1   3 -17 8212.93 584.067   5
  -1   3 -16 744.801 225.581   2
   1   3 -16 524.205 112.253   6
  -1   3 -16 517.407 96.3354   6
  -1  -3 -16 496.421 196.344   2
  -1   3 -16 628.986 185.740   5
   1   3 -16 556.174 148.810   5
   1  -3 -16 658.054 211.821   2
  -1   3 -15 4747.23 474.318   5
   1   3 -15 4307.02 308.760   6
   1  -3 -15 4326.05 478.284   2
  -1   3 -15 3870.51 236.943   6
  -1   3 -15 4795.56 483.973   2
  -1  -3 -15 4617.30 521.187   2
   1   3 -15 3943.38 386.348   5
  -1   3 -14 537.867 156.710   2
  -1  -3 -14 480.420 169.382   2
   1   3 -14 711.800 160.107   5
   1   3 -14 594.074 109.960   6
  -1   3 -14 842.275 191.385   5
   1  -3 -14 488.762 178.001   2
  -1   3 -14 609.525 101.149   6
  -1  -3 -14 513.383 100.480   5
   1   3 -13 427.694 95.5755   6
  -1   3 -13 448.112 79.3902   6
  -1   3 -13 638.831 172.010   5
   1  -3 -13 605.552 172.183   2
  -1   3 -13 527.315 145.797   2
  -1  -3 -13 680.330 201.202   2
  -1  -3 -13 346.082 83.8920   5
   1   3 -13 489.399 138.291   5
  -1  -3 -12 151.562 63.8206   5
   1  -3 -12 193.908 118.693   2
  -1   3 -12 356.472 123.067   5
  -1   3 -12 161.300 78.6915   2
  -1  -3 -12 458.419 155.623   2
   1   3 -12 151.564 84.5441   5
   1   3 -12 133.764 61.7834   6
  -1   3 -12 219.020 55.9436   6
  -1   3 -11 473.136 118.542   2
  -1  -3 -11 400.988 158.472   2
  -1   3 -11 714.352 179.794   5
   1   3 -11 467.026 123.913   5
  -1  -3 -11 293.368 81.1477   5
   1  -3 -11 514.721 148.892   2
   1   3 -11 664.615 110.165   6
  -1   3 -10 464.363 134.629   5
   1   3 -10 420.308 120.341   5
   1  -3 -10 302.005 105.872   2
  -1  -3 -10 444.657 157.524   2
   1   3 -10 321.654 82.7037   6
   1  -3 -10 464.098 100.261   5
  -1   3 -10 313.386 91.8348   2
  -1  -3 -10 378.106 97.4203   5
  -1   3  -9 10058.0 623.973   5
   1   3  -9 8408.24 517.626   5
   1   3  -9 9352.50 432.050   6
   1  -3  -9 9577.17 564.502   2
  -1   3  -9 8731.27 414.031   2
  -1  -3  -9 9667.33 490.572   5
  -1  -3  -9 11225.3 713.258   2
   1  -3  -9 9703.53 462.844   5
  -1   3  -8 2056.91 163.243   2
  -1  -3  -8 2524.10 248.874   5
   1   3  -8 2853.12 227.554   6
   1  -3  -8 2681.60 284.957   2
  -1  -3  -8 2703.25 348.018   2
  -1   3  -8 3350.92 351.757   5
   1  -3  -8 2612.23 231.321   5
   1   3  -8 2782.82 280.784   5
   1  -3  -7 18419.4 655.978   5
  -1   3  -7 20000.8 860.864   5
   1   3  -7 17391.1 727.916   5
  -1  -3  -7 21191.3 930.546   2
   1   3  -7 18260.7 629.495   6
  -1  -3  -7 18873.9 731.269   5
   1  -3  -6 3291.38 266.061   5
   1   3  -6 3036.93 289.947   5
   1   3  -6 3223.19 250.982   6
  -1   3  -6 3350.33 344.056   5
  -1  -3  -6 3117.38 293.237   5
  -1   3  -5 21889.6 934.316   5
  -1   3  -5 25082.5 1158.93   1
   1   3  -5 22556.1 845.999   5
  -1  -3  -5 23864.4 890.405   5
   1  -3  -5 23392.1 787.346   2
   1  -3  -5 23455.0 796.906   5
   1   3  -5 23341.4 759.563   6
  -1   3  -4 1812.41 247.517   5
   1   3  -4 2148.97 237.789   5
  -1  -3  -4 2350.28 266.967   5
   1  -3  -4 1994.81 196.729   2
   1   3  -4 2136.38 207.741   6
   1  -3  -4 2366.06 232.857   5
  -1   3  -4 2525.51 346.835   1
   1   3  -3 10990.7 556.802   5
   1  -3  -3 10815.3 464.198   2
  -1   3  -3 11805.2 749.114   1
   1   3  -3 11942.4 514.688   6
   1  -3  -3 11353.7 539.023   5
  -1   3  -3 11196.3 598.735   5
  -1   3  -2 744.985 159.820   5
   1  -3  -2 1089.53 130.353   2
   1   3  -2 1037.78 165.047   5
  -1   3  -2 1512.32 262.469   1
   1   3  -1 1131.86 168.885   5
  -1   3  -1 1176.03 182.543   5
   1   3  -1 1183.24 171.012   2
   1  -3  -1 1459.41 134.370   2
  -1   3  -1 1283.98 230.565   1
   1   3   0-0.24129 50.0145   5
   1  -3   0 45.7173 24.4028   2
  -1   3   0 49.2697 53.2243   5
   1   3   0 10.6034 38.5321   2
  -1   3   0 89.0563 60.3989   1
  -1   3   1 2004.30 222.111   5
   1   3   1 2218.15 234.451   5
   1   3   1 1882.93 231.521   2
   1   3   2 1289.18 177.076   5
  -1   3   2 1087.57 164.445   5
   1   3   2 1120.27 178.754   2
   1  -3   3 10671.5 452.126   6
   1   3   3 11081.6 609.456   2
   1   3   3 10092.3 499.599   5
  -1   3   3 10235.9 497.075   5
   1   3   4 2303.62 290.565   2
  -1   3   4 2422.10 227.509   5
   1  -3   4 2790.68 211.852   6
   1   3   4 2262.18 224.725   5
   1   3   5 22614.2 760.443   5
  -1   3   5 22877.8 773.419   5
   1  -3   5 25355.4 983.328   5
  -1  -3   5 24116.8 781.521   6
  -1   3   5 24207.6 850.103   1
   1  -3   5 24158.8 689.754   6
   1   3   5 21924.3 953.881   2
   1   3   6 4053.97 274.116   5
   1  -3   6 4141.21 377.715   5
  -1   3   6 3987.55 286.256   1
   1   3   6 3930.50 416.426   2
  -1  -3   6 4341.65 299.643   6
  -1   3   6 4037.77 292.638   5
   1  -3   6 3620.54 225.867   6
   1  -3   7 19103.3 572.706   6
  -1  -3   7 20237.6 703.183   6
   1   3   7 20060.7 649.177   5
  -1   3   7 18693.3 623.005   1
  -1   3   7 19599.2 697.681   5
  -1   3   8 1936.22 145.318   1
   1   3   8 2706.71 204.801   5
   1   3   8 2480.03 261.757   3
  -1   3   8 2599.29 239.525   5
  -1  -3   8 2723.42 237.205   6
   1  -3   8 2601.69 177.424   6
  -1  -3   9 9739.40 444.652   6
  -1   3   9 9112.64 449.423   3
  -1   3   9 10380.2 465.790   5
   1   3   9 9513.08 516.060   3
   1   3   9 9955.50 372.812   5
   1  -3   9 9585.98 333.642   6
  -1   3  10 622.915 121.043   5
   1   3  10 500.641 127.785   3
  -1   3  10 581.828 120.317   3
   1   3  10 609.620 94.8049   5
   1  -3  10 465.797 75.6936   6
   1   3  11 564.202 92.5423   5
   1   3  11 602.303 138.383   3
  -1   3  11 527.237 115.962   5
  -1   3  11 528.230 113.773   3
   1  -3  11 510.648 79.1064   6
   1  -3  12 150.683 50.4959   6
   1   3  12 245.131 100.906   3
  -1   3  12 144.570 69.9051   3
   1   3  12 74.8134 45.5592   5
  -1   3  13 405.100 113.245   3
   1   3  13 744.862 163.233   3
   1   3  13 543.069 108.349   1
   1  -3  13 519.819 85.4681   6
  -1   3  14 453.286 114.849   3
   1   3  14 593.481 152.054   3
   1  -3  14 548.134 87.1565   6
   1  -3  15 4674.79 457.151   4
  -1  -3  15 4111.33 368.581   4
  -1   3  15 4809.18 374.461   3
   1   3  15 4831.71 414.945   3
  -1   3  16 713.649 158.694   3
   1   3  16 925.578 198.695   3
  -1  -3  16 762.577 169.942   4
   1  -3  16 545.759 174.781   4
  -1  -3  17 10943.0 656.397   4
   1   3  17 11672.3 702.696   3
  -1   3  17 11545.1 621.611   3
   1  -3  17 11065.0 740.725   4
  -1  -3  18 1609.08 260.461   4
   1  -3  18 1759.19 301.943   4
   1   3  18 2081.10 298.245   3
  -1  -3  19 12086.0 723.116   4
   1  -3  19 10740.4 777.649   4
   1   3  19 11840.3 749.302   3
   1  -3  20 1024.83 258.245   4
  -1  -3  20 1271.42 246.893   4
  -1  -3  21 5401.78 507.899   4
   1  -3  21 5610.39 579.827   4
   1  -3  22 652.702 229.505   4
   1  -3  23 587.557 213.985   4
   1  -3  24 110.278 99.7296   4
   1   4 -24 3443.87 466.180   5
   1   4 -23-82.7745 106.353   5
   1   4 -22 2712.66 398.351   5
   1  -4 -22 2548.90 355.038   6
  -1   4 -22 4597.50 572.590   5
   1  -4 -22 3938.19 624.553   2
  -1   4 -21 1139.35 276.580   5
   1   4 -21 807.626 212.781   5
   1  -4 -21 583.659 188.245   6
  -1  -4 -21 895.894 300.360   2
   1  -4 -21 1051.70 331.205   2
  -1  -4 -20 1495.01 349.853   2
   1   4 -20 1295.72 248.910   5
   1  -4 -20 1700.10 373.066   2
   1   4 -20 1575.43 220.615   6
  -1   4 -20 2229.09 398.946   5
   1   4 -19 94.8137 79.3951   6
   1   4 -19 338.754 142.456   5
  -1  -4 -19 73.7021 106.199   2
  -1   4 -19-26.5426 125.112   5
   1  -4 -19 127.253 79.2259   2
   1   4 -18 2586.70 357.977   5
  -1   4 -18 3888.32 498.180   5
   1   4 -18 2726.79 276.021   6
   1  -4 -18 3064.43 480.512   2
  -1  -4 -18 3349.81 502.993   2
   1   4 -17 774.114 192.893   5
   1   4 -17 1186.21 183.730   6
   1  -4 -17 904.120 260.335   2
  -1   4 -17 1337.82 301.744   5
  -1  -4 -17 976.654 274.835   2
   1   4 -16 2863.53 281.027   6
   1   4 -16 2688.82 345.570   5
   1  -4 -16 2998.73 425.523   2
  -1  -4 -16 2665.57 437.465   2
  -1   4 -16 2799.25 393.656   5
   1   4 -15 1727.14 212.653   6
   1   4 -15 1338.75 259.368   5
   1  -4 -15 1689.43 312.205   2
  -1   4 -15 2476.50 360.859   5
  -1   4 -15 1394.49 199.346   2
  -1  -4 -15 1784.05 353.023   2
  -1   4 -14 6459.61 571.155   5
   1   4 -14 5600.75 380.947   6
  -1   4 -14 4411.34 341.358   2
   1   4 -14 4816.21 460.624   5
   1  -4 -14 5223.51 527.488   2
  -1  -4 -14 6005.12 615.548   2
   1   4 -13 528.856 118.809   6
  -1   4 -13 580.537 115.357   2
   1   4 -13 429.243 151.002   5
  -1   4 -13 694.441 197.852   5
   1  -4 -13 660.443 181.541   2
  -1  -4 -13 872.879 236.136   2
   1   4 -12 6062.62 508.343   5
  -1   4 -12 7702.87 610.335   5
  -1   4 -12 5160.38 306.943   2
  -1  -4 -12 7699.92 674.394   2
   1   4 -12 7155.43 429.288   6
   1  -4 -12 6684.58 550.491   2
  -1  -4 -11 796.606 245.744   2
  -1  -4 -11 925.415 176.211   5
   1  -4 -11 807.946 197.389   2
  -1   4 -11 510.708 77.5866   2
   1   4 -11 1058.78 217.850   5
   1   4 -11 1063.04 172.911   6
  -1   4 -11 1078.82 230.731   5
  -1   4 -10 6698.67 546.452   5
   1   4 -10 6115.10 477.740   5
  -1  -4 -10 5974.84 435.996   5
   1   4 -10 6289.51 394.403   6
   1  -4 -10 5868.99 474.164   2
  -1  -4 -10 6679.30 570.898   2
   1   4  -9 1923.29 275.519   5
   1   4  -9 2119.83 231.403   6
  -1  -4  -9 2070.57 266.414   5
  -1  -4  -9 1868.36 308.877   2
   1  -4  -9 2135.86 283.466   2
  -1   4  -9 2030.20 306.170   5
  -1   4  -8 2405.42 332.522   5
   1   4  -8 2060.17 275.102   5
  -1  -4  -8 1997.31 323.005   2
   1   4  -8 2359.83 246.651   6
   1  -4  -8 2059.10 278.033   2
  -1  -4  -8 2643.69 301.894   5
  -1   4  -7 635.155 171.578   5
   1  -4  -7 509.722 129.759   2
   1   4  -7 902.084 187.710   5
  -1  -4  -7 534.646 145.931   5
   1   4  -7 389.568 100.362   6
  -1  -4  -7 517.497 155.572   2
   1   4  -6 5788.20 393.825   6
  -1   4  -6 6092.13 501.517   5
   1   4  -6 5500.72 440.508   5
  -1  -4  -6 5787.43 478.105   5
  -1  -4  -6 5845.45 486.374   2
  -1   4  -5 1702.58 266.863   5
  -1  -4  -5 1463.58 231.582   2
   1   4  -5 1638.49 248.593   5
   1   4  -4 2985.89 281.198   2
  -1   4  -4 3603.66 381.186   5
   1   4  -4 4262.35 385.416   5
   1  -4  -4 4013.53 314.291   2
  -1   4  -3 3962.21 385.844   5
   1   4  -3 3976.02 329.214   2
   1  -4  -3 4540.52 319.119   2
   1   4  -3 4530.74 398.770   5
   1   4  -2 12469.0 666.698   5
   1   4  -2 11545.0 576.988   2
  -1   4  -2 11165.9 656.737   5
   1  -4  -2 11169.6 500.490   2
   1   4  -1 1487.62 200.990   2
  -1   4  -1 1157.61 208.384   5
   1   4  -1 1299.40 211.904   5
   1   4   0 17412.8 790.096   5
   1   4   0 16680.9 752.573   2
  -1   4   0 15890.3 777.743   5
  -1   4   1 1318.83 212.475   5
   1  -4   1 1216.02 177.393   6
   1   4   1 1214.93 202.548   5
   1   4   1 1474.57 221.228   2
   1   4   2 11327.2 618.807   5
   1   4   2 12367.5 684.838   2
   1  -4   2 11686.7 562.175   6
  -1   4   2 11170.8 618.262   5
   1   4   3 3755.42 344.001   5
   1  -4   3 4131.94 321.698   6
  -1   4   3 4137.02 359.219   5
   1   4   3 4856.87 419.870   2
   1   4   4 3915.59 342.057   5
   1   4   4 3909.56 407.924   2
   1  -4   4 4240.99 316.002   6
  -1   4   4 4194.05 354.119   5
   1   4   5 1930.30 230.733   5
  -1   4   5 1885.00 236.926   5
  -1   4   6 4607.02 429.191   1
  -1   4   6 5184.68 387.629   5
   1   4   6 5589.02 383.981   5
  -1   4   7 503.889 129.686   5
   1   4   7 641.316 131.604   5
  -1   4   7 639.164 145.857   1
  -1   4   8 2215.95 240.775   1
  -1   4   8 2335.64 256.526   5
   1   4   8 2511.36 243.444   5
  -1   4   9 1441.81 168.965   1
   1   4   9 1942.36 270.652   3
  -1   4   9 2174.08 250.141   5
   1   4   9 2445.62 232.337   5
   1   4  10 6252.26 494.903   3
   1   4  10 7226.18 392.305   5
  -1   4  10 7407.08 459.403   5
  -1   4  11 1090.94 181.028   5
   1   4  11 806.237 183.643   3
  -1   4  11 577.491 139.473   3
   1   4  11 900.023 142.827   5
   1   4  12 8479.06 598.420   3
  -1   4  12 6393.94 474.305   3
   1   4  12 8648.62 442.363   5
  -1   4  12 8102.34 500.198   5
  -1   4  13 626.879 149.719   5
   1   4  13 761.524 129.616   5
   1   4  13 490.283 147.249   3
  -1   4  13 474.658 134.724   3
   1   4  14 6963.63 375.538   5
  -1   4  14 5261.30 438.691   3
   1   4  14 6356.24 527.515   3
   1   4  15 2225.44 315.882   3
  -1   4  15 1988.59 270.306   3
   1   4  16 3053.21 380.832   3
  -1   4  16 2417.29 301.793   3
  -1   4  17 997.302 200.920   3
   1   4  17 1064.62 232.562   3
  -1  -4  17 832.209 188.291   4
   1  -4  17 1116.12 261.080   4
   1   4  18 2895.12 396.770   3
  -1  -4  18 2797.02 359.231   4
  -1   4  18 2677.04 333.115   3
   1  -4  18 3232.95 431.863   4
   1   4  19 51.2329 83.0126   3
  -1   4  19 118.403 108.609   3
  -1  -4  19-31.3816 87.8001   4
   1  -4  19-52.1650 113.503   4
   1   4  20 2502.92 390.339   3
   1  -4  20 1101.84 264.756   4
   1   4  21 1163.87 305.128   3
   1  -4  21 907.544 245.675   4
   1  -4  22 3532.21 504.073   4
   1  -4  23 98.4846 112.646   4
  -1   5 -21 1410.80 313.586   5
   1   5 -20 396.124 175.414   5
  -1   5 -20 517.893 217.077   5
   1  -5 -20 123.295 134.534   2
   1  -5 -19 707.061 255.267   2
  -1  -5 -19 953.841 264.819   2
   1   5 -19 689.525 205.039   5
  -1   5 -19 617.859 211.185   5
  -1  -5 -18 278.866 162.299   2
  -1   5 -18 389.385 168.046   5
   1   5 -18 256.638 133.243   5
   1   5 -18 117.455 78.0899   6
   1  -5 -18 7.18909 160.309   2
  -1  -5 -17 562.773 208.595   2
   1   5 -17 457.624 124.549   6
   1   5 -17 538.683 182.294   5
  -1   5 -17 687.735 229.750   5
   1  -5 -17 632.729 216.268   2
  -1  -5 -16 688.518 237.556   2
   1   5 -16 576.576 134.383   6
  -1   5 -16 916.986 244.619   5
   1   5 -16 797.690 216.701   5
   1  -5 -16 924.939 260.740   2
  -1   5 -15 3413.40 457.928   5
   1   5 -15 3000.43 316.079   6
   1   5 -15 2892.80 391.643   5
   1  -5 -15 2547.29 408.597   2
  -1  -5 -15 3051.39 469.371   2
   1   5 -14 2383.07 349.077   5
  -1  -5 -14 2720.49 425.750   2
   1   5 -14 2199.50 262.969   6
  -1   5 -14 2611.36 399.784   5
   1  -5 -14 1931.23 349.020   2
   1   5 -13 5170.72 509.512   5
   1  -5 -13 5400.69 561.634   2
  -1  -5 -13 5653.34 595.242   2
   1   5 -13 5796.93 441.397   6
  -1   5 -13 5873.86 576.954   5
  -1  -5 -12 527.244 200.826   2
   1   5 -12 840.515 207.079   5
  -1   5 -12 828.004 195.471   5
   1  -5 -12 778.131 216.466   2
  -1   5 -11 6543.07 599.972   5
   1   5 -11 6114.30 540.614   5
   1  -5 -11 6005.42 554.233   2
  -1  -5 -11 5894.94 624.366   2
  -1   5 -10 2773.86 380.951   5
   1   5 -10 2475.73 349.426   5
   1  -5 -10 2692.32 356.708   2
  -1  -5 -10 2774.38 396.940   2
  -1   5  -9 4537.13 485.025   5
   1  -5  -9 3597.34 398.527   2
  -1  -5  -9 3906.24 446.177   2
   1   5  -9 3881.73 426.311   5
   1   5  -8 626.241 186.871   5
  -1  -5  -8 819.970 209.782   2
   1  -5  -8 461.143 160.119   2
  -1   5  -8 984.390 231.296   5
   1  -5  -7 1708.46 258.061   2
   1   5  -7 1019.05 166.482   2
   1   5  -7 1462.68 262.180   5
  -1   5  -7 1726.18 293.028   5
   1  -5  -6 268.845 115.472   2
   1   5  -6 194.044 76.2256   2
   1   5  -6 251.563 124.616   5
  -1   5  -6 205.182 114.319   5
   1   5  -5 367.562 108.139   2
  -1   5  -5 399.354 140.820   5
   1   5  -5 476.741 152.796   5
   1   5  -4 755.768 189.176   5
  -1   5  -4 705.460 199.232   5
   1   5  -4 690.952 131.266   2
  -1   5  -3 5421.05 498.794   5
   1   5  -3 5933.91 507.300   5
   1   5  -3 5513.39 412.470   2
   1   5  -2 3001.27 358.031   5
  -1   5  -2 3230.92 378.175   5
   1   5  -2 2931.01 314.397   2
   1   5  -1 7471.72 563.107   5
   1   5  -1 7503.76 507.009   2
  -1   5  -1 7183.44 567.346   5
   1   5   0 1135.90 212.823   2
  -1   5   0 1469.52 254.658   5
   1   5   0 1467.18 247.087   5
  -1   5   1 6509.80 526.571   5
   1   5   1 7108.88 545.521   5
   1   5   1 7030.21 506.931   2
   1   5   2 2858.80 338.892   5
  -1   5   2 2564.26 322.102   5
   1   5   3 5692.45 468.668   5
  -1   5   3 5417.44 470.151   5
  -1   5   4 591.303 158.938   5
   1   5   4 654.240 154.419   5
  -1   5   5 366.417 130.217   5
   1   5   5 427.885 130.867   5
  -1   5   6 184.214 96.8058   5
   1   5   6 292.476 106.299   5
   1   5   7 1685.84 238.657   5
  -1   5   7 1686.43 259.794   5
  -1   5   8 1019.79 204.716   5
   1   5   8 1197.86 196.249   5
   1   5   9 3762.27 341.485   5
  -1   5   9 3641.10 367.482   5
   1   5  10 2490.01 349.881   3
  -1   5  10 2685.21 315.534   5
   1   5  10 3204.41 309.549   5
   1   5  11 5561.05 540.130   3
  -1   5  11 6556.76 494.841   5
   1   5  11 6163.72 443.645   5
   1   5  12 788.325 159.507   5
  -1   5  12 588.098 161.344   3
  -1   5  12 825.277 184.734   5
   1   5  12 763.574 211.628   3
   1   5  13 5642.03 551.472   3
  -1   5  13 6692.16 509.237   5
   1   5  13 6908.75 460.933   5
  -1   5  14 1646.33 272.545   3
   1   5  14 1927.14 322.793   3
  -1   5  14 2131.86 290.368   5
  -1   5  15 2658.25 349.957   3
   1   5  15 3762.49 457.308   3
  -1   5  16 666.127 180.926   3
   1   5  16 413.560 168.099   3
  -1   5  17 562.194 178.336   3
   1   5  17 537.391 210.750   3
   1  -5  18 8.61037 109.980   4
  -1   5  18-37.6561 67.3310   3
   1   5  18 145.284 174.112   3
  -1   5  19 628.195 212.484   3
   1   5  19 818.503 248.429   3
   1  -5  19 468.413 188.840   4
   1   5  20 593.658 220.486   3
   1  -5  20 419.080 202.536   4
   1  -5  21 715.054 242.146   4
   1  -6 -18 1407.37 345.929   2
   1  -6 -17 2318.51 414.931   2
  -1  -6 -17 1707.24 385.119   2
   1  -6 -16 1156.18 301.278   2
  -1  -6 -16 1134.01 332.805   2
  -1   6 -16 1603.71 341.204   5
   1  -6 -15 1144.19 289.019   2
   1   6 -15 1270.86 289.640   5
  -1  -6 -15 1353.90 317.954   2
  -1   6 -15 1340.52 290.091   5
  -1   6 -14-60.5174 111.394   5
  -1  -6 -14 248.459 145.100   2
   1   6 -14 256.889 133.365   5
   1  -6 -13 92.7565 94.7681   2
  -1  -6 -13 88.5902 108.145   2
  -1   6 -13 39.1097 86.9393   5
   1   6 -13 114.981 114.589   5
   1  -6 -12 532.217 189.735   2
  -1   6 -12 524.233 192.928   5
  -1  -6 -12 656.400 241.115   2
   1   6 -12 683.884 206.657   5
   1  -6 -11 223.505 124.649   2
   1   6 -11 307.138 152.417   5
  -1   6 -11 291.775 179.390   5
   1  -6 -10 650.870 172.424   2
  -1   6 -10 774.832 243.398   5
   1   6 -10 290.764 145.983   5
   1  -6  -9 1621.50 276.299   2
  -1   6  -9 1806.92 328.441   5
   1   6  -9 1573.36 319.556   5
  -1   6  -8 3356.94 430.982   5
   1   6  -8 3248.82 432.752   5
   1  -6  -8 2533.51 351.737   2
  -1   6  -7 5028.11 534.736   5
   1   6  -7 4371.83 491.646   5
   1  -6  -7 4226.17 417.957   2
  -1   6  -6 3389.19 438.537   5
   1   6  -6 3444.46 426.873   5
  -1   6  -5 5045.78 525.903   5
   1   6  -5 4823.00 506.746   5
   1   6  -4 2655.50 375.962   5
  -1   6  -4 3756.22 447.297   5
   1   6  -3 2036.68 320.385   5
  -1   6  -3 2449.57 364.302   5
  -1   6  -2 154.971 109.439   5
   1   6  -2 284.194 138.133   5
  -1   6  -1 297.145 142.567   5
   1   6  -1 9.89045 102.187   5
   1   6   0 631.018 181.175   5
  -1   6   0 372.880 153.992   5
   1   6   1 284.527 130.872   5
  -1   6   1 314.079 133.554   5
  -1   6   2 64.5795 74.5489   5
   1   6   2 63.2519 77.3875   5
  -1   6   3 1432.00 267.474   5
   1   6   3 1598.88 271.299   5
   1   6   4 3401.77 388.537   5
  -1   6   4 2855.10 383.642   5
   1   6   5 4241.95 429.415   5
  -1   6   5 3849.48 424.916   5
   1   6   6 3157.60 363.639   5
  -1   6   6 3145.49 386.612   5
   1   6   7 4075.03 413.237   5
  -1   6   7 4620.59 460.578   5
  -1   6   8 3317.56 393.237   5
   1   6   8 2506.07 320.942   5
  -1   6   9 1547.78 282.390   5
   1   6   9 1678.83 253.798   5
  -1   6  10 562.156 167.202   5
   1   6  10 478.582 194.599   3
   1   6  10 469.912 158.855   5
  -1   6  11 322.749 137.044   5
   1   6  11 335.575 121.607   5
   1   6  11 461.644 189.203   3
  -1   6  11 201.631 88.0271   3
  -1   6  12 483.603 168.296   5
   1   6  12 80.8071 115.590   3
  -1   6  12 470.578 181.322   3
  -1   6  13 56.5990 78.2456   5
   1   6  13 257.916 167.559   3
  -1   6  13 264.259 137.006   3
  -1   6  14 163.575 122.015   5
   1   6  14 349.523 161.676   3
  -1   6  14 178.164 118.324   3
  -1   6  15 764.852 235.685   3
   1   6  15 717.499 246.762   3
  -1   6  16 938.846 237.799   3
   1   6  16 1296.28 324.411   3
  -1   6  17 1050.66 264.735   3
  -1   7  -8 1929.42 360.430   5
   1   7  -8 1206.99 271.426   5
  -1   7  -7 457.923 210.687   5
   1   7  -7 602.907 218.154   5
   1   7  -6 1022.52 264.950   5
  -1   7  -6 1198.67 275.655   5
  -1   7  -5 1060.57 269.249   5
   1   7  -5 668.784 225.729   5
  -1   7  -4 1896.31 359.884   5
   1   7  -4 1578.05 315.272   5
  -1   7  -3 921.327 252.745   5
   1   7  -3 734.049 230.528   5
  -1   7  -2 2262.91 375.526   5
   1   7  -2 1821.17 339.139   5
   1   7  -1 495.053 188.766   5
  -1   7  -1 465.680 189.932   5
   1   7   0 3134.07 420.744   5
  -1   7   0 3481.77 461.859   5
  -1   7   1 349.801 161.686   5
   1   7   1 501.633 195.031   5
  -1   7   2 1912.48 342.136   5
   1   7   2 1896.80 323.541   5
  -1   7   3 547.458 191.181   5
   1   7   3 604.713 196.215   5
  -1   7   4 1267.94 275.378   5
   1   7   4 2037.50 333.877   5
  -1   7   5 504.696 195.499   5
   1   7   5 770.737 217.752   5
   1   7   6 1137.76 247.705   5
  -1   7   6 1110.78 250.591   5
  -1   7   7 1052.24 256.118   5
   1   7   7 623.224 200.100   5
  -1   7   8 905.638 242.621   5
   1   7   8 1270.53 252.002   5
  -1   7   9 126.710 107.563   5
   1   7   9-5.52370 127.168   5
  -1   7  10 1088.10 280.439   5
   1   7  10 660.746 235.677   3
  -1   7  11 334.914 147.307   3
  -1   7  11 664.790 204.545   5
  -1   7  12 1944.02 329.564   5
  -1   7  12 1004.02 256.685   3
  -1   7  13 254.833 137.679   3
   2   0 -27 167.905 132.812   6
  -2   0 -26 5972.64 918.160   2
   2   0 -26 5544.69 492.725   6
  -2   0 -25 771.629 333.880   2
   2   0 -25 38.4259 99.3220   6
   2   0 -24 10406.4 666.852   6
  -2   0 -24 11982.9 1237.84   2
   2   0 -23 186.272 100.955   6
  -2   0 -23 290.279 207.777   2
  -2   0 -22 8189.98 942.808   2
   2   0 -22 8233.53 560.830   6
   2   0 -21 94.7992 75.1875   6
  -2   0 -21 258.499 173.738   2
   2   0 -20 4843.08 409.096   6
  -2   0 -20 5730.82 337.406   6
  -2   0 -20 4747.49 683.278   2
   2   0 -19-41.6303 80.5880   6
  -2   0 -19 27.4085 46.5774   6
  -2   0 -19 3.53341 82.8013   2
  -2   0 -18 1481.83 160.299   6
   2   0 -18 1199.90 194.541   6
  -2   0 -18 1516.43 344.679   2
   2   0 -17 12.5403 60.8027   6
  -2   0 -17 75.1962 57.4467   6
   2   0 -17 155.087 66.7990   1
  -2   0 -17-26.7329 85.7283   2
  -2   0 -16 9037.31 386.995   6
   2   0 -16 6889.87 422.525   1
   2   0 -16 8004.55 403.268   3
   2   0 -16 7938.27 479.068   6
  -2   0 -16 6948.17 705.215   2
   2   0 -15 41.2786 51.8203   1
  -2   0 -15 5.66679 30.9516   6
  -2   0 -15 99.3991 126.520   2
   2   0 -15 36.9281 54.1286   6
   2   0 -14 8773.62 464.021   6
  -2   0 -14 9373.47 353.556   6
  -2   0 -14 9148.87 746.140   2
   2   0 -13 16.9557 28.1568   3
  -2   0 -13 6.16650 10.9037   5
   2   0 -13 33.4955 55.6705   6
  -2   0 -13 95.4629 115.148   2
   2   0 -12 34632.5 982.497   6
   2   0 -12 29247.1 797.018   4
  -2   0 -12 33996.7 1422.96   2
  -2   0 -12 30440.6 575.201   5
   2   0 -12 32671.0 797.433   3
   2   0 -11 23.0227 30.0119   3
  -2   0 -11-40.1671 66.6590   2
  -2   0 -11 8.44234 12.7649   5
   2   0 -11 14.6999 27.8366   4
   2   0 -11 20.3508 40.0878   6
   2   0 -10 9196.34 339.640   4
  -2   0 -10 10627.1 237.481   5
   2   0 -10 10693.5 468.985   6
   2   0 -10 9147.75 330.532   3
  -2   0 -10 11051.5 717.974   2
  -2   0  -9-43.0060 50.2381   2
   2   0  -9 11.5421 23.0456   3
  -2   0  -9 13.5867 12.0080   5
   2   0  -9 14.0326 19.1576   4
   2   0  -9 15.6635 35.6626   6
   2   0  -8 6720.39 243.158   4
  -2   0  -8 8000.29 289.323   6
   2   0  -8 7951.32 370.997   6
  -2   0  -8 8124.63 553.385   2
  -2   0  -8 8097.41 204.481   5
  -2   0  -7 18.9582 46.0903   2
  -2   0  -7 10.8918 11.5050   5
   2   0  -7-4.93156 14.0565   4
  -2   0  -7 8.94675 16.2322   6
   2   0  -7 11.5041 43.1519   6
   2   0  -6 5550.49 286.469   6
  -2   0  -6 5661.97 195.982   6
  -2   0  -6 6052.45 413.849   2
  -2   0  -5 16.4254 25.1738   3
  -2   0  -5 24.5124 49.8806   2
  -2   0  -5 5.52731 14.5039   6
   2   0  -5-3.08563 31.0930   6
  -2   0  -4 6866.95 215.609   6
   2   0  -4 6631.07 288.130   6
  -2   0  -4 7207.16 282.330   3
  -2   0  -3 21.7189 20.4093   3
  -2   0  -3 0.99697 14.5921   6
   2   0  -3 8.25890 20.0988   6
   2   0  -2 35379.1 776.880   6
  -2   0  -2 34283.7 709.313   6
   2   0  -2 33579.0 633.042   3
  -2   0  -2 35425.1 749.063   3
   2   0  -1-2.78979 9.59944   3
  -2   0  -1 48.7152 23.9702   3
   2   0  -1-1.75016 19.6756   6
  -2   0  -1-0.98811 19.9606   6
   2   0  -1-5.39258 10.7435   4
  -2   0   0 47127.3 909.824   3
  -2   0   0 44791.1 962.606   6
   2   0   0 46063.4 946.793   6
   2   0   0 47338.5 893.553   3
   2   0   0 48331.7 965.841   4
   2   0   1-0.71083 15.2516   3
   2   0   1 6.44644 13.1037   5
   2   0   1 2.00137 17.0944   6
  -2   0   1-10.8280 24.6281   6
   2   0   1-5.01947 21.4098   4
   2   0   2 38626.7 874.966   4
   2   0   2 36291.9 782.115   5
   2   0   2 38720.7 801.443   3
   2   0   2 37130.1 764.941   6
   2   0   3 8.28842 23.3868   3
   2   0   3 38.5586 39.1205   2
   2   0   3 10.4621 18.9996   6
   2   0   3-4.19854 20.0936   5
   2   0   3-2.49358 24.1854   4
   2   0   4 6858.74 402.006   2
   2   0   4 6941.25 321.117   4
   2   0   4 5958.58 221.019   6
   2   0   4 6056.17 259.655   3
   2   0   4 6265.10 216.695   5
   2   0   5 5.27860 34.9906   2
   2   0   5 12.1494 14.0004   5
   2   0   5-15.3501 24.7607   4
   2   0   6 6871.83 359.367   4
   2   0   6 6909.75 437.767   2
   2   0   6 6297.25 223.834   5
   2   0   7 12.8833 30.4389   4
   2   0   7 5.20060 15.0997   5
   2   0   7 12.7165 34.8143   2
   2   0   8 7434.32 473.768   2
   2   0   8 7661.48 415.810   4
   2   0   9-18.2276 34.2959   4
   2   0  10 14341.5 634.557   4
   2   0  11 20.7441 62.7527   4
   2   0  11 76.3293 59.1520   1
   2   0  12 36383.3 1150.83   1
   2   0  13 99.8202 83.2289   1
   2   0  14 12620.9 669.991   1
   2   0  15-26.9328 53.5340   1
   2   0  16 6580.74 525.963   1
   2   0  17 11.8381 94.0447   1
   2   0  18 1615.96 271.928   1
  -2   1 -26 2178.13 565.998   2
   2  -1 -26 1227.90 227.253   6
   2   1 -26 1770.70 269.933   6
   2   1 -25 2402.04 314.684   6
   2  -1 -25 2282.70 316.365   6
  -2   1 -25 1694.41 491.307   2
   2   1 -24 2616.00 324.553   6
   2  -1 -24 2371.72 316.930   6
  -2  -1 -24 3075.06 612.730   2
  -2   1 -24 1469.35 439.969   2
  -2  -1 -23 1877.96 481.364   2
   2   1 -23 2023.63 280.168   6
   2  -1 -23 1722.70 276.069   6
  -2   1 -23 1329.11 395.440   2
   2  -1 -22 1223.58 233.238   6
  -2   1 -22 1436.87 405.719   2
   2   1 -22 1164.12 218.903   6
  -2  -1 -22 1205.77 191.561   6
  -2  -1 -22 1749.65 435.446   2
   2   1 -21 10072.2 602.563   6
  -2  -1 -21 11577.8 1062.44   2
   2  -1 -21 10201.1 645.509   6
  -2  -1 -21 11416.3 572.250   6
  -2   1 -21 10395.8 1058.11   2
   2   1 -20 7479.27 495.499   6
  -2   1 -20 6274.83 788.629   2
  -2  -1 -20 8357.45 867.711   2
  -2  -1 -20 7344.80 442.317   6
   2  -1 -20 7244.05 529.342   6
  -2   1 -19 5832.92 336.278   5
  -2   1 -19 5273.51 706.045   2
  -2  -1 -19 7257.07 423.437   6
   2   1 -19 6338.73 440.060   6
   2  -1 -19 6983.79 499.080   6
  -2  -1 -19 8414.83 832.477   2
  -2   1 -18 626.622 111.729   5
   2  -1 -18 669.347 160.456   6
  -2   1 -18 350.477 59.3559   6
   2   1 -18 504.904 135.780   6
  -2   1 -18 263.536 167.106   2
  -2  -1 -18 607.846 247.305   2
  -2   1 -17 12790.2 996.994   2
   2  -1 -17 13740.0 691.706   6
   2   1 -17 13331.9 614.371   6
  -2   1 -17 13081.9 379.800   6
  -2   1 -17 11922.1 507.290   5
  -2  -1 -17 14105.3 1034.52   2
  -2   1 -16 13770.0 545.872   5
   2   1 -16 15178.6 639.064   6
  -2  -1 -16 16308.5 1088.13   2
  -2   1 -16 13002.5 975.721   2
  -2   1 -16 14333.7 391.193   6
   2  -1 -16 13442.0 639.067   4
   2  -1 -16 15425.1 714.938   6
  -2   1 -15 5880.62 336.873   5
  -2   1 -15 6176.59 217.831   6
   2   1 -15 6892.34 408.850   6
   2  -1 -15 5916.11 389.868   4
  -2  -1 -15 7233.67 696.579   2
  -2   1 -15 6041.14 631.661   2
   2  -1 -15 7014.05 458.873   6
   2  -1 -14 7485.07 354.332   3
   2  -1 -14 6405.31 391.154   4
   2  -1 -14 7950.70 468.370   6
  -2   1 -14 6717.29 622.658   2
   2   1 -14 6919.01 390.354   6
  -2  -1 -14 8209.97 715.588   2
  -2   1 -14 6788.74 199.231   6
  -2   1 -14 6780.20 343.333   5
  -2   1 -13 8343.75 382.563   5
   2  -1 -13 9773.80 381.980   3
  -2  -1 -13 10032.7 779.644   2
   2   1 -13 9010.50 434.998   6
  -2   1 -13 8761.62 220.677   6
   2  -1 -13 9788.11 512.169   6
   2  -1 -13 8094.60 420.359   4
  -2   1 -13 8740.29 672.647   2
  -2   1 -12 15437.3 532.259   5
  -2  -1 -12 19021.9 1041.70   2
  -2   1 -12 16637.0 903.070   2
   2   1 -12 16303.7 589.776   6
  -2   1 -12 15239.7 311.425   6
   2  -1 -12 18183.7 700.887   6
  -2   1 -11 5467.34 485.083   2
  -2   1 -11 5542.79 293.951   5
  -2   1 -11 5040.39 131.508   6
  -2  -1 -11 6086.62 563.802   2
   2   1 -11 4873.15 303.844   6
   2  -1 -11 6146.34 387.084   6
   2  -1 -11 5724.64 311.839   5
  -2   1 -10 10520.9 486.410   1
  -2   1 -10 9450.44 608.710   2
  -2   1 -10 8963.03 380.525   5
   2  -1 -10 10081.7 491.937   6
   2   1 -10 9095.81 413.119   6
  -2  -1 -10 10037.9 714.694   2
   2  -1 -10 9434.64 405.237   5
  -2   1  -9 34257.1 1179.49   2
  -2   1  -9 33134.7 842.658   5
  -2   1  -9 33854.7 966.945   1
   2   1  -9 32084.6 881.546   6
  -2  -1  -9 34176.2 1351.16   2
   2  -1  -9 32087.2 863.297   5
   2  -1  -9 34542.5 1002.17   6
   2   1  -8 41874.2 1054.86   6
  -2   1  -8 45107.9 1141.08   1
  -2   1  -8 43672.6 1308.47   2
   2  -1  -8 42073.8 1031.43   5
   2  -1  -8 46501.2 1174.38   6
  -2   1  -8 43828.4 1010.03   5
  -2   1  -7 37969.3 1115.14   2
   2   1  -7 37304.9 935.851   6
  -2   1  -7 38026.3 1000.92   1
   2  -1  -7 39356.3 1030.50   6
  -2  -1  -7 37346.5 1005.92   6
   2  -1  -7 37084.7 920.364   5
  -2   1  -7 37536.5 892.533   5
  -2  -1  -6 5737.35 306.382   6
   2   1  -6 5854.69 287.911   6
  -2   1  -6 5894.18 346.754   2
  -2   1  -6 6136.96 272.453   5
   2  -1  -6 6078.55 333.381   6
  -2   1  -6 5980.34 319.657   1
  -2   1  -5 29071.5 778.609   1
   2  -1  -5 26223.2 575.284   1
  -2  -1  -5 28454.6 753.748   6
   2   1  -5 26953.5 717.816   6
   2  -1  -5 28865.7 794.319   6
  -2   1  -5 27127.1 684.822   5
   2  -1  -4 34819.2 734.200   1
  -2  -1  -4 35665.7 870.974   6
  -2   1  -4 36697.2 907.816   1
   2   1  -4 36445.1 871.717   6
  -2   1  -4 36594.4 833.944   5
   2  -1  -4 36724.9 914.288   6
  -2   1  -3 37131.9 897.337   1
  -2  -1  -3 38150.9 876.662   6
   2  -1  -3 36029.1 893.834   6
  -2  -1  -3 37679.9 905.173   4
   2  -1  -3 35175.0 763.991   1
   2   1  -3 37253.0 886.111   6
  -2   1  -3 36654.2 845.136   5
  -2   1  -2 13899.4 454.231   1
   2   1  -2 14352.0 449.250   6
   2  -1  -2 13992.9 443.045   6
   2  -1  -2 13293.7 391.069   1
  -2  -1  -2 13985.2 442.254   6
  -2  -1  -2 13787.3 448.146   4
  -2   1  -2 13742.7 429.716   5
   2  -1  -1 9186.96 330.217   6
  -2   1  -1 9910.72 353.111   1
   2   1  -1 9222.16 343.323   6
  -2  -1  -1 9614.67 351.858   6
   2  -1  -1 9359.51 324.077   1
  -2   1  -1 9558.12 344.725   5
   2  -1   0 17988.5 476.101   6
   2  -1   0 18468.8 516.895   1
   2   1   0 17984.8 514.642   6
  -2   1   0 18221.8 523.789   5
   2  -1   1 5499.30 207.546   6
   2   1   1 5555.00 254.247   6
   2  -1   1 5454.09 258.669   1
  -2   1   1 5631.14 260.743   5
   2   1   2 12199.8 403.492   3
   2   1   2 12749.7 424.457   6
   2   1   2 11013.0 544.687   2
  -2   1   2 12454.2 414.657   5
   2  -1   2 12117.7 314.748   6
   2  -1   2 12824.9 430.114   5
   2  -1   3 41355.4 949.092   5
   2   1   3 39984.7 931.535   3
   2   1   3 40208.1 959.226   6
   2  -1   3 41193.4 1023.22   2
   2   1   3 39994.8 1213.89   2
  -2   1   3 41118.5 941.217   5
   2  -1   3 40168.0 756.345   6
   2  -1   4 43346.4 1016.34   5
   2   1   4 42930.7 1006.16   3
   2   1   4 44915.5 1327.80   2
   2  -1   4 45129.3 1101.52   2
   2  -1   5 21905.7 657.805   5
   2   1   5 23253.9 657.825   3
   2  -1   5 22758.4 725.952   2
   2   1   5 23993.2 925.036   2
   2  -1   6 5596.03 301.082   5
   2   1   6 6661.54 475.012   2
   2  -1   6 5814.22 335.129   2
   2   1   6 6135.33 308.619   3
   2  -1   7 44208.0 1130.30   5
   2  -1   7 51109.0 1259.15   2
   2   1   7 47164.7 1475.92   2
   2  -1   7 50091.3 1299.46   4
   2   1   7 46267.7 1140.43   3
   2  -1   8 46816.7 1164.90   5
   2   1   8 47734.7 1187.00   3
   2   1   8 46996.2 1510.60   2
   2  -1   8 51637.6 1344.81   4
   2  -1   9 31244.2 883.424   5
   2   1   9 33232.7 1239.03   2
   2  -1   9 34501.7 1068.81   4
   2   1   9 32468.7 935.413   3
   2  -1  10 12215.3 615.583   1
   2  -1  10 13153.1 630.886   4
  -2  -1  10 13541.3 579.316   6
   2   1  10 12626.7 539.363   3
   2  -1  11 9787.68 553.764   4
   2   1  11 9372.00 469.352   3
   2  -1  11 9322.79 554.926   1
   2  -1  12 16886.0 806.788   1
   2  -1  12 18586.3 810.346   4
   2   1  12 18472.3 706.010   3
   2   1  13 8029.92 461.141   1
   2  -1  13 8707.83 555.849   4
   2  -1  13 7836.42 551.776   1
   2  -1  14 6168.57 508.720   1
   2  -1  14 7180.75 520.059   4
   2   1  14 7582.41 463.451   1
   2  -1  15 10293.9 692.200   1
   2  -1  15 11874.6 693.937   4
   2   1  15 12173.1 626.647   1
   2   1  16 18989.2 848.448   1
   2  -1  16 18304.6 906.235   4
   2   1  17 15219.5 775.660   1
   2  -1  17 14556.2 823.227   4
   2  -1  18 634.286 180.799   4
   2   1  18 318.900 133.141   1
   2   1  19 10053.0 693.776   1
   2   1  20 8407.79 665.397   1
   2   2 -25 319.201 132.776   6
   2  -2 -25 407.452 158.733   6
  -2  -2 -24 350.957 210.943   2
   2   2 -24 163.145 123.370   6
   2  -2 -24 252.822 117.582   6
   2   2 -23 3892.41 384.263   6
  -2  -2 -23 3654.58 349.222   6
   2  -2 -23 3660.32 407.027   6
  -2  -2 -23 4048.05 639.127   2
  -2   2 -23 3033.90 573.426   2
   2   2 -22 1166.12 211.503   6
   2  -2 -22 975.580 222.146   6
  -2  -2 -22 898.490 173.884   6
  -2   2 -22 1229.67 352.567   2
  -2  -2 -21 2402.07 456.115   2
   2   2 -21 2601.27 301.669   6
   2  -2 -21 2490.92 323.066   6
  -2   2 -21 1972.86 439.731   2
  -2  -2 -20 2947.57 505.961   2
   2   2 -20 2096.79 261.309   6
   2  -2 -20 2392.38 325.013   6
  -2   2 -20 2344.93 447.782   2
  -2   2 -19 7383.01 539.283   5
   2  -2 -19 8597.70 580.176   6
  -2  -2 -19 8651.73 839.920   2
  -2   2 -19 9011.76 849.131   2
   2   2 -19 8232.29 508.876   6
   2   2 -18 5798.68 407.324   6
  -2   2 -18 7713.64 744.686   2
  -2  -2 -18 6910.70 728.909   2
   2  -2 -18 5734.97 475.882   6
  -2   2 -18 4658.53 428.153   5
  -2  -2 -17 2051.21 390.222   2
  -2   2 -17 1191.54 208.095   5
  -2   2 -17 1460.87 312.049   2
   2   2 -17 1553.68 204.138   6
   2  -2 -17 1409.27 224.414   6
  -2   2 -16 4419.36 399.286   5
   2   2 -16 4829.49 349.535   6
  -2  -2 -16 5335.73 615.005   2
   2  -2 -16 4335.09 391.529   6
  -2   2 -16 5733.53 582.574   2
  -2   2 -15 6035.11 462.514   5
   2   2 -15 6282.82 399.405   6
  -2  -2 -15 7533.10 708.442   2
  -2   2 -15 7535.77 632.909   2
   2  -2 -15 6130.60 453.826   6
  -2   2 -14 4552.09 399.239   5
   2   2 -14 5215.61 349.426   6
  -2   2 -14 6320.98 548.321   2
  -2  -2 -14 6713.92 649.489   2
   2  -2 -14 5184.37 407.037   6
   2   2 -13 156.875 63.3316   6
  -2  -2 -13 161.492 90.8375   2
  -2   2 -13 109.183 59.7061   5
   2  -2 -13 59.6653 71.6100   6
  -2   2 -13 330.907 121.555   2
  -2   2 -12 1636.80 228.251   5
  -2  -2 -12 2135.83 356.567   2
   2   2 -12 1763.39 191.766   6
  -2   2 -12 2042.60 277.220   2
   2  -2 -12 1873.85 233.646   6
  -2   2 -11 12029.4 627.565   2
  -2   2 -11 9679.25 544.865   5
  -2  -2 -11 12148.1 823.880   2
   2  -2 -11 10228.1 553.320   6
   2   2 -11 10389.1 474.185   6
  -2   2 -10 4357.52 347.192   5
   2   2 -10 4985.42 312.591   6
  -2  -2 -10 5522.13 533.882   2
  -2   2 -10 5409.15 378.475   2
  -2   2  -9 5652.57 387.544   5
   2   2  -9 6063.55 336.338   6
  -2   2  -9 5853.30 364.857   2
   2  -2  -9 5824.80 327.258   5
  -2   2  -8 9662.26 502.337   5
   2   2  -8 9211.48 421.324   6
  -2  -2  -8 9431.48 533.908   6
  -2   2  -8 9930.84 440.300   2
   2  -2  -8 9430.23 420.871   5
  -2   2  -7 19540.9 734.773   5
  -2  -2  -7 21290.3 801.761   6
  -2   2  -7 18304.5 720.372   1
   2   2  -7 19018.9 632.776   6
   2  -2  -7 19876.9 644.746   5
  -2   2  -6 11763.9 534.717   5
  -2   2  -6 10801.9 527.495   1
  -2  -2  -6 12846.2 586.167   6
   2   2  -6 12088.1 472.803   6
   2  -2  -6 12019.2 476.012   5
  -2   2  -5 7970.29 415.718   5
  -2  -2  -5 7334.92 424.984   6
   2   2  -5 7567.77 359.569   6
  -2   2  -5 7176.71 403.426   1
   2   2  -4 11493.2 452.549   6
  -2  -2  -4 12075.8 528.852   6
  -2   2  -4 11106.8 498.884   1
  -2   2  -4 11493.1 503.222   5
  -2  -2  -3 12404.3 522.702   6
   2  -2  -3 13221.5 500.188   1
  -2   2  -3 12046.3 505.143   1
  -2   2  -3 12883.8 523.949   5
   2   2  -3 12547.5 477.498   6
   2  -2  -2 10769.8 452.445   1
   2   2  -2 9360.64 410.888   6
  -2   2  -2 9286.88 422.321   1
  -2   2  -2 9769.85 439.620   5
   2   2  -1 1541.27 156.839   6
  -2   2  -1 1444.67 151.260   1
   2  -2  -1 1490.62 166.111   1
  -2   2  -1 1787.12 174.386   5
  -2   2   0 692.232 104.986   1
  -2   2   0 760.061 114.118   5
   2  -2   0 742.524 120.063   1
   2   2   0 642.665 110.368   6
  -2   2   1 2032.07 165.933   1
   2   2   1 1598.36 216.149   2
   2   2   1 1826.96 180.236   6
  -2   2   1 1777.72 178.547   5
   2  -2   1 1895.81 196.985   1
  -2   2   2 7824.35 321.528   1
   2  -2   2 7386.50 414.064   1
   2   2   2 7670.82 493.171   2
  -2   2   2 8212.28 384.186   5
   2  -2   3 15094.2 605.934   5
   2  -2   3 14612.4 428.375   2
   2   2   3 16743.4 541.600   5
  -2   2   3 15076.7 449.192   1
   2   2   3 14810.7 718.839   2
   2  -2   3 15321.7 636.458   1
  -2   2   3 15278.8 560.572   5
   2   2   4 10043.1 398.330   5
   2  -2   4 9642.41 323.710   2
   2   2   4 10557.2 616.383   2
   2  -2   4 9221.55 466.052   5
  -2   2   4 10457.5 441.478   5
   2   2   5 8601.28 425.925   3
   2  -2   5 9078.88 266.814   6
   2   2   5 8813.39 359.039   5
   2   2   5 9505.85 607.751   2
  -2   2   5 8934.45 412.006   5
   2   2   6 12178.1 527.283   3
   2   2   6 12392.0 421.987   5
   2  -2   6 12017.2 278.397   6
   2   2   6 14354.3 773.785   2
  -2   2   6 13085.1 511.368   5
   2   2   7 19515.7 694.668   3
  -2   2   7 17693.3 511.374   3
   2   2   7 18672.9 513.157   5
   2   2   7 20390.4 953.105   2
  -2   2   7 20293.0 669.753   5
  -2  -2   7 20781.2 698.545   6
  -2   2   8 8834.53 331.047   3
   2   2   8 9983.71 294.692   5
   2   2   8 9995.03 482.018   3
   2   2   9 5029.59 157.949   5
  -2   2   9 4623.60 232.192   3
   2   2   9 5115.64 342.501   3
  -2   2  10 7018.23 303.467   3
   2   2  10 7582.99 433.416   3
  -2  -2  11 9306.64 389.736   4
  -2   2  11 9015.37 365.208   3
   2   2  11 9930.54 515.264   3
   2   2  12 2460.59 229.171   1
  -2  -2  12 2075.25 178.032   4
   2  -2  12 2503.93 307.570   4
   2   2  12 2448.96 259.356   3
   2   2  13 909.748 163.935   3
  -2  -2  13 676.725 108.414   4
   2  -2  13 678.031 166.005   4
   2   2  13 741.173 134.188   1
   2   2  14 5137.10 363.442   1
  -2  -2  14 4645.25 300.403   4
   2  -2  14 5190.54 462.968   4
   2   2  14 4808.18 389.829   3
   2  -2  15 8223.04 606.153   4
   2   2  15 8782.81 494.592   1
   2   2  15 8733.10 544.071   3
   2  -2  16 5554.52 509.516   4
   2   2  16 5605.28 412.445   1
   2   2  16 5785.74 455.150   3
   2  -2  17 2613.63 355.509   4
   2   2  17 2608.68 293.692   1
   2   2  18 6334.14 482.831   1
   2  -2  18 5576.27 543.951   4
   2   2  19 12232.5 709.451   1
   2  -2  19 11506.4 802.173   4
   2   2  20 3998.17 416.611   1
   2  -2  20 4103.43 483.208   4
   2  -2  21 2457.64 383.539   4
   2   3 -25 1702.90 317.471   5
   2   3 -24 8199.25 691.421   5
   2   3 -24 9735.24 618.520   6
   2   3 -23 2943.46 409.981   5
   2   3 -23 3824.34 376.947   6
   2  -3 -23 3603.68 426.678   6
  -2  -3 -22 840.048 287.095   2
   2   3 -22 1214.63 210.796   6
   2   3 -22 953.915 231.482   5
   2  -3 -22 901.405 233.527   6
   2   3 -21 3781.84 432.730   5
   2  -3 -21 2864.41 382.253   6
   2   3 -21 3637.59 356.157   6
  -2   3 -20 3477.44 437.594   5
  -2  -3 -20 2230.49 430.594   2
   2   3 -20 2912.50 370.133   5
   2   3 -20 2487.46 285.169   6
   2  -3 -20 2185.08 320.449   6
   2   3 -19 6471.40 454.195   6
  -2   3 -19 7165.34 632.533   2
  -2  -3 -19 7966.53 796.055   2
   2  -3 -19 6136.71 519.818   6
  -2   3 -19 6978.40 623.915   5
  -2   3 -18 224.988 100.538   5
  -2  -3 -18 443.685 163.288   2
   2   3 -18 349.341 111.939   6
   2  -3 -18 276.200 131.596   6
  -2   3 -18 531.377 167.868   2
  -2   3 -17 1736.56 282.513   2
  -2  -3 -17 1674.22 369.843   2
   2   3 -17 1797.51 225.761   6
  -2   3 -17 1927.47 318.540   5
   2  -3 -17 1896.86 274.460   6
  -2   3 -16 5610.59 539.422   5
   2   3 -16 5853.81 395.794   6
  -2   3 -16 5857.03 491.424   2
  -2  -3 -16 6707.41 685.828   2
   2  -3 -16 5522.19 462.865   6
   2  -3 -15 10093.5 632.135   6
  -2   3 -15 12351.2 776.834   5
   2   3 -15 10353.9 541.888   6
  -2   3 -15 11564.3 656.501   2
  -2  -3 -15 11705.9 914.286   2
  -2   3 -14 5860.13 521.629   5
   2   3 -14 6044.13 394.024   6
  -2   3 -14 6602.59 458.649   2
  -2  -3 -14 6174.10 636.605   2
  -2   3 -13 6247.33 526.344   5
   2   3 -13 5947.89 379.099   6
  -2   3 -13 6502.85 420.809   2
  -2  -3 -13 7251.96 670.794   2
  -2   3 -12 25262.1 1108.78   5
   2   3 -12 26854.2 881.436   6
  -2   3 -12 26743.1 873.871   2
  -2   3 -11 8105.28 576.169   5
  -2   3 -11 8251.60 404.408   2
  -2  -3 -11 9195.22 751.475   2
   2   3 -11 8430.77 449.102   6
  -2   3 -10 3917.36 391.283   5
   2   3 -10 3780.49 294.081   6
  -2  -3 -10 4428.03 489.315   2
  -2   3  -9 10272.3 633.941   5
   2   3  -9 10291.0 493.682   6
  -2   3  -8 4946.55 427.792   5
   2   3  -8 5303.07 339.366   6
  -2  -3  -8 6243.59 549.423   2
  -2   3  -7 9168.58 574.968   5
   2   3  -7 8544.92 436.307   6
  -2  -3  -7 8528.76 648.305   2
  -2   3  -6 1542.89 227.449   5
   2   3  -6 1379.40 178.942   6
  -2   3  -5 11206.4 617.788   5
   2   3  -5 12682.5 542.044   6
  -2   3  -4 11416.2 608.437   5
   2   3  -4 11649.9 525.316   6
   2   3  -3 33015.9 1062.16   5
  -2   3  -3 33486.5 1129.44   1
   2   3  -3 34319.6 1013.84   6
  -2   3  -3 33399.8 1117.01   5
   2   3  -2 4898.78 357.528   5
   2   3  -2 4892.76 340.855   6
  -2   3  -2 4882.72 379.652   1
  -2   3  -2 4785.57 373.857   5
   2   3  -1 35063.7 1072.87   5
  -2   3  -1 34204.4 1105.34   1
  -2   3  -1 35237.8 1108.12   5
   2   3  -1 35709.8 1062.11   6
   2   3   0 69353.3 1685.67   5
   2   3   0 67425.2 1808.35   2
  -2   3   0 69421.2 1698.69   1
  -2   3   0 68473.0 1709.27   5
   2   3   1 38049.2 1118.57   5
   2   3   1 38758.6 1279.59   2
  -2   3   1 39338.9 1110.53   1
  -2   3   1 36716.0 1125.80   5
   2   3   2 5604.11 367.732   5
   2   3   2 5359.11 450.369   2
  -2   3   2 5657.27 353.164   1
  -2   3   2 5402.06 373.241   5
   2   3   3 31940.9 977.603   5
  -2   3   3 31710.3 910.394   1
   2   3   3 33556.8 1224.55   2
  -2   3   3 31232.7 996.483   5
  -2   3   4 12157.4 464.683   1
   2  -3   4 11774.6 454.415   6
   2   3   4 12490.4 735.753   2
   2   3   4 12044.7 540.338   5
  -2   3   4 11564.8 553.229   5
   2   3   5 13689.7 573.646   5
   2  -3   5 14869.3 495.367   6
  -2   3   5 14002.1 608.536   5
  -2   3   5 14318.1 481.011   1
   2   3   6 1395.35 163.011   5
  -2   3   6 1667.42 201.028   5
  -2   3   6 1443.03 118.216   1
   2  -3   6 1513.88 130.419   6
   2   3   7 8662.71 404.621   5
   2   3   7 7825.02 499.754   3
   2  -3   7 8555.28 305.173   6
  -2   3   7 8918.28 477.370   5
   2   3   8 5187.93 288.713   5
   2   3   8 5503.89 414.847   3
   2  -3   8 5166.03 212.041   6
  -2   3   8 5113.22 363.637   5
   2   3   9 12737.3 648.608   3
  -2   3   9 10469.1 479.755   3
  -2   3   9 13141.3 594.104   5
   2  -3   9 12192.2 337.035   6
   2   3   9 13023.9 452.233   5
   2   3  10 3978.41 354.677   3
  -2   3  10 3415.11 259.854   3
  -2   3  10 4114.22 329.822   5
   2  -3  10 4046.20 165.396   6
   2   3  10 3745.97 212.714   5
   2  -3  11 8162.79 246.074   6
  -2   3  11 7009.45 380.332   3
   2   3  11 8841.00 540.536   3
   2   3  11 8960.21 315.956   5
  -2   3  12 24687.8 807.777   3
   2   3  12 30626.9 1083.10   3
   2   3  13 8637.45 472.551   1
  -2   3  13 6968.95 391.675   3
   2   3  13 7954.33 534.709   3
  -2  -3  14 6075.09 397.050   4
   2   3  14 6985.73 427.872   1
  -2   3  14 5441.36 358.468   3
   2   3  14 7147.89 518.837   3
   2   3  15 12025.7 585.333   1
   2  -3  15 11277.6 761.213   4
  -2  -3  15 9998.06 533.966   4
  -2   3  15 9927.84 497.869   3
   2   3  15 11352.1 679.154   3
   2   3  16 7877.50 574.585   3
  -2  -3  16 6444.95 432.545   4
   2  -3  16 6933.13 603.320   4
   2   3  16 7552.24 467.548   1
   2   3  17 2664.62 277.289   1
  -2  -3  17 2560.77 276.649   4
   2  -3  17 3025.06 409.069   4
   2   3  17 2894.63 357.394   3
   2   3  18 104.370 78.0172   3
   2   3  18-7.64694 48.2709   1
   2  -3  18 35.0753 90.9196   4
   2  -3  19 7536.36 670.494   4
   2   3  19 6630.63 580.176   3
   2  -3  20 2789.62 422.936   4
   2  -3  21 5100.25 593.845   4
   2  -3  22 1193.33 302.805   4
   2  -3  23 4708.00 586.936   4
   2  -3  24 12237.6 984.720   4
   2   4 -22 3430.99 363.254   6
   2   4 -22 2895.58 427.736   5
   2   4 -21 2967.06 412.388   5
   2   4 -21 3604.94 354.436   6
   2  -4 -21 3254.08 420.766   6
   2  -4 -21 4471.42 682.958   2
  -2  -4 -20-135.840 149.807   2
  -2   4 -20 210.597 217.242   5
   2   4 -20 39.4112 114.776   5
   2   4 -20 76.2670 74.2465   6
   2  -4 -20-213.656 151.115   6
   2  -4 -20-155.181 162.345   2
  -2   4 -19 4018.77 529.095   5
  -2  -4 -19 2658.18 493.887   2
   2  -4 -19 4304.22 609.529   2
   2   4 -19 2805.89 309.400   6
   2   4 -19 2585.57 366.770   5
   2  -4 -19 2377.21 347.024   6
  -2  -4 -18 370.369 199.304   2
  -2   4 -18 888.379 237.260   5
   2   4 -18 524.699 143.991   6
   2   4 -18 450.544 165.984   5
   2  -4 -18 875.200 300.463   2
   2  -4 -18 364.844 107.782   6
  -2   4 -17 6135.10 610.626   5
   2   4 -17 4595.61 471.859   5
   2  -4 -17 5092.09 620.576   2
   2   4 -17 4454.49 378.764   6
  -2  -4 -17 5514.38 647.065   2
  -2   4 -16 5504.69 573.388   5
   2   4 -16 4221.85 449.022   5
   2  -4 -16 6025.64 632.691   2
  -2  -4 -16 4621.30 604.312   2
   2   4 -16 4577.70 374.351   6
  -2   4 -15 5415.87 557.976   5
   2   4 -15 3849.62 418.766   5
   2  -4 -15 4650.06 552.610   2
   2   4 -15 4348.41 361.462   6
  -2  -4 -15 5067.05 609.565   2
  -2  -4 -14 152.204 124.825   2
   2   4 -14 2.57315 67.9400   5
  -2   4 -14 176.568 117.772   5
   2   4 -14 105.550 86.3478   6
   2  -4 -14-14.7909 73.6449   2
  -2   4 -13 3599.50 439.604   5
   2   4 -13 2852.76 358.184   5
   2  -4 -13 3197.29 421.263   2
   2   4 -13 3286.20 309.985   6
  -2  -4 -13 3832.20 499.561   2
  -2  -4 -12 209.670 126.622   2
   2   4 -12 39.1628 57.9866   5
   2   4 -12 104.086 63.0736   6
   2  -4 -12 254.376 137.046   2
  -2   4 -12 140.105 83.2455   5
  -2  -4 -11 1633.84 327.739   2
   2  -4 -11 2239.21 314.193   2
  -2   4 -11 1753.31 300.589   5
   2   4 -11 1830.76 238.129   6
   2   4 -11 1343.44 249.259   5
  -2   4 -10 4105.78 448.604   5
   2   4 -10 3899.24 397.348   5
   2  -4 -10 3683.33 387.129   2
  -2  -4 -10 4818.54 530.636   2
   2   4 -10 4102.00 337.169   6
  -2   4  -9 7442.10 592.254   5
   2   4  -9 6488.29 502.882   5
  -2  -4  -9 6699.36 606.643   2
   2  -4  -9 5960.07 474.377   2
   2   4  -9 7075.46 458.911   6
   2  -4  -8 1836.89 248.836   2
  -2   4  -8 1405.16 248.605   5
   2   4  -8 1745.33 219.853   6
   2   4  -8 1458.17 238.092   5
  -2   4  -7 2781.87 353.042   5
   2   4  -7 2721.89 280.869   6
   2   4  -7 2634.70 311.188   5
   2  -4  -7 2953.85 293.648   2
   2   4  -6-5.53830 50.7684   6
  -2   4  -6-102.653 113.331   5
   2   4  -6 43.8837 71.9505   5
  -2   4  -5 10683.8 679.289   5
   2   4  -5 10193.1 612.058   5
   2   4  -5 11529.4 593.246   6
  -2   4  -4 2083.03 289.296   5
   2   4  -4 2128.35 268.923   5
   2   4  -4 1799.15 242.170   6
   2  -4  -4 1771.80 196.334   2
  -2   4  -3 5136.37 461.293   5
   2   4  -3 6296.60 471.599   5
   2  -4  -3 4956.79 314.278   2
   2   4  -3 5752.32 444.974   2
   2   4  -2 2339.18 279.746   5
  -2   4  -2 2288.72 303.059   5
   2   4  -2 2785.34 317.407   2
   2  -4  -2 2087.20 185.646   2
   2   4  -1 7593.90 503.088   5
   2  -4  -1 6113.46 289.788   2
  -2   4  -1 7284.49 525.908   5
   2   4   0 34.4666 54.8126   5
  -2   4   0 1.40237 54.1999   5
  -2   4   1 7211.24 536.353   1
   2   4   1 7533.44 499.054   5
  -2   4   1 7092.87 497.728   5
  -2   4   2 2740.14 310.976   1
   2   4   2 3222.50 315.831   5
  -2   4   2 2296.81 277.985   5
   2   4   3 7061.94 472.873   5
  -2   4   3 7098.89 481.855   1
  -2   4   3 6088.06 453.024   5
   2   4   4 2247.19 259.481   5
  -2   4   4 2258.23 256.701   1
  -2   4   4 1954.43 259.550   5
   2   4   5 11257.5 588.406   5
  -2   4   5 11125.1 546.595   1
  -2   4   5 10735.5 598.566   5
  -2   4   6-81.0780 87.9791   5
  -2   4   6-18.8246 39.1780   1
   2   4   6 63.7176 61.2828   5
   2  -4   6 47.1827 28.5296   6
   2   4   7 2713.65 262.610   5
   2  -4   7 2839.22 217.395   6
  -2   4   7 2089.86 185.641   1
  -2   4   7 2441.60 277.094   5
   2   4   8 1958.91 212.485   5
   2   4   8 1651.62 261.853   3
  -2   4   8 1184.91 113.877   1
   2  -4   8 1674.34 157.959   6
  -2   4   8 1838.41 245.252   5
   2   4   9 6833.00 555.612   3
   2  -4   9 7529.22 344.418   6
  -2   4   9 7850.23 512.545   5
   2   4   9 8733.63 444.054   5
   2   4  10 3796.60 411.736   3
  -2   4  10 4430.03 385.161   5
   2   4  10 4761.50 308.990   5
   2   4  11 1704.96 277.939   3
  -2   4  11 1336.33 197.696   3
  -2   4  11 1906.10 255.364   5
   2   4  11 1839.88 182.352   5
  -2   4  12 64.4651 72.9805   5
  -2   4  12 148.975 80.3931   3
   2   4  12 115.127 108.287   3
   2   4  12 79.4413 61.5408   5
  -2   4  13 2791.99 286.337   3
   2   4  13 3459.85 399.902   3
  -2   4  14 83.9391 56.8344   3
   2   4  14 126.083 119.614   3
   2   4  15 5592.49 405.941   1
   2   4  15 5591.96 526.160   3
  -2  -4  16 4508.71 404.096   4
  -2   4  16 3632.52 338.109   3
   2   4  16 5168.27 522.334   3
   2  -4  17 5523.21 599.161   4
  -2   4  17 4226.64 371.091   3
   2   4  17 5868.63 563.104   3
   2   4  18 490.686 177.746   3
   2  -4  18 434.687 173.997   4
  -2   4  18 502.057 141.356   3
   2  -4  19 2641.41 428.045   4
   2   4  19 3214.05 439.496   3
   2   4  20 268.712 157.394   3
   2  -4  20 3.50166 100.033   4
   2   4  21 5370.95 585.549   3
   2  -4  21 4031.39 546.838   4
   2  -4  22 3706.31 540.784   4
   2   5 -20 26.4620 109.825   6
   2  -5 -20-186.360 171.226   2
  -2   5 -19 1702.09 357.020   5
   2   5 -19 1084.93 220.782   6
   2  -5 -19 987.304 310.010   2
   2   5 -18 11901.6 854.491   5
  -2  -5 -18 13754.4 1076.39   2
   2   5 -18 12764.0 727.542   6
   2  -5 -18 13720.4 1084.08   2
   2   5 -17 390.243 167.200   5
  -2   5 -17 481.594 195.644   5
   2   5 -17 368.333 142.750   6
   2  -5 -17 283.332 126.703   2
  -2  -5 -16 726.530 251.703   2
  -2   5 -16 1189.48 284.385   5
   2   5 -16 924.695 232.652   5
   2   5 -16 730.420 169.327   6
   2  -5 -16 1030.43 277.146   2
  -2  -5 -15 912.655 269.415   2
  -2   5 -15 1380.56 299.970   5
   2   5 -15 964.529 233.299   5
   2   5 -15 1304.85 227.885   6
   2  -5 -15 1108.43 269.565   2
   2   5 -14 9601.38 737.717   5
   2   5 -14 11385.2 662.202   6
   2  -5 -14 9714.62 775.124   2
  -2  -5 -14 12094.3 966.581   2
  -2  -5 -13-36.4246 83.6251   2
  -2   5 -13 45.5562 117.391   5
   2   5 -13 29.3500 95.4217   5
   2   5 -13 124.294 89.1208   6
   2  -5 -13 126.727 63.7052   2
  -2   5 -12 2932.05 418.438   5
   2   5 -12 1999.54 319.304   5
   2   5 -12 2481.15 299.500   6
  -2  -5 -12 2795.02 438.831   2
   2  -5 -12 2157.84 343.537   2
  -2   5 -11 930.470 245.405   5
   2   5 -11 652.145 171.827   6
   2   5 -11 486.581 151.617   5
   2  -5 -11 636.848 185.402   2
  -2   5 -10 19273.8 1059.76   5
   2   5 -10 15134.5 875.593   5
   2   5 -10 17096.7 824.466   6
   2  -5 -10 13092.1 793.569   2
   2   5  -9 1670.04 287.828   5
  -2   5  -9 2078.36 339.086   5
   2   5  -9 1948.08 267.224   6
   2  -5  -9 1374.47 236.393   2
  -2   5  -8 675.551 201.596   5
   2   5  -8 694.864 191.466   5
   2   5  -8 739.924 165.607   6
   2  -5  -8 416.142 126.875   2
  -2   5  -7 868.209 225.132   5
   2   5  -7 691.664 196.119   5
   2  -5  -7 786.924 173.493   2
   2   5  -6 32374.0 1290.60   5
   2  -5  -6 29437.6 1074.36   2
  -2   5  -5 3354.07 419.522   5
   2   5  -5 2985.01 367.590   5
  -2   5  -4 1476.90 266.602   5
   2   5  -4 1717.41 282.188   5
  -2   5  -3 1032.75 234.748   5
   2   5  -3 1277.28 240.854   5
   2  -5  -3 1134.32 159.089   2
   2   5  -2 20875.6 981.572   5
  -2   5  -2 19615.1 1004.56   5
  -2   5  -1 491.912 162.371   5
   2   5  -1 627.966 158.522   5
   2   5   0 4305.69 425.605   5
  -2   5   0 3924.41 422.809   5
  -2   5   1 569.290 174.708   5
   2   5   1 732.735 177.183   5
   2   5   2 20970.8 955.314   5
  -2   5   2 20398.2 984.554   5
   2   5   3 2342.89 298.050   5
  -2   5   3 2315.85 314.697   5
  -2   5   4 998.893 205.809   5
   2   5   4 825.447 180.881   5
   2   5   5 3038.32 334.667   5
  -2   5   5 3165.69 374.061   5
   2   5   6 35797.5 1224.02   5
  -2   5   6 34055.6 1294.59   5
  -2   5   7 857.606 204.557   5
   2   5   7 1146.10 194.999   5
  -2   5   8 692.372 166.700   5
   2   5   8 842.924 171.200   5
  -2   5   9 1635.43 269.763   5
   2   5   9 1675.21 297.820   3
   2   5   9 2043.46 243.576   5
  -2   5  10 18650.8 919.770   5
   2   5  10 19761.0 787.028   5
  -2   5  11 440.652 146.785   5
   2   5  11 447.056 187.346   3
  -2   5  11 336.727 127.070   3
   2   5  11 630.986 135.571   5
   2   5  12 1853.98 328.323   3
  -2   5  12 1394.40 229.997   3
  -2   5  12 2315.75 312.147   5
  -2   5  13 147.305 98.4470   5
   2   5  13 92.2350 118.833   3
  -2   5  13 165.800 94.5801   3
  -2   5  14 8877.51 594.267   3
   2   5  14 11192.8 826.496   3
  -2   5  15 1317.21 233.721   3
   2   5  15 1006.84 258.761   3
  -2   5  16 513.736 163.297   3
   2   5  16 509.869 206.364   3
   2   5  17 585.622 227.375   3
   2  -5  18 13350.4 1048.04   4
   2   5  18 14701.3 1005.33   3
   2  -5  19 937.703 256.937   4
  -2   6 -16 1001.22 289.073   5
  -2   6 -15 903.404 274.069   5
  -2   6 -14 3719.65 506.312   5
   2   6 -14 3172.53 442.113   5
   2   6 -13 3521.20 468.613   5
  -2   6 -13 4060.64 524.059   5
  -2   6 -12 2710.65 427.016   5
   2   6 -12 2577.58 399.152   5
  -2   6 -11 2264.39 376.532   5
   2   6 -11 1843.30 332.752   5
  -2   6 -10 3954.53 509.969   5
   2   6 -10 4121.18 487.396   5
  -2   6  -9 1935.34 358.174   5
   2   6  -9 2206.08 359.238   5
   2   6  -8 257.567 147.790   5
  -2   6  -8 543.160 202.160   5
  -2   6  -7 315.229 162.436   5
   2   6  -7-65.8497 105.722   5
  -2   6  -6 352.477 155.591   5
   2   6  -6 240.525 122.167   5
  -2   6  -5 1023.59 267.021   5
   2   6  -5 743.582 198.724   5
  -2   6  -4 1503.93 306.292   5
   2   6  -4 988.696 228.477   5
  -2   6  -3 395.670 173.003   5
   2   6  -3 733.750 188.877   5
  -2   6  -2 1389.10 300.449   5
   2   6  -2 2074.82 337.081   5
   2   6  -1 3681.28 435.365   5
  -2   6  -1 3140.92 416.414   5
   2   6   0 5969.13 547.306   5
  -2   6   0 6304.73 583.835   5
   2   6   1 3205.94 400.102   5
  -2   6   1 3394.48 420.320   5
  -2   6   2 1640.23 298.226   5
   2   6   2 1702.51 294.850   5
  -2   6   3 798.318 194.243   5
   2   6   3 825.978 208.152   5
  -2   6   4 692.926 194.087   5
   2   6   4 808.717 202.177   5
  -2   6   5 921.864 233.587   5
   2   6   5 801.265 199.293   5
  -2   6   6 306.697 152.787   5
   2   6   6 195.761 107.507   5
  -2   6   7-42.6214 86.2199   5
   2   6   7-62.4718 122.761   5
  -2   6   8 208.155 104.557   5
   2   6   8 150.080 62.8236   5
   2   6   9 1765.87 335.835   3
   2   6   9 2287.77 294.811   5
  -2   6   9 2536.10 371.506   5
   2   6  10 3507.49 493.772   3
  -2   6  10 3443.86 432.711   5
   2   6  11 1280.53 304.846   3
  -2   6  11 918.927 211.492   3
   2   6  12 2267.69 411.758   3
  -2   6  12 2195.72 317.416   3
  -2   6  12 2629.53 400.120   5
   2   6  13 3193.94 490.164   3
  -2   6  13 2709.75 371.439   3
  -2   6  13 3541.31 439.751   5
   2   6  14 2944.89 466.247   3
  -2   6  14 3553.87 440.241   5
   2   7  -7 7258.97 690.944   5
  -2   7  -6 250.868 195.032   5
   2   7  -6 177.677 131.332   5
   2   7  -5 5194.97 572.335   5
  -2   7  -5 5348.57 608.910   5
  -2   7  -4 1746.90 356.659   5
   2   7  -4 2295.78 386.123   5
   2   7  -3 8971.24 752.775   5
  -2   7  -3 9298.55 788.679   5
  -2   7  -2 619.807 226.052   5
   2   7  -2 335.852 171.610   5
   2   7  -1 4690.19 526.617   5
  -2   7  -1 4347.91 530.480   5
  -2   7   0 512.071 186.787   5
   2   7   0 724.447 232.148   5
   2   7   1 6193.52 592.884   5
  -2   7   1 5940.78 612.331   5
   2   7   2 684.544 211.216   5
  -2   7   2 520.753 193.140   5
   2   7   3 7539.93 646.358   5
  -2   7   3 7367.59 683.598   5
  -2   7   4 2371.29 387.495   5
   2   7   4 1790.72 312.374   5
   2   7   5 6801.53 599.622   5
  -2   7   5 6261.96 627.579   5
  -2   7   6 64.1516 127.942   5
   2   7   6 2.42834 73.4726   5
  -2   7   7 5571.93 588.966   5
   2   7   7 4915.94 482.307   5
  -2   7   8 1473.74 307.792   5
  -2   7   9 7491.36 695.296   5
  -2   7  10 496.548 196.337   5
  -2   7  11 3792.97 483.567   5
  -2   7  12 175.737 104.017   5
  -3   0 -25 612.892 305.650   2
   3   0 -25 791.681 197.005   6
  -3   0 -24-365.658 238.033   2
   3   0 -24-10.2839 80.1310   6
  -3   0 -23 535.768 267.942   2
   3   0 -23 936.258 205.293   6
  -3   0 -22-242.102 187.664   2
   3   0 -22-42.3336 98.4551   6
   3   0 -21 7610.39 557.835   6
  -3   0 -21 8064.28 938.644   2
  -3   0 -20 237.006 175.098   2
   3   0 -20 0.36007 64.0016   6
   3   0 -19 11455.9 653.752   6
  -3   0 -19 9751.67 981.967   2
  -3   0 -18 209.605 159.762   2
   3   0 -18 16.2361 75.8727   6
  -3   0 -17 13101.3 1072.54   2
   3   0 -17 14068.3 714.383   6
  -3   0 -16-43.4655 92.2014   2
   3   0 -16 39.5149 64.8108   6
  -3   0 -16-26.8063 33.0297   6
   3   0 -15 7009.76 464.948   6
  -3   0 -15 6864.01 306.394   6
  -3   0 -15 6013.41 662.623   2
  -3   0 -15 7879.83 308.033   6
   3   0 -15 6100.55 316.386   3
  -3   0 -14-5.42335 61.1889   2
   3   0 -14 4.81171 29.2747   3
  -3   0 -14-12.9079 16.3600   6
   3   0 -14 4.88826 59.6241   6
  -3   0 -13 1178.77 267.109   2
  -3   0 -13 689.395 77.2735   6
   3   0 -13 1278.01 185.604   6
   3   0 -13 1055.86 108.860   3
   3   0 -12 0.72511 22.4642   3
  -3   0 -12-21.2130 18.9609   6
   3   0 -12-50.2237 68.2086   6
  -3   0 -11 1160.47 242.858   2
  -3   0 -11 881.321 81.6931   6
   3   0 -11 1161.81 165.765   6
   3   0 -11 697.895 73.1929   3
   3   0 -10-8.35896 18.5226   3
  -3   0 -10-45.4898 51.8088   2
   3   0 -10 15.5433 44.3418   6
  -3   0 -10 11.9794 20.6449   6
   3   0  -9 11325.9 502.428   6
  -3   0  -9 11438.7 313.709   6
  -3   0  -9 11113.5 692.991   2
   3   0  -8 5.76304 11.0441   3
  -3   0  -8 28.5303 45.4733   3
  -3   0  -8 7.90091 19.0253   6
   3   0  -8 17.9471 40.8753   6
  -3   0  -7 17681.2 450.897   6
   3   0  -7 18490.0 633.772   6
  -3   0  -7 19464.7 637.768   3
  -3   0  -6 4.58636 22.1835   3
  -3   0  -6 10.5649 18.6714   6
   3   0  -6-5.54686 33.5362   6
   3   0  -5 31176.7 817.156   6
  -3   0  -5 32057.7 662.311   6
  -3   0  -5 33636.3 812.820   3
   3   0  -4-3.95503 11.2223   3
  -3   0  -4 32.5831 30.5247   3
  -3   0  -4 14.1323 17.2469   6
   3   0  -4 27.6572 41.6605   6
   3   0  -4 3.23108 16.7765   4
  -3   0  -3 15923.8 483.890   3
   3   0  -3 15353.3 497.841   6
  -3   0  -3 14827.8 426.380   6
   3   0  -3 13605.3 380.881   4
   3   0  -3 14445.1 334.087   3
   3   0  -2 9.33475 14.0308   3
  -3   0  -2 4.44467 23.1371   3
   3   0  -2 69.1597 37.0460   6
   3   0  -2 3.91020 16.1545   4
  -3   0  -2-4.84997 28.4243   6
  -3   0  -1 4196.89 209.836   3
  -3   0  -1 4253.62 223.924   6
   3   0  -1 4187.17 229.758   6
   3   0  -1 4306.97 217.804   4
   3   0  -1 4595.35 184.569   3
   3   0  -1 4286.66 240.363   5
   3   0   0 32.7429 25.2635   3
   3   0   0 15.1841 21.0031   5
   3   0   0 73.5477 35.1938   6
   3   0   0 5.96356 25.4176   4
  -3   0   0 18.1862 20.9570   6
  -3   0   1 4311.46 249.685   6
   3   0   1 4806.69 259.629   4
   3   0   1 4745.00 232.492   6
   3   0   1 4522.75 211.098   3
   3   0   1 4294.05 230.280   5
   3   0   2 3.57135 22.3611   3
   3   0   2-19.8693 29.3030   5
   3   0   2-2.07185 28.2914   6
   3   0   2 6.13291 29.9885   4
  -3   0   2 42.3076 35.8434   6
   3   0   3 16778.3 579.024   4
   3   0   3 15487.4 453.215   6
  -3   0   3 16945.8 563.274   6
   3   0   3 15704.1 476.435   5
   3   0   4 19.6680 49.7996   2
   3   0   4-5.93688 26.1046   5
   3   0   4 17.4657 26.1246   6
   3   0   4 16.5341 43.5421   4
  -3   0   4 51.2668 45.6859   6
   3   0   5 34476.3 818.874   6
   3   0   5 36505.3 1018.22   4
   3   0   5 38266.8 1270.16   2
   3   0   5 35618.8 822.387   5
   3   0   6 10.2155 26.3279   5
   3   0   6 9.91265 29.8019   4
   3   0   7 20011.3 550.326   5
   3   0   7 20947.6 767.948   4
   3   0   7 21978.8 965.368   2
   3   0   8 9.84522 47.1048   1
   3   0   8-7.99481 22.6763   5
   3   0   8 17.5098 34.5144   4
   3   0   8-19.4884 49.0347   2
   3   0   9 12729.9 733.116   2
   3   0   9 13037.3 411.549   5
   3   0   9 14109.1 648.481   4
   3   0   9 13713.5 618.552   1
   3   0  10 0.51483 43.3909   1
   3   0  10 7.68119 27.3191   5
   3   0  10 93.7145 74.9333   4
   3   0  11 888.930 161.766   1
   3   0  11 903.306 177.298   4
   3   0  12-38.0747 59.0101   1
   3   0  13 861.816 179.676   1
   3   0  14 92.7445 86.3574   1
   3   0  15 8642.33 613.986   1
   3   0  16 101.532 98.3619   1
   3   0  17 16093.0 909.811   1
   3   0  18 106.827 82.6952   1
   3   0  19 12936.2 877.929   1
   3   0  20-84.3936 113.465   1
   3   0  21 7835.47 729.453   1
  -3   1 -25 619.990 308.814   2
   3   1 -25 920.911 226.005   6
  -3   1 -24 4114.37 715.128   2
  -3  -1 -24 5507.10 839.051   2
   3   1 -24 4944.51 471.061   6
   3  -1 -24 4329.88 455.925   6
  -3   1 -23 945.473 332.472   2
  -3  -1 -23 1475.41 439.665   2
   3   1 -23 1373.24 246.093   6
   3  -1 -23 1042.14 234.582   6
   3   1 -22 2506.38 321.449   6
  -3   1 -22 1954.31 454.529   2
  -3  -1 -22 3086.64 595.247   2
   3  -1 -22 2418.07 333.590   6
  -3   1 -21 3040.49 543.681   2
  -3  -1 -21 2597.43 529.802   2
   3   1 -21 2534.57 317.589   6
   3  -1 -21 2613.97 338.666   6
  -3   1 -20 1754.93 425.892   2
  -3  -1 -20 1027.87 317.602   2
   3   1 -20 1431.46 229.027   6
   3  -1 -20 1302.71 234.338   6
  -3   1 -19 299.045 171.662   2
  -3  -1 -19 226.369 174.632   2
   3   1 -19 407.608 131.715   6
   3  -1 -19 188.385 102.506   6
  -3   1 -18 2855.79 473.228   2
  -3  -1 -18 3491.71 559.025   2
   3   1 -18 2529.25 286.851   6
   3  -1 -18 3094.51 337.750   6
  -3   1 -17 957.819 265.119   2
  -3  -1 -17 943.068 307.396   2
   3   1 -17 711.831 160.098   6
   3  -1 -17 960.242 188.266   6
   3   1 -16 3966.11 342.191   6
   3  -1 -16 4106.14 384.982   6
  -3   1 -16 3854.48 510.682   2
  -3  -1 -16 4355.25 595.045   2
  -3   1 -16 3931.21 198.981   5
  -3   1 -15 2130.79 359.120   2
  -3  -1 -15 1598.16 357.124   2
   3   1 -15 1648.78 217.044   6
   3  -1 -15 1309.21 160.504   4
   3  -1 -15 1610.56 242.326   6
  -3  -1 -15 1736.06 220.893   6
  -3   1 -15 1532.82 124.166   5
  -3  -1 -14 10630.9 545.453   6
   3   1 -14 10421.8 537.263   6
   3  -1 -14 8560.51 425.837   4
   3  -1 -14 11026.1 606.582   6
  -3  -1 -14 10455.2 886.982   2
  -3   1 -14 10715.6 791.184   2
  -3   1 -14 10042.6 352.621   5
  -3  -1 -13 3031.02 267.060   6
   3   1 -13 2790.76 262.989   6
   3  -1 -13 3274.94 314.409   6
  -3  -1 -13 3098.73 459.113   2
  -3   1 -13 3007.95 391.177   2
  -3   1 -13 3087.23 182.962   5
   3   1 -12 14576.7 613.675   6
   3  -1 -12 15383.7 695.289   6
  -3   1 -12 14795.4 842.254   2
  -3  -1 -12 14362.1 980.007   2
  -3   1 -12 14639.7 444.183   5
  -3  -1 -11 3831.71 275.486   6
   3   1 -11 3757.72 290.846   6
   3  -1 -11 4263.52 342.065   6
  -3  -1 -11 3430.96 446.835   2
  -3   1 -11 3751.18 391.864   2
  -3   1 -11 3731.25 207.442   5
  -3  -1 -10 7338.10 379.007   6
   3   1 -10 7029.64 402.580   6
   3  -1 -10 8098.77 467.936   6
  -3  -1 -10 7363.86 646.637   2
  -3   1 -10 6917.24 506.476   2
  -3   1 -10 7935.14 314.867   5
  -3  -1  -9 4032.98 260.944   6
   3   1  -9 3512.99 272.747   6
   3  -1  -9 3847.28 315.658   6
  -3  -1  -9 4362.54 460.562   2
  -3   1  -9 4105.07 221.179   5
  -3  -1  -8 5048.73 283.214   6
   3   1  -8 4412.21 295.216   6
   3  -1  -8 4846.52 340.339   6
  -3   1  -8 4603.53 238.693   5
  -3  -1  -7 1195.14 151.290   3
  -3  -1  -7 1162.62 128.675   6
   3  -1  -7 1065.22 157.432   6
  -3  -1  -7 1187.73 167.450   4
   3   1  -7 1282.85 153.955   6
  -3   1  -7 1429.34 172.392   3
  -3   1  -7 1164.73 119.882   5
  -3  -1  -6 3837.05 234.365   6
   3  -1  -6 4040.92 283.024   6
  -3  -1  -6 4128.57 301.086   4
   3   1  -6 3616.30 252.569   6
  -3   1  -6 4406.92 290.321   3
  -3   1  -6 3671.52 219.310   5
  -3  -1  -5 1217.39 125.727   6
   3   1  -5 1246.45 143.616   6
   3  -1  -5 1132.84 147.982   6
  -3   1  -5 1244.69 143.798   3
  -3   1  -5 1161.46 121.579   5
   3  -1  -4 7080.10 291.401   1
   3   1  -4 6957.22 353.751   6
   3  -1  -4 7381.92 359.917   6
  -3  -1  -4 6247.71 348.838   4
  -3  -1  -4 7534.76 332.542   6
  -3   1  -4 7932.96 352.388   3
  -3   1  -4 6877.08 312.133   5
  -3  -1  -3 7042.97 358.666   4
   3  -1  -3 7471.95 307.599   1
   3   1  -3 7948.74 370.421   6
  -3  -1  -3 8169.87 351.244   6
   3  -1  -3 7465.50 355.904   6
  -3   1  -3 8282.73 342.633   3
  -3   1  -3 7815.35 332.530   5
  -3  -1  -2 18126.4 591.596   4
   3  -1  -2 17608.9 535.046   1
   3   1  -2 18604.2 593.651   6
   3  -1  -2 18699.5 574.423   6
  -3   1  -2 19383.2 539.779   3
  -3   1  -2 17736.5 560.352   5
  -3  -1  -2 19242.8 586.404   6
   3  -1  -1 4914.05 257.266   1
   3   1  -1 5188.90 279.024   6
  -3  -1  -1 4931.83 270.688   6
   3  -1  -1 4616.41 246.978   6
  -3  -1  -1 4782.59 261.723   4
  -3   1  -1 5096.12 229.931   3
  -3   1  -1 5025.54 265.697   5
   3   1   0 22077.9 610.927   3
  -3  -1   0 22338.8 671.429   6
   3   1   0 21947.0 648.910   6
   3  -1   0 21830.2 643.329   1
   3  -1   0 21644.0 590.691   6
  -3  -1   0 21426.6 605.974   4
  -3   1   0 22290.7 648.869   5
  -3   1   0 22331.3 537.856   3
   3   1   1 5214.82 261.393   3
   3   1   1 5213.65 276.281   6
   3  -1   1 5186.37 287.158   1
  -3  -1   1 5420.80 294.692   6
   3  -1   1 5032.10 228.184   6
  -3  -1   1 5016.44 236.618   4
  -3   1   1 4956.20 185.999   3
   3  -1   1 5383.62 287.517   5
  -3  -1   2 16002.4 451.570   4
   3   1   2 18524.6 572.174   6
   3  -1   2 16978.0 455.979   6
   3  -1   2 18265.5 609.117   1
  -3  -1   2 18641.3 602.470   6
  -3   1   2 16245.5 381.573   3
   3  -1   2 19700.7 595.417   5
   3   1   2 18080.3 549.268   3
   3   1   3 8996.38 383.721   6
   3  -1   3 8192.05 270.909   6
   3  -1   3 8668.04 409.490   1
   3   1   3 8597.39 559.127   2
   3   1   3 8693.02 365.285   3
   3  -1   3 8871.59 385.664   5
   3   1   4 6097.92 322.730   6
   3   1   4 6078.39 484.423   2
   3  -1   4 5837.49 205.373   6
   3  -1   4 6385.03 426.389   2
   3   1   4 6082.34 312.999   3
   3  -1   4 6613.99 331.239   5
   3  -1   5 1718.71 166.479   5
   3   1   5 1283.87 229.728   2
   3  -1   5 2054.65 238.951   2
   3  -1   5 1648.90 89.0618   6
   3   1   5 1631.88 164.728   3
   3  -1   6 4119.03 266.115   5
   3   1   6 3961.41 404.014   2
   3  -1   6 4116.52 346.342   2
   3  -1   6 3969.90 318.274   4
   3   1   6 3780.76 169.300   5
   3   1   6 3977.32 264.442   3
   3  -1   7 1144.22 139.590   5
   3  -1   7 1453.03 211.428   2
   3  -1   7 1194.48 179.824   4
   3   1   7 1299.15 154.571   3
   3   1   7 1202.10 84.9925   5
   3  -1   8 4614.89 302.715   5
   3   1   8 5160.50 337.360   1
   3  -1   8 5167.56 396.794   2
   3  -1   8 5534.69 398.948   4
   3   1   8 5233.30 331.327   3
   3   1   8 5003.04 167.709   5
   3  -1   9 3703.97 272.531   5
   3   1   9 3974.16 307.790   1
   3  -1   9 3904.29 349.938   2
   3  -1   9 3842.41 340.853   4
   3   1   9 4135.73 304.504   3
   3  -1   9 3936.16 340.623   1
   3  -1  10 8794.02 544.695   1
   3  -1  10 8490.50 425.494   5
   3  -1  10 10733.7 604.802   2
   3   1  10 8984.71 486.596   1
   3  -1  10 9669.07 569.964   4
   3   1  10 9168.66 474.015   3
   3  -1  11 3806.69 362.831   1
   3  -1  11 3783.61 272.641   5
   3  -1  11 3676.63 359.951   4
   3   1  11 4086.76 314.949   3
   3   1  11 3787.57 315.054   1
   3  -1  12 17318.3 850.062   1
   3  -1  12 18657.3 870.624   4
   3   1  12 18450.7 776.470   1
   3  -1  13 4310.56 407.867   4
   3  -1  13 3728.90 385.108   1
   3   1  13 4084.86 358.694   1
   3  -1  14 10863.4 706.886   1
   3  -1  14 12173.6 724.686   4
   3   1  14 11281.0 626.052   1
   3  -1  15 2332.06 334.253   1
   3  -1  15 2422.22 322.405   4
   3   1  15 2395.84 297.161   1
   3  -1  16 4787.38 471.610   4
   3   1  16 4798.53 438.566   1
   3  -1  16 4151.13 460.783   1
   3  -1  17 818.293 208.227   1
   3  -1  17 1209.29 245.623   4
   3   1  17 1090.29 229.561   1
   3   1  18 3640.85 412.021   1
   3  -1  18 3471.47 425.798   4
   3  -1  18 2677.56 397.167   1
   3   1  19 420.358 149.405   1
   3   1  20 1633.38 302.755   1
   3   1  21 2930.19 420.727   1
   3   1  22 4354.21 544.837   1
   3   2 -24 2768.29 363.732   6
  -3  -2 -23 3521.28 646.260   2
   3   2 -23 3531.88 391.522   6
   3  -2 -23 3696.51 429.791   6
  -3  -2 -22 1539.76 452.647   2
   3   2 -22 1531.04 255.990   6
   3  -2 -22 1313.19 263.829   6
  -3   2 -21 3615.06 527.734   2
  -3  -2 -21 3705.55 612.478   2
   3  -2 -21 2494.44 350.162   6
   3   2 -21 2314.33 300.368   6
  -3   2 -20 626.148 221.074   2
  -3  -2 -20 784.058 257.135   2
   3   2 -20 939.241 199.288   6
   3  -2 -20 870.048 214.955   6
  -3   2 -19 693.120 218.996   2
  -3  -2 -19 415.986 220.476   2
   3   2 -19 533.270 135.946   6
   3  -2 -19 276.118 143.924   6
  -3  -2 -18 1389.32 371.122   2
  -3   2 -18 1014.92 258.011   2
  -3   2 -18 1166.33 163.650   5
   3   2 -18 1118.97 200.127   6
   3  -2 -18 907.599 206.925   6
  -3  -2 -17 852.157 268.081   2
  -3   2 -17 1030.12 244.710   2
  -3   2 -17 902.233 137.739   5
   3   2 -17 903.058 170.637   6
   3  -2 -17 1043.85 216.608   6
  -3  -2 -16 3166.01 503.748   2
   3   2 -16 3399.74 321.411   6
   3  -2 -16 2947.47 347.443   6
  -3   2 -16 3052.55 387.375   2
  -3   2 -16 3133.37 258.736   5
   3   2 -15 2767.76 288.050   6
   3  -2 -15 3030.67 342.636   6
  -3   2 -15 3115.65 376.957   2
  -3  -2 -15 3490.74 527.808   2
  -3   2 -15 3063.44 257.718   5
   3   2 -14 7181.41 451.434   6
   3  -2 -14 7884.89 542.992   6
  -3  -2 -14 8025.14 786.918   2
  -3   2 -14 7725.37 568.206   2
  -3   2 -14 7064.84 403.472   5
   3   2 -13 5342.47 378.711   6
   3  -2 -13 6520.38 482.130   6
  -3  -2 -13 5807.46 652.036   2
  -3   2 -13 5514.75 453.112   2
  -3   2 -13 5451.02 349.431   5
   3   2 -12 8037.87 458.847   6
   3  -2 -12 7575.64 515.848   6
  -3  -2 -12 8053.30 735.328   2
  -3   2 -12 7341.67 407.848   5
   3   2 -11 10823.0 530.140   6
   3  -2 -11 11455.6 631.344   6
  -3  -2 -11 10896.2 853.917   2
  -3   2 -11 11211.2 507.324   5
   3   2 -10 7722.44 432.480   6
   3  -2 -10 7390.16 493.832   6
  -3  -2 -10 7794.38 687.248   2
  -3   2 -10 7861.38 412.454   5
   3   2  -9 6055.67 374.062   6
   3  -2  -9 6761.76 455.413   6
  -3  -2  -9 5861.07 419.995   6
  -3   2  -9 6109.26 360.520   5
  -3  -2  -8 2694.48 265.514   6
   3  -2  -8 3037.18 295.537   6
   3   2  -8 2754.33 248.070   6
  -3   2  -8 2975.24 248.560   5
   3  -2  -7 3998.72 239.254   1
   3   2  -7 2889.17 250.097   6
  -3  -2  -7 3143.31 277.222   6
   3  -2  -7 3217.92 295.101   6
  -3   2  -7 2897.13 238.765   5
   3  -2  -6 2696.05 199.299   1
   3   2  -6 2263.73 217.197   6
  -3  -2  -6 2326.71 233.925   6
   3  -2  -6 2456.24 254.308   6
  -3   2  -6 2265.15 210.860   5
   3  -2  -5 2199.31 184.897   1
  -3  -2  -5 1863.09 202.243   6
   3   2  -5 1897.24 196.017   6
  -3  -2  -5 1986.10 219.959   4
   3  -2  -5 1947.91 218.324   6
  -3   2  -5 2224.90 207.837   5
   3  -2  -4 5378.87 298.721   1
  -3   2  -4 4974.25 328.065   1
  -3  -2  -4 5084.68 333.615   6
   3   2  -4 4912.56 313.743   6
   3  -2  -4 4978.16 334.846   6
  -3   2  -4 5262.60 325.501   5
   3  -2  -3 7189.05 360.581   1
  -3   2  -3 7228.92 386.436   1
   3   2  -3 7089.59 376.372   6
  -3  -2  -3 7208.05 393.516   6
   3  -2  -3 7090.70 388.476   6
  -3   2  -3 7177.14 384.375   5
   3  -2  -2 11522.9 481.479   1
  -3   2  -2 11555.6 497.469   1
   3   2  -2 11693.9 497.694   6
  -3  -2  -2 12135.8 522.883   6
   3  -2  -2 11351.8 486.446   6
  -3   2  -2 11651.1 496.459   5
   3  -2  -1 8704.83 426.669   1
  -3   2  -1 9117.17 420.442   1
   3   2  -1 8220.32 409.399   6
  -3  -2  -1 8762.89 439.443   6
   3  -2  -1 8540.40 393.679   6
  -3   2  -1 8322.87 421.696   5
   3  -2   0 11520.8 504.308   1
   3   2   0 10124.6 470.990   6
  -3  -2   0 11234.3 505.113   6
   3  -2   0 10231.6 415.548   6
  -3   2   0 11111.8 487.724   5
   3  -2   0 10871.5 502.946   5
   3  -2   1 10317.0 484.315   5
   3  -2   1 9637.64 480.408   1
  -3  -2   1 9495.07 467.951   6
   3  -2   1 9057.27 371.901   6
   3   2   1 9953.26 466.901   6
  -3   2   1 10014.3 463.533   5
   3  -2   2 10846.6 493.584   5
   3  -2   2 9434.04 485.861   1
   3   2   2 10071.0 473.395   6
   3   2   2 8865.65 590.886   2
  -3   2   2 9678.79 457.632   5
   3  -2   2 8894.31 342.798   6
   3  -2   3 9683.02 473.372   5
   3   2   3 8442.07 436.456   3
   3  -2   3 8897.21 479.308   1
   3   2   3 8745.99 457.162   6
   3  -2   3 8329.60 303.563   6
   3  -2   3 8324.43 423.205   2
  -3   2   3 9289.02 452.190   5
   3   2   4 4186.59 299.848   3
   3  -2   4 4570.15 327.005   5
   3  -2   4 4438.16 344.840   1
   3  -2   4 4200.44 180.520   6
   3  -2   4 4025.55 287.215   2
  -3   2   4 4168.59 298.522   5
   3   2   5 2609.91 239.968   3
   3  -2   5 2853.01 284.017   1
   3  -2   5 2780.54 235.821   2
   3  -2   5 2632.72 117.534   6
  -3   2   5 2632.29 242.668   5
   3   2   6 2055.60 211.627   3
  -3   2   6 1250.87 82.8599   3
   3   2   6 1991.72 164.536   5
   3  -2   6 2049.76 245.339   1
   3  -2   6 1909.57 195.175   2
   3   2   7 2904.12 184.493   5
   3  -2   7 2567.35 289.453   1
   3  -2   7 2821.23 234.706   2
  -3   2   7 1719.70 91.9844   3
   3   2   7 2806.24 249.956   3
   3   2   8 3548.53 186.730   5
   3  -2   8 3368.19 343.704   1
  -3   2   8 2351.73 110.889   3
   3   2   8 3602.93 294.374   3
   3   2   9 4803.77 164.299   5
   3  -2   9 5416.95 451.808   1
   3   2   9 5955.89 386.416   3
   3  -2  10 8343.70 589.949   1
   3  -2  10 9367.09 610.442   4
   3   2  10 8987.21 499.887   3
   3   2  11 11122.4 562.419   1
   3  -2  11 9880.45 675.869   1
   3  -2  11 11243.6 681.275   4
   3   2  11 10518.4 564.544   3
   3   2  12 9343.94 527.916   1
   3  -2  12 7960.73 617.201   1
   3  -2  12 9414.32 630.833   4
   3   2  12 8794.96 525.861   3
   3  -2  13 5823.13 550.498   1
   3  -2  13 6958.47 557.933   4
   3   2  13 7327.61 474.785   1
   3   2  13 7359.94 490.637   3
   3   2  14 8443.95 532.032   1
   3  -2  14 8499.11 630.744   4
   3   2  14 8070.31 529.740   3
   3   2  15 4624.70 408.620   1
   3  -2  15 4895.64 487.107   4
   3   2  15 4466.35 403.082   3
   3  -2  16 3268.99 411.220   4
   3   2  16 3086.77 337.615   1
   3   2  16 3252.36 350.073   3
   3   2  17 1127.07 206.196   1
   3  -2  17 1225.13 260.245   4
   3   2  18 880.317 190.685   1
   3  -2  18 1210.46 266.223   4
   3  -2  19 667.770 221.849   4
   3   2  19 927.919 228.595   1
   3   2  20 1179.15 229.273   1
   3  -2  20 1384.16 301.000   4
   3  -2  21 2962.99 449.137   4
   3  -2  22 2194.23 393.136   4
   3   3 -23 584.719 190.107   6
   3   3 -22 340.703 131.470   6
   3   3 -21 4422.17 418.910   6
  -3  -3 -21 4829.99 692.382   2
   3  -3 -21 3887.36 458.801   6
  -3  -3 -20 1208.53 350.312   2
   3   3 -20 1058.40 209.879   6
   3  -3 -20 837.060 217.011   6
   3   3 -19 8488.76 561.675   6
   3  -3 -19 7810.62 625.092   6
  -3  -3 -19 9197.06 930.084   2
  -3  -3 -18 1791.57 406.443   2
  -3   3 -18 1342.68 212.145   5
   3   3 -18 1433.76 227.838   6
   3  -3 -18 1346.11 259.845   6
   3   3 -17 7506.13 501.321   6
   3  -3 -17 7197.73 590.745   6
  -3  -3 -17 7552.59 800.917   2
  -3   3 -17 7291.34 537.976   5
  -3   3 -16 235.960 85.4341   5
   3   3 -16 375.472 128.149   6
   3  -3 -16 309.500 115.661   6
   3   3 -15 3292.12 321.730   6
   3  -3 -15 3082.43 373.576   6
  -3  -3 -15 3853.83 564.564   2
  -3   3 -15 3259.54 347.868   5
  -3  -3 -14 616.398 219.499   2
  -3   3 -14 289.627 102.441   5
   3   3 -14 402.836 122.244   6
   3  -3 -14 289.635 124.187   6
  -3  -3 -13 192.963 152.036   2
  -3   3 -13 254.337 92.4476   5
   3   3 -13 293.229 98.5955   6
   3  -3 -13 218.154 109.304   6
  -3  -3 -12 106.824 76.1505   2
  -3   3 -12 335.161 95.5229   5
   3   3 -12 326.079 102.683   6
   3  -3 -12 162.315 81.3516   6
  -3  -3 -11 447.234 182.390   2
  -3   3 -11 584.929 147.457   5
   3   3 -11 490.875 113.763   6
   3  -3 -11 362.165 114.846   6
  -3   3 -10 344.278 98.9462   5
   3   3 -10 519.416 114.906   6
   3  -3 -10 388.348 141.313   6
   3   3  -9 7558.70 452.476   6
   3  -3  -9 8281.87 540.472   6
  -3   3  -9 7517.22 508.082   5
   3   3  -8 2566.65 251.435   6
  -3   3  -8 2376.48 282.326   5
   3   3  -7 15583.1 658.435   6
  -3   3  -7 16971.6 766.680   5
   3   3  -6 2749.78 262.395   6
  -3   3  -6 3140.42 310.716   5
  -3   3  -5 19227.4 810.763   5
   3   3  -5 19328.3 736.227   6
   3   3  -4 1713.45 207.799   6
  -3   3  -4 1752.97 229.576   5
   3   3  -3 8107.98 460.186   6
  -3   3  -3 8561.11 503.185   5
  -3   3  -2 770.634 152.711   5
   3   3  -2 792.014 148.681   6
  -3   3  -1 436.094 113.770   1
  -3   3  -1 530.037 126.971   5
   3   3  -1 509.721 127.187   6
  -3   3   0 60.0790 43.0246   5
   3   3   0 22.6268 62.5039   6
  -3   3   0 37.4576 40.1036   1
  -3   3   1 935.846 171.071   5
   3   3   1 880.427 156.068   6
  -3   3   1 958.504 142.885   1
  -3   3   2 958.776 163.276   5
   3   3   2 782.630 143.025   5
  -3   3   2 990.022 141.162   1
   3   3   3 7377.48 423.729   5
  -3   3   3 8011.46 383.771   1
  -3   3   3 7540.39 456.557   5
   3   3   4 2334.45 229.285   5
   3  -3   4 1408.49 103.972   2
  -3   3   4 2060.08 241.334   5
   3   3   5 18863.6 830.637   3
   3   3   5 18626.2 697.847   5
  -3   3   5 19388.6 779.200   5
   3   3   6 3333.50 332.768   3
   3   3   6 3873.92 282.011   5
   3  -3   6 3778.79 200.546   6
  -3   3   6 3683.91 326.267   5
   3   3   7 17068.1 786.514   3
   3   3   7 17502.6 627.784   5
   3  -3   7 16715.7 405.840   6
   3  -3   7 16714.8 404.684   6
  -3   3   7 16589.6 730.603   5
   3   3   8 2092.53 263.053   3
  -3   3   8 1518.06 142.632   3
   3   3   8 2225.42 192.050   5
  -3   3   8 2483.65 266.949   5
   3   3   9 8250.55 348.225   5
   3   3   9 8035.88 522.461   3
  -3   3  10 347.258 67.8070   3
   3   3  10 567.639 147.801   3
   3   3  10 551.339 71.9499   5
  -3   3  11 352.114 73.3109   3
   3   3  11 466.926 141.905   3
   3   3  11 407.241 46.4738   5
  -3   3  12 77.2008 42.9709   3
   3   3  12 257.807 115.146   3
  -3  -3  12 189.188 55.8936   4
   3   3  13 292.328 116.241   3
  -3  -3  13 340.579 74.8055   4
   3   3  14 418.969 136.837   3
   3   3  14 320.799 92.7483   1
   3  -3  14 156.639 112.275   4
   3   3  15 3460.75 354.045   1
   3  -3  15 3572.08 450.229   4
   3   3  15 3674.91 397.431   3
   3   3  16 705.045 176.635   1
   3   3  16 744.083 193.411   3
   3  -3  16 422.459 168.223   4
   3   3  17 10313.2 649.814   1
   3  -3  17 8996.72 746.664   4
   3   3  17 9304.72 673.823   3
   3   3  18 1918.58 311.464   3
   3   3  18 1462.84 235.054   1
   3  -3  18 1605.12 312.427   4
   3  -3  19 9722.73 812.528   4
   3   3  19 10397.6 743.890   3
   3  -3  20 1169.34 293.519   4
   3  -3  21 5505.33 637.042   4
   3  -3  22 650.650 238.200   4
   3   4 -22 3188.70 378.480   6
   3   4 -21 811.647 200.909   6
   3   4 -20 1815.20 329.734   5
   3   4 -20 2322.38 312.553   6
  -3  -4 -19-45.4252 109.985   2
  -3   4 -19-180.125 124.296   5
   3   4 -19 266.940 152.858   5
   3   4 -19 69.2672 83.8692   6
   3  -4 -19 53.3726 111.529   6
  -3  -4 -18 2398.94 458.883   2
  -3   4 -18 2034.78 342.528   5
   3   4 -18 2988.34 337.830   6
   3   4 -18 2254.15 372.646   5
   3  -4 -18 2313.02 359.296   6
  -3   4 -17 476.371 164.409   5
   3   4 -17 883.943 235.827   5
   3   4 -17 871.876 184.842   6
   3  -4 -17 692.065 198.675   6
  -3  -4 -16 2288.48 431.469   2
  -3   4 -16 1947.57 324.038   5
   3   4 -16 2296.09 347.068   5
   3   4 -16 1915.63 258.400   6
   3  -4 -16 1803.64 297.507   6
  -3  -4 -15 1327.69 324.093   2
  -3   4 -15 977.248 203.951   5
   3   4 -15 1477.52 283.629   5
   3   4 -15 1063.31 192.805   6
   3  -4 -15 713.655 195.637   6
   3   4 -14 3376.35 415.518   5
   3   4 -14 3492.64 340.947   6
  -3  -4 -14 3739.00 539.905   2
   3  -4 -14 2925.69 362.226   6
  -3   4 -14 3169.68 409.907   5
  -3   4 -13 324.822 133.690   5
   3   4 -13 622.557 164.202   6
   3  -4 -13 530.812 140.386   6
   3   4 -12 5006.91 400.051   6
  -3   4 -12 4492.44 480.069   5
  -3   4 -11 597.225 172.405   5
   3   4 -11 815.220 165.406   6
   3   4 -10 4683.55 382.875   6
  -3   4 -10 4755.50 480.265   5
  -3   4  -9 1709.34 279.602   5
   3   4  -9 1728.32 238.203   6
   3   4  -8 2858.60 343.310   5
   3   4  -8 2906.39 300.057   6
  -3   4  -8 2699.43 352.560   5
  -3   4  -7 251.345 110.514   5
   3   4  -7 493.841 157.236   5
   3   4  -7 425.738 129.046   6
   3   4  -6 5624.80 429.233   6
   3   4  -6 4836.66 435.457   5
  -3   4  -6 5828.73 501.644   5
  -3   4  -5 1360.62 241.721   5
   3   4  -5 1532.35 242.973   5
   3   4  -5 1388.13 222.032   6
   3   4  -4 3423.62 354.621   5
   3   4  -4 3767.17 352.747   6
  -3   4  -4 3258.23 370.088   5
   3   4  -3 3039.85 333.928   5
   3   4  -3 3219.20 331.278   6
  -3   4  -3 3101.22 357.821   5
   3   4  -2 7307.29 511.226   5
   3   4  -2 7511.76 505.975   6
  -3   4  -2 7472.75 542.922   5
  -3   4  -1 628.878 169.053   5
   3   4  -1 670.387 156.689   5
   3   4   0 9506.75 569.780   5
  -3   4   0 9883.09 623.191   5
  -3   4   1 979.071 206.132   5
   3   4   1 1148.18 199.281   5
   3   4   2 6495.04 466.323   5
  -3   4   2 7404.17 536.445   5
   3   4   3 3160.20 316.438   5
  -3   4   3 3248.92 292.380   1
  -3   4   3 3038.79 336.976   5
   3   4   4 4171.39 357.574   5
  -3   4   4 3141.04 279.524   1
  -3   4   4 3371.86 349.269   5
   3   4   5 1567.08 217.806   5
  -3   4   5 1437.55 231.358   5
  -3   4   5 1377.65 178.096   1
   3  -4   5 1432.49 166.889   6
   3   4   6 4561.53 458.877   3
   3   4   6 5498.84 397.867   5
   3  -4   6 5898.57 329.126   6
  -3   4   6 5374.88 451.848   5
  -3   4   7 423.186 137.065   5
   3   4   7 474.063 153.443   3
   3   4   7 211.611 79.0970   5
   3   4   8 2985.76 380.047   3
   3   4   8 2551.55 246.066   5
  -3   4   8 2520.11 315.246   5
   3   4   9 1691.06 190.827   5
   3   4   9 1876.99 303.969   3
  -3   4   9 1097.09 148.432   3
  -3   4   9 2021.30 280.010   5
   3   4  10 5477.47 518.598   3
  -3   4  10 5415.40 457.038   5
   3   4  10 6158.74 343.189   5
  -3   4  11 492.925 117.988   3
   3   4  11 870.989 212.865   3
  -3   4  12 3510.76 275.795   3
   3   4  12 5218.29 500.170   3
  -3   4  13 293.798 81.1933   3
   3   4  13 752.134 205.621   3
   3   4  14 4794.15 500.367   3
   3   4  15 1420.39 287.829   3
   3   4  15 1478.09 239.616   1
   3   4  16 2147.52 346.456   3
   3  -4  16 2243.78 394.972   4
   3   4  16 2059.44 289.215   1
   3   4  17 1341.03 290.856   3
   3  -4  17 421.898 175.085   4
   3  -4  18 3087.34 474.005   4
   3   4  18 3359.48 452.592   3
   3   4  19 75.4795 139.461   3
   3  -4  19 32.6620 100.718   4
   3  -4  20 2411.09 433.332   4
  -3   5 -19 862.934 262.956   5
   3   5 -19 727.134 195.522   6
   3  -5 -19 675.951 190.322   2
  -3   5 -18-33.2279 109.735   5
   3   5 -18 159.198 93.8233   6
   3  -5 -18-69.6780 125.367   2
  -3   5 -17 520.810 211.597   5
   3   5 -17 605.982 176.773   6
   3  -5 -17 463.934 210.345   2
  -3   5 -16 679.318 226.097   5
   3   5 -16 475.712 178.094   5
   3   5 -16 482.955 149.783   6
   3  -5 -16 587.028 224.343   2
   3  -5 -16 336.304 142.045   6
  -3   5 -15 2232.54 392.797   5
   3   5 -15 2300.50 380.010   5
   3   5 -15 2057.47 292.662   6
   3  -5 -15 2373.46 419.780   2
   3  -5 -15 1703.04 315.356   6
  -3   5 -14 2182.13 370.377   5
   3   5 -14 1535.96 295.324   5
   3   5 -14 1590.49 258.310   6
   3  -5 -14 1939.06 346.743   2
   3   5 -13 3261.18 438.379   5
   3  -5 -13 3639.02 460.004   2
   3   5 -13 4109.89 411.229   6
  -3   5 -13 4538.31 541.830   5
   3   5 -12 552.700 169.773   5
  -3   5 -12 638.076 210.082   5
   3   5 -12 610.381 161.748   6
   3  -5 -12 958.150 237.044   2
   3   5 -11 4501.94 487.710   5
   3  -5 -11 4207.70 443.748   2
   3   5 -11 4556.67 421.922   6
  -3   5 -11 5645.00 591.822   5
  -3   5 -10 1835.72 335.383   5
   3   5 -10 1897.96 308.176   5
   3   5 -10 2149.15 297.029   6
   3  -5 -10 1844.54 281.972   2
   3   5  -9 2996.17 387.131   5
   3  -5  -9 2662.37 322.331   2
   3   5  -9 2939.56 339.311   6
  -3   5  -9 2865.99 407.727   5
  -3   5  -8 294.045 129.600   5
   3   5  -8 344.648 143.153   5
   3   5  -8 340.663 126.242   6
   3  -5  -8 451.957 121.270   2
  -3   5  -7 1549.27 289.973   5
   3   5  -7 1656.77 261.615   6
   3  -5  -7 1113.87 184.343   2
   3   5  -7 1478.81 272.606   5
  -3   5  -6 527.207 194.833   5
   3   5  -6 390.033 135.442   5
   3   5  -6 184.422 105.757   6
   3  -5  -6 243.581 77.6070   2
  -3   5  -5 616.132 171.143   5
   3   5  -5 354.015 148.343   5
  -3   5  -4 453.769 155.149   5
   3   5  -4 506.418 166.720   5
   3   5  -3 3936.79 423.409   5
  -3   5  -3 4067.40 460.715   5
   3   5  -2 2240.04 314.208   5
  -3   5  -2 2030.58 311.158   5
   3   5  -1 5211.09 475.441   5
  -3   5  -1 4803.80 498.597   5
  -3   5   0 1209.23 257.713   5
   3   5   0 897.330 196.608   5
   3   5   1 5595.70 482.421   5
  -3   5   1 5554.18 520.710   5
   3   5   2 2161.23 302.933   5
  -3   5   2 1836.15 305.984   5
   3   5   3 4952.66 447.862   5
  -3   5   3 4602.38 468.450   5
  -3   5   4 212.802 109.028   5
   3   5   4 419.765 139.307   5
  -3   5   5 336.933 127.559   5
   3   5   5 590.433 150.309   5
  -3   5   6 519.156 143.515   5
   3   5   6 374.219 113.524   5
  -3   5   7 1275.93 256.894   5
   3   5   7 1347.43 284.280   3
   3   5   7 1403.75 227.383   5
  -3   5   8 336.008 159.659   5
   3   5   8 621.068 171.964   3
   3   5   8 760.921 148.838   5
   3   5   9 3061.96 294.216   5
   3   5   9 2522.00 410.975   3
  -3   5   9 3024.16 389.963   5
  -3   5  10 1843.60 303.101   5
   3   5  10 2271.94 380.650   3
  -3   5  10 1561.88 226.993   3
   3   5  11 3791.84 496.823   3
  -3   5  11 3114.83 316.451   3
  -3   5  11 4597.13 471.412   5
  -3   5  12 584.619 187.266   5
   3   5  12 553.170 226.718   3
   3   5  13 4176.67 528.207   3
   3   5  14 1397.13 312.635   3
   3   5  15 2543.01 410.103   3
   3   5  16 719.287 237.673   3
   3  -5  17 555.821 184.462   4
  -3   6 -15 1391.27 327.871   5
   3   6 -15 985.412 227.944   6
  -3   6 -14 102.488 124.273   5
   3   6 -14 82.4336 108.513   6
  -3   6 -13 215.525 148.997   5
  -3   6 -12 663.883 250.477   5
   3   6 -12 238.554 145.904   5
  -3   6 -11 537.349 213.841   5
   3   6 -11 146.398 130.970   5
  -3   6 -10 688.143 218.591   5
   3   6 -10 295.052 148.670   5
  -3   6  -9 1479.86 338.504   5
   3   6  -9 1488.51 298.402   5
  -3   6  -8 2410.10 414.463   5
   3   6  -8 2113.34 352.763   5
   3   6  -7 3304.10 440.213   5
  -3   6  -7 4261.75 531.378   5
   3   6  -6 2832.73 405.079   5
  -3   6  -6 2288.34 382.812   5
   3   6  -5 3523.60 444.226   5
  -3   6  -5 3634.86 482.091   5
   3   6  -4 2174.73 351.580   5
  -3   6  -4 2198.65 365.197   5
  -3   6  -3 1321.34 279.841   5
   3   6  -3 1403.74 281.541   5
  -3   6  -2-172.713 130.835   5
   3   6  -2 240.866 136.546   5
  -3   6  -1-100.419 119.503   5
   3   6  -1 149.503 102.715   5
  -3   6   0 312.948 150.786   5
   3   6   0 459.048 165.026   5
  -3   6   1 333.591 156.260   5
   3   6   1 352.063 126.110   5
  -3   6   2 122.903 130.593   5
   3   6   2 206.993 100.746   5
  -3   6   3 1422.27 290.176   5
   3   6   3 1507.29 284.733   5
   3   6   4 2624.41 345.789   5
  -3   6   4 2994.62 418.460   5
   3   6   5 3999.66 420.320   5
  -3   6   5 3676.66 458.293   5
   3   6   6 2676.54 341.649   5
  -3   6   6 2179.20 357.340   5
   3   6   7 3836.07 395.523   5
   3   6   7 2928.16 476.311   3
  -3   6   7 4079.87 491.865   5
  -3   6   8 1646.03 310.365   5
   3   6   8 1954.33 389.965   3
  -3   6   9 1489.43 301.521   5
   3   6   9 1025.08 287.084   3
  -3   6  10 265.258 144.225   5
   3   6  10 249.700 134.177   3
  -3   6  11 291.059 144.809   5
   3   6  11 612.844 240.452   3
  -3   6  12 222.838 138.238   5
   3   6  12 293.476 176.322   3
   3   7  -5 837.676 246.847   5
   3   7  -4 998.179 255.608   5
   3   7  -3 909.561 252.523   5
   3   7  -2 1492.44 303.842   5
   3   7  -1 330.071 124.028   5
   3   7   0 2593.15 396.260   5
   3   7   1 302.577 140.307   5
   3   7   2 1889.68 330.178   5
   3   7   3 763.735 211.410   5
   3   7   4 1415.58 283.856   5
   3   7   5 871.018 222.356   5
  -4   0 -24 22294.7 1762.53   2
  -4   0 -23 95.6995 122.803   2
  -4   0 -22 54.5219 120.833   2
   4   0 -22 859.230 209.450   6
  -4   0 -21 229.946 171.404   2
   4   0 -21 216.971 118.015   6
   4   0 -20 8834.88 621.933   6
  -4   0 -20 8277.44 932.313   2
  -4   0 -19 275.949 181.847   2
   4   0 -19-47.6542 85.5316   6
  -4   0 -18 3889.40 590.274   2
   4   0 -18 3602.42 377.795   6
  -4   0 -17 196.132 163.264   2
   4   0 -17 58.1171 66.7014   6
   4   0 -16 17636.7 825.425   6
  -4   0 -16 18173.5 1213.97   2
   4   0 -15 2.24984 63.9797   6
   4   0 -14 1563.49 224.020   6
  -4   0 -13 4.46796 29.3614   6
   4   0 -13 66.6597 88.7031   6
  -4   0 -12 44609.2 904.045   6
   4   0 -12 50853.0 1386.72   6
  -4   0 -11 113.303 32.1770   6
   4   0 -11 31.5610 56.8625   6
  -4   0 -10 252.314 44.3251   6
   4   0 -10 470.977 119.328   6
  -4   0  -9-1.66702 16.3712   6
   4   0  -9-9.02181 50.1677   6
  -4   0  -8 13657.7 406.806   6
   4   0  -8 15520.5 622.121   6
   4   0  -7 234.493 83.5991   6
  -4   0  -7-14.9031 30.2471   6
   4   0  -6 10523.3 487.110   6
  -4   0  -6 10670.8 368.651   6
  -4   0  -5 52.6665 50.9287   3
   4   0  -5 5.24990 47.9969   6
  -4   0  -5-1.72368 27.4175   6
  -4   0  -4 44357.8 1071.47   3
   4   0  -4 42696.8 1085.56   6
  -4   0  -4 42868.5 967.199   6
  -4   0  -3 26.0157 27.4481   3
   4   0  -3 36.0737 32.2415   4
   4   0  -3 37.4717 47.2714   6
  -4   0  -3-13.4673 36.0239   6
   4   0  -2 1412.14 157.696   6
   4   0  -2 1247.35 125.424   4
  -4   0  -2 1303.46 139.683   6
   4   0  -1 12.7512 48.2997   5
   4   0  -1-10.1907 35.7060   6
   4   0  -1 61.5800 42.7853   4
  -4   0  -1 91.2884 61.2125   6
   4   0   0 180293. 3297.03   4
   4   0   0 176226. 3275.33   6
  -4   0   0 176304. 3301.54   6
   4   0   0 168342. 3294.65   5
   4   0   1 7.68162 43.8655   6
   4   0   1 51.9328 55.4556   4
  -4   0   1 25.7280 49.3620   6
   4   0   2 1211.27 131.057   6
   4   0   2 1245.21 161.593   4
  -4   0   2 1305.89 159.110   6
   4   0   3-17.5937 33.5045   6
   4   0   3-4.85753 33.3189   4
  -4   0   3-25.0481 45.2984   6
   4   0   4 43030.5 1161.61   1
   4   0   4 43315.4 984.070   6
   4   0   5 69.2419 47.6759   5
   4   0   5 11.0906 39.3275   6
   4   0   5-12.8068 42.9461   4
   4   0   5 65.0915 66.9936   1
   4   0   6 11544.0 439.360   6
   4   0   6 11285.7 550.972   1
   4   0   6 12527.5 592.799   4
   4   0   6 11588.8 441.230   5
   4   0   7 57.9165 31.2982   5
   4   0   7-2.18995 48.3618   4
   4   0   7 92.7346 81.0089   1
   4   0   8 18303.8 588.656   5
   4   0   8 17599.4 751.340   1
   4   0   8 18963.2 796.108   4
   4   0   9-20.1279 52.2678   1
   4   0   9-10.3697 69.3048   4
   4   0   9-20.9329 38.8501   5
   4   0  10 262.831 107.778   1
   4   0  10 160.697 31.8001   5
   4   0  10 177.433 79.3855   4
   4   0  11 45.8405 94.9045   1
   4   0  11-9.94692 22.1760   5
   4   0  12 62175.9 1818.02   1
   4   0  13-38.7327 57.1972   1
   4   0  14 1777.74 287.877   1
   4   0  15 62.6380 72.4077   1
   4   0  16 24594.7 1174.61   1
   4   0  17-37.0291 82.6195   1
   4   0  18 3411.52 464.385   1
   4   0  19 381.362 177.145   1
   4   0  20 13172.6 973.817   1
   4   0  21 15.0066 96.9516   1
   4   0  22-40.2575 116.352   1
   4   0  23-22.4595 125.420   1
  -4  -1 -23 3122.40 643.552   2
  -4   1 -23 4003.41 641.341   2
  -4  -1 -22 2712.99 590.292   2
  -4   1 -22 2470.99 500.522   2
   4   1 -22 2887.98 365.170   6
   4  -1 -22 2556.81 359.679   6
  -4  -1 -21 1435.52 418.048   2
  -4   1 -21 1759.40 397.994   2
   4   1 -21 2264.79 318.350   6
   4  -1 -21 2468.17 346.608   6
  -4  -1 -20 895.567 349.312   2
  -4   1 -20 1130.57 308.212   2
   4   1 -20 956.643 204.466   6
   4  -1 -20 508.310 166.599   6
   4   1 -19 8272.76 576.597   6
   4  -1 -19 8319.98 602.961   6
  -4  -1 -19 7904.91 928.130   2
  -4   1 -19 6387.06 718.265   2
  -4  -1 -18 829.523 302.940   2
  -4   1 -18 903.086 249.423   2
   4   1 -18 938.438 208.464   6
   4  -1 -18 686.014 179.263   6
  -4  -1 -17 2008.89 441.008   2
   4  -1 -17 2430.40 323.538   6
   4   1 -17 2272.49 286.000   6
   4  -1 -16 6505.43 506.816   6
   4   1 -16 5857.85 448.773   6
  -4  -1 -16 5076.19 672.865   2
   4   1 -15 8699.96 536.561   6
   4  -1 -15 8409.78 582.353   6
   4   1 -14 1609.29 232.661   6
   4  -1 -14 1690.52 244.544   6
  -4  -1 -13 1055.63 122.084   6
   4   1 -13 1140.71 185.592   6
   4  -1 -13 1078.35 195.008   6
  -4  -1 -12 572.938 88.4969   6
   4   1 -12 568.979 127.568   6
   4  -1 -12 286.416 113.503   6
  -4  -1 -11 5807.84 309.771   6
   4   1 -11 5328.01 382.820   6
   4  -1 -11 5631.06 425.234   6
  -4   1 -11 5753.24 285.667   5
   4   1 -10 5813.74 389.587   6
  -4  -1 -10 6484.06 328.434   6
   4  -1 -10 7221.75 469.830   6
  -4   1 -10 6399.78 308.134   5
  -4  -1  -9 7586.78 360.193   6
   4   1  -9 7602.58 436.608   6
   4  -1  -9 8122.70 487.921   6
  -4   1  -9 8005.25 352.813   5
  -4  -1  -8 2255.71 189.379   6
   4   1  -8 2049.74 222.985   6
   4  -1  -8 2539.33 257.528   6
  -4   1  -8 2298.71 184.693   5
  -4  -1  -7 9880.01 422.006   6
   4   1  -7 10035.9 493.611   6
   4  -1  -7 10268.2 518.845   6
   4   1  -6 1711.05 192.759   6
   4  -1  -6 1952.55 208.822   6
  -4  -1  -6 1598.32 160.223   6
   4  -1  -5 10055.8 420.647   1
   4   1  -5 10977.1 506.260   6
  -4  -1  -5 10790.3 441.153   6
   4  -1  -5 10519.0 486.477   6
  -4  -1  -5 11412.0 555.757   4
  -4   1  -5 11180.6 470.893   3
   4   1  -4 5648.75 272.643   3
   4  -1  -4 6743.94 333.736   1
   4   1  -4 6888.26 385.227   6
  -4  -1  -4 7053.69 348.513   6
   4  -1  -4 6230.12 359.617   6
  -4   1  -4 7352.74 353.247   3
   4   1  -3 8000.41 337.160   3
   4  -1  -3 8653.72 391.411   1
   4   1  -3 9193.92 437.772   6
  -4  -1  -3 9263.89 412.235   6
   4  -1  -3 8263.69 396.836   6
  -4   1  -3 8809.96 373.971   3
   4   1  -2 4009.43 233.361   3
   4  -1  -2 3896.24 263.221   1
   4   1  -2 4333.66 291.388   6
  -4  -1  -2 4609.53 288.452   6
   4  -1  -2 3876.65 252.708   6
  -4   1  -2 4270.60 238.748   3
   4   1  -1 5082.37 312.202   6
   4  -1  -1 4731.91 295.584   1
  -4  -1  -1 4785.27 298.135   6
   4  -1  -1 4188.97 257.761   6
  -4   1  -1 4925.25 240.667   3
   4   1  -1 4788.60 261.942   3
   4   1   0 699.492 103.097   3
   4   1   0 703.473 119.525   6
   4  -1   0 714.948 102.321   6
  -4  -1   0 904.135 130.170   6
   4  -1   0 862.468 132.401   1
  -4   1   0 699.249 86.2067   3
  -4   1   1 5227.10 221.106   3
   4   1   1 5112.60 314.334   6
   4  -1   1 5238.71 332.863   1
   4  -1   1 4944.17 262.646   6
   4  -1   1 5399.08 320.612   5
   4   1   1 5514.09 295.405   3
   4   1   2 3332.35 246.006   6
   4  -1   2 3321.13 204.045   6
   4  -1   2 3415.04 275.396   1
   4   1   2 3815.32 250.947   3
   4  -1   2 3978.29 272.496   5
   4   1   3 10167.1 450.078   6
   4  -1   3 9664.21 356.803   6
   4  -1   3 9625.31 489.258   1
   4  -1   3 10225.5 520.855   4
   4   1   3 10183.0 441.639   3
   4  -1   3 10641.6 467.429   5
   4   1   4 6264.20 354.120   6
   4  -1   4 6083.90 255.689   6
   4  -1   4 6286.51 400.884   1
   4  -1   4 6979.11 432.352   4
   4  -1   4 6432.58 505.845   2
   4   1   4 5632.45 283.528   5
   4   1   4 6849.11 364.347   3
   4   1   5 10423.0 480.309   6
   4  -1   5 10600.6 343.329   6
   4  -1   5 11179.7 552.102   1
   4  -1   5 11038.6 677.440   2
   4  -1   5 11333.2 581.655   4
   4   1   5 10196.3 385.800   5
   4   1   5 11898.1 504.065   3
   4  -1   6 2316.60 140.017   6
   4  -1   6 2386.25 308.370   2
   4  -1   6 2452.78 271.059   4
   4  -1   6 2378.33 252.868   1
   4   1   6 2476.61 230.439   3
   4   1   6 2219.22 160.791   5
   4  -1   7 11318.5 699.635   2
   4  -1   7 11107.1 603.464   4
   4  -1   7 10450.5 577.041   1
   4   1   7 10983.9 520.143   3
   4   1   7 10176.1 366.274   5
   4   1   8 2536.11 268.802   1
   4  -1   8 2603.10 343.212   2
   4  -1   8 2574.20 293.444   4
   4  -1   8 2375.64 277.442   1
   4   1   8 2790.39 258.951   3
   4   1   8 2583.92 162.616   5
   4   1   9 7352.30 472.511   1
   4  -1   9 8379.31 554.268   4
   4   1   9 8511.77 468.355   3
   4  -1   9 8455.85 548.254   1
   4   1   9 7747.12 280.927   5
   4  -1  10 8471.17 455.558   5
   4   1  10 8230.38 505.193   1
   4  -1  10 8347.61 562.296   4
   4   1  10 8586.02 481.202   3
   4  -1  10 8131.83 547.849   1
   4  -1  11 5845.25 478.300   1
   4  -1  11 5399.35 359.465   5
   4   1  11 6058.45 445.699   1
   4  -1  11 6058.68 498.238   4
   4  -1  12 719.822 167.205   1
   4   1  12 563.283 142.590   1
   4  -1  12 616.337 104.898   5
   4  -1  12 566.240 155.324   4
   4   1  13 1288.01 230.181   1
   4  -1  13 1785.56 291.853   1
   4  -1  13 1460.46 253.242   4
   4   1  14 1994.66 279.822   1
   4  -1  14 1917.44 319.205   1
   4  -1  14 2068.30 313.355   4
   4  -1  15 10988.6 777.157   1
   4  -1  15 12620.0 808.258   4
   4   1  15 11517.9 718.213   1
   4  -1  16 5745.75 582.510   1
   4  -1  16 6049.63 578.184   4
   4   1  16 6304.14 557.410   1
   4  -1  17 2651.93 399.982   1
   4  -1  17 3277.84 426.416   4
   4   1  17 3037.07 399.649   1
   4  -1  18 999.672 284.651   1
   4   1  18 1261.65 257.194   1
   4   1  19 11318.4 842.204   1
   4  -1  19 9934.21 858.333   1
   4   1  20 1036.07 260.740   1
   4  -1  20 398.962 199.975   1
   4   1  21 1827.53 344.896   1
   4   1  22 4774.40 600.092   1
   4   2 -22 1568.45 266.205   6
   4   2 -21 7554.58 595.022   6
   4  -2 -21 7679.76 632.857   6
  -4  -2 -21 8177.72 972.914   2
  -4  -2 -20 580.797 308.310   2
   4   2 -20 773.492 199.515   6
   4  -2 -20 859.253 225.830   6
   4   2 -19 5010.97 455.168   6
   4  -2 -19 4622.70 481.389   6
  -4  -2 -19 4868.90 726.775   2
   4   2 -18 5068.87 450.171   6
   4  -2 -18 5802.03 535.460   6
  -4  -2 -18 5425.66 735.748   2
   4   2 -17 8283.92 562.541   6
   4  -2 -17 8182.11 631.070   6
  -4  -2 -17 8565.35 913.756   2
   4   2 -16 3094.49 334.531   6
   4  -2 -16 3277.06 380.212   6
  -4   2 -16 2981.20 232.345   5
   4   2 -15 10718.8 616.846   6
   4  -2 -15 11207.1 704.369   6
  -4   2 -15 10204.5 456.725   5
   4   2 -14 3523.94 352.320   6
   4  -2 -14 4148.86 428.574   6
  -4   2 -14 3771.73 272.611   5
   4   2 -13 8231.16 512.202   6
   4  -2 -13 8925.33 613.187   6
  -4   2 -13 8257.56 409.713   5
   4  -2 -12 376.572 72.5671   1
  -4   2 -12 586.680 107.024   5
   4   2 -12 632.139 148.778   6
   4  -2 -12 791.864 193.368   6
   4   2 -11 7249.43 469.341   6
   4  -2 -11 8110.66 554.574   6
  -4   2 -11 7129.98 386.317   5
   4  -2 -11 8560.81 362.450   1
   4   2 -10 6062.50 419.565   6
   4  -2 -10 6743.84 500.099   6
   4  -2 -10 7471.36 340.219   1
  -4   2 -10 6264.00 360.707   5
   4   2  -9 26933.5 949.810   6
   4  -2  -9 29555.4 1077.71   6
   4  -2  -9 31204.3 818.543   1
  -4   2  -9 26546.9 850.995   5
   4   2  -8 2627.43 262.425   6
   4  -2  -8 2980.06 309.186   6
   4  -2  -8 2420.78 198.414   1
  -4   2  -8 2474.08 227.342   5
   4   2  -7 15762.2 672.584   6
   4  -2  -7 17045.6 738.224   6
   4  -2  -7 16668.7 577.271   1
  -4   2  -7 15503.0 616.924   5
   4   2  -6 16598.6 679.793   6
   4  -2  -6 16821.1 720.133   6
   4  -2  -6 16798.3 588.002   1
  -4   2  -6 16454.9 634.502   5
   4   2  -5 24418.4 842.145   6
   4  -2  -5 23255.7 870.102   6
   4  -2  -5 24779.0 757.083   1
  -4   2  -5 24306.7 801.210   5
   4   2  -4 1021.71 162.387   6
  -4  -2  -4 1029.69 166.673   4
   4  -2  -4 1286.40 157.130   1
   4  -2  -4 1183.34 175.025   6
  -4   2  -4 1212.93 166.450   5
   4   2  -3 20988.3 757.147   6
   4  -2  -3 20918.0 734.077   6
  -4  -2  -3 19125.8 736.136   4
   4  -2  -3 20372.4 701.876   1
  -4   2  -3 21106.7 742.192   5
   4   2  -2 8709.92 464.755   6
   4  -2  -2 8392.46 422.245   6
   4  -2  -2 8677.95 436.990   1
  -4   2  -2 8767.38 458.705   5
   4   2  -1 12114.3 555.645   6
   4  -2  -1 12275.9 503.436   6
   4  -2  -1 12538.0 545.872   1
  -4   2  -1 12774.3 556.122   5
  -4   2   0 100.282 69.7223   5
   4   2   0 64.7395 39.7968   3
   4  -2   0 92.4231 60.5290   1
   4   2   0 83.3154 65.5674   6
  -4  -2   0 103.201 52.9558   4
   4  -2   0 144.014 68.7277   6
   4   2   1 9886.59 483.189   3
   4   2   1 10340.4 504.373   6
   4  -2   1 8835.38 382.386   6
  -4  -2   1 8337.57 387.070   4
  -4   2   1 9297.89 482.195   5
   4  -2   1 9382.39 491.757   1
   4   2   2 7608.69 421.218   3
   4   2   2 7748.94 434.794   6
   4  -2   2 6985.73 306.823   6
  -4  -2   2 6359.35 310.270   4
  -4   2   2 5577.86 235.998   3
   4  -2   2 7194.26 436.313   1
   4   2   3 24874.6 809.555   3
   4   2   3 25122.6 840.641   6
   4  -2   3 23736.8 588.231   6
   4  -2   3 24899.3 874.378   1
   4  -2   4 2282.55 262.266   1
   4  -2   4 1606.55 230.185   2
   4   2   4 2066.02 229.134   6
   4  -2   4 2038.09 135.639   6
  -4  -2   4 1601.72 121.953   4
  -4   2   4 1085.09 67.1291   3
   4   2   4 1880.80 209.144   3
   4  -2   5 21866.2 879.628   1
   4  -2   5 20085.1 491.820   6
   4  -2   5 19681.0 845.772   2
   4   2   5 20802.7 764.608   3
   4  -2   6 15454.2 752.780   1
   4  -2   6 13786.7 327.143   6
   4   2   6 15143.7 642.519   3
   4  -2   7 20847.7 914.008   1
   4  -2   7 17901.0 817.638   2
   4   2   7 20863.9 790.023   3
   4  -2   8 3561.36 375.245   1
   4   2   8 3431.84 216.879   5
   4  -2   8 3396.97 322.072   2
   4   2   8 2987.09 169.826   5
   4   2   8 3268.62 302.720   3
   4   2   9 23706.2 624.108   5
   4  -2   9 25674.4 1077.36   1
   4  -2   9 29443.0 1013.59   2
   4  -2   9 27320.0 1108.51   4
   4   2   9 22789.9 559.866   5
   4   2   9 25421.9 925.534   3
   4  -2  10 6822.68 557.621   1
   4  -2  10 7205.21 555.454   4
   4   2  10 7469.19 482.715   3
   4   2  11 10520.8 614.345   1
   4  -2  11 10465.8 710.006   1
   4  -2  11 10665.8 701.551   4
   4   2  11 11251.0 615.179   3
   4  -2  12 182.552 84.8802   1
   4   2  12 154.796 80.0972   3
   4   2  12 326.728 126.146   1
   4  -2  12 234.419 124.736   4
   4  -2  13 7900.70 658.472   1
   4   2  13 7546.24 540.385   1
   4  -2  13 8775.40 661.857   4
   4   2  13 7364.58 519.492   3
   4   2  14 4675.81 432.043   1
   4  -2  14 4762.55 529.188   1
   4  -2  14 4965.23 509.793   4
   4   2  14 4400.95 409.669   3
   4  -2  15 13574.8 940.360   1
   4  -2  15 15459.9 938.170   4
   4   2  15 14958.2 790.797   3
   4   2  15 15098.0 830.620   1
   4  -2  16 3093.38 428.344   4
   4   2  16 2670.22 346.646   1
   4  -2  16 2321.44 397.444   1
   4  -2  17 7055.77 658.462   4
   4   2  17 8174.14 629.146   1
   4  -2  18 7651.38 710.819   4
   4   2  18 8397.54 675.889   1
   4  -2  19 7004.00 686.480   4
   4   2  19 8089.87 680.301   1
   4  -2  20 1464.74 327.874   4
   4   2  20 1223.84 283.886   1
   4   2  21 8317.20 747.619   1
   4  -2  21 7946.30 770.913   4
   4   3 -21 1401.82 261.984   6
   4   3 -20 1205.46 231.563   6
   4   3 -19-24.7497 81.6123   6
   4  -3 -19 416.510 195.370   6
   4   3 -18 388.136 140.897   6
   4  -3 -18 329.981 162.289   6
   4   3 -17 910.830 191.704   6
   4  -3 -17 786.291 223.003   6
  -4   3 -16 1728.93 222.599   5
   4   3 -16 1630.67 250.322   6
   4  -3 -16 1620.73 293.857   6
  -4   3 -15 755.060 153.160   5
   4   3 -15 503.182 133.746   6
   4  -3 -15 903.807 238.455   6
   4   3 -14 5773.12 448.243   6
   4  -3 -14 6328.26 558.212   6
  -4   3 -14 5931.85 432.561   5
   4   3 -13 3050.91 328.686   6
   4  -3 -13 2947.73 382.707   6
  -4   3 -13 3285.83 317.273   5
   4   3 -12 10904.7 610.563   6
   4  -3 -12 11866.1 764.987   6
  -4   3 -12 11204.7 603.348   5
  -4   3 -11 984.987 174.100   5
   4   3 -11 835.531 174.733   6
   4  -3 -11 1037.55 234.197   6
   4   3 -10 6209.78 442.357   6
   4  -3 -10 6684.52 537.488   6
  -4   3 -10 6420.69 449.097   5
   4   3  -9 1366.95 201.272   6
   4  -3  -9 1671.20 274.905   6
  -4   3  -9 1544.09 223.653   5
   4   3  -8 2770.87 286.900   6
   4  -3  -8 2466.31 317.060   6
  -4   3  -8 2811.51 299.278   5
  -4   3  -7 62.6776 62.8806   5
   4   3  -7 65.6182 74.3569   6
   4  -3  -7-64.7194 93.0991   6
  -4   3  -6 669.781 143.653   5
   4   3  -6 761.277 162.544   6
   4  -3  -6 774.213 172.453   6
  -4   3  -5 619.478 150.248   5
   4   3  -5 604.560 138.882   6
   4  -3  -5 339.086 120.696   6
   4  -3  -5 572.319 176.150   1
   4   3  -4 3104.70 300.034   6
   4  -3  -4 3269.70 340.913   1
   4  -3  -4 2735.63 309.014   6
  -4   3  -4 2859.72 292.666   5
  -4   3  -3 519.676 131.240   5
   4  -3  -3 412.290 133.025   1
   4   3  -3 445.214 130.119   6
   4  -3  -3 568.317 138.953   6
   4   3  -2 10487.3 574.681   6
   4  -3  -2 11397.4 631.739   1
   4  -3  -2 10328.0 547.434   6
  -4   3  -2 11107.0 599.275   5
   4   3  -1 2390.02 265.587   6
   4  -3  -1 2289.14 284.540   1
   4  -3  -1 2120.07 230.116   6
  -4   3  -1 2098.48 264.806   5
   4   3   0 16477.6 743.174   6
   4  -3   0 16588.3 804.475   1
   4  -3   0 17546.6 677.081   6
  -4   3   0 17747.4 774.600   5
   4   3   1 2299.12 263.707   6
   4  -3   1 1756.07 253.535   1
   4  -3   1 2226.78 218.910   6
  -4   3   1 1974.42 249.977   5
   4   3   2 9521.15 599.483   3
   4   3   2 10614.1 593.275   6
   4  -3   2 10182.9 629.877   1
   4  -3   2 11140.6 471.617   6
  -4   3   2 11662.4 620.644   5
   4  -3   3 632.668 124.971   2
  -4   3   3 963.175 182.261   5
   4   3   3 790.684 173.408   3
   4  -3   3 648.416 164.867   1
   4  -3   3 981.478 124.486   6
   4   3   4 2168.37 274.804   3
   4  -3   4 2051.13 283.801   1
   4  -3   4 1934.16 199.750   2
   4  -3   4 2107.31 165.764   6
  -4   3   4 2041.73 264.587   5
  -4   3   5 466.248 138.653   5
   4   3   5 535.705 151.042   3
   4   3   5 618.496 129.789   5
   4  -3   5 330.849 117.239   1
   4  -3   5 512.255 74.0386   6
   4  -3   5 427.898 94.1742   2
   4   3   6 1055.12 202.641   3
   4   3   6 1089.35 154.640   5
   4  -3   6 1013.02 81.8361   6
   4  -3   6 950.543 129.201   2
   4  -3   6 803.746 184.831   1
   4  -3   7-61.8778 103.574   1
   4   3   7 139.623 99.9273   3
  -4   3   7-8.06145 18.9050   3
   4   3   7 76.1279 65.3450   5
   4   3   8 2160.72 196.619   5
   4  -3   8 2240.38 333.758   1
   4   3   8 1968.21 270.322   3
   4   3   9 1587.57 156.784   5
   4   3   9 1975.95 273.754   3
   4  -3   9 1651.06 293.400   1
   4  -3  10 5468.57 555.416   1
   4   3  10 7990.98 558.112   3
   4   3  11 635.242 160.130   3
   4  -3  11 149.993 93.3388   1
   4  -3  12 13171.1 865.403   4
   4   3  12 13408.9 760.900   3
   4   3  13 3806.51 402.055   1
   4  -3  13 3617.94 463.295   4
   4   3  13 4457.85 439.632   3
   4   3  14 6415.35 533.181   1
   4  -3  14 6491.64 624.645   4
   4   3  14 6889.62 553.999   3
   4   3  15 469.116 151.114   3
   4  -3  15 531.006 187.311   4
   4   3  15 298.190 135.469   1
   4   3  16 2021.89 320.494   3
   4  -3  16 2112.49 368.694   4
   4   3  16 1905.93 305.314   1
   4   3  17 1250.42 264.526   1
   4   3  17 1688.07 299.214   3
   4  -3  17 1226.17 292.670   4
   4   3  18 660.481 195.041   3
   4   3  18 349.860 149.823   1
   4  -3  18 793.866 236.193   4
   4   3  19-83.1985 142.026   1
   4  -3  19 171.223 135.745   4
   4   4 -19 5000.23 475.787   6
   4   4 -18 1742.57 275.621   6
   4   4 -17 5142.59 464.220   6
   4  -4 -17 3610.42 472.504   6
  -4   4 -17 3876.40 423.378   5
   4   4 -16 3467.95 382.071   6
   4  -4 -16 3008.08 429.780   6
  -4   4 -16 3482.64 409.670   5
   4   4 -15 4653.50 426.293   6
   4  -4 -15 3346.85 454.805   6
  -4   4 -15 4040.36 439.145   5
   4   4 -14 4118.50 403.389   6
   4  -4 -14 3331.59 453.300   6
  -4   4 -14 4464.13 451.617   5
  -4   4 -13 1806.53 287.036   5
   4   4 -13 1547.42 250.197   6
   4  -4 -13 1695.66 319.226   6
   4   4 -12 5230.02 445.013   6
   4  -4 -12 5138.09 529.865   6
  -4   4 -12 4838.83 473.245   5
   4   4 -11 5393.01 444.184   6
   4  -4 -11 6348.70 573.526   6
  -4   4 -11 5570.30 505.297   5
   4   4 -10 7744.62 533.239   6
   4  -4 -10 7755.90 627.126   6
  -4   4 -10 6798.34 560.165   5
   4   4  -9 4706.77 414.460   6
   4  -4  -9 4771.36 499.543   6
  -4   4  -9 5182.98 483.679   5
   4   4  -8 9221.36 590.272   6
   4  -4  -8 9125.04 666.523   6
  -4   4  -8 9884.92 670.232   5
   4   4  -7 12909.4 694.271   6
   4  -4  -7 11834.7 751.355   6
  -4   4  -7 12359.8 759.767   5
   4   4  -6 7203.26 520.913   6
   4  -4  -6 6620.80 550.556   6
  -4   4  -6 6665.85 549.637   5
   4   4  -5 6197.96 481.501   6
   4  -4  -5 5909.09 500.827   6
  -4   4  -5 7375.97 575.800   5
   4   4  -4 9965.95 611.873   6
   4  -4  -4 9497.42 625.191   6
  -4   4  -4 10731.9 688.318   5
   4   4  -3 10685.8 637.756   6
   4  -4  -3 10291.8 644.376   6
  -4   4  -3 11421.2 707.587   5
   4   4  -2 6945.90 521.906   5
   4   4  -2 7375.98 529.379   6
   4  -4  -2 7438.24 529.725   6
  -4   4  -2 7550.11 577.500   5
   4   4  -1 3374.34 354.838   5
   4   4  -1 3205.03 361.251   6
   4  -4  -1 3374.20 338.604   6
  -4   4  -1 3771.27 396.347   5
   4   4   0 6445.82 483.734   5
   4  -4   0 6064.49 446.279   6
  -4   4   0 6189.64 514.685   5
   4   4   1 5126.97 427.559   5
   4  -4   1 5134.04 392.396   6
  -4   4   1 5662.90 489.279   5
   4   4   2 6882.17 495.459   5
   4  -4   2 7353.20 458.546   6
  -4   4   2 7838.67 569.990   5
   4   4   3 9229.23 568.612   5
   4  -4   3 10283.9 523.720   6
  -4   4   3 9950.77 651.255   5
   4   4   4 9403.08 724.064   3
   4   4   4 10467.0 598.516   5
   4  -4   4 11138.3 509.973   6
  -4   4   4 10591.8 679.598   5
   4   4   5 9008.35 705.665   3
   4   4   5 8821.63 536.344   5
   4  -4   5 9940.51 443.023   6
  -4   4   5 8553.81 607.768   5
   4   4   6 6815.20 609.105   3
   4   4   6 7238.69 470.377   5
  -4   4   6 7416.57 558.424   5
   4   4   7 10834.0 767.680   3
   4   4   7 11334.8 581.819   5
  -4   4   7 10690.7 679.488   5
   4   4   8 8386.29 678.623   3
   4   4   8 9366.89 499.041   5
  -4   4   8 8763.89 615.028   5
   4   4   9 7195.65 615.302   3
   4   4  10 8231.07 660.146   3
   4   4  11 3660.65 446.466   3
   4   4  12 5852.86 567.053   3
   4   4  13 3665.41 461.105   3
   4  -4  14 4627.68 577.238   4
   4   4  14 4918.07 521.153   3
   4   4  15 3389.94 410.788   1
   4  -4  15 3230.80 482.973   4
   4   4  15 3492.46 452.306   3
   4   4  16 4078.29 458.479   1
   4  -4  16 4014.63 536.758   4
   4   4  16 4806.22 540.457   3
   4  -4  17 5142.76 625.251   4
   4   4  17 6450.04 650.744   3
  -4   5 -16 1309.30 302.367   5
   4  -5 -16 1393.96 352.783   2
  -4   5 -15 161.740 130.494   5
   4   5 -15 579.190 176.481   6
   4  -5 -15 741.775 245.723   2
  -4   5 -14 1232.17 290.663   5
   4   5 -14 1958.87 368.470   5
   4   5 -14 2352.32 328.227   6
   4  -5 -14 1648.75 326.911   6
  -4   5 -13-4.40242 79.3996   5
   4   5 -13 42.4574 107.550   5
   4  -5 -13-183.737 124.697   6
  -4   5 -12 971.279 243.544   5
   4   5 -12 1109.97 281.140   5
   4   5 -12 833.928 209.039   6
   4  -5 -12 748.703 214.831   6
  -4   5 -11 642.068 195.894   5
   4   5 -11 806.013 223.507   5
   4   5 -11 1101.82 227.846   6
   4  -5 -11 335.114 108.791   6
  -4   5 -10 1143.17 261.842   5
   4   5 -10 888.250 240.881   5
   4   5 -10 1010.47 220.633   6
  -4   5  -9 979.150 252.096   5
   4   5  -9 1225.17 260.857   5
   4   5  -9 1309.04 245.098   6
   4  -5  -9 563.453 157.754   6
   4   5  -8 4633.62 496.131   5
   4   5  -8 5680.49 523.120   6
   4  -5  -8 4749.38 502.619   6
  -4   5  -8 5352.66 569.227   5
  -4   5  -7 1974.99 353.011   5
   4   5  -7 2093.85 330.323   5
   4   5  -7 2253.78 320.300   6
   4  -5  -7 1825.48 321.010   6
   4   5  -6 6559.49 583.029   5
   4   5  -6 7219.19 571.411   6
  -4   5  -6 7081.37 645.887   5
  -4   5  -5 1145.75 265.850   5
   4   5  -5 1189.96 245.999   5
   4   5  -5 1436.00 265.505   6
   4   5  -4 3622.03 419.827   5
  -4   5  -4 3323.98 437.678   5
  -4   5  -3 1447.82 304.685   5
   4   5  -3 1403.44 257.574   5
   4   5  -2 2347.80 336.478   5
  -4   5  -2 2062.46 361.433   5
  -4   5  -1 208.296 108.492   5
   4   5  -1 233.059 129.534   5
  -4   5   0-82.3518 121.022   5
   4   5   0 10.9972 71.2114   5
  -4   5   1 839.123 190.480   5
   4   5   1 420.907 139.253   5
   4   5   2 2172.39 304.764   5
  -4   5   2 1501.58 318.763   5
  -4   5   3 1939.30 331.404   5
   4   5   3 1873.37 276.363   5
   4   5   4 3579.49 383.847   5
  -4   5   4 3330.92 429.913   5
  -4   5   5 1255.81 275.856   5
   4   5   5 1646.10 334.088   3
   4   5   5 1574.18 252.727   5
   4   5   6 6304.78 687.717   3
   4   5   6 7108.41 510.118   5
  -4   5   6 7261.32 627.150   5
   4   5   7 2389.97 423.879   3
   4   5   7 2163.54 270.714   5
  -4   5   7 2468.74 363.027   5
   4   5   8 5921.81 669.230   3
  -4   5   8 5922.06 560.487   5
  -4   5   9 637.269 210.901   5
   4   5   9 543.875 192.565   3
  -4   5  10 269.014 160.269   5
   4   5  10 726.687 266.775   3
   4   5  11 615.718 220.879   3
   4   5  12 827.798 250.063   3
   4   5  13 444.830 225.574   3
   4   5  14 1731.40 358.600   3
  -4   6 -11 3327.08 485.801   5
   4  -6 -11 3167.14 438.226   6
   4  -6 -10 5097.40 553.838   6
  -4   6 -10 6103.58 670.938   5
  -4   6  -9 2504.67 419.232   5
   4   6  -9 1704.16 355.453   5
  -4   6  -8 589.988 211.276   5
   4   6  -8 852.174 234.774   5
  -4   6  -7 2064.85 391.884   5
   4   6  -7 2218.68 379.840   5
  -4   6  -6 2710.50 438.830   5
   4   6  -6 2785.72 405.004   5
  -4   6  -5 1665.93 352.828   5
   4   6  -5 1307.87 280.618   5
  -4   6  -4 972.818 258.885   5
   4   6  -4 707.121 221.087   5
   4   6  -3 5752.96 572.903   5
  -4   6  -3 6067.64 638.756   5
   4   6  -2 11590.0 817.793   5
  -4   6  -2 11839.6 905.922   5
   4   6  -1 4769.66 517.432   5
  -4   6  -1 5232.59 598.673   5
  -4   6   0 3.28319 104.856   5
   4   6   0 84.2848 111.199   5
   4   6   1 6214.96 573.490   5
  -4   6   1 6416.32 656.183   5
   4   6   2 11495.3 772.239   5
  -4   6   2 11885.0 897.956   5
   4   6   3 4846.12 485.400   5
  -4   6   3 5088.18 581.262   5
  -4   6   4 1198.47 300.279   5
   4   6   4 1368.51 256.656   5
  -4   6   5 1742.54 335.206   5
   4   6   5 1692.81 366.168   3
   4   6   5 1707.87 276.174   5
   4   6   6 3524.12 555.684   3
  -4   6   6 3178.47 458.465   5
  -4   6   7 1814.04 343.643   5
   4   6   7 2135.62 439.018   3
  -4   6   8 246.777 139.268   5
   4   6   8 213.852 204.584   3
  -4   6   9 2941.75 449.557   5
  -4   6  10 6407.31 657.879   5
   4   7  -1 1330.13 290.641   5
   4   7   0 408.277 180.479   5
   4   7   1 863.665 196.144   5
   4   7   2 308.814 113.977   5
   5   0 -20 18.2305 117.122   6
   5   0 -19 9177.66 664.899   6
   5   0 -18 112.211 126.818   6
   5   0 -17 8179.99 601.958   6
   5   0 -16 31.8927 75.2012   6
   5   0 -15 3352.58 364.072   6
   5   0 -14-9.31278 72.2013   6
   5   0 -13 469.748 144.386   6
   5   0 -12-56.1707 72.1558   6
   5   0 -11 553.558 141.139   6
   5   0 -10-13.7718 76.8200   6
   5   0  -9 8419.25 503.563   6
   5   0  -8-0.26334 69.5058   6
  -5   0  -8-1.06037 37.9074   6
   5   0  -7 15401.6 670.708   6
  -5   0  -7 15977.7 519.027   6
   5   0  -6 46.4500 85.6113   6
  -5   0  -6 65.6931 60.4284   6
   5   0  -5 22674.7 795.437   6
  -5   0  -5 21636.9 681.466   6
   5   0  -4-92.4023 58.2672   6
  -5   0  -4 62.9857 55.3995   6
   5   0  -3 6430.21 378.718   6
  -5   0  -3 6140.21 349.987   6
   5   0  -2 117.753 75.7123   6
  -5   0  -2-12.4938 47.2768   6
   5   0  -1 704.247 115.479   4
   5   0  -1 809.549 131.995   6
   5   0   0 12.0867 28.4573   4
   5   0   0 21.0146 46.1721   6
   5   0   1 643.399 123.280   4
   5   0   1 600.094 107.478   6
   5   0   2 33.7466 54.2190   1
   5   0   2-23.4538 49.7336   6
   5   0   2-17.1376 45.3300   4
   5   0   3 6611.21 437.308   1
   5   0   3 7060.51 363.219   6
   5   0   3 8024.80 460.727   4
   5   0   4 46.6979 48.9354   6
   5   0   4 28.2299 54.8980   4
   5   0   4 146.312 91.1223   1
   5   0   5 24454.0 754.330   6
   5   0   5 23081.5 897.441   1
   5   0   5 26665.3 954.864   4
   5   0   5 23083.1 768.950   5
   5   0   6 40.5375 33.8936   5
   5   0   6-52.4348 55.1549   6
   5   0   6 91.0229 75.2508   4
   5   0   6 31.0515 65.1582   1
   5   0   7 17665.1 801.934   1
   5   0   7 18845.7 835.702   4
   5   0   8 55.0494 52.7886   1
   5   0   9 9939.93 623.366   1
   5   0  10-57.9003 85.5748   1
   5   0  11 430.296 141.866   1
   5   0  12 37.6908 69.0912   1
   5   0  13-25.5732 121.496   1
   5   0  14 18.1562 74.5746   1
   5   0  15 4691.35 507.712   1
   5   0  16-33.9657 82.0536   1
   5   0  17 11036.2 852.827   1
   5   0  18 29.6213 106.328   1
   5   0  19 13251.1 1007.27   1
   5   0  20 230.556 162.907   1
   5   0  21 8943.21 861.504   1
   5   0  22-257.527 178.986   1
   5   1 -20 1353.09 260.914   6
   5   1 -19 318.572 145.803   6
   5  -1 -19-12.7747 129.614   6
   5   1 -18 2128.41 306.864   6
   5  -1 -18 2080.83 319.935   6
   5   1 -17 680.853 162.106   6
   5  -1 -17 965.177 221.786   6
   5   1 -16 2347.79 307.863   6
   5  -1 -16 2892.32 359.015   6
   5   1 -15 869.759 187.956   6
   5  -1 -15 1119.35 234.153   6
   5   1 -14 5205.11 435.437   6
   5  -1 -14 5767.21 487.242   6
   5  -1 -13 1061.28 133.958   1
   5   1 -13 1363.84 224.954   6
   5  -1 -13 1405.45 238.296   6
   5   1 -12 6589.32 471.642   6
   5  -1 -12 6862.18 502.933   6
   5   1 -11 2831.08 315.101   6
   5  -1 -11 3085.72 329.413   6
   5   1 -10 5045.43 397.101   6
   5  -1 -10 4843.70 407.820   6
   5   1  -9 2567.84 157.940   3
   5  -1  -9 3561.08 265.651   1
   5   1  -9 4025.17 345.394   6
   5  -1  -9 3933.18 344.393   6
   5  -1  -8 3512.54 273.947   1
   5   1  -8 4113.87 344.547   6
   5  -1  -8 3620.30 334.032   6
   5   1  -8 2866.87 173.516   3
   5   1  -7 702.362 83.9515   3
   5  -1  -7 910.712 137.740   1
   5   1  -7 852.088 159.246   6
  -5  -1  -7 859.304 121.546   6
   5  -1  -7 818.020 158.156   6
   5  -1  -6 3811.67 284.723   1
   5   1  -6 4135.63 331.794   6
   5  -1  -6 3670.94 303.533   6
   5   1  -6 2915.77 189.615   3
   5  -1  -5 1276.45 170.193   1
   5   1  -5 1405.21 190.597   6
   5  -1  -5 1124.79 166.499   6
   5   1  -5 1119.39 119.454   3
  -5   1  -4 5194.12 319.092   3
   5  -1  -4 4598.55 318.606   1
   5   1  -4 5138.49 361.933   6
   5  -1  -4 4691.14 322.861   6
   5   1  -4 4241.49 250.985   3
  -5   1  -3 4919.00 297.600   3
   5  -1  -3 4872.86 331.246   1
   5   1  -3 5067.25 351.535   6
   5  -1  -3 4505.09 316.369   6
   5   1  -3 5054.25 280.873   3
  -5   1  -2 8468.04 386.181   3
   5  -1  -2 7850.67 436.685   1
   5   1  -2 8780.68 472.995   6
   5  -1  -2 7760.89 407.228   6
   5  -1  -2 7925.94 422.379   4
   5   1  -2 7932.46 374.401   3
  -5   1  -1 1675.69 159.473   3
   5   1  -1 2314.76 229.934   6
   5  -1  -1 2519.91 247.489   1
   5  -1  -1 2128.32 200.794   6
   5  -1  -1 2131.14 224.066   4
   5   1  -1 2187.14 198.036   3
   5   1   0 9175.27 471.190   6
   5  -1   0 8615.48 486.083   1
   5  -1   0 8570.56 407.145   6
   5  -1   0 8774.51 483.403   4
   5   1   0 9593.55 438.932   3
   5   1   1 2912.69 256.924   6
   5  -1   1 2848.75 218.232   6
   5  -1   1 2527.52 260.396   1
   5  -1   1 2760.46 267.958   4
   5   1   1 3196.72 252.252   3
   5   1   2 7686.06 429.449   6
   5  -1   2 7551.10 365.159   6
   5  -1   2 8055.78 483.338   1
   5  -1   2 7553.96 467.989   4
   5   1   2 9491.48 453.040   3
   5   1   3 6113.58 378.047   6
   5  -1   3 6197.82 311.630   6
   5  -1   3 5993.05 425.226   1
   5  -1   3 6608.09 441.192   4
   5   1   3 7030.01 407.435   3
   5   1   4 4170.99 312.416   6
   5  -1   4 4250.16 244.455   6
   5  -1   4 4216.33 359.871   1
   5  -1   4 4415.45 372.337   4
   5   1   4 5226.62 352.456   3
   5   1   4 3810.50 270.007   5
   5   1   5 1703.66 200.591   6
   5  -1   5 2135.83 165.113   6
   5  -1   5 1881.96 251.367   4
   5  -1   5 1793.28 241.218   1
   5   1   5 2170.03 234.310   3
   5  -1   6 3832.16 222.671   6
   5  -1   6 3935.11 369.031   4
   5  -1   6 4225.84 370.444   1
   5   1   6 4123.93 326.294   3
   5   1   7 1077.26 167.873   3
   5  -1   7 921.247 180.361   1
   5   1   7 883.776 179.948   1
   5  -1   7 912.140 188.337   4
   5   1   8 4337.44 389.875   1
   5  -1   8 4520.63 417.013   4
   5  -1   8 4458.08 413.963   1
   5   1   9 3678.29 362.630   1
   5  -1   9 3610.31 386.884   4
   5  -1   9 3328.13 364.768   1
   5   1  10 6183.20 479.678   1
   5  -1  10 6052.25 511.940   4
   5  -1  10 6003.70 511.992   1
   5   1  11 2362.19 309.215   1
   5  -1  11 2770.72 356.686   4
   5  -1  11 2648.87 347.670   1
   5   1  12 8771.06 617.047   1
   5  -1  12 9013.93 670.231   4
   5  -1  12 9396.07 688.146   1
   5   1  13 2091.92 313.813   1
   5  -1  13 2092.65 319.794   4
   5  -1  13 2282.61 348.962   1
   5  -1  14 5771.86 587.555   1
   5  -1  14 6002.26 564.694   4
   5   1  14 6077.31 549.264   1
   5  -1  15 2608.07 407.705   1
   5   1  15 1624.20 275.412   1
   5  -1  15 2230.81 357.865   4
   5  -1  16 3075.21 447.610   1
   5  -1  16 2905.81 425.945   4
   5   1  16 3068.90 412.117   1
   5   1  17 1319.73 277.929   1
   5  -1  17 879.050 270.495   1
   5  -1  18 2878.54 465.680   1
   5   1  18 2782.99 419.723   1
   5  -1  19 258.772 182.853   1
   5   1  19 515.669 170.379   1
   5   1  20 2255.57 404.995   1
   5  -1  20 1946.05 399.598   1
   5   1  21 2360.26 437.358   1
   5  -1  21 1557.94 357.691   1
   5   1  22 4039.63 570.722   1
   5   2 -19 409.397 153.471   6
   5   2 -18 474.472 156.040   6
   5  -2 -18 287.582 129.499   6
   5   2 -17 552.346 153.962   6
   5  -2 -17 887.038 209.278   6
   5   2 -16 1965.93 295.937   6
   5  -2 -16 1592.16 289.688   6
   5   2 -15 1978.09 283.650   6
   5  -2 -15 2251.50 339.489   6
   5   2 -14 4360.96 407.476   6
   5  -2 -14 4394.64 457.865   6
   5   2 -13 3251.55 352.188   6
   5  -2 -13 3618.23 410.765   6
  -5   2 -13 3845.33 285.755   5
   5   2 -12 4623.89 407.165   6
   5  -2 -12 5322.58 477.508   6
  -5   2 -12 4652.00 316.619   5
   5   2 -11 5856.85 444.710   6
   5  -2 -11 5979.46 507.419   6
   5  -2 -11 5178.42 317.703   1
  -5   2 -11 5791.33 357.578   5
   5   2 -10 3824.47 356.862   6
   5  -2 -10 3174.44 361.974   6
   5  -2 -10 4086.13 283.953   1
  -5   2 -10 4121.07 300.910   5
   5   2  -9 2680.88 294.255   6
   5  -2  -9 2508.25 302.115   6
   5  -2  -9 2865.27 235.629   1
  -5   2  -9 2706.18 248.575   5
   5   2  -8 1640.66 226.714   6
   5  -2  -8 1689.42 184.994   1
   5  -2  -8 1477.61 225.553   6
  -5   2  -8 1749.22 199.417   5
   5   2  -7 1755.60 241.125   6
   5  -2  -7 1696.61 186.290   1
   5  -2  -7 1485.22 222.873   6
  -5   2  -7 1524.16 188.790   5
   5  -2  -6 1021.71 147.399   1
   5   2  -6 1101.83 181.442   6
   5  -2  -6 976.391 166.208   6
  -5   2  -6 1207.53 172.513   5
   5  -2  -5 880.490 140.904   1
   5   2  -5 1070.80 179.670   6
   5  -2  -5 977.276 173.571   6
  -5   2  -5 1288.19 178.499   5
   5   2  -4 1689.84 195.302   3
   5   2  -4 2429.77 260.522   6
   5  -2  -4 1939.77 233.367   6
   5  -2  -4 2193.59 229.051   1
   5   2  -3 2507.09 244.336   3
   5   2  -3 3224.81 298.623   6
   5  -2  -3 3357.48 281.904   6
   5  -2  -3 2853.23 263.685   1
  -5   2  -3 2947.37 233.000   3
   5   2  -2 4535.86 335.496   3
   5   2  -2 5354.95 392.752   6
   5  -2  -2 4897.83 335.250   6
  -5  -2  -2 4880.53 360.892   4
   5  -2  -2 5572.82 379.778   1
  -5   2  -2 4804.57 289.079   3
   5   2  -1 4923.55 345.652   3
   5   2  -1 5548.01 391.396   6
   5  -2  -1 4748.80 315.427   6
   5  -2  -1 5044.63 369.084   1
  -5   2  -1 4427.12 262.327   3
   5   2   0 6294.25 398.734   3
   5   2   0 6006.49 411.056   6
   5  -2   0 5962.53 334.065   6
   5  -2   0 5780.16 407.898   1
  -5   2   0 5002.31 266.923   3
   5   2   1 5834.51 402.540   6
   5  -2   1 4854.77 286.819   6
   5  -2   1 5144.74 393.190   1
  -5   2   1 4107.72 219.176   3
   5   2   1 4854.55 352.064   3
   5   2   2 4661.36 362.878   6
   5  -2   2 4637.46 267.494   6
   5  -2   2 5022.40 390.041   1
   5   2   2 5058.92 356.450   3
   5   2   3 3751.81 328.887   6
   5  -2   3 3562.90 225.432   6
   5  -2   3 3600.64 342.973   1
   5   2   3 3449.95 298.410   3
   5   2   4 2234.78 256.987   6
   5  -2   4 2335.41 173.511   6
   5   2   4 2758.90 271.755   3
   5  -2   4 2593.08 299.223   1
   5  -2   5 1196.01 112.616   6
   5  -2   5 1343.59 227.368   1
   5   2   5 1575.05 212.718   3
   5   2   6 1248.33 194.186   3
   5  -2   6 1167.52 99.5527   6
   5  -2   6 1158.58 217.837   4
   5  -2   6 1552.37 248.804   1
   5  -2   7 1678.92 270.602   1
   5  -2   7 1295.21 236.095   4
   5   2   7 1561.13 221.590   3
   5  -2   8 1821.92 289.026   1
   5  -2   8 1625.86 272.206   4
   5   2   8 2018.05 267.453   3
   5  -2   9 4051.68 442.460   1
   5  -2   9 3020.21 373.556   4
   5   2   9 2921.84 315.742   3
   5  -2  10 4905.45 500.838   1
   5   2  10 4788.15 437.370   1
   5  -2  10 4715.21 475.067   4
   5   2  10 5125.56 426.511   3
   5  -2  11 5831.89 560.643   1
   5   2  11 5032.48 467.832   1
   5  -2  11 5647.39 534.176   4
   5   2  11 6350.57 484.159   3
   5  -2  12 5684.02 573.167   1
   5   2  12 5081.28 468.264   1
   5  -2  12 5721.38 548.066   4
   5   2  12 5140.50 452.289   3
   5  -2  13 5715.86 582.355   1
   5   2  13 4669.58 467.280   1
   5  -2  13 5420.45 553.237   4
   5   2  13 4598.50 433.269   3
   5  -2  14 4666.73 554.577   1
   5   2  14 4904.20 488.534   1
   5  -2  14 5194.85 551.779   4
   5  -2  15 2503.35 427.512   1
   5   2  15 2563.71 373.065   1
   5  -2  15 2395.24 388.033   4
   5   2  16 2521.71 368.799   1
   5  -2  16 2577.84 405.076   4
   5  -2  16 1880.60 375.292   1
   5  -2  17 680.476 253.922   1
   5   2  17 457.805 136.840   1
   5  -2  17 524.168 201.438   4
   5  -2  18 370.652 198.437   1
   5   2  18 702.661 207.867   1
   5  -2  18 371.756 142.501   4
   5  -2  19 503.923 192.968   1
   5   2  19 655.149 226.016   1
   5   2  20 610.873 218.440   1
   5   2  21 2127.90 384.720   1
   5   3 -17 5411.09 490.516   6
   5  -3 -17 5402.42 577.102   6
   5   3 -16 443.750 157.680   6
   5  -3 -16 499.767 200.039   6
   5   3 -15 2578.12 327.382   6
   5  -3 -15 2702.19 404.396   6
  -5   3 -14 490.870 121.615   5
   5   3 -14 274.578 124.001   6
   5  -3 -14 326.214 176.941   6
  -5   3 -13 540.216 125.508   5
   5   3 -13 562.133 143.473   6
   5  -3 -13 449.417 180.008   6
  -5   3 -12 145.102 95.2850   5
   5   3 -12 211.578 112.627   6
   5  -3 -12 217.372 131.171   6
  -5   3 -11 374.034 101.328   5
   5   3 -11 286.596 112.829   6
   5  -3 -11 448.439 165.780   6
  -5   3 -10 244.985 104.853   5
   5   3 -10 105.428 65.3382   6
   5  -3 -10 167.641 120.019   6
   5   3  -9 4226.62 395.197   6
   5  -3  -9 5265.03 497.735   6
  -5   3  -9 4583.24 378.947   5
  -5   3  -8 1205.87 194.991   5
   5  -3  -8 1174.34 219.083   1
   5   3  -8 1019.42 201.824   6
   5  -3  -8 1279.38 247.146   6
   5  -3  -7 9526.99 604.816   1
   5   3  -7 8527.94 547.044   6
   5  -3  -7 9054.85 619.922   6
  -5   3  -7 7951.78 517.551   5
  -5   3  -6 1224.85 208.332   5
   5   3  -6 1381.24 231.194   6
   5  -3  -6 1642.82 256.576   6
   5  -3  -6 1094.47 211.031   1
   5  -3  -5 11502.8 654.415   1
   5   3  -5 10050.7 598.894   6
   5  -3  -5 10537.4 641.864   6
  -5   3  -5 10797.2 610.224   5
  -5   3  -4 1399.45 220.419   5
   5   3  -4 996.149 193.108   6
   5  -3  -4 1133.48 215.073   1
   5  -3  -4 926.031 175.695   6
   5  -3  -3 4997.29 428.983   1
   5   3  -3 5731.27 442.083   6
   5  -3  -3 4754.35 389.194   6
  -5   3  -3 5261.03 417.842   5
  -5   3  -2 579.498 148.600   5
   5  -3  -2 284.445 123.057   1
   5   3  -2 451.847 136.702   6
   5  -3  -2 611.775 140.362   6
  -5   3  -1 498.237 140.473   5
   5   3  -1 633.958 164.123   3
   5  -3  -1 669.260 178.918   1
   5   3  -1 980.877 186.081   6
   5  -3  -1 896.476 160.801   6
  -5   3   0 58.9755 70.4597   5
   5   3   0-34.4539 78.7937   3
   5   3   0 91.9046 70.5899   6
   5  -3   0 99.7022 89.1612   1
   5  -3   0 69.2765 45.2884   6
  -5   3   1 1189.55 212.671   5
   5   3   1 1208.31 211.420   3
   5   3   1 1282.86 209.872   6
   5  -3   1 969.741 197.014   1
   5  -3   1 1000.99 142.468   6
   5   3   2 293.355 119.086   3
   5   3   2 429.527 126.633   6
   5  -3   2 418.836 90.6258   6
   5  -3   2 409.246 156.675   1
   5   3   3 4368.05 410.271   3
   5  -3   3 4455.26 443.721   1
   5  -3   3 4875.87 279.016   6
   5   3   4 732.856 173.346   3
   5  -3   4 988.911 114.262   6
   5  -3   4 990.418 214.394   1
   5  -3   5 8910.28 649.919   1
   5   3   5 10172.8 635.878   3
   5  -3   6 1387.42 264.450   1
   5   3   6 1402.01 235.761   3
   5   3   6 1689.70 216.179   5
   5   3   7 9500.18 492.176   5
   5  -3   7 8889.36 679.837   1
   5   3   7 8437.16 588.491   3
   5   3   8 1375.63 242.113   3
   5  -3   8 652.807 220.289   1
   5  -3   9 3840.22 464.577   1
   5   3   9 4712.22 439.467   3
   5   3  10 329.638 142.533   3
   5  -3  10 189.824 85.3705   4
   5  -3  10 238.164 94.3774   1
   5   3  11 300.962 129.378   3
   5  -3  11 286.365 154.971   1
   5  -3  11 302.450 149.473   4
   5   3  12 246.016 134.763   3
   5  -3  12-3.92198 143.343   1
   5  -3  12 185.423 129.078   4
   5   3  13 455.383 153.552   3
   5  -3  13 354.596 159.886   1
   5   3  13 596.152 180.525   1
   5  -3  13 542.964 192.759   4
   5   3  14 120.123 93.8816   3
   5  -3  14 68.3272 104.008   4
   5   3  14 249.899 127.505   1
   5   3  15 2901.02 404.082   1
   5  -3  15 2568.76 421.197   4
   5   3  15 3244.04 420.748   3
   5   3  16 594.756 183.685   3
   5  -3  16 889.703 283.468   4
   5   3  16 554.480 193.881   1
   5   3  17 6888.42 649.087   1
   5  -3  17 6483.77 698.545   4
   5   3  17 6892.19 624.321   3
   5   3  18 1088.77 278.878   1
   5   3  19 6309.99 640.394   1
   5   4 -15 1368.34 267.867   6
   5  -4 -15 1005.11 273.096   6
   5   4 -14 3952.99 410.534   6
   5  -4 -14 4403.11 535.393   6
  -5   4 -14 3261.61 383.087   5
  -5   4 -13 279.595 136.284   5
   5   4 -13 481.839 170.314   6
   5  -4 -13 459.625 218.399   6
   5   4 -12 4447.83 449.421   6
   5  -4 -12 4934.03 561.988   6
  -5   4 -12 3730.78 401.854   5
  -5   4 -11 180.370 66.2771   5
   5   4 -11 779.716 190.532   6
   5  -4 -11 582.540 216.288   6
   5   4 -10 3399.51 381.129   6
   5  -4 -10 3608.01 460.488   6
  -5   4 -10 2899.54 361.578   5
  -5   4  -9 1119.95 232.277   5
   5   4  -9 1063.39 214.051   6
   5  -4  -9 1167.90 277.052   6
  -5   4  -8 1020.08 212.152   5
   5   4  -8 984.210 213.833   6
   5  -4  -8 1153.02 255.479   6
  -5   4  -7 245.120 112.559   5
   5   4  -7 226.581 117.115   6
   5  -4  -7 307.056 127.795   6
   5   4  -6 2946.55 356.117   6
   5  -4  -6 3138.24 385.311   6
  -5   4  -6 2885.06 371.052   5
  -5   4  -5 1017.38 233.662   5
   5   4  -5 769.636 190.907   6
   5  -4  -5 1065.98 233.773   6
  -5   4  -4 1717.41 286.238   5
   5   4  -4 2116.85 307.335   6
   5  -4  -4 2111.80 318.096   6
   5   4  -3 1702.07 278.278   6
   5  -4  -3 2049.56 290.671   6
  -5   4  -3 2102.45 323.329   5
   5   4  -2 6319.85 524.324   6
   5  -4  -2 6901.50 533.716   6
  -5   4  -2 6271.99 557.586   5
  -5   4  -1 663.181 191.807   5
   5   4  -1 227.858 103.361   6
   5  -4  -1 659.706 175.079   6
   5   4   0 7603.98 585.217   6
   5  -4   0 8795.24 549.302   6
  -5   4   0 8512.53 633.520   5
  -5   4   1 547.768 166.865   5
   5   4   1 454.289 183.463   3
   5   4   1 731.795 186.723   5
   5  -4   1 927.655 178.571   6
   5   4   2 5145.22 563.155   3
   5   4   2 6131.46 485.071   5
   5  -4   2 6796.58 430.110   6
  -5   4   2 6732.17 564.392   5
  -5   4   3 1864.11 305.654   5
   5   4   3 2145.39 360.070   3
   5   4   3 1904.34 261.987   5
   5   4   4 1930.13 263.615   5
   5   4   4 1949.86 331.863   3
  -5   4   4 2165.98 322.182   5
  -5   4   5 751.273 233.736   5
   5   4   5 753.207 207.615   3
   5   4   5 1131.06 200.795   5
   5   4   6 2535.84 283.376   5
   5   4   6 2344.12 373.551   3
   5   4   7 470.021 188.076   3
   5   4   8 1888.97 335.291   3
   5   4   9 1296.84 280.910   3
   5   4  10 4045.16 482.661   3
   5   4  11 529.915 222.232   3
   5  -4  12 4164.79 559.225   4
   5   4  12 4249.26 508.917   3
   5   4  13 104.954 116.009   3
   5  -4  13 490.499 201.393   4
   5   4  14 4077.13 488.023   1
   5  -4  14 3761.44 540.491   4
   5   4  14 4581.93 539.044   3
   5   4  15 1470.95 301.513   1
   5   4  16 1905.45 349.660   1
   5   4  17 893.401 259.930   1
  -5   5 -14 850.420 210.574   5
  -5   5 -13 3389.95 454.762   5
  -5   5 -12 445.983 152.580   5
   5  -5 -12 513.770 214.848   6
   5   5 -11 3974.94 521.634   5
   5  -5 -11 3951.01 527.645   6
  -5   5 -11 3421.15 466.245   5
  -5   5 -10 1328.89 293.299   5
   5   5 -10 1643.52 324.895   5
   5   5 -10 1357.80 260.930   6
   5  -5 -10 1287.37 319.929   6
  -5   5  -9 1455.77 298.202   5
   5   5  -9 1513.88 305.134   5
   5   5  -9 2162.98 338.041   6
   5  -5  -9 2134.71 387.717   6
  -5   5  -8 325.868 142.411   5
   5   5  -8 301.891 173.810   5
   5   5  -8 508.385 152.088   6
   5  -5  -8 448.392 184.991   6
  -5   5  -7 847.372 239.908   5
   5   5  -7 701.965 212.143   5
   5   5  -7 793.212 192.211   6
   5  -5  -7 1214.08 287.964   6
  -5   5  -6 64.3252 112.236   5
   5   5  -6 152.759 145.608   5
   5   5  -6 345.780 152.063   6
   5  -5  -6 139.284 97.3969   6
  -5   5  -5 74.1543 93.8037   5
   5   5  -5 102.822 114.575   5
   5   5  -5 113.224 88.9927   6
   5  -5  -5 205.453 140.158   6
  -5   5  -4 802.741 231.718   5
   5   5  -4 645.212 196.717   5
   5   5  -4 490.778 179.782   6
   5  -5  -4 171.035 108.957   6
   5   5  -3 2788.87 377.504   5
   5  -5  -3 3415.14 443.990   6
  -5   5  -3 3956.99 497.959   5
  -5   5  -2 2277.30 381.768   5
   5   5  -2 1715.83 304.588   5
   5  -5  -2 2295.50 364.305   6
   5   5  -1 3764.35 429.131   5
   5  -5  -1 5294.10 510.983   6
  -5   5  -1 4560.55 528.411   5
  -5   5   0 996.800 246.062   5
   5   5   0 697.329 193.846   5
   5   5   1 4617.36 468.822   5
  -5   5   1 4944.40 569.775   5
  -5   5   2 1590.40 315.947   5
   5   5   2 818.870 278.296   3
   5   5   2 1229.91 236.755   5
   5   5   3 3392.38 378.763   5
   5   5   3 3087.89 524.393   3
  -5   5   3 3553.92 471.018   5
  -5   5   4 319.732 187.289   5
   5   5   4-11.2653 157.385   3
   5   5   4 277.104 92.1851   5
  -5   5   5 252.407 127.392   5
   5   5   5 2.59824 129.529   3
  -5   5   6 82.2314 101.554   5
   5   5   6 204.898 151.169   3
  -5   5   7 637.988 232.771   5
   5   5   7 808.720 251.809   3
   5   5   8 440.008 217.147   3
   5   5   9 1948.43 403.979   3
   5   5  10 2011.77 415.626   3
   5   5  11 4056.46 586.096   3
   5  -6  -8 1697.21 364.082   6
   5  -6  -7 1884.75 361.796   6
   5  -6  -6 1607.17 322.991   6
   5   6  -5 2274.01 380.645   5
   5  -6  -5 1443.43 326.573   6
   5   6  -4 1171.30 261.089   5
   5   6  -3 889.532 236.288   5
   5   6  -2-42.8077 136.187   5
   5   6  -1-44.8164 118.319   5
   5   6   0 410.779 157.113   5
   5   6   1 158.887 136.852   5
   5   6   2-337.022 130.965   3
   5   6   2 127.408 133.296   5
   5   6   3 907.049 339.739   3
   6   0 -17 270.840 155.611   6
   6   0 -16 3102.46 387.278   6
   6   0 -15 79.0067 102.635   6
   6   0 -14 3962.94 421.296   6
   6   0 -13 349.416 141.606   6
   6   0 -12 13806.8 752.100   6
   6   0 -11 85.2378 98.5314   6
   6   0 -10 4182.13 388.173   6
   6   0  -9-76.1243 98.2592   6
   6   0  -8 2240.13 269.589   6
   6   0  -7-75.8368 98.2716   6
   6   0  -6 632.159 148.104   6
   6   0  -5-51.0763 78.6005   6
   6   0  -4 2269.28 257.061   6
   6   0  -3 48.6905 58.2129   6
   6   0  -2 11256.1 558.478   6
   6   0  -1-6.07887 46.8128   6
   6   0   0 16180.8 761.020   1
   6   0   0 16303.9 673.183   6
   6   0   1 7.68066 65.2624   1
   6   0   1-10.0679 61.1684   6
   6   0   2 10813.4 614.792   1
   6   0   2 10365.6 509.678   6
   6   0   3 88.7090 67.5593   6
   6   0   3 26.4418 74.9352   1
   6   0   4 2209.94 224.145   6
   6   0   4 2040.26 272.730   1
   6   0   5 4.02457 53.4025   6
   6   0   5-62.9973 81.0625   1
   6   0   6 1044.67 149.332   6
   6   0   6 869.247 192.812   1
   6   0   7-67.3981 69.4949   1
   6   0   8 2466.13 325.328   1
   6   0   9 117.313 98.6111   1
   6   0  10 6163.22 538.772   1
   6   0  11-65.1995 77.3047   1
   6   0  12 15743.9 922.509   1
   6   0  13 37.1975 89.0617   1
   6   0  14 6636.15 632.069   1
   6   0  15-74.4216 99.9417   1
   6   0  16 3143.17 457.779   1
   6   0  17 346.211 171.587   1
   6   0  18 1137.34 308.682   1
   6   1 -16 6492.58 549.939   6
   6  -1 -16 6313.65 564.399   6
   6   1 -15 3017.34 377.646   6
   6  -1 -15 2343.22 331.801   6
   6   1 -14 2250.96 321.970   6
   6  -1 -14 2157.78 312.983   6
   6   1 -13 4142.61 425.237   6
   6  -1 -13 4400.90 439.238   6
   6   1 -12 6366.35 509.129   6
   6  -1 -12 6682.79 532.676   6
   6   1 -11 2077.30 287.463   6
   6  -1 -11 2081.61 283.511   6
   6  -1 -11 1628.83 197.797   1
   6  -1 -10 2405.06 247.185   1
   6   1 -10 3140.02 345.765   6
   6  -1 -10 2766.41 321.953   6
   6  -1  -9 11010.0 554.098   1
   6   1  -9 10388.2 629.167   6
   6  -1  -9 10804.3 622.712   6
   6  -1  -8 12901.5 615.894   1
   6   1  -8 12946.4 689.866   6
   6  -1  -8 11890.7 656.837   6
   6  -1  -7 9753.91 531.430   1
   6   1  -7 9050.21 557.944   6
   6  -1  -7 8771.35 547.712   6
   6  -1  -6 2040.39 241.230   1
   6   1  -6 1801.65 242.881   6
   6  -1  -6 1583.10 219.528   6
   6  -1  -5 8126.31 492.942   1
   6   1  -5 8615.19 523.121   6
   6  -1  -5 8593.50 496.835   6
   6  -1  -5 7410.61 380.505   4
   6  -1  -4 11601.0 594.388   1
   6   1  -4 11182.7 598.223   6
   6  -1  -4 9833.29 533.545   6
   6  -1  -4 10008.7 470.909   4
   6   1  -4 9350.84 422.266   3
   6   1  -3 10506.2 568.364   6
   6  -1  -3 10650.4 577.979   1
   6  -1  -3 9554.06 506.447   6
   6  -1  -3 8446.69 456.279   4
   6   1  -3 9165.05 437.395   3
   6   1  -2 4285.18 349.583   6
   6  -1  -2 4190.30 363.376   1
   6  -1  -2 4079.36 319.946   6
   6  -1  -2 4145.60 319.346   4
   6   1  -2 4174.61 292.795   3
   6   1  -1 4240.68 353.796   6
   6  -1  -1 4090.30 308.831   6
   6  -1  -1 4299.05 374.418   1
   6  -1  -1 4275.88 339.331   4
   6   1  -1 4306.05 323.654   3
   6   1   0 7538.82 464.700   6
   6  -1   0 7344.36 420.257   6
   6  -1   0 7152.58 496.040   1
   6  -1   0 7132.19 459.720   4
   6   1   0 8863.75 473.744   3
   6   1   1 3044.93 285.602   6
   6  -1   1 2619.93 243.282   6
   6  -1   1 2949.43 320.200   1
   6  -1   1 2604.98 288.902   4
   6   1   1 3272.22 291.914   3
   6   1   2 3802.08 325.572   6
   6  -1   2 3806.56 279.645   6
   6  -1   2 3797.49 363.175   1
   6  -1   2 3823.73 353.000   4
   6   1   2 4365.53 344.884   3
   6   1   3 12100.4 607.428   6
   6  -1   3 12385.5 523.018   6
   6  -1   3 14094.0 708.220   4
   6  -1   3 12875.4 702.762   1
   6   1   4 12985.8 634.232   6
   6  -1   4 13569.9 531.857   6
   6  -1   4 13134.3 713.773   4
   6  -1   4 13422.4 734.021   1
   6   1   5 6989.78 459.957   6
   6  -1   5 6591.15 350.186   6
   6  -1   5 6931.35 519.619   4
   6  -1   5 7205.21 537.027   1
   6  -1   6 1796.73 271.904   1
   6   1   6 1696.18 271.968   1
   6  -1   6 1605.64 261.618   4
   6   1   7 12309.7 714.656   1
   6  -1   7 13378.6 771.705   4
   6  -1   7 13100.3 771.158   1
   6   1   8 13994.5 779.577   1
   6  -1   8 14533.7 823.016   4
   6  -1   8 14116.9 829.581   1
   6   1   9 9299.67 636.988   1
   6  -1   9 10185.6 696.256   4
   6  -1   9 9990.02 702.155   1
   6   1  10 4135.97 426.699   1
   6  -1  10 4478.93 471.851   4
   6  -1  10 4180.03 460.364   1
   6   1  11 3874.78 433.147   1
   6  -1  11 4105.44 464.180   4
   6  -1  11 3702.23 449.511   1
   6  -1  12 7047.10 620.355   4
   6   1  12 7438.69 613.876   1
   6  -1  12 7428.22 660.216   1
   6  -1  13 4881.18 558.526   1
   6  -1  13 4157.46 488.584   4
   6   1  13 4286.56 484.242   1
   6  -1  14 2288.77 390.961   1
   6   1  14 2353.97 376.462   1
   6  -1  14 2265.11 366.885   4
   6  -1  15 5580.30 629.355   1
   6   1  15 5206.29 556.742   1
   6  -1  16 7824.89 771.943   1
   6   1  16 8886.76 763.246   1
   6  -1  17 7284.35 760.490   1
   6   1  17 7475.42 733.867   1
   6   1  18 19.2000 131.532   1
   6  -2 -16 2148.49 355.282   6
   6  -2 -15 3156.54 427.649   6
   6   2 -15 2506.51 340.415   6
   6   2 -14 1910.10 297.524   6
   6  -2 -14 2442.86 356.298   6
   6   2 -13 129.262 94.2528   6
   6  -2 -13 127.223 128.971   6
   6   2 -12 687.480 174.891   6
   6  -2 -12 1023.77 218.065   6
   6   2 -11 4038.97 401.592   6
   6  -2 -11 3682.70 400.869   6
   6   2 -10 1377.61 243.312   6
   6  -2 -10 1176.40 231.685   6
   6   2  -9 1628.07 247.840   6
   6  -2  -9 1772.27 216.329   1
   6  -2  -9 1768.41 274.851   6
   6   2  -8 3292.43 347.334   6
   6  -2  -8 3002.38 333.707   6
   6  -2  -8 3409.13 300.651   1
   6   2  -7 6312.37 483.587   6
   6  -2  -7 6070.43 462.283   6
   6  -2  -7 6489.13 429.553   1
   6   2  -6 4005.20 374.902   6
   6  -2  -6 3885.34 361.876   6
   6  -2  -6 4379.13 352.614   1
   6   2  -5 2731.71 314.561   6
   6  -2  -5 2571.63 281.762   6
   6  -2  -5 2850.55 290.436   1
   6   2  -5 2325.04 236.633   3
   6   2  -4 3714.37 358.721   6
   6  -2  -4 2974.60 286.823   6
   6  -2  -4 3709.42 338.228   1
   6   2  -4 2729.87 259.546   3
   6   2  -3 3854.88 362.228   6
   6  -2  -3 3142.81 297.209   6
   6  -2  -3 3808.93 345.504   1
   6   2  -3 2770.85 267.847   3
   6   2  -2 2682.66 305.102   6
   6  -2  -2 2515.76 254.622   6
   6  -2  -2 2453.72 289.844   1
   6   2  -2 2262.66 243.614   3
   6   2  -1 845.543 154.678   3
   6  -2  -1 690.187 160.158   1
   6   2  -1 990.547 192.679   6
   6  -2  -1 535.783 115.453   6
   6   2   0 515.120 127.024   3
   6  -2   0 500.214 141.101   1
   6   2   0 345.409 108.696   6
   6  -2   0 430.397 101.289   6
   6   2   1 946.311 173.794   3
   6  -2   1 873.215 191.391   1
   6   2   1 722.512 169.238   6
   6  -2   1 710.976 130.446   6
   6  -2   1 674.443 161.248   4
   6   2   2 2082.19 269.487   6
   6  -2   2 1968.55 198.739   6
   6  -2   2 1952.21 274.267   4
   6  -2   2 2065.91 282.424   1
   6   2   2 1969.67 246.360   3
   6   2   3 4356.61 386.352   6
   6  -2   3 4599.22 287.911   6
   6  -2   3 3984.21 400.897   4
   6  -2   3 4604.48 426.240   1
   6   2   3 4985.27 393.497   3
   6   2   4 3378.86 344.662   6
   6  -2   4 3040.72 355.533   4
   6   2   4 3234.45 330.584   3
   6  -2   4 3308.54 378.751   1
   6  -2   5 2762.19 347.449   4
   6   2   5 3140.78 325.584   3
   6  -2   5 3162.07 374.593   1
   6  -2   6 4745.61 467.093   1
   6  -2   6 4614.17 457.558   4
   6   2   6 4593.72 416.124   3
   6  -2   7 7245.37 597.136   1
   6  -2   7 6943.85 575.067   4
   6   2   7 7516.90 538.829   3
   6  -2   8 3744.56 444.173   1
   6  -2   8 3743.52 431.076   4
   6   2   8 4061.56 398.579   3
   6   2   9 1473.29 238.671   3
   6  -2   9 1376.16 277.973   1
   6   2   9 1572.92 278.768   1
   6  -2   9 1920.33 319.442   4
   6  -2  10 2739.03 403.699   1
   6   2  10 2297.65 338.713   1
   6  -2  10 2247.01 350.967   4
   6   2  10 2834.76 339.302   3
   6  -2  11 3966.67 494.957   1
   6   2  11 3220.82 393.069   1
   6  -2  11 3415.24 441.832   4
   6  -2  12 1043.41 266.233   1
   6  -2  12 1015.09 245.860   4
   6   2  12 814.364 199.607   1
   6  -2  13 252.603 172.542   1
   6  -2  13 383.342 149.359   4
   6   2  13 115.758 109.224   1
   6   2  14 1914.52 331.385   1
   6  -2  14 2001.78 354.311   4
   6  -2  14 1663.87 343.869   1
   6   2  15 3481.24 459.026   1
   6  -2  15 3890.70 549.140   1
   6  -2  15 3534.04 485.460   4
   6   2  16 2210.11 366.181   1
   6  -2  16 2305.34 407.862   4
   6   2  17 1138.32 281.422   1
   6  -3 -14 2592.34 420.541   6
   6   3 -13 2809.70 362.553   6
   6  -3 -13 2768.04 429.687   6
   6   3 -12 10491.7 702.007   6
   6  -3 -12 11486.4 829.005   6
  -6   3 -12 11725.2 620.147   5
   6   3 -11 3783.20 415.487   6
   6  -3 -11 4325.97 484.802   6
  -6   3 -11 3879.40 355.618   5
  -6   3 -10 1749.44 241.101   5
   6   3 -10 1989.22 295.819   6
   6  -3 -10 1942.94 317.274   6
   6   3  -9 4553.10 446.469   6
   6  -3  -9 4098.37 461.796   6
  -6   3  -9 3998.32 368.474   5
   6   3  -8 3114.01 367.234   6
   6  -3  -8 2548.18 351.134   6
  -6   3  -8 2690.11 299.889   5
   6   3  -7 3908.95 398.770   6
   6  -3  -7 4203.95 423.540   6
   6   3  -6 184.353 85.8723   3
   6  -3  -6 236.546 130.529   1
   6   3  -6 299.605 137.526   6
   6  -3  -6 159.626 113.213   6
   6   3  -5 4252.28 405.591   3
   6  -3  -5 4599.67 427.033   1
   6   3  -5 4840.75 441.742   6
   6  -3  -5 4492.20 422.692   6
   6   3  -4 4229.71 405.408   3
   6  -3  -4 4950.09 454.755   1
   6   3  -4 4651.05 443.307   6
   6  -3  -4 4603.56 408.017   6
   6   3  -3 8642.70 597.514   3
   6  -3  -3 10327.9 653.209   1
   6   3  -3 10814.5 668.401   6
   6  -3  -3 10803.3 599.058   6
   6   3  -2 1714.43 272.062   3
   6  -3  -2 1813.01 282.903   1
   6   3  -2 2141.86 308.918   6
   6  -3  -2 1817.22 234.339   6
   6   3  -1 8272.67 602.998   3
   6  -3  -1 10028.2 661.095   1
   6   3  -1 9686.16 643.197   6
   6  -3  -1 10505.9 539.697   6
   6  -3   0 20471.7 973.021   1
   6   3   0 22418.1 997.443   6
   6  -3   0 20140.5 760.657   6
   6   3   0 19105.8 924.969   3
   6  -3   1 11984.2 735.372   1
   6   3   1 11795.8 715.371   6
   6  -3   1 12278.1 545.885   6
   6   3   1 10953.4 680.486   3
   6   3   2 1997.19 280.295   3
   6  -3   2 2413.51 340.227   1
   6   3   2 2079.50 297.399   6
   6  -3   3 8848.08 651.552   1
   6   3   3 8539.09 604.517   3
   6  -3   4 5103.04 507.041   1
   6   3   4 4537.86 445.533   3
   6  -3   5 4915.18 505.176   1
   6   3   5 5349.33 484.213   3
   6   3   6 202.391 122.988   3
   6  -3   6-111.910 92.6733   4
   6  -3   6 350.100 155.223   1
   6  -3   7 3480.92 450.690   1
   6  -3   7 3215.16 431.589   4
   6   3   7 3591.36 404.869   3
   6  -3   8 2777.18 417.919   1
   6  -3   8 2367.30 366.174   4
   6   3   8 2903.32 363.304   3
   6  -3   9 4390.40 533.202   1
   6  -3   9 4639.42 518.837   4
   6   3   9 4877.01 482.310   3
   6   3  10 1832.78 314.333   3
   6  -3  10 1055.98 289.629   1
   6  -3  10 1638.82 311.718   4
   6   3  11 3441.39 447.978   1
   6  -3  11 4121.45 513.963   4
   6  -3  11 3213.47 484.211   1
   6   3  11 3976.23 457.740   3
   6   3  12 12357.2 851.800   1
   6  -3  12 12532.7 986.823   1
   6  -3  12 12211.6 907.802   4
   6   3  12 13392.9 860.905   3
   6   3  13 4103.50 494.776   1
   6  -3  13 3321.73 514.414   1
   6  -3  13 3264.10 480.130   4
   6   3  13 4041.89 476.489   3
   6  -3  14 2354.77 419.241   4
   6   3  14 3195.45 437.853   3
   6   3  14 2016.95 338.929   1
   6   3  15 4645.54 540.568   1
   6   3  16 3844.09 532.412   1
  -6   4 -12 82.5542 83.2586   5
   6  -4 -12-9.39973 114.376   6
  -6   4 -11 1272.01 239.314   5
   6  -4 -11 1073.64 281.801   6
  -6   4 -10 1792.32 287.485   5
   6   4 -10 1808.62 313.495   6
   6  -4 -10 1934.34 367.166   6
   6   4  -9 3435.18 414.958   6
   6  -4  -9 4421.80 543.576   6
  -6   4  -9 3612.80 416.285   5
  -6   4  -8 607.404 173.583   5
   6   4  -8 583.173 176.291   6
   6  -4  -8 902.305 256.636   6
  -6   4  -7 1830.15 292.196   5
   6   4  -7 1960.34 316.774   6
   6  -4  -7 1829.66 329.489   6
  -6   4  -6 137.264 97.1516   5
   6   4  -6-0.47033 112.437   6
   6  -4  -6 27.6100 122.701   6
   6   4  -5 4293.77 458.418   6
   6  -4  -5 5380.69 526.109   6
  -6   4  -5 5148.40 505.554   5
  -6   4  -4 1094.26 253.947   5
   6   4  -4 969.845 229.985   3
   6   4  -4 1148.58 261.294   6
   6  -4  -4 1158.70 239.987   6
   6   4  -3 2271.87 378.294   3
   6   4  -3 2401.59 344.337   6
   6  -4  -3 2261.85 310.186   6
  -6   4  -3 2765.64 365.742   5
   6   4  -2 651.955 205.538   3
   6   4  -2 839.250 208.291   6
   6  -4  -2 1010.82 211.766   6
   6   4  -1 2111.13 370.800   3
   6   4  -1 3068.56 391.346   6
  -6   4  -1 2432.15 356.598   5
   6   4   0-17.1619 135.561   3
   6   4   0 17.8150 100.224   6
   6   4   1 2527.40 406.359   3
   6   4   2 1156.97 274.184   3
   6   4   2 839.308 197.045   5
   6   4   3 2582.22 332.672   5
   6   4   3 2785.03 413.560   3
   6   4   4 639.978 197.693   3
   6   4   5 4637.20 547.256   3
   6   4   6 230.707 128.958   3
   6   4   7 2244.58 377.824   3
   6   4   8 1000.39 265.604   3
   6   4   9 3608.70 478.027   3
   6   4  10 1699.86 320.309   3
   6  -4  10 1662.76 356.136   4
   6   4  11 1300.92 297.111   3
   6  -4  11 874.203 253.296   4
   6   4  13 1372.74 319.396   1
  -6   5 -10 8269.23 723.872   5
  -6   5  -9 924.923 257.237   5
   6  -5  -9 1001.23 267.410   6
  -6   5  -8 292.772 172.104   5
   6  -5  -8 519.332 234.068   6
  -6   5  -7 452.181 197.662   5
   6  -5  -7 640.893 240.572   6
   6   5  -6 14675.9 969.509   5
  -6   5  -6 15609.6 1042.92   5
  -6   5  -5 1946.38 354.903   5
   6   5  -5 939.258 244.940   5
  -6   5  -4 453.913 192.561   5
   6   5  -4 779.222 229.325   5
  -6   5  -3 845.180 250.966   5
   6   5  -3 535.705 191.061   5
   6   5  -2 8247.46 861.380   3
  -6   5  -2 9958.42 822.451   5
  -6   5  -1 327.088 161.993   5
   6   5  -1 201.783 173.954   3
   6   5  -1 313.925 155.376   5
  -6   5   0 2413.09 417.265   5
   6   5   0 2288.01 460.776   3
   6   5   0 1686.90 296.703   5
  -6   5   1 181.322 180.728   5
   6   5   1 225.019 218.171   3
   6   5   1 138.289 156.050   5
   6   5   2 10002.6 1000.49   3
  -6   5   2 10768.2 847.076   5
   6   5   3 1500.35 377.429   3
   6   5   4 548.531 223.207   3
   6   5   5 1522.19 435.011   3
   6   5   6 17444.0 1310.05   3
   7   0 -13 837.955 202.525   6
   7   0 -12-205.798 131.573   6
   7   0 -11 740.979 186.650   6
   7   0 -10-113.514 120.316   6
   7   0  -9 3545.73 392.106   6
   7   0  -8-85.0797 97.8851   6
   7   0  -7 5488.82 463.049   6
   7   0  -6-33.0518 81.4129   6
   7   0  -5 8484.80 557.827   6
   7   0  -4 46.1684 99.9197   1
   7   0  -4 11.2640 65.5164   6
   7   0  -3 4181.73 431.954   1
   7   0  -3 4244.02 371.064   6
   7   0  -2-32.1823 92.5905   1
   7   0  -2-73.2756 56.2363   6
   7   0  -1 1482.14 211.139   6
   7   0  -1 1278.32 241.878   1
   7   0   0 115.762 67.5366   6
   7   0   0-6.47406 77.1536   1
   7   0   1 1514.35 205.734   6
   7   0   1 1235.47 246.500   1
   7   0   2-32.7343 57.8999   6
   7   0   2-74.8829 86.1978   1
   7   0   3 4826.07 374.793   6
   7   0   3 4777.07 466.849   1
   7   0   4-13.0962 90.7460   1
   7   0   5 9271.25 670.190   1
   7   0   6 49.0026 97.1461   1
   7   0   7 6310.79 563.724   1
   7   0   8 55.9462 106.053   1
   7   0   9 4179.65 473.884   1
   7   0  10-64.3136 113.041   1
   7   0  11 607.876 209.428   1
   7   0  12-146.818 194.935   1
   7  -1 -13 939.501 244.635   6
   7   1 -12 4986.69 484.318   6
   7  -1 -12 4751.52 469.549   6
   7   1 -11 991.894 205.444   6
   7  -1 -11 929.750 215.728   6
   7  -1 -10 2510.61 331.745   6
   7   1 -10 2393.06 318.954   6
   7   1  -9 1115.30 220.655   6
   7  -1  -9 945.737 210.406   6
   7  -1  -9 931.102 179.371   1
   7   1  -8 1823.11 272.857   6
   7  -1  -8 1324.88 226.318   6
   7  -1  -8 1675.89 253.947   1
   7   1  -7 180.553 70.8302   6
   7  -1  -7 397.079 129.367   6
   7  -1  -7 208.500 97.7471   1
   7   1  -6 962.325 202.742   6
   7  -1  -6 1060.60 202.060   6
   7  -1  -6 862.748 188.835   1
   7   1  -5 166.112 96.9392   6
   7  -1  -5 319.517 114.925   6
   7  -1  -5 181.092 88.3684   1
   7  -1  -4 2031.56 263.623   6
   7  -1  -4 2072.24 305.110   1
   7   1  -4 2146.28 275.158   6
   7  -1  -3 1533.09 253.029   1
   7   1  -3 1693.42 244.066   6
   7  -1  -3 1563.35 225.676   6
   7   1  -2 5318.07 428.958   6
   7  -1  -2 5366.98 405.664   6
   7  -1  -2 5249.13 484.181   1
   7  -1  -1 1199.04 235.705   1
   7   1  -1 1242.40 204.524   6
   7  -1  -1 1328.19 197.343   6
   7   1   0 6150.99 460.064   6
   7  -1   0 6185.04 414.206   6
   7  -1   0 5346.32 424.937   4
   7  -1   0 6038.51 518.853   1
   7  -1   1 1187.15 236.021   1
   7   1   1 1285.56 215.656   6
   7  -1   1 1406.95 189.913   6
   7  -1   1 1117.42 197.541   4
   7   1   2 5674.58 441.304   6
   7  -1   2 5168.11 441.754   4
   7  -1   2 5765.36 517.249   1
   7  -1   3 2032.48 316.738   1
   7   1   3 2141.37 272.816   6
   7  -1   3 2172.88 288.329   4
   7   1   3 1765.93 308.722   1
   7  -1   4 2111.54 320.123   1
   7   1   4 2387.47 302.150   6
   7   1   4 1783.20 303.600   1
   7  -1   4 1587.27 268.427   4
   7  -1   5 370.812 134.350   1
   7   1   5 259.742 94.0916   6
   7  -1   5 363.954 139.104   4
   7   1   5 324.644 146.406   1
   7  -1   6 1238.90 243.182   1
   7  -1   6 1181.20 234.136   4
   7   1   6 1151.02 251.428   1
   7  -1   7 262.407 137.488   1
   7  -1   7 424.503 146.979   4
   7   1   7 280.825 135.920   1
   7  -1   8 1871.81 313.264   1
   7  -1   8 2124.10 341.797   4
   7   1   8 2255.65 338.046   1
   7  -1   9 1059.99 266.200   1
   7  -1   9 1203.74 260.025   4
   7   1   9 973.818 244.138   1
   7   1  10 2790.26 408.457   1
   7  -1  10 3031.16 426.682   1
   7   1  11 909.023 245.487   1
   7  -1  11 1298.00 310.350   1
   7   1  12 5381.94 581.586   1
   7  -1  12 6856.08 679.804   1
   7  -2 -12 2590.38 364.110   6
   7   2 -11 2946.32 379.551   6
   7  -2 -11 3632.84 420.351   6
   7   2 -10 2401.15 333.232   6
   7  -2 -10 1889.21 306.432   6
   7   2  -9 1961.33 300.098   6
   7  -2  -9 1950.69 298.631   6
   7   2  -8 688.286 194.651   6
   7  -2  -8 971.578 199.113   6
   7   2  -7 1163.32 240.594   6
   7  -2  -7 1084.43 212.716   6
   7  -2  -6 740.550 169.431   1
   7   2  -6 971.016 227.964   6
   7  -2  -6 716.314 182.987   6
   7  -2  -5 610.647 163.786   1
   7   2  -5 610.452 168.065   6
   7  -2  -5 714.014 175.803   6
   7  -2  -4 1267.87 234.604   1
   7   2  -4 1603.22 259.174   6
   7  -2  -4 1701.64 245.505   6
   7  -2  -3 1263.49 237.914   1
   7   2  -3 2047.48 285.576   6
   7  -2  -3 1958.72 247.609   6
   7   2  -2 3758.14 383.654   6
   7  -2  -2 3420.55 320.081   6
   7  -2  -2 3440.70 387.955   1
   7   2  -1 2529.31 322.105   6
   7  -2  -1 2677.82 273.446   6
   7  -2  -1 2221.40 282.284   4
   7  -2  -1 2974.89 365.317   1
   7   2   0 2996.30 345.137   6
   7  -2   0 2983.01 344.660   4
   7  -2   0 3378.62 402.916   1
   7   2   1 2981.36 343.095   6
   7  -2   1 3077.95 354.797   4
   7  -2   1 2916.24 369.831   1
   7   2   2 3170.04 354.930   6
   7  -2   2 2580.81 340.316   4
   7   2   2 2905.46 322.817   3
   7  -2   2 2938.66 376.095   1
   7   2   3 3219.12 357.144   6
   7  -2   3 2477.32 335.865   4
   7  -2   3 2627.59 365.288   1
   7   2   3 3044.48 343.751   3
   7   2   4 1360.07 244.003   3
   7   2   4 1176.40 226.374   6
   7  -2   4 1436.13 261.156   4
   7  -2   4 1500.76 290.106   1
   7   2   5 957.570 207.435   3
   7  -2   5 725.300 183.362   4
   7  -2   5 708.268 227.025   1
   7   2   6 609.736 187.857   3
   7  -2   6 550.260 177.791   4
   7  -2   6 391.684 165.789   1
   7   2   7 572.082 222.528   1
   7  -2   7 762.083 198.017   4
   7  -2   7 944.475 246.088   1
   7  -2   8 1592.21 320.025   1
   7   2   8 1269.36 265.386   1
   7  -2   8 1280.57 272.702   4
   7  -2   9 2601.14 416.615   1
   7  -2   9 1997.89 338.109   4
   7   2   9 2166.96 354.391   1
   7  -2  10 3393.06 479.489   1
   7  -2  10 3324.65 451.133   4
   7   2  10 2598.02 401.027   1
   7   2  11 3277.76 454.502   1
   7  -2  11 3546.86 471.976   4
   7  -2  12 2973.42 448.094   4
   7  -3 -11 253.428 218.828   6
   7  -3 -10 261.240 157.573   6
   7  -3  -9 3057.20 413.957   6
   7   3  -8 1024.15 229.298   6
   7  -3  -8 477.671 160.370   6
   7   3  -7 5993.44 529.692   6
   7  -3  -7 5862.65 514.586   6
   7   3  -6 1100.67 238.944   6
   7  -3  -6 708.185 170.063   6
   7   3  -5 6949.21 571.002   6
   7  -3  -5 5785.15 481.121   6
   7  -3  -4 446.284 193.361   1
   7   3  -4 689.408 189.823   6
   7  -3  -4 653.177 165.808   6
   7  -3  -3 1989.98 313.303   1
   7   3  -3 2714.37 362.959   6
   7  -3  -2 254.729 129.184   1
   7   3  -2 203.901 113.318   6
   7  -3  -1 469.668 171.541   1
   7   3  -1 71.7571 99.4328   6
   7  -3   0 328.410 138.458   1
   7   3   0 137.783 89.2831   6
   7   3   1 303.983 126.937   3
   7  -3   1 402.341 181.466   1
   7   3   1 351.251 127.440   6
   7  -3   1 445.181 143.355   4
   7   3   2 361.972 150.304   3
   7  -3   2 271.982 168.150   1
   7   3   2 163.963 113.112   6
   7  -3   2 265.746 128.404   4
   7   3   3 1904.58 292.166   3
   7  -3   3 2403.86 393.790   1
   7  -3   3 1814.14 321.700   4
   7   3   4 585.118 182.598   3
   7  -3   4 467.030 187.800   1
   7  -3   4 642.100 202.435   4
   7  -3   5 6512.50 660.472   1
   7  -3   5 5551.82 572.246   4
   7   3   5 6107.16 559.377   3
   7   3   6 1064.07 256.246   3
   7  -3   6 1418.30 287.527   4
   7  -3   6 862.555 251.336   1
   7  -3   7 5997.25 645.217   1
   7  -3   7 4783.23 542.229   4
   7   3   7 5206.29 530.210   3
   7  -3   8 973.051 276.637   1
   7   3   8 1231.29 275.696   3
   7  -3   8 669.456 218.081   4
   7  -3   9 2733.97 427.956   4
   7   3   9 3654.43 448.290   3
   7   3  10 264.744 145.551   3
   7  -3  10 362.560 186.155   4
   7   3  11 30.6522 88.9413   3
   7  -4  -8 1200.63 298.648   6
   7  -4  -7 27.7207 121.297   6
   7   4  -2 2635.75 393.455   6
   7  -4  -1-199.260 136.040   1
   7   4  -1 131.406 139.726   6
   7  -4   0 2209.15 362.127   1
   7  -4   1 187.454 179.912   1
   7   4   1 264.559 153.264   3
   7   4   2 2166.13 384.439   3
   7  -4   2 1424.63 336.945   1
   7   4   3 946.013 268.639   3
   7  -4   3 763.962 237.164   1
   7   4   4 1835.83 367.386   3
   7  -4   4 859.455 250.302   1
   7   4   5 452.378 201.365   3
   7  -4   5 181.495 169.787   4
   7   4   6 2206.42 401.133   3
   7  -4   6 1942.19 372.701   4
   7   4   7-91.0642 190.130   3
   8   0  -8 5978.24 579.800   1
   8   0  -8 5916.76 515.035   6
   8   0  -7 76.4314 92.1220   6
   8   0  -7-132.713 138.736   1
   8   0  -6 1542.65 248.939   6
   8   0  -6 2045.95 332.291   1
   8   0  -5 175.314 116.763   6
   8   0  -5 102.159 120.432   1
   8   0  -4 12519.7 819.777   1
   8   0  -4 10765.4 661.609   6
   8   0  -3 22.1314 117.907   6
   8   0  -3-64.8050 79.1729   1
   8   0  -2 341.362 160.111   6
   8   0  -2 120.225 110.284   1
   8   0  -1 99.7070 122.486   6
   8   0  -1 27.1961 111.806   1
   8   0   0 38470.3 1535.44   1
   8   0   1 56.4003 103.149   1
   8   0   2 372.910 168.889   1
   8   0   3 185.322 144.003   1
   8   0   4 13345.6 881.108   1
   8  -1  -8 770.022 205.366   6
   8   1  -7 3287.17 392.434   6
   8  -1  -7 3196.26 368.821   6
   8  -1  -6 308.142 156.344   1
   8   1  -6 331.934 149.362   6
   8  -1  -6 310.067 148.830   6
   8  -1  -5 3381.36 419.014   1
   8   1  -5 2949.31 355.826   6
   8  -1  -5 3339.15 362.782   6
   8  -1  -4 1550.63 292.623   1
   8   1  -4 1314.80 261.103   6
   8  -1  -4 1084.80 212.159   6
   8  -1  -3 2297.99 357.459   1
   8   1  -3 2650.12 344.763   6
   8  -1  -3 2433.23 297.858   6
   8  -1  -2 961.656 220.670   1
   8   1  -2 609.517 175.776   6
   8  -1  -1 1046.35 244.764   1
   8   1  -1 1475.77 284.798   1
   8   1  -1 822.188 184.740   6
   8  -1   0 455.760 181.417   1
   8   1   0 151.267 107.969   6
   8   1   0 165.386 134.041   1
   8  -1   1 1787.90 328.151   1
   8   1   1 1070.26 212.326   6
   8   1   1 1344.78 293.127   1
   8  -1   2 533.477 175.084   1
   8   1   2 516.067 167.781   1
   8  -1   3 2931.39 427.904   1
   8  -1   4 1988.59 355.017   1
   8  -2  -8 886.679 238.229   6
   8  -2  -7 4428.92 455.470   6
   8  -2  -6 3967.65 415.772   6
   8   2  -5 6056.85 546.731   6
   8   2  -4 377.167 163.085   6
   8   2  -3 5841.22 526.359   6
   8  -2  -3 5911.10 564.802   1
   8  -2  -2 2988.70 407.304   1
   8   2  -2 2703.26 359.421   6
   8   2  -1 3597.51 414.521   6
   8  -2  -1 3840.93 477.708   1
   8   2   0 212.903 128.193   6
   8  -2   0-4.60765 75.2029   1
   8   2   1 2365.39 337.387   6
   8  -2   1 2894.79 406.813   1
   8   2   2 2224.37 315.655   6
   8  -2   2 2155.72 377.470   1
   8  -2   3 8352.02 740.798   1
   8  -2   6 4302.89 500.247   4
   8  -2   7 5724.99 588.993   4
   8  -2   8 723.593 177.836   4
   8  -3   0 5635.75 618.598   1
   8  -3   1 846.595 275.468   1
   8   3   1 542.042 178.732   6
   0   0   0    0.00    0.00   0
;
_shelx_hkl_checksum              73091
_olex2_submission_special_instructions 'No special instructions were received'
_oxdiff_exptl_absorpt_empirical_details
;
Empirical correction (ABSPACK) includes:
- Absorption correction using spherical harmonics
- Frame scaling
;
_oxdiff_exptl_absorpt_empirical_full_max 2.412
_oxdiff_exptl_absorpt_empirical_full_min 0.619
loop_
_space_group_symop_operation_xyz
'x, y, z'
'-x+1/2, -y, z+1/2'
'x+1/2, -y, z+1/2'
'-x, y, z'
loop_
_atom_site_label
_atom_site_type_symbol
_atom_site_fract_x
_atom_site_fract_y
_atom_site_fract_z
_atom_site_U_iso_or_equiv
_atom_site_adp_type
_atom_site_occupancy
_atom_site_site_symmetry_order
_atom_site_calc_flag
_atom_site_refinement_flags_posn
_atom_site_refinement_flags_adp
_atom_site_refinement_flags_occupancy
_atom_site_disorder_assembly
_atom_site_disorder_group
U1 U 0.500000 0.18580(14) 0.60649(4) 0.0128(2) Uani 1 2 d S T P . .
Se1 Se 0.000000 -0.1408(4) 0.52735(10) 0.0142(5) Uani 1 2 d S T P . .
Se2 Se 1.000000 0.5103(4) 0.69011(10) 0.0134(4) Uani 1 2 d S T P . .
Cu1 Cu -0.2503(2) 0.6035(3) 0.36180(10) 0.0071(4) Uani 1 1 d . . . . .
Cu2 Cu 0.000000 0.1082(4) 0.35389(14) 0.0060(4) Uani 1 2 d S T P . .
Cu3 Cu -0.500000 0.0985(4) 0.35617(14) 0.0055(4) Uani 1 2 d S T P . .
O1 O 0.500000 0.464(3) 0.5578(8) 0.020(3) Uani 1 2 d S T P . .
O2 O 0.500000 -0.083(3) 0.6553(7) 0.020(3) Uani 1 2 d S T P . .
O3 O 0.2202(18) 0.062(2) 0.5343(6) 0.018(2) Uani 1 1 d . . . . .
O4 O 0.000000 -0.203(3) 0.4420(7) 0.008(3) Uani 1 2 d S T P . .
O5 O 0.778(2) 0.314(2) 0.6821(7) 0.022(3) Uani 1 1 d . . . . .
O6 O 1.000000 0.559(3) 0.7757(8) 0.011(3) Uani 1 2 d S T P . .
O7 O -0.2543(19) 0.274(2) 0.4023(5) 0.010(2) Uani 1 1 d D . . . .
H7 H -0.26(3) 0.25(4) 0.449(2) 0.015 Uiso 1 1 d D U . . .
O8 O -0.500000 0.719(3) 0.4141(7) 0.008(3) Uani 1 2 d DS T P . .
H8 H -0.500000 0.64(4) 0.459(6) 0.012 Uiso 1 2 d DS U P . .
O9 O 0.000000 0.487(3) 0.3084(8) 0.010(3) Uani 1 2 d DS T P . .
H9 H 0.07(3) 0.58(3) 0.269(10) 0.014 Uiso 0.5 1 d D U P . .
O10 O -0.2474(14) -0.0743(18) 0.3120(6) 0.0082(19) Uani 1 1 d D . . . .
H10 H -0.29(3) -0.09(3) 0.268(4) 0.012 Uiso 1 1 d D U . . .
loop_
_atom_site_aniso_label
_atom_site_aniso_U_11
_atom_site_aniso_U_22
_atom_site_aniso_U_33
_atom_site_aniso_U_23
_atom_site_aniso_U_13
_atom_site_aniso_U_12
U1 0.0106(3) 0.0206(4) 0.0073(3) -0.0032(3) 0.000 0.000
Se1 0.0126(9) 0.0213(12) 0.0085(10) 0.0025(8) 0.000 0.000
Se2 0.0119(8) 0.0196(12) 0.0086(9) 0.0018(8) 0.000 0.000
Cu1 0.0045(7) 0.0054(8) 0.0116(9) 0.0009(6) 0.0010(6) 0.0008(6)
Cu2 0.0029(9) 0.0040(11) 0.0110(11) -0.0007(9) 0.000 0.000
Cu3 0.0026(9) 0.0041(11) 0.0098(10) -0.0012(9) 0.000 0.000
O1 0.014(7) 0.027(10) 0.020(8) 0.004(7) 0.000 0.000
O2 0.028(8) 0.025(9) 0.006(7) 0.004(6) 0.000 0.000
O3 0.015(4) 0.029(7) 0.011(5) -0.008(5) 0.000(4) -0.005(5)
O4 0.013(7) 0.006(7) 0.006(7) -0.002(5) 0.000 0.000
O5 0.023(6) 0.028(7) 0.017(6) -0.006(5) -0.001(5) -0.004(5)
O6 0.010(7) 0.012(7) 0.011(7) -0.003(6) 0.000 0.000
O7 0.011(5) 0.006(6) 0.012(5) -0.004(4) 0.000(4) -0.002(4)
O8 0.008(6) 0.009(7) 0.007(7) -0.003(5) 0.000 0.000
O9 0.009(6) 0.013(7) 0.007(6) 0.002(5) 0.000 0.000
O10 0.008(4) 0.005(5) 0.011(5) -0.003(4) -0.005(4) -0.001(3)
loop_
_atom_type_symbol
_atom_type_description
_atom_type_scat_dispersion_real
_atom_type_scat_dispersion_imag
_atom_type_scat_source
Cu Cu 0.3201 1.2651 'International Tables Vol C Tables 4.2.6.8 and 6.1.1.4'
H H 0.0000 0.0000 'International Tables Vol C Tables 4.2.6.8 and 6.1.1.4'
O O 0.0106 0.0060 'International Tables Vol C Tables 4.2.6.8 and 6.1.1.4'
Se Se -0.0929 2.2259 'International Tables Vol C Tables 4.2.6.8 and 6.1.1.4'
U U -9.6767 9.6646 'International Tables Vol C Tables 4.2.6.8 and 6.1.1.4'
loop_
_exptl_crystal_face_index_h
_exptl_crystal_face_index_k
_exptl_crystal_face_index_l
_exptl_crystal_face_perp_dist
-3 1 25 0.0213
-8 0 1 0.0487
8 0 5 0.0396
-2 5 19 0.0250
1 7 -11 0.0187
2 -4 -21 0.0323
-1 -7 10 0.0219
loop_
_geom_angle_atom_site_label_1
_geom_angle_atom_site_label_2
_geom_angle_atom_site_label_3
_geom_angle
_geom_angle_site_symmetry_1
_geom_angle_site_symmetry_3
O1 U1 O3 87.0(5) . 4_655
O1 U1 O3 87.0(5) . .
O1 U1 O5 93.3(5) . .
O1 U1 O5 93.3(5) . 4_655
O2 U1 O1 179.0(8) . .
O2 U1 O3 93.6(5) . .
O2 U1 O3 93.6(5) . 4_655
O2 U1 O5 86.1(5) . 4_655
O2 U1 O5 86.1(5) . .
O3 U1 O3 94.7(5) . 4_655
O3 U1 O5 178.5(4) . .
O3 U1 O5 178.5(4) 4_655 4_655
O3 U1 O5 86.8(4) . 4_655
O3 U1 O5 86.8(4) 4_655 .
O5 U1 O5 91.8(6) . 4_655
O3 Se1 O3 98.5(8) . 4
O4 Se1 O3 102.1(5) . .
O4 Se1 O3 102.1(5) . 4
O5 Se2 O5 100.7(8) . 4_755
O6 Se2 O5 100.9(5) . .
O6 Se2 O5 100.9(5) . 4_755
O4 Cu1 Cu1 51.4(2) 1_565 4
O4 Cu1 O6 175.0(5) 1_565 2_564
O6 Cu1 Cu1 128.5(2) 2_564 4
O7 Cu1 Cu1 90.7(3) . 4
O7 Cu1 O4 99.9(5) . 1_565
O7 Cu1 O6 85.0(5) . 2_564
O7 Cu1 O10 174.9(5) . 1_565
O8 Cu1 Cu1 141.5(3) . 4
O8 Cu1 O4 90.2(4) . 1_565
O8 Cu1 O6 89.9(4) . 2_564
O8 Cu1 O7 95.5(6) . .
O8 Cu1 O9 179.5(5) . .
O8 Cu1 O10 87.5(5) . 1_565
O9 Cu1 Cu1 38.9(3) . 4
O9 Cu1 O4 90.2(4) . 1_565
O9 Cu1 O6 89.7(4) . 2_564
O9 Cu1 O7 84.6(5) . .
O9 Cu1 O10 92.4(5) . 1_565
O10 Cu1 Cu1 89.5(2) 1_565 4
O10 Cu1 O4 84.1(4) 1_565 1_565
O10 Cu1 O6 90.9(4) 1_565 2_564
O7 Cu2 O4 90.5(4) . .
O7 Cu2 O4 90.5(4) 4 .
O7 Cu2 O7 98.6(6) . 4
O7 Cu2 O9 75.5(4) . .
O7 Cu2 O9 75.5(4) 4 .
O9 Cu2 O4 158.2(5) . .
O10 Cu2 O4 85.0(4) 4 .
O10 Cu2 O4 85.0(4) . .
O10 Cu2 O7 175.5(5) . 4
O10 Cu2 O7 175.5(5) 4 .
O10 Cu2 O7 81.7(4) 4 4
O10 Cu2 O7 81.7(4) . .
O10 Cu2 O9 108.8(4) . .
O10 Cu2 O9 108.8(4) 4 .
O10 Cu2 O10 97.7(6) 4 .
Cu3 Cu3 Cu2 0(10) 4_455 1_455
Cu3 Cu3 O7 0(10) 4_455 4_455
Cu3 Cu3 O7 0(10) 4_455 .
Cu3 Cu3 O8 0(10) 4_455 1_545
Cu3 Cu3 O10 0(10) 4_455 4_455
Cu3 Cu3 O10 0(10) 4_455 .
O7 Cu3 Cu2 137.9(3) . 1_455
O7 Cu3 Cu2 41.7(3) 4_455 1_455
O7 Cu3 O7 96.3(7) . 4_455
O7 Cu3 O8 103.4(4) 4_455 1_545
O7 Cu3 O8 103.4(4) . 1_545
O7 Cu3 O10 82.1(4) . .
O7 Cu3 O10 82.1(4) 4_455 4_455
O7 Cu3 O10 178.3(5) . 4_455
O7 Cu3 O10 178.3(5) 4_455 .
O8 Cu3 Cu2 91.30(6) 1_545 1_455
O10 Cu3 Cu2 40.5(3) 4_455 1_455
O10 Cu3 Cu2 139.9(3) . 1_455
O10 Cu3 O8 76.6(4) . 1_545
O10 Cu3 O8 76.6(4) 4_455 1_545
O10 Cu3 O10 99.5(6) . 4_455
Se1 O3 U1 143.1(7) . .
Se1 O4 Cu1 135.9(4) . 4_545
Se1 O4 Cu1 135.9(4) . 1_545
Se1 O4 Cu2 122.2(7) . .
Cu1 O4 Cu1 77.3(4) 1_545 4_545
Cu1 O4 Cu2 82.9(4) 4_545 .
Cu1 O4 Cu2 82.9(4) 1_545 .
Se2 O5 U1 143.4(8) . .
Se2 O6 Cu1 128.0(5) . 2_565
Se2 O6 Cu1 128.0(5) . 3_665
Cu1 O6 Cu1 77.0(5) 3_665 2_565
Cu1 O7 Cu2 103.6(5) . .
Cu1 O7 H7 121(10) . .
Cu2 O7 H7 114(10) . .
Cu3 O7 Cu1 106.9(5) 4_455 .
Cu3 O7 Cu1 106.9(5) . .
Cu3 O7 Cu2 97.5(5) . .
Cu3 O7 Cu2 97.5(5) 4_455 .
Cu3 O7 Cu3 0.00(18) 4_455 .
Cu3 O7 H7 111(10) . .
Cu3 O7 H7 111(10) 4_455 .
Cu1 O8 Cu1 103.1(7) 4_455 .
Cu1 O8 Cu3 93.1(5) 4_455 1_565
Cu1 O8 Cu3 93.1(5) . 1_565
Cu1 O8 H8 108(8) . .
Cu1 O8 H8 108(9) 4_455 .
Cu3 O8 H8 145(10) 1_565 .
Cu1 O9 Cu1 102.2(7) 4 .
Cu1 O9 Cu2 96.3(5) 4 .
Cu1 O9 Cu2 96.3(5) . .
Cu1 O9 H9 85(10) 4 .
Cu1 O9 H9 124(8) . .
Cu2 O9 H9 138(9) . .
Cu1 O10 H10 110(10) 1_545 .
Cu2 O10 Cu1 105.8(5) . 1_545
Cu2 O10 Cu3 98.6(5) . 4_455
Cu2 O10 Cu3 98.6(5) . .
Cu2 O10 H10 133(10) . .
Cu3 O10 Cu1 102.8(5) 4_455 1_545
Cu3 O10 Cu1 102.8(5) . 1_545
Cu3 O10 Cu3 0.00(18) 4_455 .
Cu3 O10 H10 103(10) 4_455 .
Cu3 O10 H10 103(10) . .
loop_
_geom_bond_atom_site_label_1
_geom_bond_atom_site_label_2
_geom_bond_distance
_geom_bond_site_symmetry_2
U1 O1 1.802(18) .
U1 O2 1.757(16) .
U1 O3 2.271(11) .
U1 O3 2.271(11) 4_655
U1 O5 2.310(12) .
U1 O5 2.310(12) 4_655
Se1 O3 1.735(12) .
Se1 O3 1.735(12) 4
Se1 O4 1.664(14) .
Se2 O5 1.723(12) .
Se2 O5 1.723(12) 4_755
Se2 O6 1.653(15) .
Cu1 Cu1 2.988(3) 4
Cu1 O4 2.392(11) 1_565
Cu1 O6 2.394(12) 2_564
Cu1 O7 1.986(12) .
Cu1 O8 1.904(9) .
Cu1 O9 1.919(9) .
Cu1 O10 2.026(11) 1_565
Cu2 O4 2.409(15) .
Cu2 O7 2.002(11) .
Cu2 O7 2.002(11) 4
Cu2 O9 2.276(15) .
Cu2 O10 1.961(9) 4
Cu2 O10 1.961(9) .
Cu3 Cu3 0.000(7) 4_455
Cu3 O7 1.969(11) .
Cu3 O7 1.969(11) 4_455
Cu3 O8 2.381(15) 1_545
Cu3 O10 1.976(10) .
Cu3 O10 1.976(10) 4_455
O7 H7 0.90(3) .
O8 H8 0.97(2) .
O9 H9 1.00(3) .
O10 H10 0.89(3) .
loop_
_geom_torsion_atom_site_label_1
_geom_torsion_atom_site_label_2
_geom_torsion_atom_site_label_3
_geom_torsion_atom_site_label_4
_geom_torsion
_geom_torsion_site_symmetry_1
_geom_torsion_site_symmetry_2
_geom_torsion_site_symmetry_3
_geom_torsion_site_symmetry_4
O3 Se1 O3 U1 109.3(10) 4 . . .
O3 Se1 O4 Cu1 65.4(11) . . . 4_545
O3 Se1 O4 Cu1 166.9(9) 4 . . 4_545
O3 Se1 O4 Cu1 -166.9(9) . . . 1_545
O3 Se1 O4 Cu1 -65.4(11) 4 . . 1_545
O3 Se1 O4 Cu2 50.8(4) 4 . . .
O3 Se1 O4 Cu2 -50.8(4) . . . .
O4 Se1 O3 U1 -146.3(10) . . . .
O5 Se2 O5 U1 -105.2(11) 4_755 . . .
O5 Se2 O6 Cu1 -0.6(9) . . . 2_565
O5 Se2 O6 Cu1 0.6(9) 4_755 . . 3_665
O5 Se2 O6 Cu1 -103.9(8) 4_755 . . 2_565
O5 Se2 O6 Cu1 103.9(8) . . . 3_665
O6 Se2 O5 U1 151.3(11) . . . .
loop_
_exptl_oxdiff_crystal_face_indexfrac_h
_exptl_oxdiff_crystal_face_indexfrac_k
_exptl_oxdiff_crystal_face_indexfrac_l
_exptl_oxdiff_crystal_face_x
_exptl_oxdiff_crystal_face_y
_exptl_oxdiff_crystal_face_z
-2.6320 1.2167 25.1936 -0.0104 -0.0042 0.9999
-8.4076 0.1667 0.5799 -0.9197 0.2163 0.3277
8.2525 0.1046 5.1923 0.9666 -0.2289 -0.1150
-2.1224 5.1811 18.9871 0.1177 0.5188 0.8467
0.8673 7.0849 -11.0871 0.2241 0.9358 -0.2721
2.3067 -4.3550 -21.0966 -0.0902 -0.4047 -0.9100
-0.7693 -7.2103 10.1697 -0.2262 -0.9456 0.2339
